MODEL 1
REMARK VINA RESULT:      -8.5      0.000      0.000
REMARK SMILES Cc1cc(N=C=O)c(N)c(-n2nc3ccccc3n2)c1
REMARK SMILES IDX 3 1 4 2 8 3 10 4 20 5 2 6 1 7 5 8 6 9 7 10 9 11 11 14 12 15
REMARK SMILES IDX 19 16 13 17 18 18 14 19 17 20 15 21 16 22
REMARK H PARENT 9 12 9 13
ROOT
ATOM      1  C   UNL     1      43.059 131.889  20.730  1.00  0.00     0.035 A 
ATOM      2  C   UNL     1      44.322 131.285  20.891  1.00  0.00     0.102 A 
ATOM      3  C   UNL     1      45.097 130.977  19.750  1.00  0.00     0.086 A 
ATOM      4  C   UNL     1      44.608 131.302  18.461  1.00  0.00     0.111 A 
ATOM      5  C   UNL     1      43.337 131.882  18.329  1.00  0.00     0.036 A 
ATOM      6  C   UNL     1      42.569 132.193  19.456  1.00  0.00    -0.047 A 
ATOM      7  C   UNL     1      41.202 132.791  19.296  1.00  0.00     0.044 C 
ENDROOT
BRANCH   2   8
ATOM      8  N   UNL     1      44.829 130.951  22.196  1.00  0.00    -0.166 NA
BRANCH   8   9
ATOM      9  C   UNL     1      44.096 130.708  23.209  1.00  0.00     0.240 C 
ATOM     10  O   UNL     1      43.385 130.472  24.194  1.00  0.00    -0.211 OA
ENDBRANCH   8   9
ENDBRANCH   2   8
BRANCH   3  11
ATOM     11  N   UNL     1      46.342 130.278  19.906  1.00  0.00    -0.395 N 
ATOM     12  H   UNL     1      47.029 130.546  20.643  1.00  0.00     0.156 HD
ATOM     13  H   UNL     1      46.650 129.554  19.220  1.00  0.00     0.156 HD
ENDBRANCH   3  11
BRANCH   4  14
ATOM     14  N   UNL     1      45.395 131.085  17.279  1.00  0.00    -0.148 N 
ATOM     15  N   UNL     1      45.951 129.912  16.977  1.00  0.00    -0.148 NA
ATOM     16  N   UNL     1      45.570 132.002  16.327  1.00  0.00    -0.148 NA
ATOM     17  C   UNL     1      46.528 130.104  15.783  1.00  0.00     0.113 A 
ATOM     18  C   UNL     1      46.295 131.384  15.385  1.00  0.00     0.113 A 
ATOM     19  C   UNL     1      47.250 129.204  15.004  1.00  0.00     0.032 A 
ATOM     20  C   UNL     1      46.763 131.881  14.173  1.00  0.00     0.032 A 
ATOM     21  C   UNL     1      47.744 129.670  13.769  1.00  0.00     0.002 A 
ATOM     22  C   UNL     1      47.501 131.003  13.355  1.00  0.00     0.002 A 
ENDBRANCH   4  14
TORSDOF 4
ENDMDL
MODEL 2
REMARK VINA RESULT:      -8.3      0.583      1.422
REMARK SMILES Cc1cc(N=C=O)c(N)c(-n2nc3ccccc3n2)c1
REMARK SMILES IDX 3 1 4 2 8 3 10 4 20 5 2 6 1 7 5 8 6 9 7 10 9 11 11 14 12 15
REMARK SMILES IDX 19 16 13 17 18 18 14 19 17 20 15 21 16 22
REMARK H PARENT 9 12 9 13
ROOT
ATOM      1  C   UNL     1      43.147 131.901  21.178  1.00  0.00     0.035 A 
ATOM      2  C   UNL     1      44.333 131.141  21.203  1.00  0.00     0.102 A 
ATOM      3  C   UNL     1      44.989 130.835  19.991  1.00  0.00     0.086 A 
ATOM      4  C   UNL     1      44.464 131.317  18.767  1.00  0.00     0.111 A 
ATOM      5  C   UNL     1      43.269 132.052  18.769  1.00  0.00     0.036 A 
ATOM      6  C   UNL     1      42.618 132.361  19.968  1.00  0.00    -0.047 A 
ATOM      7  C   UNL     1      41.328 133.128  19.950  1.00  0.00     0.044 C 
ENDROOT
BRANCH   2   8
ATOM      8  N   UNL     1      44.876 130.647  22.441  1.00  0.00    -0.166 NA
BRANCH   8   9
ATOM      9  C   UNL     1      44.320 129.756  23.163  1.00  0.00     0.240 C 
ATOM     10  O   UNL     1      43.781 128.891  23.865  1.00  0.00    -0.211 OA
ENDBRANCH   8   9
ENDBRANCH   2   8
BRANCH   3  11
ATOM     11  N   UNL     1      46.146 129.984  20.006  1.00  0.00    -0.395 N 
ATOM     12  H   UNL     1      47.108 130.371  20.120  1.00  0.00     0.156 HD
ATOM     13  H   UNL     1      46.075 128.964  19.795  1.00  0.00     0.156 HD
ENDBRANCH   3  11
BRANCH   4  14
ATOM     14  N   UNL     1      45.142 131.103  17.518  1.00  0.00    -0.148 N 
ATOM     15  N   UNL     1      45.403 132.082  16.652  1.00  0.00    -0.148 NA
ATOM     16  N   UNL     1      45.655 129.931  17.145  1.00  0.00    -0.148 NA
ATOM     17  C   UNL     1      46.097 131.493  15.669  1.00  0.00     0.113 A 
ATOM     18  C   UNL     1      46.251 130.175  15.970  1.00  0.00     0.113 A 
ATOM     19  C   UNL     1      46.621 132.055  14.508  1.00  0.00     0.032 A 
ATOM     20  C   UNL     1      46.943 129.299  15.140  1.00  0.00     0.032 A 
ATOM     21  C   UNL     1      47.326 131.200  13.637  1.00  0.00     0.002 A 
ATOM     22  C   UNL     1      47.486 129.828  13.952  1.00  0.00     0.002 A 
ENDBRANCH   4  14
TORSDOF 4
ENDMDL
MODEL 3
REMARK VINA RESULT:      -7.7      1.906      3.089
REMARK SMILES Cc1cc(N=C=O)c(N)c(-n2nc3ccccc3n2)c1
REMARK SMILES IDX 3 1 4 2 8 3 10 4 20 5 2 6 1 7 5 8 6 9 7 10 9 11 11 14 12 15
REMARK SMILES IDX 19 16 13 17 18 18 14 19 17 20 15 21 16 22
REMARK H PARENT 9 12 9 13
ROOT
ATOM      1  C   UNL     1      43.746 131.624  20.364  1.00  0.00     0.035 A 
ATOM      2  C   UNL     1      43.089 131.949  19.160  1.00  0.00     0.102 A 
ATOM      3  C   UNL     1      43.759 131.767  17.930  1.00  0.00     0.086 A 
ATOM      4  C   UNL     1      45.072 131.236  17.918  1.00  0.00     0.111 A 
ATOM      5  C   UNL     1      45.711 130.942  19.132  1.00  0.00     0.036 A 
ATOM      6  C   UNL     1      45.049 131.117  20.352  1.00  0.00    -0.047 A 
ATOM      7  C   UNL     1      45.755 130.821  21.643  1.00  0.00     0.044 C 
ENDROOT
BRANCH   2   8
ATOM      8  N   UNL     1      41.755 132.490  19.160  1.00  0.00    -0.166 NA
BRANCH   8   9
ATOM      9  C   UNL     1      41.223 133.087  20.152  1.00  0.00     0.240 C 
ATOM     10  O   UNL     1      40.707 133.666  21.116  1.00  0.00    -0.211 OA
ENDBRANCH   8   9
ENDBRANCH   2   8
BRANCH   3  11
ATOM     11  N   UNL     1      43.127 132.184  16.710  1.00  0.00    -0.395 N 
ATOM     12  H   UNL     1      42.635 131.505  16.090  1.00  0.00     0.156 HD
ATOM     13  H   UNL     1      43.232 133.157  16.346  1.00  0.00     0.156 HD
ENDBRANCH   3  11
BRANCH   4  14
ATOM     14  N   UNL     1      45.761 130.954  16.689  1.00  0.00    -0.148 N 
ATOM     15  N   UNL     1      45.965 131.869  15.740  1.00  0.00    -0.148 NA
ATOM     16  N   UNL     1      46.340 129.785  16.416  1.00  0.00    -0.148 NA
ATOM     17  C   UNL     1      46.692 131.237  14.808  1.00  0.00     0.113 A 
ATOM     18  C   UNL     1      46.921 129.961  15.221  1.00  0.00     0.113 A 
ATOM     19  C   UNL     1      47.182 131.726  13.601  1.00  0.00     0.032 A 
ATOM     20  C   UNL     1      47.661 129.058  14.465  1.00  0.00     0.032 A 
ATOM     21  C   UNL     1      47.935 130.841  12.803  1.00  0.00     0.002 A 
ATOM     22  C   UNL     1      48.174 129.513  13.234  1.00  0.00     0.002 A 
ENDBRANCH   4  14
TORSDOF 4
ENDMDL
MODEL 4
REMARK VINA RESULT:      -7.4      1.868      2.787
REMARK SMILES Cc1cc(N=C=O)c(N)c(-n2nc3ccccc3n2)c1
REMARK SMILES IDX 3 1 4 2 8 3 10 4 20 5 2 6 1 7 5 8 6 9 7 10 9 11 11 14 12 15
REMARK SMILES IDX 19 16 13 17 18 18 14 19 17 20 15 21 16 22
REMARK H PARENT 9 12 9 13
ROOT
ATOM      1  C   UNL     1      43.636 131.541  20.452  1.00  0.00     0.035 A 
ATOM      2  C   UNL     1      43.033 131.899  19.229  1.00  0.00     0.102 A 
ATOM      3  C   UNL     1      43.760 131.753  18.026  1.00  0.00     0.086 A 
ATOM      4  C   UNL     1      45.073 131.226  18.059  1.00  0.00     0.111 A 
ATOM      5  C   UNL     1      45.657 130.900  19.292  1.00  0.00     0.036 A 
ATOM      6  C   UNL     1      44.940 131.038  20.485  1.00  0.00    -0.047 A 
ATOM      7  C   UNL     1      45.588 130.707  21.798  1.00  0.00     0.044 C 
ENDROOT
BRANCH   2   8
ATOM      8  N   UNL     1      41.699 132.436  19.184  1.00  0.00    -0.166 NA
BRANCH   8   9
ATOM      9  C   UNL     1      41.147 133.069  20.142  1.00  0.00     0.240 C 
ATOM     10  O   UNL     1      40.611 133.684  21.073  1.00  0.00    -0.211 OA
ENDBRANCH   8   9
ENDBRANCH   2   8
BRANCH   3  11
ATOM     11  N   UNL     1      43.182 132.203  16.790  1.00  0.00    -0.395 N 
ATOM     12  H   UNL     1      43.770 132.592  16.023  1.00  0.00     0.156 HD
ATOM     13  H   UNL     1      42.147 132.258  16.661  1.00  0.00     0.156 HD
ENDBRANCH   3  11
BRANCH   4  14
ATOM     14  N   UNL     1      45.819 130.981  16.855  1.00  0.00    -0.148 N 
ATOM     15  N   UNL     1      46.338 129.792  16.547  1.00  0.00    -0.148 NA
ATOM     16  N   UNL     1      45.986 131.885  15.890  1.00  0.00    -0.148 NA
ATOM     17  C   UNL     1      46.882 129.960  15.334  1.00  0.00     0.113 A 
ATOM     18  C   UNL     1      46.667 131.242  14.932  1.00  0.00     0.113 A 
ATOM     19  C   UNL     1      47.558 129.038  14.542  1.00  0.00     0.032 A 
ATOM     20  C   UNL     1      47.108 131.718  13.701  1.00  0.00     0.032 A 
ATOM     21  C   UNL     1      48.025 129.481  13.288  1.00  0.00     0.002 A 
ATOM     22  C   UNL     1      47.801 130.816  12.870  1.00  0.00     0.002 A 
ENDBRANCH   4  14
TORSDOF 4
ENDMDL
MODEL 5
REMARK VINA RESULT:      -7.3      3.268      6.797
REMARK SMILES Cc1cc(N=C=O)c(N)c(-n2nc3ccccc3n2)c1
REMARK SMILES IDX 3 1 4 2 8 3 10 4 20 5 2 6 1 7 5 8 6 9 7 10 9 11 11 14 12 15
REMARK SMILES IDX 19 16 13 17 18 18 14 19 17 20 15 21 16 22
REMARK H PARENT 9 12 9 13
ROOT
ATOM      1  C   UNL     1      45.100 130.668  14.365  1.00  0.00     0.035 A 
ATOM      2  C   UNL     1      46.008 130.156  15.313  1.00  0.00     0.102 A 
ATOM      3  C   UNL     1      45.795 130.408  16.687  1.00  0.00     0.086 A 
ATOM      4  C   UNL     1      44.659 131.147  17.097  1.00  0.00     0.111 A 
ATOM      5  C   UNL     1      43.784 131.664  16.130  1.00  0.00     0.036 A 
ATOM      6  C   UNL     1      43.989 131.414  14.769  1.00  0.00    -0.047 A 
ATOM      7  C   UNL     1      43.057 131.995  13.746  1.00  0.00     0.044 C 
ENDROOT
BRANCH   2   8
ATOM      8  N   UNL     1      47.165 129.403  14.908  1.00  0.00    -0.166 NA
BRANCH   8   9
ATOM      9  C   UNL     1      47.842 129.639  13.855  1.00  0.00     0.240 C 
ATOM     10  O   UNL     1      48.500 129.870  12.832  1.00  0.00    -0.211 OA
ENDBRANCH   8   9
ENDBRANCH   2   8
BRANCH   3  11
ATOM     11  N   UNL     1      46.767 129.966  17.648  1.00  0.00    -0.395 N 
ATOM     12  H   UNL     1      47.062 128.968  17.706  1.00  0.00     0.156 HD
ATOM     13  H   UNL     1      47.128 130.605  18.391  1.00  0.00     0.156 HD
ENDBRANCH   3  11
BRANCH   4  14
ATOM     14  N   UNL     1      44.355 131.356  18.486  1.00  0.00    -0.148 N 
ATOM     15  N   UNL     1      43.186 131.835  18.913  1.00  0.00    -0.148 NA
ATOM     16  N   UNL     1      45.169 131.009  19.483  1.00  0.00    -0.148 NA
ATOM     17  C   UNL     1      43.276 131.811  20.251  1.00  0.00     0.113 A 
ATOM     18  C   UNL     1      44.490 131.305  20.600  1.00  0.00     0.113 A 
ATOM     19  C   UNL     1      42.335 132.203  21.198  1.00  0.00     0.032 A 
ATOM     20  C   UNL     1      44.875 131.146  21.927  1.00  0.00     0.032 A 
ATOM     21  C   UNL     1      42.688 132.061  22.556  1.00  0.00     0.002 A 
ATOM     22  C   UNL     1      43.952 131.534  22.918  1.00  0.00     0.002 A 
ENDBRANCH   4  14
TORSDOF 4
ENDMDL
MODEL 6
REMARK VINA RESULT:      -7.0      3.284      6.743
REMARK SMILES Cc1cc(N=C=O)c(N)c(-n2nc3ccccc3n2)c1
REMARK SMILES IDX 3 1 4 2 8 3 10 4 20 5 2 6 1 7 5 8 6 9 7 10 9 11 11 14 12 15
REMARK SMILES IDX 19 16 13 17 18 18 14 19 17 20 15 21 16 22
REMARK H PARENT 9 12 9 13
ROOT
ATOM      1  C   UNL     1      45.186 130.778  14.393  1.00  0.00     0.035 A 
ATOM      2  C   UNL     1      46.092 130.291  15.355  1.00  0.00     0.102 A 
ATOM      3  C   UNL     1      45.817 130.477  16.728  1.00  0.00     0.086 A 
ATOM      4  C   UNL     1      44.622 131.127  17.122  1.00  0.00     0.111 A 
ATOM      5  C   UNL     1      43.748 131.623  16.143  1.00  0.00     0.036 A 
ATOM      6  C   UNL     1      44.015 131.436  14.782  1.00  0.00    -0.047 A 
ATOM      7  C   UNL     1      43.083 131.994  13.746  1.00  0.00     0.044 C 
ENDROOT
BRANCH   2   8
ATOM      8  N   UNL     1      47.309 129.628  14.966  1.00  0.00    -0.166 NA
BRANCH   8   9
ATOM      9  C   UNL     1      47.837 129.719  13.810  1.00  0.00     0.240 C 
ATOM     10  O   UNL     1      48.350 129.806  12.687  1.00  0.00    -0.211 OA
ENDBRANCH   8   9
ENDBRANCH   2   8
BRANCH   3  11
ATOM     11  N   UNL     1      46.782 130.064  17.708  1.00  0.00    -0.395 N 
ATOM     12  H   UNL     1      47.104 129.074  17.773  1.00  0.00     0.156 HD
ATOM     13  H   UNL     1      47.112 130.713  18.456  1.00  0.00     0.156 HD
ENDBRANCH   3  11
BRANCH   4  14
ATOM     14  N   UNL     1      44.258 131.265  18.506  1.00  0.00    -0.148 N 
ATOM     15  N   UNL     1      45.069 130.931  19.510  1.00  0.00    -0.148 NA
ATOM     16  N   UNL     1      43.120 131.820  18.920  1.00  0.00    -0.148 NA
ATOM     17  C   UNL     1      44.397 131.272  20.619  1.00  0.00     0.113 A 
ATOM     18  C   UNL     1      43.204 131.816  20.258  1.00  0.00     0.113 A 
ATOM     19  C   UNL     1      44.782 131.142  21.950  1.00  0.00     0.032 A 
ATOM     20  C   UNL     1      42.285 132.279  21.195  1.00  0.00     0.032 A 
ATOM     21  C   UNL     1      43.877 131.596  22.931  1.00  0.00     0.002 A 
ATOM     22  C   UNL     1      42.635 132.162  22.555  1.00  0.00     0.002 A 
ENDBRANCH   4  14
TORSDOF 4
ENDMDL
MODEL 7
REMARK VINA RESULT:      -5.8      1.483      1.971
REMARK SMILES Cc1cc(N=C=O)c(N)c(-n2nc3ccccc3n2)c1
REMARK SMILES IDX 3 1 4 2 8 3 10 4 20 5 2 6 1 7 5 8 6 9 7 10 9 11 11 14 12 15
REMARK SMILES IDX 19 16 13 17 18 18 14 19 17 20 15 21 16 22
REMARK H PARENT 9 12 9 13
ROOT
ATOM      1  C   UNL     1      43.248 132.044  20.062  1.00  0.00     0.035 A 
ATOM      2  C   UNL     1      44.603 131.701  20.236  1.00  0.00     0.102 A 
ATOM      3  C   UNL     1      45.372 131.312  19.117  1.00  0.00     0.086 A 
ATOM      4  C   UNL     1      44.781 131.297  17.830  1.00  0.00     0.111 A 
ATOM      5  C   UNL     1      43.423 131.621  17.689  1.00  0.00     0.036 A 
ATOM      6  C   UNL     1      42.659 132.011  18.794  1.00  0.00    -0.047 A 
ATOM      7  C   UNL     1      41.202 132.332  18.629  1.00  0.00     0.044 C 
ENDROOT
BRANCH   2   8
ATOM      8  N   UNL     1      45.215 131.713  21.539  1.00  0.00    -0.166 NA
BRANCH   8   9
ATOM      9  C   UNL     1      46.162 132.494  21.880  1.00  0.00     0.240 C 
ATOM     10  O   UNL     1      47.082 133.253  22.210  1.00  0.00    -0.211 OA
ENDBRANCH   8   9
ENDBRANCH   2   8
BRANCH   3  11
ATOM     11  N   UNL     1      46.727 130.873  19.305  1.00  0.00    -0.395 N 
ATOM     12  H   UNL     1      47.275 131.142  20.151  1.00  0.00     0.156 HD
ATOM     13  H   UNL     1      47.245 130.365  18.554  1.00  0.00     0.156 HD
ENDBRANCH   3  11
BRANCH   4  14
ATOM     14  N   UNL     1      45.545 130.990  16.652  1.00  0.00    -0.148 N 
ATOM     15  N   UNL     1      45.783 131.877  15.686  1.00  0.00    -0.148 NA
ATOM     16  N   UNL     1      46.163 129.826  16.452  1.00  0.00    -0.148 NA
ATOM     17  C   UNL     1      46.575 131.232  14.817  1.00  0.00     0.113 A 
ATOM     18  C   UNL     1      46.807 129.976  15.286  1.00  0.00     0.113 A 
ATOM     19  C   UNL     1      47.123 131.691  13.624  1.00  0.00     0.032 A 
ATOM     20  C   UNL     1      47.608 129.065  14.605  1.00  0.00     0.032 A 
ATOM     21  C   UNL     1      47.938 130.797  12.901  1.00  0.00     0.002 A 
ATOM     22  C   UNL     1      48.180 129.490  13.390  1.00  0.00     0.002 A 
ENDBRANCH   4  14
TORSDOF 4
ENDMDL
MODEL 8
REMARK VINA RESULT:      -5.6      1.289      1.289
REMARK SMILES Cc1cc(N=C=O)c(N)c(-n2nc3ccccc3n2)c1
REMARK SMILES IDX 3 1 4 2 8 3 10 4 20 5 2 6 1 7 5 8 6 9 7 10 9 11 11 14 12 15
REMARK SMILES IDX 19 16 13 17 18 18 14 19 17 20 15 21 16 22
REMARK H PARENT 9 12 9 13
ROOT
ATOM      1  C   UNL     1      43.166 132.006  20.212  1.00  0.00     0.035 A 
ATOM      2  C   UNL     1      44.505 131.631  20.438  1.00  0.00     0.102 A 
ATOM      3  C   UNL     1      45.323 131.275  19.343  1.00  0.00     0.086 A 
ATOM      4  C   UNL     1      44.797 131.326  18.029  1.00  0.00     0.111 A 
ATOM      5  C   UNL     1      43.454 131.682  17.834  1.00  0.00     0.036 A 
ATOM      6  C   UNL     1      42.642 132.038  18.916  1.00  0.00    -0.047 A 
ATOM      7  C   UNL     1      41.200 132.392  18.693  1.00  0.00     0.044 C 
ENDROOT
BRANCH   2   8
ATOM      8  N   UNL     1      45.050 131.576  21.769  1.00  0.00    -0.166 NA
BRANCH   8   9
ATOM      9  C   UNL     1      45.881 132.419  22.239  1.00  0.00     0.240 C 
ATOM     10  O   UNL     1      46.689 133.238  22.697  1.00  0.00    -0.211 OA
ENDBRANCH   8   9
ENDBRANCH   2   8
BRANCH   3  11
ATOM     11  N   UNL     1      46.659 130.804  19.579  1.00  0.00    -0.395 N 
ATOM     12  H   UNL     1      47.236 131.171  20.366  1.00  0.00     0.156 HD
ATOM     13  H   UNL     1      47.138 130.163  18.908  1.00  0.00     0.156 HD
ENDBRANCH   3  11
BRANCH   4  14
ATOM     14  N   UNL     1      45.615 131.056  16.878  1.00  0.00    -0.148 N 
ATOM     15  N   UNL     1      46.142 129.859  16.622  1.00  0.00    -0.148 NA
ATOM     16  N   UNL     1      45.849 131.944  15.911  1.00  0.00    -0.148 NA
ATOM     17  C   UNL     1      46.763 130.004  15.443  1.00  0.00     0.113 A 
ATOM     18  C   UNL     1      46.584 131.281  15.008  1.00  0.00     0.113 A 
ATOM     19  C   UNL     1      47.480 129.064  14.709  1.00  0.00     0.032 A 
ATOM     20  C   UNL     1      47.106 131.734  13.800  1.00  0.00     0.032 A 
ATOM     21  C   UNL     1      48.028 129.484  13.480  1.00  0.00     0.002 A 
ATOM     22  C   UNL     1      47.841 130.813  13.028  1.00  0.00     0.002 A 
ENDBRANCH   4  14
TORSDOF 4
ENDMDL


