REMARK SMILES CC(=O)c1ccc(-c2cc(N)c(O)c(Nc3ccc(C)c(F)c3)c2)c(F)[nH+]1
REMARK SMILES IDX 8 1 9 2 10 3 12 4 14 5 24 6 7 7 4 8 5 9 27 10 6 11 25 12
REMARK SMILES IDX 26 14 2 15 1 16 3 17 11 18 15 21 16 23 17 24 23 25 18 26
REMARK SMILES IDX 21 27 19 28 22 29 20 30 13 31
REMARK H PARENT 27 13 11 19 11 20 15 22 13 32
ROOT
ATOM      1  C   UNL     1      -1.092   0.739  -0.359  1.00  0.00    -0.005 A 
ATOM      2  C   UNL     1      -2.047  -0.062   0.282  1.00  0.00     0.038 A 
ATOM      3  C   UNL     1      -1.702  -1.312   0.816  1.00  0.00     0.077 A 
ATOM      4  C   UNL     1      -0.369  -1.776   0.696  1.00  0.00     0.162 A 
ATOM      5  C   UNL     1       0.604  -0.947   0.102  1.00  0.00     0.084 A 
ATOM      6  C   UNL     1       0.233   0.288  -0.441  1.00  0.00     0.039 A 
ENDROOT
BRANCH   1   7
ATOM      7  C   UNL     1      -1.474   2.059  -0.919  1.00  0.00     0.086 A 
ATOM      8  C   UNL     1      -2.184   4.552  -1.977  1.00  0.00     0.249 A 
ATOM      9  C   UNL     1      -2.601   4.192  -0.685  1.00  0.00     0.084 A 
ATOM     10  N   UNL     1      -1.436   3.666  -2.703  1.00  0.00    -0.176 N 
ATOM     11  C   UNL     1      -2.247   2.950  -0.163  1.00  0.00     0.025 A 
ATOM     12  C   UNL     1      -1.079   2.448  -2.211  1.00  0.00     0.366 A 
ATOM     13  H   UNL     1      -1.121   3.904  -3.669  1.00  0.00     0.457 HD
ATOM     14  F   UNL     1      -0.366   1.600  -2.997  1.00  0.00    -0.136 F 
BRANCH   8  15
ATOM     15  C   UNL     1      -2.560   5.878  -2.536  1.00  0.00     0.223 C 
ATOM     16  C   UNL     1      -2.132   6.306  -3.906  1.00  0.00     0.100 C 
ATOM     17  O   UNL     1      -3.259   6.673  -1.849  1.00  0.00    -0.288 OA
ENDBRANCH   8  15
ENDBRANCH   1   7
BRANCH   3  18
ATOM     18  N   UNL     1      -2.715  -2.080   1.480  1.00  0.00    -0.396 N 
ATOM     19  H   UNL     1      -2.498  -2.909   2.072  1.00  0.00     0.156 HD
ATOM     20  H   UNL     1      -3.710  -1.761   1.467  1.00  0.00     0.156 HD
ENDBRANCH   3  18
BRANCH   5  21
ATOM     21  N   UNL     1       1.971  -1.374  -0.019  1.00  0.00    -0.352 N 
ATOM     22  H   UNL     1       2.453  -1.204  -0.931  1.00  0.00     0.167 HD
BRANCH  21  23
ATOM     23  C   UNL     1       2.745  -1.920   1.065  1.00  0.00     0.041 A 
ATOM     24  C   UNL     1       3.890  -2.677   0.780  1.00  0.00     0.026 A 
ATOM     25  C   UNL     1       2.409  -1.666   2.407  1.00  0.00     0.065 A 
ATOM     26  C   UNL     1       4.668  -3.203   1.814  1.00  0.00     0.008 A 
ATOM     27  C   UNL     1       3.187  -2.191   3.444  1.00  0.00     0.128 A 
ATOM     28  C   UNL     1       4.314  -2.978   3.153  1.00  0.00    -0.015 A 
ATOM     29  F   UNL     1       2.845  -1.926   4.730  1.00  0.00    -0.207 F 
ATOM     30  C   UNL     1       5.167  -3.518   4.264  1.00  0.00     0.047 C 
ENDBRANCH  21  23
ENDBRANCH   5  21
BRANCH   4  31
ATOM     31  O   UNL     1       0.010  -3.053   1.118  1.00  0.00    -0.504 OA
ATOM     32  H   UNL     1      -0.635  -3.751   1.459  1.00  0.00     0.293 HD
ENDBRANCH   4  31
TORSDOF 6


