REMARK SMILES Cc1cc(Cl)ccc1C(=O)[N-][C@H]1CC12CCC2
REMARK SMILES IDX 9 1 10 2 8 3 2 4 3 5 4 6 7 7 6 8 1 9 5 10 11 11 12 12 13 13
REMARK SMILES IDX 14 14 15 15 17 16 16 17
REMARK H PARENT
ROOT
ATOM      1  C   UNL     1       0.612   1.496   0.152  1.00  0.00     0.082 C 
ATOM      2  O   UNL     1       1.029   1.526   1.342  1.00  0.00    -0.315 OA
ENDROOT
BRANCH   1   3
ATOM      3  C   UNL     1       1.575   1.643  -0.968  1.00  0.00     0.002 A 
ATOM      4  C   UNL     1       1.382   1.032  -2.238  1.00  0.00    -0.040 A 
ATOM      5  C   UNL     1       2.319   1.261  -3.262  1.00  0.00     0.024 A 
ATOM      6  C   UNL     1       3.447   2.050  -3.034  1.00  0.00     0.041 A 
ATOM      7  C   UNL     1       2.729   2.421  -0.756  1.00  0.00     0.012 A 
ATOM      8  C   UNL     1       3.654   2.623  -1.780  1.00  0.00     0.021 A 
ATOM      9  C   UNL     1       0.208   0.132  -2.530  1.00  0.00     0.045 C 
ATOM     10  Cl  UNL     1       4.609   2.315  -4.321  1.00  0.00    -0.084 Cl
ENDBRANCH   1   3
BRANCH   1  11
ATOM     11  N   UNL     1      -0.789   1.363  -0.101  1.00  0.00    -0.646 NA
BRANCH  11  12
ATOM     12  C   UNL     1      -1.765   1.196   0.966  1.00  0.00    -0.100 C 
ATOM     13  C   UNL     1      -3.013   0.424   0.523  1.00  0.00    -0.010 C 
ATOM     14  C   UNL     1      -1.949  -0.241   1.387  1.00  0.00    -0.044 C 
ATOM     15  C   UNL     1      -2.388  -0.813   2.703  1.00  0.00     0.006 C 
ATOM     16  C   UNL     1      -1.339  -1.516   0.878  1.00  0.00     0.006 C 
ATOM     17  C   UNL     1      -1.775  -2.144   2.219  1.00  0.00     0.001 C 
ENDBRANCH  11  12
ENDBRANCH   1  11
TORSDOF 3


