MODEL 1
REMARK VINA RESULT:      -4.9      0.000      0.000
REMARK SMILES CO[C@@H](C)CCOC(=O)N(c1ccc2cc[nH]c2c1)c1cc(F)c(O)cc1N
REMARK SMILES IDX 7 1 6 2 5 3 3 4 4 5 2 6 1 7 8 8 9 9 10 10 11 11 12 12 19 13
REMARK SMILES IDX 13 14 18 15 14 16 17 17 15 18 16 19 20 21 21 22 27 23 22 24
REMARK SMILES IDX 26 25 24 26 23 27 28 28 25 31
REMARK H PARENT 17 20 28 29 28 30 25 32
ROOT
ATOM      1  O   UNL     1      46.348 133.143  21.524  1.00  0.00    -0.449 OA
ENDROOT
BRANCH   1   2
ATOM      2  C   UNL     1      47.758 133.106  21.711  1.00  0.00     0.237 C 
BRANCH   2   3
ATOM      3  C   UNL     1      48.283 134.487  22.125  1.00  0.00     0.073 C 
BRANCH   3   4
ATOM      4  C   UNL     1      49.484 134.461  23.101  1.00  0.00     0.118 C 
ATOM      5  C   UNL     1      49.058 134.074  24.519  1.00  0.00     0.038 C 
BRANCH   4   6
ATOM      6  O   UNL     1      50.118 135.729  23.148  1.00  0.00    -0.382 OA
ATOM      7  C   UNL     1      51.514 135.599  22.988  1.00  0.00     0.195 C 
ENDBRANCH   4   6
ENDBRANCH   3   4
ENDBRANCH   2   3
ENDBRANCH   1   2
BRANCH   1   8
ATOM      8  C   UNL     1      45.468 132.300  22.209  1.00  0.00     0.419 C 
ATOM      9  O   UNL     1      45.218 132.502  23.430  1.00  0.00    -0.224 OA
BRANCH   8  10
ATOM     10  N   UNL     1      44.823 131.224  21.505  1.00  0.00    -0.244 N 
BRANCH  10  11
ATOM     11  C   UNL     1      44.739 131.209  20.065  1.00  0.00     0.055 A 
ATOM     12  C   UNL     1      43.621 131.783  19.401  1.00  0.00     0.027 A 
ATOM     13  C   UNL     1      45.759 130.593  19.304  1.00  0.00     0.053 A 
ATOM     14  C   UNL     1      43.526 131.756  17.998  1.00  0.00     0.012 A 
ATOM     15  C   UNL     1      45.632 130.584  17.917  1.00  0.00     0.047 A 
ATOM     16  C   UNL     1      44.554 131.147  17.289  1.00  0.00    -0.000 A 
ATOM     17  N   UNL     1      46.484 130.059  17.022  1.00  0.00    -0.361 N 
ATOM     18  C   UNL     1      44.729 130.971  15.933  1.00  0.00     0.028 A 
ATOM     19  C   UNL     1      45.937 130.293  15.807  1.00  0.00     0.083 A 
ATOM     20  H   UNL     1      47.386 129.569  17.220  1.00  0.00     0.166 HD
ENDBRANCH  10  11
BRANCH  10  21
ATOM     21  C   UNL     1      44.196 130.171  22.258  1.00  0.00     0.078 A 
ATOM     22  C   UNL     1      44.844 128.930  22.372  1.00  0.00     0.072 A 
ATOM     23  C   UNL     1      42.938 130.357  22.876  1.00  0.00     0.060 A 
ATOM     24  C   UNL     1      44.247 127.880  23.072  1.00  0.00     0.167 A 
ATOM     25  C   UNL     1      42.345 129.292  23.572  1.00  0.00     0.077 A 
ATOM     26  C   UNL     1      42.996 128.055  23.669  1.00  0.00     0.153 A 
ATOM     27  F   UNL     1      44.884 126.686  23.163  1.00  0.00    -0.203 F 
BRANCH  23  28
ATOM     28  N   UNL     1      42.269 131.624  22.834  1.00  0.00    -0.397 N 
ATOM     29  H   UNL     1      41.646 131.943  23.607  1.00  0.00     0.156 HD
ATOM     30  H   UNL     1      42.355 132.242  21.996  1.00  0.00     0.156 HD
ENDBRANCH  23  28
BRANCH  26  31
ATOM     31  O   UNL     1      42.405 126.997  24.358  1.00  0.00    -0.505 OA
ATOM     32  H   UNL     1      41.893 127.146  25.219  1.00  0.00     0.293 HD
ENDBRANCH  26  31
ENDBRANCH  10  21
ENDBRANCH   8  10
ENDBRANCH   1   8
TORSDOF 10
ENDMDL
MODEL 2
REMARK VINA RESULT:      -4.5      3.719      5.684
REMARK SMILES CO[C@@H](C)CCOC(=O)N(c1ccc2cc[nH]c2c1)c1cc(F)c(O)cc1N
REMARK SMILES IDX 7 1 6 2 5 3 3 4 4 5 2 6 1 7 8 8 9 9 10 10 11 11 12 12 19 13
REMARK SMILES IDX 13 14 18 15 14 16 17 17 15 18 16 19 20 21 21 22 27 23 22 24
REMARK SMILES IDX 26 25 24 26 23 27 28 28 25 31
REMARK H PARENT 17 20 28 29 28 30 25 32
ROOT
ATOM      1  O   UNL     1      45.679 128.914  20.533  1.00  0.00    -0.449 OA
ENDROOT
BRANCH   1   2
ATOM      2  C   UNL     1      45.278 128.593  21.860  1.00  0.00     0.237 C 
BRANCH   2   3
ATOM      3  C   UNL     1      45.569 127.120  22.169  1.00  0.00     0.073 C 
BRANCH   3   4
ATOM      4  C   UNL     1      45.574 126.758  23.674  1.00  0.00     0.118 C 
ATOM      5  C   UNL     1      46.867 126.052  24.088  1.00  0.00     0.038 C 
BRANCH   4   6
ATOM      6  O   UNL     1      44.476 125.917  23.991  1.00  0.00    -0.382 OA
ATOM      7  C   UNL     1      43.341 126.680  24.337  1.00  0.00     0.195 C 
ENDBRANCH   4   6
ENDBRANCH   3   4
ENDBRANCH   2   3
ENDBRANCH   1   2
BRANCH   1   8
ATOM      8  C   UNL     1      46.031 130.208  20.137  1.00  0.00     0.419 C 
ATOM      9  O   UNL     1      47.072 130.752  20.601  1.00  0.00    -0.224 OA
BRANCH   8  10
ATOM     10  N   UNL     1      45.220 130.901  19.171  1.00  0.00    -0.244 N 
BRANCH  10  11
ATOM     11  C   UNL     1      45.622 131.008  17.789  1.00  0.00     0.055 A 
ATOM     12  C   UNL     1      45.372 132.199  17.055  1.00  0.00     0.027 A 
ATOM     13  C   UNL     1      46.241 129.911  17.146  1.00  0.00     0.053 A 
ATOM     14  C   UNL     1      45.745 132.303  15.704  1.00  0.00     0.012 A 
ATOM     15  C   UNL     1      46.597 130.049  15.806  1.00  0.00     0.047 A 
ATOM     16  C   UNL     1      46.358 131.204  15.112  1.00  0.00    -0.000 A 
ATOM     17  N   UNL     1      47.193 129.136  15.022  1.00  0.00    -0.361 N 
ATOM     18  C   UNL     1      46.823 131.017  13.828  1.00  0.00     0.028 A 
ATOM     19  C   UNL     1      47.333 129.723  13.811  1.00  0.00     0.083 A 
ATOM     20  H   UNL     1      47.488 128.170  15.288  1.00  0.00     0.166 HD
ENDBRANCH  10  11
BRANCH  10  21
ATOM     21  C   UNL     1      44.013 131.550  19.606  1.00  0.00     0.078 A 
ATOM     22  C   UNL     1      43.036 131.889  18.657  1.00  0.00     0.072 A 
ATOM     23  C   UNL     1      43.796 131.862  20.968  1.00  0.00     0.060 A 
ATOM     24  C   UNL     1      41.867 132.546  19.044  1.00  0.00     0.167 A 
ATOM     25  C   UNL     1      42.621 132.529  21.346  1.00  0.00     0.077 A 
ATOM     26  C   UNL     1      41.658 132.872  20.387  1.00  0.00     0.153 A 
ATOM     27  F   UNL     1      40.939 132.874  18.112  1.00  0.00    -0.203 F 
BRANCH  23  28
ATOM     28  N   UNL     1      44.741 131.482  21.977  1.00  0.00    -0.397 N 
ATOM     29  H   UNL     1      44.534 130.728  22.667  1.00  0.00     0.156 HD
ATOM     30  H   UNL     1      45.647 131.992  22.074  1.00  0.00     0.156 HD
ENDBRANCH  23  28
BRANCH  26  31
ATOM     31  O   UNL     1      40.491 133.536  20.763  1.00  0.00    -0.505 OA
ATOM     32  H   UNL     1      39.918 133.207  21.531  1.00  0.00     0.293 HD
ENDBRANCH  26  31
ENDBRANCH  10  21
ENDBRANCH   8  10
ENDBRANCH   1   8
TORSDOF 10
ENDMDL
MODEL 3
REMARK VINA RESULT:      -3.7      3.731      5.608
REMARK SMILES CO[C@@H](C)CCOC(=O)N(c1ccc2cc[nH]c2c1)c1cc(F)c(O)cc1N
REMARK SMILES IDX 7 1 6 2 5 3 3 4 4 5 2 6 1 7 8 8 9 9 10 10 11 11 12 12 19 13
REMARK SMILES IDX 13 14 18 15 14 16 17 17 15 18 16 19 20 21 21 22 27 23 22 24
REMARK SMILES IDX 26 25 24 26 23 27 28 28 25 31
REMARK H PARENT 17 20 28 29 28 30 25 32
ROOT
ATOM      1  O   UNL     1      45.426 128.688  20.387  1.00  0.00    -0.449 OA
ENDROOT
BRANCH   1   2
ATOM      2  C   UNL     1      45.545 128.110  21.682  1.00  0.00     0.237 C 
BRANCH   2   3
ATOM      3  C   UNL     1      44.798 128.957  22.720  1.00  0.00     0.073 C 
BRANCH   3   4
ATOM      4  C   UNL     1      43.758 128.182  23.565  1.00  0.00     0.118 C 
ATOM      5  C   UNL     1      43.915 126.668  23.417  1.00  0.00     0.038 C 
BRANCH   4   6
ATOM      6  O   UNL     1      42.438 128.541  23.187  1.00  0.00    -0.382 OA
ATOM      7  C   UNL     1      41.690 128.960  24.307  1.00  0.00     0.195 C 
ENDBRANCH   4   6
ENDBRANCH   3   4
ENDBRANCH   2   3
ENDBRANCH   1   2
BRANCH   1   8
ATOM      8  C   UNL     1      45.875 129.977  20.085  1.00  0.00     0.419 C 
ATOM      9  O   UNL     1      46.941 130.414  20.603  1.00  0.00    -0.224 OA
BRANCH   8  10
ATOM     10  N   UNL     1      45.136 130.787  19.153  1.00  0.00    -0.244 N 
BRANCH  10  11
ATOM     11  C   UNL     1      45.573 130.954  17.789  1.00  0.00     0.055 A 
ATOM     12  C   UNL     1      45.348 132.179  17.104  1.00  0.00     0.027 A 
ATOM     13  C   UNL     1      46.201 129.883  17.112  1.00  0.00     0.053 A 
ATOM     14  C   UNL     1      45.756 132.341  15.768  1.00  0.00     0.012 A 
ATOM     15  C   UNL     1      46.592 130.079  15.789  1.00  0.00     0.047 A 
ATOM     16  C   UNL     1      46.377 131.266  15.143  1.00  0.00    -0.000 A 
ATOM     17  N   UNL     1      47.202 129.199  14.979  1.00  0.00    -0.361 N 
ATOM     18  C   UNL     1      46.873 131.134  13.863  1.00  0.00     0.028 A 
ATOM     19  C   UNL     1      47.376 129.839  13.800  1.00  0.00     0.083 A 
ATOM     20  H   UNL     1      47.485 128.219  15.209  1.00  0.00     0.166 HD
ENDBRANCH  10  11
BRANCH  10  21
ATOM     21  C   UNL     1      43.969 131.492  19.611  1.00  0.00     0.078 A 
ATOM     22  C   UNL     1      42.968 131.832  18.688  1.00  0.00     0.072 A 
ATOM     23  C   UNL     1      43.817 131.857  20.969  1.00  0.00     0.060 A 
ATOM     24  C   UNL     1      41.837 132.543  19.096  1.00  0.00     0.167 A 
ATOM     25  C   UNL     1      42.679 132.577  21.367  1.00  0.00     0.077 A 
ATOM     26  C   UNL     1      41.692 132.921  20.434  1.00  0.00     0.153 A 
ATOM     27  F   UNL     1      40.885 132.871  18.189  1.00  0.00    -0.203 F 
BRANCH  23  28
ATOM     28  N   UNL     1      44.786 131.480  21.954  1.00  0.00    -0.397 N 
ATOM     29  H   UNL     1      45.144 132.158  22.661  1.00  0.00     0.156 HD
ATOM     30  H   UNL     1      45.196 130.519  21.954  1.00  0.00     0.156 HD
ENDBRANCH  23  28
BRANCH  26  31
ATOM     31  O   UNL     1      40.564 133.637  20.830  1.00  0.00    -0.505 OA
ATOM     32  H   UNL     1      40.096 133.447  21.708  1.00  0.00     0.293 HD
ENDBRANCH  26  31
ENDBRANCH  10  21
ENDBRANCH   8  10
ENDBRANCH   1   8
TORSDOF 10
ENDMDL
MODEL 4
REMARK VINA RESULT:      -3.5      1.011      1.426
REMARK SMILES CO[C@@H](C)CCOC(=O)N(c1ccc2cc[nH]c2c1)c1cc(F)c(O)cc1N
REMARK SMILES IDX 7 1 6 2 5 3 3 4 4 5 2 6 1 7 8 8 9 9 10 10 11 11 12 12 19 13
REMARK SMILES IDX 13 14 18 15 14 16 17 17 15 18 16 19 20 21 21 22 27 23 22 24
REMARK SMILES IDX 26 25 24 26 23 27 28 28 25 31
REMARK H PARENT 17 20 28 29 28 30 25 32
ROOT
ATOM      1  O   UNL     1      46.567 133.031  21.358  1.00  0.00    -0.449 OA
ENDROOT
BRANCH   1   2
ATOM      2  C   UNL     1      47.305 134.051  22.021  1.00  0.00     0.237 C 
BRANCH   2   3
ATOM      3  C   UNL     1      48.693 133.537  22.423  1.00  0.00     0.073 C 
BRANCH   3   4
ATOM      4  C   UNL     1      49.673 134.628  22.918  1.00  0.00     0.118 C 
ATOM      5  C   UNL     1      49.807 134.626  24.442  1.00  0.00     0.038 C 
BRANCH   4   6
ATOM      6  O   UNL     1      49.243 135.914  22.502  1.00  0.00    -0.382 OA
ATOM      7  C   UNL     1      49.990 136.360  21.392  1.00  0.00     0.195 C 
ENDBRANCH   4   6
ENDBRANCH   3   4
ENDBRANCH   2   3
ENDBRANCH   1   2
BRANCH   1   8
ATOM      8  C   UNL     1      45.575 132.277  21.991  1.00  0.00     0.419 C 
ATOM      9  O   UNL     1      45.159 132.609  23.137  1.00  0.00    -0.224 OA
BRANCH   8  10
ATOM     10  N   UNL     1      45.005 131.142  21.315  1.00  0.00    -0.244 N 
BRANCH  10  11
ATOM     11  C   UNL     1      45.043 131.025  19.878  1.00  0.00     0.055 A 
ATOM     12  C   UNL     1      46.038 130.232  19.244  1.00  0.00     0.027 A 
ATOM     13  C   UNL     1      44.104 131.727  19.087  1.00  0.00     0.053 A 
ATOM     14  C   UNL     1      46.091 130.129  17.842  1.00  0.00     0.012 A 
ATOM     15  C   UNL     1      44.186 131.602  17.701  1.00  0.00     0.047 A 
ATOM     16  C   UNL     1      45.144 130.829  17.103  1.00  0.00    -0.000 A 
ATOM     17  N   UNL     1      43.395 132.177  16.782  1.00  0.00    -0.361 N 
ATOM     18  C   UNL     1      44.954 130.918  15.741  1.00  0.00     0.028 A 
ATOM     19  C   UNL     1      43.860 131.763  15.581  1.00  0.00     0.083 A 
ATOM     20  H   UNL     1      42.585 132.816  16.954  1.00  0.00     0.166 HD
ENDBRANCH  10  11
BRANCH  10  21
ATOM     21  C   UNL     1      44.331 130.132  22.087  1.00  0.00     0.078 A 
ATOM     22  C   UNL     1      44.988 128.919  22.350  1.00  0.00     0.072 A 
ATOM     23  C   UNL     1      43.020 130.333  22.576  1.00  0.00     0.060 A 
ATOM     24  C   UNL     1      44.349 127.908  23.071  1.00  0.00     0.167 A 
ATOM     25  C   UNL     1      42.385 129.308  23.294  1.00  0.00     0.077 A 
ATOM     26  C   UNL     1      43.047 128.097  23.541  1.00  0.00     0.153 A 
ATOM     27  F   UNL     1      44.995 126.740  23.308  1.00  0.00    -0.203 F 
BRANCH  23  28
ATOM     28  N   UNL     1      42.336 131.577  22.380  1.00  0.00    -0.397 N 
ATOM     29  H   UNL     1      42.719 132.478  22.742  1.00  0.00     0.156 HD
ATOM     30  H   UNL     1      41.406 131.602  21.906  1.00  0.00     0.156 HD
ENDBRANCH  23  28
BRANCH  26  31
ATOM     31  O   UNL     1      42.415 127.079  24.252  1.00  0.00    -0.505 OA
ATOM     32  H   UNL     1      42.188 126.192  23.819  1.00  0.00     0.293 HD
ENDBRANCH  26  31
ENDBRANCH  10  21
ENDBRANCH   8  10
ENDBRANCH   1   8
TORSDOF 10
ENDMDL
MODEL 5
REMARK VINA RESULT:      -3.3      2.839      3.653
REMARK SMILES CO[C@@H](C)CCOC(=O)N(c1ccc2cc[nH]c2c1)c1cc(F)c(O)cc1N
REMARK SMILES IDX 7 1 6 2 5 3 3 4 4 5 2 6 1 7 8 8 9 9 10 10 11 11 12 12 19 13
REMARK SMILES IDX 13 14 18 15 14 16 17 17 15 18 16 19 20 21 21 22 27 23 22 24
REMARK SMILES IDX 26 25 24 26 23 27 28 28 25 31
REMARK H PARENT 17 20 28 29 28 30 25 32
ROOT
ATOM      1  O   UNL     1      47.202 131.458  20.647  1.00  0.00    -0.449 OA
ENDROOT
BRANCH   1   2
ATOM      2  C   UNL     1      46.957 132.680  21.335  1.00  0.00     0.237 C 
BRANCH   2   3
ATOM      3  C   UNL     1      48.221 133.149  22.066  1.00  0.00     0.073 C 
BRANCH   3   4
ATOM      4  C   UNL     1      48.221 134.642  22.475  1.00  0.00     0.118 C 
ATOM      5  C   UNL     1      48.610 135.553  21.308  1.00  0.00     0.038 C 
BRANCH   4   6
ATOM      6  O   UNL     1      49.122 134.868  23.547  1.00  0.00    -0.382 OA
ATOM      7  C   UNL     1      50.150 133.903  23.553  1.00  0.00     0.195 C 
ENDBRANCH   4   6
ENDBRANCH   3   4
ENDBRANCH   2   3
ENDBRANCH   1   2
BRANCH   1   8
ATOM      8  C   UNL     1      46.181 130.582  20.266  1.00  0.00     0.419 C 
ATOM      9  O   UNL     1      46.127 129.420  20.757  1.00  0.00    -0.224 OA
BRANCH   8  10
ATOM     10  N   UNL     1      45.174 131.025  19.339  1.00  0.00    -0.244 N 
BRANCH  10  11
ATOM     11  C   UNL     1      45.386 130.970  17.914  1.00  0.00     0.055 A 
ATOM     12  C   UNL     1      44.577 131.738  17.033  1.00  0.00     0.027 A 
ATOM     13  C   UNL     1      46.383 130.122  17.380  1.00  0.00     0.053 A 
ATOM     14  C   UNL     1      44.768 131.675  15.641  1.00  0.00     0.012 A 
ATOM     15  C   UNL     1      46.545 130.083  15.996  1.00  0.00     0.047 A 
ATOM     16  C   UNL     1      45.765 130.834  15.160  1.00  0.00    -0.000 A 
ATOM     17  N   UNL     1      47.429 129.354  15.298  1.00  0.00    -0.361 N 
ATOM     18  C   UNL     1      46.172 130.569  13.870  1.00  0.00     0.028 A 
ATOM     19  C   UNL     1      47.205 129.647  13.996  1.00  0.00     0.083 A 
ATOM     20  H   UNL     1      48.144 128.693  15.677  1.00  0.00     0.166 HD
ENDBRANCH  10  11
BRANCH  10  21
ATOM     21  C   UNL     1      43.954 131.592  19.849  1.00  0.00     0.078 A 
ATOM     22  C   UNL     1      43.019 132.128  18.949  1.00  0.00     0.072 A 
ATOM     23  C   UNL     1      43.683 131.626  21.236  1.00  0.00     0.060 A 
ATOM     24  C   UNL     1      41.839 132.711  19.415  1.00  0.00     0.167 A 
ATOM     25  C   UNL     1      42.497 132.220  21.694  1.00  0.00     0.077 A 
ATOM     26  C   UNL     1      41.576 132.763  20.787  1.00  0.00     0.153 A 
ATOM     27  F   UNL     1      40.952 133.232  18.532  1.00  0.00    -0.203 F 
BRANCH  23  28
ATOM     28  N   UNL     1      44.582 131.039  22.185  1.00  0.00    -0.397 N 
ATOM     29  H   UNL     1      45.162 130.204  21.948  1.00  0.00     0.156 HD
ATOM     30  H   UNL     1      44.641 131.409  23.160  1.00  0.00     0.156 HD
ENDBRANCH  23  28
BRANCH  26  31
ATOM     31  O   UNL     1      40.399 133.354  21.242  1.00  0.00    -0.505 OA
ATOM     32  H   UNL     1      40.376 133.901  22.095  1.00  0.00     0.293 HD
ENDBRANCH  26  31
ENDBRANCH  10  21
ENDBRANCH   8  10
ENDBRANCH   1   8
TORSDOF 10
ENDMDL
MODEL 6
REMARK VINA RESULT:      -3.2      2.495      5.132
REMARK SMILES CO[C@@H](C)CCOC(=O)N(c1ccc2cc[nH]c2c1)c1cc(F)c(O)cc1N
REMARK SMILES IDX 7 1 6 2 5 3 3 4 4 5 2 6 1 7 8 8 9 9 10 10 11 11 12 12 19 13
REMARK SMILES IDX 13 14 18 15 14 16 17 17 15 18 16 19 20 21 21 22 27 23 22 24
REMARK SMILES IDX 26 25 24 26 23 27 28 28 25 31
REMARK H PARENT 17 20 28 29 28 30 25 32
ROOT
ATOM      1  O   UNL     1      46.599 132.924  21.777  1.00  0.00    -0.449 OA
ENDROOT
BRANCH   1   2
ATOM      2  C   UNL     1      47.568 133.955  21.929  1.00  0.00     0.237 C 
BRANCH   2   3
ATOM      3  C   UNL     1      48.909 133.370  22.388  1.00  0.00     0.073 C 
BRANCH   3   4
ATOM      4  C   UNL     1      49.352 133.793  23.809  1.00  0.00     0.118 C 
ATOM      5  C   UNL     1      48.189 134.361  24.625  1.00  0.00     0.038 C 
BRANCH   4   6
ATOM      6  O   UNL     1      50.380 134.769  23.744  1.00  0.00    -0.382 OA
ATOM      7  C   UNL     1      50.221 135.592  22.610  1.00  0.00     0.195 C 
ENDBRANCH   4   6
ENDBRANCH   3   4
ENDBRANCH   2   3
ENDBRANCH   1   2
BRANCH   1   8
ATOM      8  C   UNL     1      45.689 132.886  20.716  1.00  0.00     0.419 C 
ATOM      9  O   UNL     1      45.430 133.936  20.064  1.00  0.00    -0.224 OA
BRANCH   8  10
ATOM     10  N   UNL     1      45.077 131.636  20.349  1.00  0.00    -0.244 N 
BRANCH  10  11
ATOM     11  C   UNL     1      44.651 130.685  21.346  1.00  0.00     0.055 A 
ATOM     12  C   UNL     1      43.596 131.005  22.245  1.00  0.00     0.027 A 
ATOM     13  C   UNL     1      45.304 129.436  21.457  1.00  0.00     0.053 A 
ATOM     14  C   UNL     1      43.188 130.089  23.230  1.00  0.00     0.012 A 
ATOM     15  C   UNL     1      44.874 128.553  22.445  1.00  0.00     0.047 A 
ATOM     16  C   UNL     1      43.852 128.869  23.299  1.00  0.00    -0.000 A 
ATOM     17  N   UNL     1      45.354 127.328  22.710  1.00  0.00    -0.361 N 
ATOM     18  C   UNL     1      43.676 127.796  24.146  1.00  0.00     0.028 A 
ATOM     19  C   UNL     1      44.625 126.860  23.749  1.00  0.00     0.083 A 
ATOM     20  H   UNL     1      46.132 126.833  22.218  1.00  0.00     0.166 HD
ENDBRANCH  10  11
BRANCH  10  21
ATOM     21  C   UNL     1      44.943 131.304  18.956  1.00  0.00     0.078 A 
ATOM     22  C   UNL     1      45.958 130.566  18.327  1.00  0.00     0.072 A 
ATOM     23  C   UNL     1      43.816 131.715  18.208  1.00  0.00     0.060 A 
ATOM     24  C   UNL     1      45.871 130.253  16.969  1.00  0.00     0.167 A 
ATOM     25  C   UNL     1      43.742 131.401  16.842  1.00  0.00     0.077 A 
ATOM     26  C   UNL     1      44.767 130.673  16.222  1.00  0.00     0.153 A 
ATOM     27  F   UNL     1      46.865 129.547  16.376  1.00  0.00    -0.203 F 
BRANCH  23  28
ATOM     28  N   UNL     1      42.731 132.419  18.824  1.00  0.00    -0.397 N 
ATOM     29  H   UNL     1      42.775 133.446  19.004  1.00  0.00     0.156 HD
ATOM     30  H   UNL     1      41.883 131.905  19.153  1.00  0.00     0.156 HD
ENDBRANCH  23  28
BRANCH  26  31
ATOM     31  O   UNL     1      44.693 130.363  14.865  1.00  0.00    -0.505 OA
ATOM     32  H   UNL     1      43.862 130.560  14.321  1.00  0.00     0.293 HD
ENDBRANCH  26  31
ENDBRANCH  10  21
ENDBRANCH   8  10
ENDBRANCH   1   8
TORSDOF 10
ENDMDL
MODEL 7
REMARK VINA RESULT:      -3.2      3.371      5.406
REMARK SMILES CO[C@@H](C)CCOC(=O)N(c1ccc2cc[nH]c2c1)c1cc(F)c(O)cc1N
REMARK SMILES IDX 7 1 6 2 5 3 3 4 4 5 2 6 1 7 8 8 9 9 10 10 11 11 12 12 19 13
REMARK SMILES IDX 13 14 18 15 14 16 17 17 15 18 16 19 20 21 21 22 27 23 22 24
REMARK SMILES IDX 26 25 24 26 23 27 28 28 25 31
REMARK H PARENT 17 20 28 29 28 30 25 32
ROOT
ATOM      1  O   UNL     1      46.254 129.319  20.701  1.00  0.00    -0.449 OA
ENDROOT
BRANCH   1   2
ATOM      2  C   UNL     1      45.133 128.593  21.193  1.00  0.00     0.237 C 
BRANCH   2   3
ATOM      3  C   UNL     1      45.006 128.763  22.711  1.00  0.00     0.073 C 
BRANCH   3   4
ATOM      4  C   UNL     1      43.597 129.173  23.205  1.00  0.00     0.118 C 
ATOM      5  C   UNL     1      43.667 130.163  24.370  1.00  0.00     0.038 C 
BRANCH   4   6
ATOM      6  O   UNL     1      42.861 128.034  23.621  1.00  0.00    -0.382 OA
ATOM      7  C   UNL     1      43.553 127.326  24.625  1.00  0.00     0.195 C 
ENDBRANCH   4   6
ENDBRANCH   3   4
ENDBRANCH   2   3
ENDBRANCH   1   2
BRANCH   1   8
ATOM      8  C   UNL     1      46.160 130.629  20.221  1.00  0.00     0.419 C 
ATOM      9  O   UNL     1      46.930 131.524  20.669  1.00  0.00    -0.224 OA
BRANCH   8  10
ATOM     10  N   UNL     1      45.207 130.941  19.190  1.00  0.00    -0.244 N 
BRANCH  10  11
ATOM     11  C   UNL     1      45.484 130.668  17.801  1.00  0.00     0.055 A 
ATOM     12  C   UNL     1      45.279 129.367  17.266  1.00  0.00     0.027 A 
ATOM     13  C   UNL     1      45.994 131.691  16.967  1.00  0.00     0.053 A 
ATOM     14  C   UNL     1      45.564 129.091  15.917  1.00  0.00     0.012 A 
ATOM     15  C   UNL     1      46.265 131.382  15.636  1.00  0.00     0.047 A 
ATOM     16  C   UNL     1      46.056 130.127  15.131  1.00  0.00    -0.000 A 
ATOM     17  N   UNL     1      46.745 132.203  14.689  1.00  0.00    -0.361 N 
ATOM     18  C   UNL     1      46.420 130.152  13.802  1.00  0.00     0.028 A 
ATOM     19  C   UNL     1      46.842 131.457  13.565  1.00  0.00     0.083 A 
ATOM     20  H   UNL     1      46.995 133.213  14.794  1.00  0.00     0.166 HD
ENDBRANCH  10  11
BRANCH  10  21
ATOM     21  C   UNL     1      43.977 131.594  19.548  1.00  0.00     0.078 A 
ATOM     22  C   UNL     1      43.692 131.825  20.903  1.00  0.00     0.072 A 
ATOM     23  C   UNL     1      43.046 131.999  18.564  1.00  0.00     0.060 A 
ATOM     24  C   UNL     1      42.493 132.430  21.284  1.00  0.00     0.167 A 
ATOM     25  C   UNL     1      41.841 132.601  18.958  1.00  0.00     0.077 A 
ATOM     26  C   UNL     1      41.563 132.815  20.315  1.00  0.00     0.153 A 
ATOM     27  F   UNL     1      42.231 132.636  22.598  1.00  0.00    -0.203 F 
BRANCH  23  28
ATOM     28  N   UNL     1      43.322 131.836  17.167  1.00  0.00    -0.397 N 
ATOM     29  H   UNL     1      44.298 131.808  16.799  1.00  0.00     0.156 HD
ATOM     30  H   UNL     1      42.542 131.790  16.473  1.00  0.00     0.156 HD
ENDBRANCH  23  28
BRANCH  26  31
ATOM     31  O   UNL     1      40.365 133.411  20.706  1.00  0.00    -0.505 OA
ATOM     32  H   UNL     1      39.501 133.244  20.203  1.00  0.00     0.293 HD
ENDBRANCH  26  31
ENDBRANCH  10  21
ENDBRANCH   8  10
ENDBRANCH   1   8
TORSDOF 10
ENDMDL
MODEL 8
REMARK VINA RESULT:      -3.1      3.424      5.579
REMARK SMILES CO[C@@H](C)CCOC(=O)N(c1ccc2cc[nH]c2c1)c1cc(F)c(O)cc1N
REMARK SMILES IDX 7 1 6 2 5 3 3 4 4 5 2 6 1 7 8 8 9 9 10 10 11 11 12 12 19 13
REMARK SMILES IDX 13 14 18 15 14 16 17 17 15 18 16 19 20 21 21 22 27 23 22 24
REMARK SMILES IDX 26 25 24 26 23 27 28 28 25 31
REMARK H PARENT 17 20 28 29 28 30 25 32
ROOT
ATOM      1  O   UNL     1      46.015 129.503  20.771  1.00  0.00    -0.449 OA
ENDROOT
BRANCH   1   2
ATOM      2  C   UNL     1      44.777 129.101  21.348  1.00  0.00     0.237 C 
BRANCH   2   3
ATOM      3  C   UNL     1      44.936 128.867  22.855  1.00  0.00     0.073 C 
BRANCH   3   4
ATOM      4  C   UNL     1      44.844 127.387  23.298  1.00  0.00     0.118 C 
ATOM      5  C   UNL     1      45.510 126.447  22.291  1.00  0.00     0.038 C 
BRANCH   4   6
ATOM      6  O   UNL     1      43.490 126.995  23.458  1.00  0.00    -0.382 OA
ATOM      7  C   UNL     1      43.356 126.071  24.515  1.00  0.00     0.195 C 
ENDBRANCH   4   6
ENDBRANCH   3   4
ENDBRANCH   2   3
ENDBRANCH   1   2
BRANCH   1   8
ATOM      8  C   UNL     1      46.206 130.754  20.176  1.00  0.00     0.419 C 
ATOM      9  O   UNL     1      47.188 131.473  20.513  1.00  0.00    -0.224 OA
BRANCH   8  10
ATOM     10  N   UNL     1      45.297 131.201  19.154  1.00  0.00    -0.244 N 
BRANCH  10  11
ATOM     11  C   UNL     1      45.666 131.184  17.760  1.00  0.00     0.055 A 
ATOM     12  C   UNL     1      45.515 132.350  16.959  1.00  0.00     0.027 A 
ATOM     13  C   UNL     1      46.152 129.995  17.171  1.00  0.00     0.053 A 
ATOM     14  C   UNL     1      45.857 132.335  15.595  1.00  0.00     0.012 A 
ATOM     15  C   UNL     1      46.481 130.016  15.817  1.00  0.00     0.047 A 
ATOM     16  C   UNL     1      46.338 131.146  15.059  1.00  0.00    -0.000 A 
ATOM     17  N   UNL     1      46.958 129.003  15.077  1.00  0.00    -0.361 N 
ATOM     18  C   UNL     1      46.743 130.837  13.778  1.00  0.00     0.028 A 
ATOM     19  C   UNL     1      47.121 129.499  13.829  1.00  0.00     0.083 A 
ATOM     20  H   UNL     1      47.163 128.028  15.395  1.00  0.00     0.166 HD
ENDBRANCH  10  11
BRANCH  10  21
ATOM     21  C   UNL     1      44.016 131.730  19.538  1.00  0.00     0.078 A 
ATOM     22  C   UNL     1      43.771 132.018  20.890  1.00  0.00     0.072 A 
ATOM     23  C   UNL     1      42.998 131.957  18.583  1.00  0.00     0.060 A 
ATOM     24  C   UNL     1      42.527 132.504  21.298  1.00  0.00     0.167 A 
ATOM     25  C   UNL     1      41.750 132.440  19.005  1.00  0.00     0.077 A 
ATOM     26  C   UNL     1      41.513 132.713  20.359  1.00  0.00     0.153 A 
ATOM     27  F   UNL     1      42.305 132.768  22.609  1.00  0.00    -0.203 F 
BRANCH  23  28
ATOM     28  N   UNL     1      43.226 131.732  17.186  1.00  0.00    -0.397 N 
ATOM     29  H   UNL     1      43.691 132.445  16.583  1.00  0.00     0.156 HD
ATOM     30  H   UNL     1      42.883 130.858  16.726  1.00  0.00     0.156 HD
ENDBRANCH  23  28
BRANCH  26  31
ATOM     31  O   UNL     1      40.273 133.191  20.778  1.00  0.00    -0.505 OA
ATOM     32  H   UNL     1      40.054 134.180  20.765  1.00  0.00     0.293 HD
ENDBRANCH  26  31
ENDBRANCH  10  21
ENDBRANCH   8  10
ENDBRANCH   1   8
TORSDOF 10
ENDMDL
MODEL 9
REMARK VINA RESULT:      -2.7      3.537      5.189
REMARK SMILES CO[C@@H](C)CCOC(=O)N(c1ccc2cc[nH]c2c1)c1cc(F)c(O)cc1N
REMARK SMILES IDX 7 1 6 2 5 3 3 4 4 5 2 6 1 7 8 8 9 9 10 10 11 11 12 12 19 13
REMARK SMILES IDX 13 14 18 15 14 16 17 17 15 18 16 19 20 21 21 22 27 23 22 24
REMARK SMILES IDX 26 25 24 26 23 27 28 28 25 31
REMARK H PARENT 17 20 28 29 28 30 25 32
ROOT
ATOM      1  O   UNL     1      46.095 129.299  21.004  1.00  0.00    -0.449 OA
ENDROOT
BRANCH   1   2
ATOM      2  C   UNL     1      44.922 128.772  21.613  1.00  0.00     0.237 C 
BRANCH   2   3
ATOM      3  C   UNL     1      45.124 127.299  21.988  1.00  0.00     0.073 C 
BRANCH   3   4
ATOM      4  C   UNL     1      45.328 127.034  23.500  1.00  0.00     0.118 C 
ATOM      5  C   UNL     1      44.924 128.241  24.350  1.00  0.00     0.038 C 
BRANCH   4   6
ATOM      6  O   UNL     1      46.683 126.718  23.776  1.00  0.00    -0.382 OA
ATOM      7  C   UNL     1      47.057 125.514  23.144  1.00  0.00     0.195 C 
ENDBRANCH   4   6
ENDBRANCH   3   4
ENDBRANCH   2   3
ENDBRANCH   1   2
BRANCH   1   8
ATOM      8  C   UNL     1      46.163 130.591  20.475  1.00  0.00     0.419 C 
ATOM      9  O   UNL     1      47.144 131.337  20.749  1.00  0.00    -0.224 OA
BRANCH   8  10
ATOM     10  N   UNL     1      45.127 131.051  19.589  1.00  0.00    -0.244 N 
BRANCH  10  11
ATOM     11  C   UNL     1      45.286 131.004  18.156  1.00  0.00     0.055 A 
ATOM     12  C   UNL     1      44.480 131.817  17.313  1.00  0.00     0.027 A 
ATOM     13  C   UNL     1      46.228 130.122  17.578  1.00  0.00     0.053 A 
ATOM     14  C   UNL     1      44.619 131.763  15.915  1.00  0.00     0.012 A 
ATOM     15  C   UNL     1      46.338 130.093  16.189  1.00  0.00     0.047 A 
ATOM     16  C   UNL     1      45.562 130.887  15.389  1.00  0.00    -0.000 A 
ATOM     17  N   UNL     1      47.166 129.337  15.451  1.00  0.00    -0.361 N 
ATOM     18  C   UNL     1      45.911 130.622  14.082  1.00  0.00     0.028 A 
ATOM     19  C   UNL     1      46.909 129.656  14.162  1.00  0.00     0.083 A 
ATOM     20  H   UNL     1      47.865 128.642  15.798  1.00  0.00     0.166 HD
ENDBRANCH  10  11
BRANCH  10  21
ATOM     21  C   UNL     1      43.932 131.625  20.147  1.00  0.00     0.078 A 
ATOM     22  C   UNL     1      42.907 132.047  19.285  1.00  0.00     0.072 A 
ATOM     23  C   UNL     1      43.774 131.780  21.543  1.00  0.00     0.060 A 
ATOM     24  C   UNL     1      41.748 132.635  19.795  1.00  0.00     0.167 A 
ATOM     25  C   UNL     1      42.607 132.378  22.045  1.00  0.00     0.077 A 
ATOM     26  C   UNL     1      41.596 132.806  21.173  1.00  0.00     0.153 A 
ATOM     27  F   UNL     1      40.773 133.045  18.947  1.00  0.00    -0.203 F 
BRANCH  23  28
ATOM     28  N   UNL     1      44.769 131.310  22.461  1.00  0.00    -0.397 N 
ATOM     29  H   UNL     1      45.788 131.376  22.248  1.00  0.00     0.156 HD
ATOM     30  H   UNL     1      44.491 130.842  23.353  1.00  0.00     0.156 HD
ENDBRANCH  23  28
BRANCH  26  31
ATOM     31  O   UNL     1      40.439 133.401  21.672  1.00  0.00    -0.505 OA
ATOM     32  H   UNL     1      39.590 132.868  21.820  1.00  0.00     0.293 HD
ENDBRANCH  26  31
ENDBRANCH  10  21
ENDBRANCH   8  10
ENDBRANCH   1   8
TORSDOF 10
ENDMDL


