REMARK SMILES Fc1ccc2cc(-c3[nH+]c[nH+]cc3F)[nH]c2c1
REMARK SMILES IDX 1 1 2 2 3 3 4 4 5 5 6 6 7 7 15 8 16 9 17 10 8 12 9 13 13 14
REMARK SMILES IDX 10 15 12 16 11 17 14 19
REMARK H PARENT 15 11 9 18 11 20
ROOT
ATOM      1  F   UNL     1       5.182   2.014   0.383  1.00  0.00    -0.207 F 
ATOM      2  C   UNL     1       4.124   1.190   0.180  1.00  0.00     0.125 A 
ATOM      3  C   UNL     1       4.343  -0.169  -0.139  1.00  0.00     0.040 A 
ATOM      4  C   UNL     1       3.254  -1.034  -0.352  1.00  0.00     0.013 A 
ATOM      5  C   UNL     1       1.970  -0.504  -0.235  1.00  0.00     0.000 A 
ATOM      6  C   UNL     1       0.739  -1.099  -0.385  1.00  0.00     0.043 A 
ATOM      7  C   UNL     1      -0.203  -0.085  -0.152  1.00  0.00     0.116 A 
ATOM      8  N   UNL     1       0.444   1.080   0.128  1.00  0.00    -0.349 N 
ATOM      9  C   UNL     1       1.757   0.809   0.073  1.00  0.00     0.049 A 
ATOM     10  C   UNL     1       2.814   1.692   0.290  1.00  0.00     0.066 A 
ATOM     11  H   UNL     1       0.038   2.016   0.346  1.00  0.00     0.167 HD
ENDROOT
BRANCH   7  12
ATOM     12  C   UNL     1      -1.697  -0.220  -0.195  1.00  0.00     0.274 A 
ATOM     13  N   UNL     1      -2.488   0.870   0.057  1.00  0.00    -0.151 N 
ATOM     14  C   UNL     1      -2.334  -1.447  -0.488  1.00  0.00     0.260 A 
ATOM     15  C   UNL     1      -3.845   0.790   0.028  1.00  0.00     0.629 A 
ATOM     16  C   UNL     1      -3.726  -1.500  -0.511  1.00  0.00     0.358 A 
ATOM     17  N   UNL     1      -4.456  -0.387  -0.254  1.00  0.00    -0.159 N 
ATOM     18  H   UNL     1      -2.079   1.801   0.279  1.00  0.00     0.460 HD
ATOM     19  F   UNL     1      -1.650  -2.586  -0.752  1.00  0.00    -0.193 F 
ATOM     20  H   UNL     1      -5.500  -0.437  -0.273  1.00  0.00     0.459 HD
ENDBRANCH   7  12
TORSDOF 1


