MODEL 1
REMARK VINA RESULT:      -6.4      0.000      0.000
REMARK SMILES Fc1cccc(F)c1C/C=C(\OC(=S)[NH2+]Cc1cc(Cl)cc(Cl)c1)c1ccccc1
REMARK SMILES IDX 12 1 11 2 10 3 9 4 8 5 2 6 6 7 3 8 5 9 4 10 1 11 7 12 25 13
REMARK SMILES IDX 26 14 30 15 27 16 29 17 28 18 13 19 14 20 15 21 16 24 17 25
REMARK SMILES IDX 18 26 24 27 19 28 22 29 21 30 20 31 23 32
REMARK H PARENT 15 22 15 23
ROOT
ATOM      1  O   UNL     1      46.159 129.588  21.382  1.00  0.00    -0.404 OA
ENDROOT
BRANCH   1   2
ATOM      2  C   UNL     1      45.050 128.925  21.931  1.00  0.00     0.137 C 
BRANCH   2   3
ATOM      3  C   UNL     1      44.974 127.592  21.813  1.00  0.00     0.026 C 
BRANCH   3   4
ATOM      4  C   UNL     1      45.869 126.687  22.610  1.00  0.00     0.073 C 
BRANCH   4   5
ATOM      5  C   UNL     1      45.404 125.256  22.535  1.00  0.00     0.027 A 
ATOM      6  C   UNL     1      46.254 124.257  22.020  1.00  0.00     0.129 A 
ATOM      7  C   UNL     1      44.135 124.891  23.025  1.00  0.00     0.129 A 
ATOM      8  C   UNL     1      45.828 122.926  21.974  1.00  0.00     0.040 A 
ATOM      9  C   UNL     1      43.718 123.558  22.974  1.00  0.00     0.040 A 
ATOM     10  C   UNL     1      44.561 122.578  22.447  1.00  0.00     0.006 A 
ATOM     11  F   UNL     1      47.495 124.572  21.567  1.00  0.00    -0.207 F 
ATOM     12  F   UNL     1      43.304 125.825  23.553  1.00  0.00    -0.207 F 
ENDBRANCH   4   5
ENDBRANCH   3   4
ENDBRANCH   2   3
BRANCH   2  13
ATOM     13  C   UNL     1      44.020 129.674  22.697  1.00  0.00     0.017 A 
ATOM     14  C   UNL     1      43.473 129.113  23.864  1.00  0.00     0.012 A 
ATOM     15  C   UNL     1      43.588 130.949  22.284  1.00  0.00     0.012 A 
ATOM     16  C   UNL     1      42.512 129.810  24.601  1.00  0.00     0.001 A 
ATOM     17  C   UNL     1      42.626 131.642  23.025  1.00  0.00     0.001 A 
ATOM     18  C   UNL     1      42.088 131.073  24.181  1.00  0.00     0.000 A 
ENDBRANCH   2  13
ENDBRANCH   1   2
BRANCH   1  19
ATOM     19  C   UNL     1      46.106 130.626  20.439  1.00  0.00     0.365 C 
ATOM     20  S   UNL     1      45.971 132.200  20.905  1.00  0.00     0.027 S 
BRANCH  19  21
ATOM     21  N   UNL     1      46.064 130.288  19.043  1.00  0.00    -0.268 N 
ATOM     22  H   UNL     1      45.896 129.260  18.943  1.00  0.00     0.356 HD
ATOM     23  H   UNL     1      46.990 130.502  18.604  1.00  0.00     0.356 HD
BRANCH  21  24
ATOM     24  C   UNL     1      45.014 131.043  18.338  1.00  0.00     0.306 C 
BRANCH  24  25
ATOM     25  C   UNL     1      45.163 130.962  16.835  1.00  0.00     0.010 A 
ATOM     26  C   UNL     1      44.125 131.397  15.994  1.00  0.00     0.030 A 
ATOM     27  C   UNL     1      46.332 130.429  16.268  1.00  0.00     0.030 A 
ATOM     28  C   UNL     1      44.260 131.307  14.603  1.00  0.00     0.043 A 
ATOM     29  C   UNL     1      46.458 130.328  14.878  1.00  0.00     0.043 A 
ATOM     30  C   UNL     1      45.424 130.767  14.047  1.00  0.00     0.041 A 
ATOM     31  Cl  UNL     1      42.956 131.839  13.559  1.00  0.00    -0.084 Cl
ATOM     32  Cl  UNL     1      47.914 129.643  14.178  1.00  0.00    -0.084 Cl
ENDBRANCH  24  25
ENDBRANCH  21  24
ENDBRANCH  19  21
ENDBRANCH   1  19
TORSDOF 9
ENDMDL
MODEL 2
REMARK VINA RESULT:      -4.2      2.562      4.120
REMARK SMILES Fc1cccc(F)c1C/C=C(\OC(=S)[NH2+]Cc1cc(Cl)cc(Cl)c1)c1ccccc1
REMARK SMILES IDX 12 1 11 2 10 3 9 4 8 5 2 6 6 7 3 8 5 9 4 10 1 11 7 12 25 13
REMARK SMILES IDX 26 14 30 15 27 16 29 17 28 18 13 19 14 20 15 21 16 24 17 25
REMARK SMILES IDX 18 26 24 27 19 28 22 29 21 30 20 31 23 32
REMARK H PARENT 15 22 15 23
ROOT
ATOM      1  O   UNL     1      45.238 132.258  19.969  1.00  0.00    -0.404 OA
ENDROOT
BRANCH   1   2
ATOM      2  C   UNL     1      45.541 131.958  21.307  1.00  0.00     0.137 C 
BRANCH   2   3
ATOM      3  C   UNL     1      45.079 130.813  21.830  1.00  0.00     0.026 C 
BRANCH   3   4
ATOM      4  C   UNL     1      44.004 130.815  22.880  1.00  0.00     0.073 C 
BRANCH   4   5
ATOM      5  C   UNL     1      43.666 129.413  23.315  1.00  0.00     0.027 A 
ATOM      6  C   UNL     1      42.507 129.164  24.076  1.00  0.00     0.129 A 
ATOM      7  C   UNL     1      44.475 128.329  22.923  1.00  0.00     0.129 A 
ATOM      8  C   UNL     1      42.183 127.858  24.458  1.00  0.00     0.040 A 
ATOM      9  C   UNL     1      44.144 127.028  23.309  1.00  0.00     0.040 A 
ATOM     10  C   UNL     1      43.002 126.793  24.078  1.00  0.00     0.006 A 
ATOM     11  F   UNL     1      41.690 130.184  24.446  1.00  0.00    -0.207 F 
ATOM     12  F   UNL     1      45.583 128.533  22.165  1.00  0.00    -0.207 F 
ENDBRANCH   4   5
ENDBRANCH   3   4
ENDBRANCH   2   3
BRANCH   2  13
ATOM     13  C   UNL     1      46.420 132.851  22.105  1.00  0.00     0.017 A 
ATOM     14  C   UNL     1      46.033 133.236  23.401  1.00  0.00     0.012 A 
ATOM     15  C   UNL     1      47.649 133.312  21.594  1.00  0.00     0.012 A 
ATOM     16  C   UNL     1      46.855 134.066  24.167  1.00  0.00     0.001 A 
ATOM     17  C   UNL     1      48.467 134.142  22.365  1.00  0.00     0.001 A 
ATOM     18  C   UNL     1      48.071 134.520  23.650  1.00  0.00     0.000 A 
ENDBRANCH   2  13
ENDBRANCH   1   2
BRANCH   1  19
ATOM     19  C   UNL     1      44.328 131.560  19.161  1.00  0.00     0.365 C 
ATOM     20  S   UNL     1      42.764 132.055  19.008  1.00  0.00     0.027 S 
BRANCH  19  21
ATOM     21  N   UNL     1      44.752 130.332  18.545  1.00  0.00    -0.268 N 
ATOM     22  H   UNL     1      44.030 130.030  17.850  1.00  0.00     0.356 HD
ATOM     23  H   UNL     1      44.822 129.584  19.274  1.00  0.00     0.356 HD
BRANCH  21  24
ATOM     24  C   UNL     1      46.059 130.484  17.886  1.00  0.00     0.306 C 
BRANCH  24  25
ATOM     25  C   UNL     1      45.930 130.630  16.387  1.00  0.00     0.010 A 
ATOM     26  C   UNL     1      44.735 131.103  15.819  1.00  0.00     0.030 A 
ATOM     27  C   UNL     1      46.996 130.272  15.546  1.00  0.00     0.030 A 
ATOM     28  C   UNL     1      44.613 131.224  14.430  1.00  0.00     0.043 A 
ATOM     29  C   UNL     1      46.867 130.381  14.158  1.00  0.00     0.043 A 
ATOM     30  C   UNL     1      45.678 130.858  13.600  1.00  0.00     0.041 A 
ATOM     31  Cl  UNL     1      43.115 131.803  13.727  1.00  0.00    -0.084 Cl
ATOM     32  Cl  UNL     1      48.198 129.913  13.114  1.00  0.00    -0.084 Cl
ENDBRANCH  24  25
ENDBRANCH  21  24
ENDBRANCH  19  21
ENDBRANCH   1  19
TORSDOF 9
ENDMDL
MODEL 3
REMARK VINA RESULT:      -4.0      5.136      7.675
REMARK SMILES Fc1cccc(F)c1C/C=C(\OC(=S)[NH2+]Cc1cc(Cl)cc(Cl)c1)c1ccccc1
REMARK SMILES IDX 12 1 11 2 10 3 9 4 8 5 2 6 6 7 3 8 5 9 4 10 1 11 7 12 25 13
REMARK SMILES IDX 26 14 30 15 27 16 29 17 28 18 13 19 14 20 15 21 16 24 17 25
REMARK SMILES IDX 18 26 24 27 19 28 22 29 21 30 20 31 23 32
REMARK H PARENT 15 22 15 23
ROOT
ATOM      1  O   UNL     1      45.146 133.215  20.099  1.00  0.00    -0.404 OA
ENDROOT
BRANCH   1   2
ATOM      2  C   UNL     1      44.054 132.334  20.124  1.00  0.00     0.137 C 
BRANCH   2   3
ATOM      3  C   UNL     1      43.308 132.203  19.018  1.00  0.00     0.026 C 
BRANCH   3   4
ATOM      4  C   UNL     1      43.299 130.923  18.232  1.00  0.00     0.073 C 
BRANCH   4   5
ATOM      5  C   UNL     1      44.322 130.955  17.126  1.00  0.00     0.027 A 
ATOM      6  C   UNL     1      44.024 131.579  15.899  1.00  0.00     0.129 A 
ATOM      7  C   UNL     1      45.605 130.409  17.325  1.00  0.00     0.129 A 
ATOM      8  C   UNL     1      44.984 131.629  14.884  1.00  0.00     0.040 A 
ATOM      9  C   UNL     1      46.558 130.463  16.304  1.00  0.00     0.040 A 
ATOM     10  C   UNL     1      46.247 131.069  15.084  1.00  0.00     0.006 A 
ATOM     11  F   UNL     1      42.806 132.141  15.687  1.00  0.00    -0.207 F 
ATOM     12  F   UNL     1      45.932 129.827  18.506  1.00  0.00    -0.207 F 
ENDBRANCH   4   5
ENDBRANCH   3   4
ENDBRANCH   2   3
BRANCH   2  13
ATOM     13  C   UNL     1      43.775 131.504  21.324  1.00  0.00     0.017 A 
ATOM     14  C   UNL     1      44.413 130.261  21.476  1.00  0.00     0.012 A 
ATOM     15  C   UNL     1      42.890 131.946  22.327  1.00  0.00     0.012 A 
ATOM     16  C   UNL     1      44.168 129.474  22.605  1.00  0.00     0.001 A 
ATOM     17  C   UNL     1      42.650 131.155  23.454  1.00  0.00     0.001 A 
ATOM     18  C   UNL     1      43.287 129.919  23.593  1.00  0.00     0.000 A 
ENDBRANCH   2  13
ENDBRANCH   1   2
BRANCH   1  19
ATOM     19  C   UNL     1      46.355 133.038  20.791  1.00  0.00     0.365 C 
ATOM     20  S   UNL     1      47.208 131.634  20.679  1.00  0.00     0.027 S 
BRANCH  19  21
ATOM     21  N   UNL     1      46.790 134.068  21.695  1.00  0.00    -0.268 N 
ATOM     22  H   UNL     1      46.174 134.065  22.541  1.00  0.00     0.356 HD
ATOM     23  H   UNL     1      46.689 135.002  21.232  1.00  0.00     0.356 HD
BRANCH  21  24
ATOM     24  C   UNL     1      48.195 133.879  22.090  1.00  0.00     0.306 C 
BRANCH  24  25
ATOM     25  C   UNL     1      49.007 135.146  21.942  1.00  0.00     0.010 A 
ATOM     26  C   UNL     1      48.658 136.105  20.976  1.00  0.00     0.030 A 
ATOM     27  C   UNL     1      50.131 135.365  22.754  1.00  0.00     0.030 A 
ATOM     28  C   UNL     1      49.420 137.271  20.831  1.00  0.00     0.043 A 
ATOM     29  C   UNL     1      50.899 136.525  22.598  1.00  0.00     0.043 A 
ATOM     30  C   UNL     1      50.542 137.477  21.639  1.00  0.00     0.041 A 
ATOM     31  Cl  UNL     1      48.987 138.456  19.614  1.00  0.00    -0.084 Cl
ATOM     32  Cl  UNL     1      52.313 136.782  23.604  1.00  0.00    -0.084 Cl
ENDBRANCH  24  25
ENDBRANCH  21  24
ENDBRANCH  19  21
ENDBRANCH   1  19
TORSDOF 9
ENDMDL
MODEL 4
REMARK VINA RESULT:      -3.9      4.551      6.894
REMARK SMILES Fc1cccc(F)c1C/C=C(\OC(=S)[NH2+]Cc1cc(Cl)cc(Cl)c1)c1ccccc1
REMARK SMILES IDX 12 1 11 2 10 3 9 4 8 5 2 6 6 7 3 8 5 9 4 10 1 11 7 12 25 13
REMARK SMILES IDX 26 14 30 15 27 16 29 17 28 18 13 19 14 20 15 21 16 24 17 25
REMARK SMILES IDX 18 26 24 27 19 28 22 29 21 30 20 31 23 32
REMARK H PARENT 15 22 15 23
ROOT
ATOM      1  O   UNL     1      46.232 131.029  20.237  1.00  0.00    -0.404 OA
ENDROOT
BRANCH   1   2
ATOM      2  C   UNL     1      46.200 131.867  21.363  1.00  0.00     0.137 C 
BRANCH   2   3
ATOM      3  C   UNL     1      47.233 132.693  21.580  1.00  0.00     0.026 C 
BRANCH   3   4
ATOM      4  C   UNL     1      47.014 134.147  21.888  1.00  0.00     0.073 C 
BRANCH   4   5
ATOM      5  C   UNL     1      48.324 134.862  22.100  1.00  0.00     0.027 A 
ATOM      6  C   UNL     1      49.212 134.436  23.107  1.00  0.00     0.129 A 
ATOM      7  C   UNL     1      48.698 135.929  21.261  1.00  0.00     0.129 A 
ATOM      8  C   UNL     1      50.438 135.086  23.284  1.00  0.00     0.040 A 
ATOM      9  C   UNL     1      49.924 136.573  21.446  1.00  0.00     0.040 A 
ATOM     10  C   UNL     1      50.792 136.155  22.458  1.00  0.00     0.006 A 
ATOM     11  F   UNL     1      48.894 133.391  23.913  1.00  0.00    -0.207 F 
ATOM     12  F   UNL     1      47.877 136.344  20.263  1.00  0.00    -0.207 F 
ENDBRANCH   4   5
ENDBRANCH   3   4
ENDBRANCH   2   3
BRANCH   2  13
ATOM     13  C   UNL     1      45.011 131.896  22.253  1.00  0.00     0.017 A 
ATOM     14  C   UNL     1      45.161 132.243  23.607  1.00  0.00     0.012 A 
ATOM     15  C   UNL     1      43.725 131.595  21.764  1.00  0.00     0.012 A 
ATOM     16  C   UNL     1      44.050 132.285  24.454  1.00  0.00     0.001 A 
ATOM     17  C   UNL     1      42.618 131.639  22.615  1.00  0.00     0.001 A 
ATOM     18  C   UNL     1      42.780 131.983  23.960  1.00  0.00     0.000 A 
ENDBRANCH   2  13
ENDBRANCH   1   2
BRANCH   1  19
ATOM     19  C   UNL     1      45.409 131.146  19.107  1.00  0.00     0.365 C 
ATOM     20  S   UNL     1      44.685 132.573  18.719  1.00  0.00     0.027 S 
BRANCH  19  21
ATOM     21  N   UNL     1      45.114 129.964  18.342  1.00  0.00    -0.268 N 
ATOM     22  H   UNL     1      44.233 130.118  17.799  1.00  0.00     0.356 HD
ATOM     23  H   UNL     1      44.949 129.161  18.992  1.00  0.00     0.356 HD
BRANCH  21  24
ATOM     24  C   UNL     1      46.219 129.624  17.430  1.00  0.00     0.306 C 
BRANCH  24  25
ATOM     25  C   UNL     1      45.997 130.167  16.036  1.00  0.00     0.010 A 
ATOM     26  C   UNL     1      47.063 130.244  15.125  1.00  0.00     0.030 A 
ATOM     27  C   UNL     1      44.726 130.622  15.648  1.00  0.00     0.030 A 
ATOM     28  C   UNL     1      46.858 130.761  13.840  1.00  0.00     0.043 A 
ATOM     29  C   UNL     1      44.527 131.151  14.368  1.00  0.00     0.043 A 
ATOM     30  C   UNL     1      45.591 131.218  13.465  1.00  0.00     0.041 A 
ATOM     31  Cl  UNL     1      48.197 130.865  12.713  1.00  0.00    -0.084 Cl
ATOM     32  Cl  UNL     1      42.941 131.735  13.898  1.00  0.00    -0.084 Cl
ENDBRANCH  24  25
ENDBRANCH  21  24
ENDBRANCH  19  21
ENDBRANCH   1  19
TORSDOF 9
ENDMDL
MODEL 5
REMARK VINA RESULT:      -3.6      4.089      6.576
REMARK SMILES Fc1cccc(F)c1C/C=C(\OC(=S)[NH2+]Cc1cc(Cl)cc(Cl)c1)c1ccccc1
REMARK SMILES IDX 12 1 11 2 10 3 9 4 8 5 2 6 6 7 3 8 5 9 4 10 1 11 7 12 25 13
REMARK SMILES IDX 26 14 30 15 27 16 29 17 28 18 13 19 14 20 15 21 16 24 17 25
REMARK SMILES IDX 18 26 24 27 19 28 22 29 21 30 20 31 23 32
REMARK H PARENT 15 22 15 23
ROOT
ATOM      1  O   UNL     1      46.455 131.755  20.203  1.00  0.00    -0.404 OA
ENDROOT
BRANCH   1   2
ATOM      2  C   UNL     1      45.925 132.255  21.403  1.00  0.00     0.137 C 
BRANCH   2   3
ATOM      3  C   UNL     1      46.317 133.465  21.826  1.00  0.00     0.026 C 
BRANCH   3   4
ATOM      4  C   UNL     1      47.187 133.621  23.040  1.00  0.00     0.073 C 
BRANCH   4   5
ATOM      5  C   UNL     1      48.414 134.439  22.730  1.00  0.00     0.027 A 
ATOM      6  C   UNL     1      48.337 135.528  21.839  1.00  0.00     0.129 A 
ATOM      7  C   UNL     1      49.639 134.157  23.364  1.00  0.00     0.129 A 
ATOM      8  C   UNL     1      49.472 136.299  21.571  1.00  0.00     0.040 A 
ATOM      9  C   UNL     1      50.769 134.934  23.090  1.00  0.00     0.040 A 
ATOM     10  C   UNL     1      50.687 136.001  22.193  1.00  0.00     0.006 A 
ATOM     11  F   UNL     1      47.164 135.844  21.233  1.00  0.00    -0.207 F 
ATOM     12  F   UNL     1      49.739 133.133  24.250  1.00  0.00    -0.207 F 
ENDBRANCH   4   5
ENDBRANCH   3   4
ENDBRANCH   2   3
BRANCH   2  13
ATOM     13  C   UNL     1      44.891 131.494  22.152  1.00  0.00     0.017 A 
ATOM     14  C   UNL     1      44.945 130.090  22.185  1.00  0.00     0.012 A 
ATOM     15  C   UNL     1      43.859 132.155  22.845  1.00  0.00     0.012 A 
ATOM     16  C   UNL     1      43.985 129.361  22.893  1.00  0.00     0.001 A 
ATOM     17  C   UNL     1      42.902 131.421  23.553  1.00  0.00     0.001 A 
ATOM     18  C   UNL     1      42.964 130.026  23.576  1.00  0.00     0.000 A 
ENDBRANCH   2  13
ENDBRANCH   1   2
BRANCH   1  19
ATOM     19  C   UNL     1      45.714 131.177  19.161  1.00  0.00     0.365 C 
ATOM     20  S   UNL     1      44.156 131.624  18.868  1.00  0.00     0.027 S 
BRANCH  19  21
ATOM     21  N   UNL     1      46.303 130.102  18.409  1.00  0.00    -0.268 N 
ATOM     22  H   UNL     1      46.668 129.380  19.073  1.00  0.00     0.356 HD
ATOM     23  H   UNL     1      47.115 130.466  17.858  1.00  0.00     0.356 HD
BRANCH  21  24
ATOM     24  C   UNL     1      45.330 129.496  17.485  1.00  0.00     0.306 C 
BRANCH  24  25
ATOM     25  C   UNL     1      45.410 130.094  16.098  1.00  0.00     0.010 A 
ATOM     26  C   UNL     1      44.279 130.687  15.514  1.00  0.00     0.030 A 
ATOM     27  C   UNL     1      46.611 130.039  15.373  1.00  0.00     0.030 A 
ATOM     28  C   UNL     1      44.352 131.227  14.224  1.00  0.00     0.043 A 
ATOM     29  C   UNL     1      46.678 130.567  14.079  1.00  0.00     0.043 A 
ATOM     30  C   UNL     1      45.550 131.161  13.506  1.00  0.00     0.041 A 
ATOM     31  Cl  UNL     1      42.933 131.954  13.495  1.00  0.00    -0.084 Cl
ATOM     32  Cl  UNL     1      48.178 130.479  13.172  1.00  0.00    -0.084 Cl
ENDBRANCH  24  25
ENDBRANCH  21  24
ENDBRANCH  19  21
ENDBRANCH   1  19
TORSDOF 9
ENDMDL
MODEL 6
REMARK VINA RESULT:      -3.5      4.970      7.483
REMARK SMILES Fc1cccc(F)c1C/C=C(\OC(=S)[NH2+]Cc1cc(Cl)cc(Cl)c1)c1ccccc1
REMARK SMILES IDX 12 1 11 2 10 3 9 4 8 5 2 6 6 7 3 8 5 9 4 10 1 11 7 12 25 13
REMARK SMILES IDX 26 14 30 15 27 16 29 17 28 18 13 19 14 20 15 21 16 24 17 25
REMARK SMILES IDX 18 26 24 27 19 28 22 29 21 30 20 31 23 32
REMARK H PARENT 15 22 15 23
ROOT
ATOM      1  O   UNL     1      45.508 133.192  20.471  1.00  0.00    -0.404 OA
ENDROOT
BRANCH   1   2
ATOM      2  C   UNL     1      44.395 132.338  20.470  1.00  0.00     0.137 C 
BRANCH   2   3
ATOM      3  C   UNL     1      43.543 132.393  19.436  1.00  0.00     0.026 C 
BRANCH   3   4
ATOM      4  C   UNL     1      43.282 131.189  18.577  1.00  0.00     0.073 C 
BRANCH   4   5
ATOM      5  C   UNL     1      44.251 131.123  17.424  1.00  0.00     0.027 A 
ATOM      6  C   UNL     1      45.531 130.562  17.601  1.00  0.00     0.129 A 
ATOM      7  C   UNL     1      43.869 131.574  16.146  1.00  0.00     0.129 A 
ATOM      8  C   UNL     1      46.418 130.481  16.523  1.00  0.00     0.040 A 
ATOM      9  C   UNL     1      44.763 131.489  15.074  1.00  0.00     0.040 A 
ATOM     10  C   UNL     1      46.036 130.946  15.263  1.00  0.00     0.006 A 
ATOM     11  F   UNL     1      45.918 130.091  18.814  1.00  0.00    -0.207 F 
ATOM     12  F   UNL     1      42.633 132.093  15.936  1.00  0.00    -0.207 F 
ENDBRANCH   4   5
ENDBRANCH   3   4
ENDBRANCH   2   3
BRANCH   2  13
ATOM     13  C   UNL     1      44.204 131.337  21.551  1.00  0.00     0.017 A 
ATOM     14  C   UNL     1      43.346 131.625  22.626  1.00  0.00     0.012 A 
ATOM     15  C   UNL     1      44.858 130.090  21.514  1.00  0.00     0.012 A 
ATOM     16  C   UNL     1      43.148 130.689  23.645  1.00  0.00     0.001 A 
ATOM     17  C   UNL     1      44.657 129.157  22.535  1.00  0.00     0.001 A 
ATOM     18  C   UNL     1      43.803 129.456  23.600  1.00  0.00     0.000 A 
ENDBRANCH   2  13
ENDBRANCH   1   2
BRANCH   1  19
ATOM     19  C   UNL     1      46.622 133.082  21.318  1.00  0.00     0.365 C 
ATOM     20  S   UNL     1      47.877 132.079  20.956  1.00  0.00     0.027 S 
BRANCH  19  21
ATOM     21  N   UNL     1      46.607 133.781  22.574  1.00  0.00    -0.268 N 
ATOM     22  H   UNL     1      45.935 133.308  23.222  1.00  0.00     0.356 HD
ATOM     23  H   UNL     1      46.266 134.759  22.424  1.00  0.00     0.356 HD
BRANCH  21  24
ATOM     24  C   UNL     1      47.947 133.828  23.181  1.00  0.00     0.306 C 
BRANCH  24  25
ATOM     25  C   UNL     1      48.809 134.915  22.578  1.00  0.00     0.010 A 
ATOM     26  C   UNL     1      48.308 135.733  21.552  1.00  0.00     0.030 A 
ATOM     27  C   UNL     1      50.128 135.100  23.023  1.00  0.00     0.030 A 
ATOM     28  C   UNL     1      49.113 136.729  20.986  1.00  0.00     0.043 A 
ATOM     29  C   UNL     1      50.935 136.087  22.447  1.00  0.00     0.043 A 
ATOM     30  C   UNL     1      50.428 136.901  21.430  1.00  0.00     0.041 A 
ATOM     31  Cl  UNL     1      48.485 137.737  19.696  1.00  0.00    -0.084 Cl
ATOM     32  Cl  UNL     1      52.588 136.299  22.995  1.00  0.00    -0.084 Cl
ENDBRANCH  24  25
ENDBRANCH  21  24
ENDBRANCH  19  21
ENDBRANCH   1  19
TORSDOF 9
ENDMDL


