REMARK SMILES CC(=O)c1c(-c2cnc3c(c2)C(O)=NC3)cc(/C(O)=N/[C@@H]2C=CCC2)c(F)c1O
REMARK SMILES IDX 5 1 16 2 17 3 26 4 27 5 28 6 4 7 6 8 12 9 14 10 10 11 15 12
REMARK SMILES IDX 11 13 9 14 8 15 7 16 13 17 2 19 3 20 1 21 18 22 20 23 21 24
REMARK SMILES IDX 22 25 25 26 23 27 24 28 19 29 29 31
REMARK H PARENT 13 18 19 30 29 32
ROOT
ATOM      1  C   UNL     1       0.562   1.232   0.033  1.00  0.00    -0.001 A 
ATOM      2  C   UNL     1       0.191  -0.101  -0.196  1.00  0.00     0.026 A 
ATOM      3  C   UNL     1       0.310  -0.685  -1.467  1.00  0.00     0.076 A 
ATOM      4  C   UNL     1       0.812   0.097  -2.528  1.00  0.00     0.178 A 
ATOM      5  F   UNL     1       0.935  -0.423  -3.776  1.00  0.00    -0.202 F 
ATOM      6  C   UNL     1       1.206   1.427  -2.309  1.00  0.00     0.163 A 
ATOM      7  C   UNL     1       1.096   2.002  -1.028  1.00  0.00     0.070 A 
ENDROOT
BRANCH   1   8
ATOM      8  C   UNL     1       0.324   1.805   1.378  1.00  0.00     0.002 A 
ATOM      9  C   UNL     1       1.057   1.454   5.092  1.00  0.00     0.215 C 
ATOM     10  N   UNL     1       0.566   2.276   5.968  1.00  0.00    -0.245 NA
ATOM     11  C   UNL     1       0.636   1.787   3.753  1.00  0.00     0.060 A 
ATOM     12  C   UNL     1      -0.265   3.285   5.296  1.00  0.00     0.203 C 
ATOM     13  C   UNL     1       0.901   1.207   2.518  1.00  0.00     0.026 A 
ATOM     14  C   UNL     1      -0.158   2.887   3.865  1.00  0.00     0.075 A 
ATOM     15  N   UNL     1      -0.733   3.468   2.783  1.00  0.00    -0.258 NA
ATOM     16  C   UNL     1      -0.507   2.943   1.541  1.00  0.00     0.120 A 
BRANCH   9  17
ATOM     17  O   UNL     1       1.885   0.388   5.426  1.00  0.00    -0.493 OA
ATOM     18  H   UNL     1       2.140   0.212   6.391  1.00  0.00     0.295 HD
ENDBRANCH   9  17
ENDBRANCH   1   8
BRANCH   7  19
ATOM     19  C   UNL     1       1.585   3.387  -0.819  1.00  0.00     0.164 C 
ATOM     20  O   UNL     1       1.199   4.306  -1.590  1.00  0.00    -0.294 OA
ATOM     21  C   UNL     1       2.547   3.720   0.280  1.00  0.00     0.093 C 
ENDBRANCH   7  19
BRANCH   3  22
ATOM     22  C   UNL     1      -0.107  -2.102  -1.659  1.00  0.00     0.217 C 
BRANCH  22  23
ATOM     23  N   UNL     1       0.000  -2.661  -2.832  1.00  0.00    -0.244 NA
BRANCH  23  24
ATOM     24  C   UNL     1      -0.373  -4.034  -3.168  1.00  0.00     0.132 C 
ATOM     25  C   UNL     1       0.080  -4.339  -4.551  1.00  0.00    -0.005 C 
ATOM     26  C   UNL     1      -1.902  -4.208  -3.227  1.00  0.00     0.036 C 
ATOM     27  C   UNL     1      -0.923  -4.618  -5.363  1.00  0.00    -0.029 C 
ATOM     28  C   UNL     1      -2.240  -4.550  -4.681  1.00  0.00     0.029 C 
ENDBRANCH  23  24
ENDBRANCH  22  23
BRANCH  22  29
ATOM     29  O   UNL     1      -0.609  -2.813  -0.563  1.00  0.00    -0.493 OA
ATOM     30  H   UNL     1      -0.912  -3.777  -0.614  1.00  0.00     0.295 HD
ENDBRANCH  22  29
ENDBRANCH   3  22
BRANCH   6  31
ATOM     31  O   UNL     1       1.727   2.182  -3.363  1.00  0.00    -0.504 OA
ATOM     32  H   UNL     1       1.829   1.806  -4.299  1.00  0.00     0.293 HD
ENDBRANCH   6  31
TORSDOF 8


