REMARK SMILES Oc1ccc(/N=c2\ccc3ccc(-c4cccnc4F)[nH]c-3c2F)c(F)c1
REMARK SMILES IDX 6 1 5 2 2 3 3 4 27 5 4 6 25 7 26 8 1 9 7 11 8 12 23 13 9 14
REMARK SMILES IDX 22 15 10 16 21 17 11 18 13 19 12 20 24 21 14 23 19 24 15 25
REMARK SMILES IDX 18 26 16 27 17 28 20 29
REMARK H PARENT 1 10 21 22
ROOT
ATOM      1  N   UNL     1      -1.375  -2.021   1.105  1.00  0.00    -0.243 NA
ENDROOT
BRANCH   1   2
ATOM      2  C   UNL     1      -1.487  -3.391   1.518  1.00  0.00     0.100 A 
ATOM      3  C   UNL     1      -1.793  -6.040   2.399  1.00  0.00     0.118 A 
ATOM      4  C   UNL     1      -2.835  -5.401   1.714  1.00  0.00     0.048 A 
ATOM      5  C   UNL     1      -0.607  -5.347   2.661  1.00  0.00     0.087 A 
ATOM      6  C   UNL     1      -2.686  -4.078   1.286  1.00  0.00     0.035 A 
ATOM      7  C   UNL     1      -0.454  -4.024   2.234  1.00  0.00     0.152 A 
ATOM      8  F   UNL     1       0.685  -3.353   2.538  1.00  0.00    -0.204 F 
BRANCH   3   9
ATOM      9  O   UNL     1      -1.930  -7.358   2.829  1.00  0.00    -0.508 OA
ATOM     10  H   UNL     1      -2.777  -7.886   2.657  1.00  0.00     0.293 HD
ENDBRANCH   3   9
ENDBRANCH   1   2
BRANCH   1  11
ATOM     11  C   UNL     1      -0.458  -1.502   0.333  1.00  0.00     0.102 A 
ATOM     12  C   UNL     1       0.519  -2.297  -0.312  1.00  0.00     0.032 A 
ATOM     13  C   UNL     1      -0.480  -0.113   0.119  1.00  0.00     0.172 A 
ATOM     14  C   UNL     1       1.488  -1.727  -1.142  1.00  0.00     0.013 A 
ATOM     15  C   UNL     1       0.476   0.496  -0.706  1.00  0.00     0.084 A 
ATOM     16  C   UNL     1       1.500  -0.349  -1.358  1.00  0.00     0.001 A 
ATOM     17  N   UNL     1       0.484   1.841  -0.925  1.00  0.00    -0.352 N 
ATOM     18  C   UNL     1       2.442   0.265  -2.180  1.00  0.00     0.012 A 
ATOM     19  C   UNL     1       1.420   2.431  -1.730  1.00  0.00     0.050 A 
ATOM     20  C   UNL     1       2.402   1.647  -2.366  1.00  0.00     0.027 A 
ATOM     21  F   UNL     1      -1.432   0.644   0.726  1.00  0.00    -0.202 F 
ATOM     22  H   UNL     1      -0.255   2.436  -0.486  1.00  0.00     0.167 HD
BRANCH  19  23
ATOM     23  C   UNL     1       1.401   3.898  -1.940  1.00  0.00     0.053 A 
ATOM     24  C   UNL     1       1.254   4.787  -0.858  1.00  0.00     0.222 A 
ATOM     25  C   UNL     1       1.528   4.435  -3.232  1.00  0.00     0.016 A 
ATOM     26  N   UNL     1       1.233   6.129  -1.075  1.00  0.00    -0.228 NA
ATOM     27  C   UNL     1       1.499   5.817  -3.424  1.00  0.00     0.021 A 
ATOM     28  C   UNL     1       1.348   6.657  -2.321  1.00  0.00     0.114 A 
ATOM     29  F   UNL     1       1.171   4.324   0.414  1.00  0.00    -0.184 F 
ENDBRANCH  19  23
ENDBRANCH   1  11
TORSDOF 4


