REMARK SMILES C=C(/C=C(\O)N(N)c1ccccc1-c1nc2ccccc2[nH]1)C(C)=O
REMARK SMILES IDX 4 1 5 2 3 4 2 5 1 6 23 7 25 8 24 9 6 10 8 11 9 12 13 13
REMARK SMILES IDX 10 14 12 15 11 16 14 17 15 18 22 19 16 20 21 21 17 22 20 23
REMARK SMILES IDX 18 24 19 25 7 27
REMARK H PARENT 5 3 22 26 7 28 7 29
ROOT
ATOM      1  C   UNL     1       1.711   0.158  -0.074  1.00  0.00     0.206 C 
ENDROOT
BRANCH   1   2
ATOM      2  O   UNL     1       1.846   0.520   1.269  1.00  0.00    -0.494 OA
ATOM      3  H   UNL     1       1.216   0.174   1.982  1.00  0.00     0.295 HD
ENDBRANCH   1   2
BRANCH   1   4
ATOM      4  C   UNL     1       2.525   0.710  -0.991  1.00  0.00     0.079 C 
BRANCH   4   5
ATOM      5  C   UNL     1       3.602   1.671  -0.653  1.00  0.00     0.015 C 
ATOM      6  C   UNL     1       3.799   2.713  -1.468  1.00  0.00     0.021 C 
BRANCH   5   7
ATOM      7  C   UNL     1       4.505   1.426   0.503  1.00  0.00     0.159 C 
ATOM      8  O   UNL     1       4.637   0.255   0.950  1.00  0.00    -0.295 OA
ATOM      9  C   UNL     1       5.305   2.528   1.132  1.00  0.00     0.093 C 
ENDBRANCH   5   7
ENDBRANCH   4   5
ENDBRANCH   1   4
BRANCH   1  10
ATOM     10  N   UNL     1       0.681  -0.783  -0.457  1.00  0.00    -0.248 N 
BRANCH  10  11
ATOM     11  C   UNL     1       0.241  -1.788   0.473  1.00  0.00     0.072 A 
ATOM     12  C   UNL     1       1.195  -2.629   1.072  1.00  0.00     0.029 A 
ATOM     13  C   UNL     1      -1.136  -2.001   0.732  1.00  0.00     0.043 A 
ATOM     14  C   UNL     1       0.795  -3.678   1.901  1.00  0.00     0.002 A 
ATOM     15  C   UNL     1      -1.521  -3.077   1.552  1.00  0.00     0.014 A 
ATOM     16  C   UNL     1      -0.560  -3.906   2.134  1.00  0.00     0.001 A 
BRANCH  13  17
ATOM     17  C   UNL     1      -2.185  -1.107   0.195  1.00  0.00     0.140 A 
ATOM     18  N   UNL     1      -3.412  -1.558  -0.185  1.00  0.00    -0.228 NA
ATOM     19  N   UNL     1      -2.045   0.239   0.081  1.00  0.00    -0.338 N 
ATOM     20  C   UNL     1      -4.041  -0.432  -0.564  1.00  0.00     0.089 A 
ATOM     21  C   UNL     1      -3.223   0.646  -0.405  1.00  0.00     0.066 A 
ATOM     22  C   UNL     1      -5.341  -0.302  -1.046  1.00  0.00     0.030 A 
ATOM     23  C   UNL     1      -3.634   1.942  -0.708  1.00  0.00     0.028 A 
ATOM     24  C   UNL     1      -5.792   0.992  -1.370  1.00  0.00     0.002 A 
ATOM     25  C   UNL     1      -4.942   2.110  -1.201  1.00  0.00     0.002 A 
ATOM     26  H   UNL     1      -1.228   0.834   0.345  1.00  0.00     0.168 HD
ENDBRANCH  13  17
ENDBRANCH  10  11
BRANCH  10  27
ATOM     27  N   UNL     1       0.165  -0.823  -1.766  1.00  0.00    -0.240 NA
ATOM     28  H   UNL     1      -0.008   0.157  -2.086  1.00  0.00     0.144 HD
ATOM     29  H   UNL     1       0.887  -1.258  -2.384  1.00  0.00     0.144 HD
ENDBRANCH  10  27
ENDBRANCH   1  10
TORSDOF 8


