MODEL 1
REMARK VINA RESULT:      -5.2      0.000      0.000
REMARK SMILES C[C@@H]1CC[C@@H]2CC=N[C@]2(C)C1
REMARK SMILES IDX 1 1 2 2 3 3 4 4 5 5 6 6 7 7 8 8 9 9 10 10 11 11
REMARK H PARENT
ROOT
ATOM      1  C   UNL     1      45.494 131.843  18.339  1.00  0.00     0.008 C 
ATOM      2  C   UNL     1      44.795 130.704  17.583  1.00  0.00    -0.012 C 
ATOM      3  C   UNL     1      45.821 129.642  17.119  1.00  0.00     0.004 C 
ATOM      4  C   UNL     1      45.392 128.955  15.818  1.00  0.00     0.007 C 
ATOM      5  C   UNL     1      45.294 129.964  14.651  1.00  0.00     0.022 C 
ATOM      6  C   UNL     1      46.683 130.412  14.159  1.00  0.00     0.053 C 
ATOM      7  C   UNL     1      46.746 131.833  14.587  1.00  0.00     0.078 C 
ATOM      8  N   UNL     1      45.648 132.278  15.061  1.00  0.00    -0.291 NA
ATOM      9  C   UNL     1      44.591 131.299  15.051  1.00  0.00     0.061 C 
ATOM     10  C   UNL     1      43.562 131.708  13.981  1.00  0.00     0.037 C 
ATOM     11  C   UNL     1      43.898 131.243  16.436  1.00  0.00     0.034 C 
ENDROOT
TORSDOF 0
ENDMDL
MODEL 2
REMARK VINA RESULT:      -4.4      1.248      2.451
REMARK SMILES C[C@@H]1CC[C@@H]2CC=N[C@]2(C)C1
REMARK SMILES IDX 1 1 2 2 3 3 4 4 5 5 6 6 7 7 8 8 9 9 10 10 11 11
REMARK H PARENT
ROOT
ATOM      1  C   UNL     1      45.402 131.550  18.530  1.00  0.00     0.008 C 
ATOM      2  C   UNL     1      44.896 132.185  17.226  1.00  0.00    -0.012 C 
ATOM      3  C   UNL     1      43.646 131.440  16.701  1.00  0.00     0.004 C 
ATOM      4  C   UNL     1      43.550 131.478  15.172  1.00  0.00     0.007 C 
ATOM      5  C   UNL     1      44.755 130.769  14.512  1.00  0.00     0.022 C 
ATOM      6  C   UNL     1      44.668 129.237  14.651  1.00  0.00     0.053 C 
ATOM      7  C   UNL     1      45.771 128.925  15.595  1.00  0.00     0.078 C 
ATOM      8  N   UNL     1      46.514 129.926  15.869  1.00  0.00    -0.291 NA
ATOM      9  C   UNL     1      46.120 131.127  15.179  1.00  0.00     0.061 C 
ATOM     10  C   UNL     1      47.178 131.439  14.105  1.00  0.00     0.037 C 
ATOM     11  C   UNL     1      46.030 132.313  16.173  1.00  0.00     0.034 C 
ENDROOT
TORSDOF 0
ENDMDL
MODEL 3
REMARK VINA RESULT:      -4.1      1.551      3.497
REMARK SMILES C[C@@H]1CC[C@@H]2CC=N[C@]2(C)C1
REMARK SMILES IDX 1 1 2 2 3 3 4 4 5 5 6 6 7 7 8 8 9 9 10 10 11 11
REMARK H PARENT
ROOT
ATOM      1  C   UNL     1      47.201 131.036  12.086  1.00  0.00     0.008 C 
ATOM      2  C   UNL     1      47.791 130.898  13.497  1.00  0.00    -0.012 C 
ATOM      3  C   UNL     1      47.722 129.430  13.979  1.00  0.00     0.004 C 
ATOM      4  C   UNL     1      47.563 129.328  15.500  1.00  0.00     0.007 C 
ATOM      5  C   UNL     1      46.242 129.976  15.975  1.00  0.00     0.022 C 
ATOM      6  C   UNL     1      45.017 129.114  15.617  1.00  0.00     0.053 C 
ATOM      7  C   UNL     1      44.335 129.921  14.573  1.00  0.00     0.078 C 
ATOM      8  N   UNL     1      44.841 131.082  14.406  1.00  0.00    -0.291 NA
ATOM      9  C   UNL     1      45.948 131.346  15.289  1.00  0.00     0.061 C 
ATOM     10  C   UNL     1      45.499 132.386  16.332  1.00  0.00     0.037 C 
ATOM     11  C   UNL     1      47.151 131.908  14.487  1.00  0.00     0.034 C 
ENDROOT
TORSDOF 0
ENDMDL
MODEL 4
REMARK VINA RESULT:      -3.7      1.442      3.285
REMARK SMILES C[C@@H]1CC[C@@H]2CC=N[C@]2(C)C1
REMARK SMILES IDX 1 1 2 2 3 3 4 4 5 5 6 6 7 7 8 8 9 9 10 10 11 11
REMARK H PARENT
ROOT
ATOM      1  C   UNL     1      43.142 131.382  14.016  1.00  0.00     0.008 C 
ATOM      2  C   UNL     1      44.496 131.957  14.457  1.00  0.00    -0.012 C 
ATOM      3  C   UNL     1      45.644 131.383  13.593  1.00  0.00     0.004 C 
ATOM      4  C   UNL     1      46.959 131.280  14.374  1.00  0.00     0.007 C 
ATOM      5  C   UNL     1      46.830 130.316  15.575  1.00  0.00     0.022 C 
ATOM      6  C   UNL     1      46.782 128.842  15.128  1.00  0.00     0.053 C 
ATOM      7  C   UNL     1      45.383 128.447  15.433  1.00  0.00     0.078 C 
ATOM      8  N   UNL     1      44.726 129.332  16.076  1.00  0.00    -0.291 NA
ATOM      9  C   UNL     1      45.505 130.506  16.377  1.00  0.00     0.061 C 
ATOM     10  C   UNL     1      45.788 130.525  17.890  1.00  0.00     0.037 C 
ATOM     11  C   UNL     1      44.722 131.785  15.983  1.00  0.00     0.034 C 
ENDROOT
TORSDOF 0
ENDMDL
MODEL 5
REMARK VINA RESULT:      -3.6      5.470      7.243
REMARK SMILES C[C@@H]1CC[C@@H]2CC=N[C@]2(C)C1
REMARK SMILES IDX 1 1 2 2 3 3 4 4 5 5 6 6 7 7 8 8 9 9 10 10 11 11
REMARK H PARENT
ROOT
ATOM      1  C   UNL     1      46.521 132.157  20.954  1.00  0.00     0.008 C 
ATOM      2  C   UNL     1      45.336 131.313  20.462  1.00  0.00    -0.012 C 
ATOM      3  C   UNL     1      44.057 132.177  20.348  1.00  0.00     0.004 C 
ATOM      4  C   UNL     1      42.786 131.363  20.609  1.00  0.00     0.007 C 
ATOM      5  C   UNL     1      42.765 130.790  22.044  1.00  0.00     0.022 C 
ATOM      6  C   UNL     1      42.487 131.882  23.095  1.00  0.00     0.053 C 
ATOM      7  C   UNL     1      43.786 131.997  23.806  1.00  0.00     0.078 C 
ATOM      8  N   UNL     1      44.640 131.111  23.468  1.00  0.00    -0.291 NA
ATOM      9  C   UNL     1      44.134 130.186  22.485  1.00  0.00     0.061 C 
ATOM     10  C   UNL     1      43.928 128.820  23.164  1.00  0.00     0.037 C 
ATOM     11  C   UNL     1      45.147 130.035  21.321  1.00  0.00     0.034 C 
ENDROOT
TORSDOF 0
ENDMDL
MODEL 6
REMARK VINA RESULT:      -3.3      3.871      5.806
REMARK SMILES C[C@@H]1CC[C@@H]2CC=N[C@]2(C)C1
REMARK SMILES IDX 1 1 2 2 3 3 4 4 5 5 6 6 7 7 8 8 9 9 10 10 11 11
REMARK H PARENT
ROOT
ATOM      1  C   UNL     1      43.644 129.468  22.697  1.00  0.00     0.008 C 
ATOM      2  C   UNL     1      43.430 130.945  22.334  1.00  0.00    -0.012 C 
ATOM      3  C   UNL     1      42.683 131.077  20.985  1.00  0.00     0.004 C 
ATOM      4  C   UNL     1      43.082 132.347  20.226  1.00  0.00     0.007 C 
ATOM      5  C   UNL     1      44.584 132.340  19.862  1.00  0.00     0.022 C 
ATOM      6  C   UNL     1      44.896 131.353  18.720  1.00  0.00     0.053 C 
ATOM      7  C   UNL     1      45.674 130.289  19.403  1.00  0.00     0.078 C 
ATOM      8  N   UNL     1      45.971 130.563  20.614  1.00  0.00    -0.291 NA
ATOM      9  C   UNL     1      45.498 131.858  21.031  1.00  0.00     0.061 C 
ATOM     10  C   UNL     1      46.713 132.792  21.186  1.00  0.00     0.037 C 
ATOM     11  C   UNL     1      44.758 131.747  22.389  1.00  0.00     0.034 C 
ENDROOT
TORSDOF 0
ENDMDL
MODEL 7
REMARK VINA RESULT:      -3.1      1.508      2.818
REMARK SMILES C[C@@H]1CC[C@@H]2CC=N[C@]2(C)C1
REMARK SMILES IDX 1 1 2 2 3 3 4 4 5 5 6 6 7 7 8 8 9 9 10 10 11 11
REMARK H PARENT
ROOT
ATOM      1  C   UNL     1      45.167 129.975  18.500  1.00  0.00     0.008 C 
ATOM      2  C   UNL     1      46.092 130.888  17.681  1.00  0.00    -0.012 C 
ATOM      3  C   UNL     1      45.303 132.077  17.085  1.00  0.00     0.004 C 
ATOM      4  C   UNL     1      45.890 132.548  15.750  1.00  0.00     0.007 C 
ATOM      5  C   UNL     1      45.824 131.436  14.679  1.00  0.00     0.022 C 
ATOM      6  C   UNL     1      44.388 131.216  14.165  1.00  0.00     0.053 C 
ATOM      7  C   UNL     1      44.041 129.878  14.710  1.00  0.00     0.078 C 
ATOM      8  N   UNL     1      45.020 129.279  15.268  1.00  0.00    -0.291 NA
ATOM      9  C   UNL     1      46.246 130.035  15.220  1.00  0.00     0.061 C 
ATOM     10  C   UNL     1      47.205 129.343  14.235  1.00  0.00     0.037 C 
ATOM     11  C   UNL     1      46.899 130.086  16.625  1.00  0.00     0.034 C 
ENDROOT
TORSDOF 0
ENDMDL
MODEL 8
REMARK VINA RESULT:      -3.1      8.990     10.423
REMARK SMILES C[C@@H]1CC[C@@H]2CC=N[C@]2(C)C1
REMARK SMILES IDX 1 1 2 2 3 3 4 4 5 5 6 6 7 7 8 8 9 9 10 10 11 11
REMARK H PARENT
ROOT
ATOM      1  C   UNL     1      44.247 126.702  22.938  1.00  0.00     0.008 C 
ATOM      2  C   UNL     1      44.490 125.347  23.619  1.00  0.00    -0.012 C 
ATOM      3  C   UNL     1      45.062 124.321  22.612  1.00  0.00     0.004 C 
ATOM      4  C   UNL     1      44.636 122.887  22.945  1.00  0.00     0.007 C 
ATOM      5  C   UNL     1      43.102 122.720  22.872  1.00  0.00     0.022 C 
ATOM      6  C   UNL     1      42.591 122.716  21.418  1.00  0.00     0.053 C 
ATOM      7  C   UNL     1      41.852 124.000  21.321  1.00  0.00     0.078 C 
ATOM      8  N   UNL     1      41.730 124.611  22.435  1.00  0.00    -0.291 NA
ATOM      9  C   UNL     1      42.323 123.897  23.538  1.00  0.00     0.061 C 
ATOM     10  C   UNL     1      41.191 123.358  24.431  1.00  0.00     0.037 C 
ATOM     11  C   UNL     1      43.226 124.846  24.367  1.00  0.00     0.034 C 
ENDROOT
TORSDOF 0
ENDMDL
MODEL 9
REMARK VINA RESULT:      -3.0      9.095     10.477
REMARK SMILES C[C@@H]1CC[C@@H]2CC=N[C@]2(C)C1
REMARK SMILES IDX 1 1 2 2 3 3 4 4 5 5 6 6 7 7 8 8 9 9 10 10 11 11
REMARK H PARENT
ROOT
ATOM      1  C   UNL     1      44.407 126.531  22.790  1.00  0.00     0.008 C 
ATOM      2  C   UNL     1      43.799 125.740  23.957  1.00  0.00    -0.012 C 
ATOM      3  C   UNL     1      44.417 124.324  24.042  1.00  0.00     0.004 C 
ATOM      4  C   UNL     1      43.427 123.294  24.599  1.00  0.00     0.007 C 
ATOM      5  C   UNL     1      42.190 123.146  23.685  1.00  0.00     0.022 C 
ATOM      6  C   UNL     1      42.520 122.381  22.389  1.00  0.00     0.053 C 
ATOM      7  C   UNL     1      42.415 123.433  21.346  1.00  0.00     0.078 C 
ATOM      8  N   UNL     1      41.960 124.545  21.777  1.00  0.00    -0.291 NA
ATOM      9  C   UNL     1      41.632 124.513  23.180  1.00  0.00     0.061 C 
ATOM     10  C   UNL     1      40.099 124.554  23.320  1.00  0.00     0.037 C 
ATOM     11  C   UNL     1      42.248 125.738  23.903  1.00  0.00     0.034 C 
ENDROOT
TORSDOF 0
ENDMDL


