REMARK SMILES Cc1ccc(-c2cc3[nH]ccc3cc2N(N)C(=O)N2CCOCC2)cc1F
REMARK SMILES IDX 6 1 7 2 8 3 9 4 10 5 11 6 12 7 13 8 14 9 5 11 2 12 3 13
REMARK SMILES IDX 26 14 4 15 25 16 1 17 27 18 15 19 16 20 17 23 19 24 20 25
REMARK SMILES IDX 24 26 21 27 23 28 22 29 18 30
REMARK H PARENT 9 10 16 21 16 22
ROOT
ATOM      1  C   UNL     1      -1.549  -0.880   0.797  1.00  0.00     0.009 A 
ATOM      2  C   UNL     1      -2.924  -0.902   1.121  1.00  0.00     0.037 A 
ATOM      3  C   UNL     1      -3.302  -1.401   2.363  1.00  0.00     0.046 A 
ATOM      4  N   UNL     1      -4.548  -1.513   2.852  1.00  0.00    -0.361 N 
ATOM      5  C   UNL     1      -4.413  -2.050   4.085  1.00  0.00     0.083 A 
ATOM      6  C   UNL     1      -3.073  -2.281   4.379  1.00  0.00     0.028 A 
ATOM      7  C   UNL     1      -2.383  -1.860   3.263  1.00  0.00     0.002 A 
ATOM      8  C   UNL     1      -1.018  -1.846   2.996  1.00  0.00     0.039 A 
ATOM      9  C   UNL     1      -0.582  -1.338   1.751  1.00  0.00     0.071 A 
ATOM     10  H   UNL     1      -5.439  -1.242   2.380  1.00  0.00     0.166 HD
ENDROOT
BRANCH   1  11
ATOM     11  C   UNL     1      -1.146  -0.412  -0.546  1.00  0.00    -0.013 A 
ATOM     12  C   UNL     1      -0.292   0.516  -3.062  1.00  0.00    -0.015 A 
ATOM     13  C   UNL     1      -1.053   1.344  -2.222  1.00  0.00     0.007 A 
ATOM     14  C   UNL     1       0.035  -0.782  -2.639  1.00  0.00     0.126 A 
ATOM     15  C   UNL     1      -1.483   0.881  -0.976  1.00  0.00     0.009 A 
ATOM     16  C   UNL     1      -0.402  -1.246  -1.394  1.00  0.00     0.048 A 
ATOM     17  C   UNL     1       0.226   1.037  -4.371  1.00  0.00     0.047 C 
ATOM     18  F   UNL     1       0.788  -1.595  -3.423  1.00  0.00    -0.207 F 
ENDBRANCH   1  11
BRANCH   9  19
ATOM     19  N   UNL     1       0.835  -1.249   1.476  1.00  0.00    -0.229 N 
BRANCH  19  20
ATOM     20  N   UNL     1       1.697  -2.289   1.868  1.00  0.00    -0.239 NA
ATOM     21  H   UNL     1       1.879  -2.187   2.892  1.00  0.00     0.144 HD
ATOM     22  H   UNL     1       1.211  -3.201   1.709  1.00  0.00     0.144 HD
ENDBRANCH  19  20
BRANCH  19  23
ATOM     23  C   UNL     1       1.399   0.019   1.090  1.00  0.00     0.339 C 
ATOM     24  N   UNL     1       2.413   0.120   0.061  1.00  0.00    -0.319 N 
ATOM     25  C   UNL     1       2.595   1.437  -0.576  1.00  0.00     0.150 C 
ATOM     26  C   UNL     1       3.083  -1.095  -0.438  1.00  0.00     0.150 C 
ATOM     27  C   UNL     1       3.659   1.431  -1.675  1.00  0.00     0.181 C 
ATOM     28  C   UNL     1       4.078  -0.814  -1.569  1.00  0.00     0.181 C 
ATOM     29  O   UNL     1       3.622   0.226  -2.403  1.00  0.00    -0.378 OA
ATOM     30  O   UNL     1       0.940   1.071   1.614  1.00  0.00    -0.247 OA
ENDBRANCH  19  23
ENDBRANCH   9  19
TORSDOF 4


