REMARK SMILES O=C([N-]CCc1ccc(-c2c[nH+]c3ccnn3c2)cc1)[C@H]1CCCSC1
REMARK SMILES IDX 4 1 3 2 2 3 1 4 21 5 22 6 26 7 23 8 25 9 24 10 5 11 6 12
REMARK SMILES IDX 7 13 20 14 8 15 19 16 9 17 10 18 11 19 18 20 12 21 17 22
REMARK SMILES IDX 13 23 16 24 14 25 15 26
REMARK H PARENT 12 27
ROOT
ATOM      1  C   UNL     1      -2.304  -3.201  -1.032  1.00  0.00    -0.113 C 
ENDROOT
BRANCH   1   2
ATOM      2  N   UNL     1      -0.904  -3.093  -1.435  1.00  0.00    -0.653 NA
BRANCH   2   3
ATOM      3  C   UNL     1      -0.251  -1.851  -1.726  1.00  0.00     0.055 C 
ATOM      4  O   UNL     1      -0.904  -0.772  -1.726  1.00  0.00    -0.320 OA
BRANCH   3   5
ATOM      5  C   UNL     1       1.223  -1.837  -2.029  1.00  0.00     0.047 C 
ATOM      6  C   UNL     1       1.468  -1.247  -3.431  1.00  0.00     0.011 C 
ATOM      7  C   UNL     1       1.975  -1.044  -0.949  1.00  0.00     0.079 C 
ATOM      8  C   UNL     1       2.953  -1.264  -3.809  1.00  0.00     0.012 C 
ATOM      9  S   UNL     1       3.781  -1.179  -1.173  1.00  0.00    -0.161 SA
ATOM     10  C   UNL     1       3.790  -0.432  -2.838  1.00  0.00     0.069 C 
ENDBRANCH   3   5
ENDBRANCH   2   3
ENDBRANCH   1   2
BRANCH   1  11
ATOM     11  C   UNL     1      -2.450  -3.127   0.493  1.00  0.00     0.016 C 
BRANCH  11  12
ATOM     12  C   UNL     1      -1.980  -1.805   1.042  1.00  0.00    -0.049 A 
ATOM     13  C   UNL     1      -2.780  -0.661   0.911  1.00  0.00     0.004 A 
ATOM     14  C   UNL     1      -0.710  -1.692   1.625  1.00  0.00     0.004 A 
ATOM     15  C   UNL     1      -2.310   0.583   1.343  1.00  0.00     0.009 A 
ATOM     16  C   UNL     1      -0.238  -0.450   2.055  1.00  0.00     0.009 A 
ATOM     17  C   UNL     1      -1.029   0.703   1.911  1.00  0.00    -0.011 A 
BRANCH  17  18
ATOM     18  C   UNL     1      -0.512   2.028   2.335  1.00  0.00     0.063 A 
ATOM     19  C   UNL     1      -1.354   2.974   2.972  1.00  0.00     0.210 A 
ATOM     20  C   UNL     1       0.833   2.386   2.108  1.00  0.00     0.245 A 
ATOM     21  N   UNL     1      -0.871   4.192   3.354  1.00  0.00    -0.245 N 
ATOM     22  N   UNL     1       1.244   3.611   2.513  1.00  0.00    -0.104 N 
ATOM     23  C   UNL     1       0.430   4.484   3.112  1.00  0.00     0.306 A 
ATOM     24  N   UNL     1       2.453   4.128   2.386  1.00  0.00    -0.086 NA
ATOM     25  C   UNL     1       1.118   5.637   3.404  1.00  0.00     0.125 A 
ATOM     26  C   UNL     1       2.399   5.370   2.927  1.00  0.00     0.167 A 
ATOM     27  H   UNL     1      -1.495   4.885   3.826  1.00  0.00     0.312 HD
ENDBRANCH  17  18
ENDBRANCH  11  12
ENDBRANCH   1  11
TORSDOF 6


