MODEL 1
REMARK VINA RESULT:      -4.4      0.000      0.000
REMARK SMILES C=Cc1ccc(-c2cc3cc[nH]c3cc2Nc2cc(F)c([O-])cc2N)nc1
REMARK SMILES IDX 7 1 8 2 9 3 10 4 11 5 12 6 13 7 14 8 15 9 6 11 3 12 4 13
REMARK SMILES IDX 27 14 5 15 26 16 2 17 1 18 16 19 17 21 18 22 24 23 19 24
REMARK SMILES IDX 23 25 21 26 20 27 22 28 25 29
REMARK H PARENT 12 10 16 20 25 30 25 31
ROOT
ATOM      1  C   UNL     1      44.255 126.017  23.365  1.00  0.00     0.024 A 
ATOM      2  C   UNL     1      45.044 124.853  23.220  1.00  0.00     0.022 A 
ATOM      3  C   UNL     1      46.415 125.005  23.042  1.00  0.00     0.000 A 
ATOM      4  C   UNL     1      47.408 124.062  22.889  1.00  0.00     0.028 A 
ATOM      5  C   UNL     1      48.585 124.792  22.766  1.00  0.00     0.083 A 
ATOM      6  N   UNL     1      48.336 126.119  22.840  1.00  0.00    -0.361 N 
ATOM      7  C   UNL     1      47.009 126.234  23.010  1.00  0.00     0.047 A 
ATOM      8  C   UNL     1      46.272 127.407  23.139  1.00  0.00     0.053 A 
ATOM      9  C   UNL     1      44.873 127.308  23.294  1.00  0.00     0.050 A 
ATOM     10  H   UNL     1      49.035 126.892  22.778  1.00  0.00     0.166 HD
ENDROOT
BRANCH   1  11
ATOM     11  C   UNL     1      42.810 125.869  23.646  1.00  0.00     0.072 A 
ATOM     12  C   UNL     1      40.112 125.502  24.273  1.00  0.00    -0.008 A 
ATOM     13  C   UNL     1      40.702 126.767  24.408  1.00  0.00     0.012 A 
ATOM     14  C   UNL     1      40.905 124.446  23.785  1.00  0.00     0.119 A 
ATOM     15  C   UNL     1      42.049 126.955  24.097  1.00  0.00     0.030 A 
ATOM     16  N   UNL     1      42.216 124.655  23.491  1.00  0.00    -0.256 NA
BRANCH  12  17
ATOM     17  C   UNL     1      38.681 125.338  24.625  1.00  0.00     0.002 C 
ATOM     18  C   UNL     1      37.971 124.238  24.372  1.00  0.00     0.009 C 
ENDBRANCH  12  17
ENDBRANCH   1  11
BRANCH   9  19
ATOM     19  N   UNL     1      44.105 128.523  23.364  1.00  0.00    -0.353 N 
ATOM     20  H   UNL     1      43.631 128.748  24.267  1.00  0.00     0.167 HD
BRANCH  19  21
ATOM     21  C   UNL     1      44.150 129.547  22.353  1.00  0.00     0.065 A 
ATOM     22  C   UNL     1      45.156 129.524  21.369  1.00  0.00     0.066 A 
ATOM     23  C   UNL     1      43.192 130.588  22.337  1.00  0.00     0.055 A 
ATOM     24  C   UNL     1      45.204 130.506  20.378  1.00  0.00     0.117 A 
ATOM     25  C   UNL     1      43.257 131.572  21.339  1.00  0.00     0.022 A 
ATOM     26  C   UNL     1      44.255 131.530  20.362  1.00  0.00    -0.070 A 
ATOM     27  F   UNL     1      46.176 130.463  19.433  1.00  0.00    -0.208 F 
ATOM     28  O   UNL     1      44.301 132.507  19.375  1.00  0.00    -0.870 OA
BRANCH  23  29
ATOM     29  N   UNL     1      42.120 130.629  23.289  1.00  0.00    -0.397 N 
ATOM     30  H   UNL     1      41.234 131.146  23.102  1.00  0.00     0.156 HD
ATOM     31  H   UNL     1      42.229 130.186  24.228  1.00  0.00     0.156 HD
ENDBRANCH  23  29
ENDBRANCH  19  21
ENDBRANCH   9  19
TORSDOF 5
ENDMDL
MODEL 2
REMARK VINA RESULT:      -4.4      1.817      2.374
REMARK SMILES C=Cc1ccc(-c2cc3cc[nH]c3cc2Nc2cc(F)c([O-])cc2N)nc1
REMARK SMILES IDX 7 1 8 2 9 3 10 4 11 5 12 6 13 7 14 8 15 9 6 11 3 12 4 13
REMARK SMILES IDX 27 14 5 15 26 16 2 17 1 18 16 19 17 21 18 22 24 23 19 24
REMARK SMILES IDX 23 25 21 26 20 27 22 28 25 29
REMARK H PARENT 12 10 16 20 25 30 25 31
ROOT
ATOM      1  C   UNL     1      44.875 124.318  22.062  1.00  0.00     0.024 A 
ATOM      2  C   UNL     1      45.623 123.374  21.320  1.00  0.00     0.022 A 
ATOM      3  C   UNL     1      46.964 123.644  21.072  1.00  0.00     0.000 A 
ATOM      4  C   UNL     1      47.916 122.909  20.400  1.00  0.00     0.028 A 
ATOM      5  C   UNL     1      49.081 123.664  20.481  1.00  0.00     0.083 A 
ATOM      6  N   UNL     1      48.864 124.808  21.170  1.00  0.00    -0.361 N 
ATOM      7  C   UNL     1      47.569 124.781  21.526  1.00  0.00     0.047 A 
ATOM      8  C   UNL     1      46.872 125.743  22.250  1.00  0.00     0.053 A 
ATOM      9  C   UNL     1      45.501 125.528  22.505  1.00  0.00     0.050 A 
ATOM     10  H   UNL     1      49.562 125.555  21.380  1.00  0.00     0.166 HD
ENDROOT
BRANCH   1  11
ATOM     11  C   UNL     1      43.473 124.002  22.411  1.00  0.00     0.072 A 
ATOM     12  C   UNL     1      40.805 123.368  22.944  1.00  0.00    -0.008 A 
ATOM     13  C   UNL     1      41.837 122.679  23.596  1.00  0.00     0.012 A 
ATOM     14  C   UNL     1      41.153 124.399  22.050  1.00  0.00     0.119 A 
ATOM     15  C   UNL     1      43.171 122.991  23.333  1.00  0.00     0.030 A 
ATOM     16  N   UNL     1      42.460 124.682  21.809  1.00  0.00    -0.256 NA
BRANCH  12  17
ATOM     17  C   UNL     1      39.399 123.000  23.240  1.00  0.00     0.002 C 
ATOM     18  C   UNL     1      38.591 122.382  22.377  1.00  0.00     0.009 C 
ENDBRANCH  12  17
ENDBRANCH   1  11
BRANCH   9  19
ATOM     19  N   UNL     1      44.767 126.553  23.201  1.00  0.00    -0.353 N 
ATOM     20  H   UNL     1      44.549 126.395  24.210  1.00  0.00     0.167 HD
BRANCH  19  21
ATOM     21  C   UNL     1      44.528 127.864  22.656  1.00  0.00     0.065 A 
ATOM     22  C   UNL     1      45.398 128.393  21.685  1.00  0.00     0.066 A 
ATOM     23  C   UNL     1      43.425 128.636  23.091  1.00  0.00     0.055 A 
ATOM     24  C   UNL     1      45.172 129.660  21.143  1.00  0.00     0.117 A 
ATOM     25  C   UNL     1      43.214 129.910  22.542  1.00  0.00     0.022 A 
ATOM     26  C   UNL     1      44.080 130.419  21.571  1.00  0.00    -0.070 A 
ATOM     27  F   UNL     1      46.016 130.151  20.202  1.00  0.00    -0.208 F 
ATOM     28  O   UNL     1      43.853 131.678  21.031  1.00  0.00    -0.870 OA
BRANCH  23  29
ATOM     29  N   UNL     1      42.485 128.122  24.043  1.00  0.00    -0.397 N 
ATOM     30  H   UNL     1      42.632 127.211  24.530  1.00  0.00     0.156 HD
ATOM     31  H   UNL     1      41.589 128.626  24.227  1.00  0.00     0.156 HD
ENDBRANCH  23  29
ENDBRANCH  19  21
ENDBRANCH   9  19
TORSDOF 5
ENDMDL
MODEL 3
REMARK VINA RESULT:      -4.3      3.930      8.407
REMARK SMILES C=Cc1ccc(-c2cc3cc[nH]c3cc2Nc2cc(F)c([O-])cc2N)nc1
REMARK SMILES IDX 7 1 8 2 9 3 10 4 11 5 12 6 13 7 14 8 15 9 6 11 3 12 4 13
REMARK SMILES IDX 27 14 5 15 26 16 2 17 1 18 16 19 17 21 18 22 24 23 19 24
REMARK SMILES IDX 23 25 21 26 20 27 22 28 25 29
REMARK H PARENT 12 10 16 20 25 30 25 31
ROOT
ATOM      1  C   UNL     1      44.089 131.449  19.190  1.00  0.00     0.024 A 
ATOM      2  C   UNL     1      42.963 132.284  19.006  1.00  0.00     0.022 A 
ATOM      3  C   UNL     1      42.213 132.635  20.122  1.00  0.00     0.000 A 
ATOM      4  C   UNL     1      41.094 133.432  20.235  1.00  0.00     0.028 A 
ATOM      5  C   UNL     1      40.787 133.435  21.591  1.00  0.00     0.083 A 
ATOM      6  N   UNL     1      41.671 132.682  22.285  1.00  0.00    -0.361 N 
ATOM      7  C   UNL     1      42.535 132.202  21.377  1.00  0.00     0.047 A 
ATOM      8  C   UNL     1      43.627 131.371  21.606  1.00  0.00     0.053 A 
ATOM      9  C   UNL     1      44.405 130.964  20.501  1.00  0.00     0.050 A 
ATOM     10  H   UNL     1      41.676 132.512  23.315  1.00  0.00     0.166 HD
ENDROOT
BRANCH   1  11
ATOM     11  C   UNL     1      44.949 131.142  18.027  1.00  0.00     0.072 A 
ATOM     12  C   UNL     1      46.487 130.465  15.795  1.00  0.00    -0.008 A 
ATOM     13  C   UNL     1      45.910 131.739  15.894  1.00  0.00     0.012 A 
ATOM     14  C   UNL     1      46.296 129.563  16.859  1.00  0.00     0.119 A 
ATOM     15  C   UNL     1      45.140 132.081  17.006  1.00  0.00     0.030 A 
ATOM     16  N   UNL     1      45.540 129.921  17.931  1.00  0.00    -0.256 NA
BRANCH  12  17
ATOM     17  C   UNL     1      47.289 130.132  14.592  1.00  0.00     0.002 C 
ATOM     18  C   UNL     1      47.190 130.776  13.428  1.00  0.00     0.009 C 
ENDBRANCH  12  17
ENDBRANCH   1  11
BRANCH   9  19
ATOM     19  N   UNL     1      45.497 130.054  20.732  1.00  0.00    -0.353 N 
ATOM     20  H   UNL     1      46.433 130.309  20.345  1.00  0.00     0.167 HD
BRANCH  19  21
ATOM     21  C   UNL     1      45.426 128.951  21.655  1.00  0.00     0.065 A 
ATOM     22  C   UNL     1      45.815 127.662  21.244  1.00  0.00     0.066 A 
ATOM     23  C   UNL     1      44.961 129.144  22.976  1.00  0.00     0.055 A 
ATOM     24  C   UNL     1      45.759 126.586  22.132  1.00  0.00     0.117 A 
ATOM     25  C   UNL     1      44.903 128.052  23.856  1.00  0.00     0.022 A 
ATOM     26  C   UNL     1      45.303 126.780  23.438  1.00  0.00    -0.070 A 
ATOM     27  F   UNL     1      46.146 125.353  21.722  1.00  0.00    -0.208 F 
ATOM     28  O   UNL     1      45.249 125.711  24.323  1.00  0.00    -0.870 OA
BRANCH  23  29
ATOM     29  N   UNL     1      44.598 130.446  23.456  1.00  0.00    -0.397 N 
ATOM     30  H   UNL     1      45.074 130.888  24.271  1.00  0.00     0.156 HD
ATOM     31  H   UNL     1      43.796 130.962  23.030  1.00  0.00     0.156 HD
ENDBRANCH  23  29
ENDBRANCH  19  21
ENDBRANCH   9  19
TORSDOF 5
ENDMDL
MODEL 4
REMARK VINA RESULT:      -3.9      3.011      6.154
REMARK SMILES C=Cc1ccc(-c2cc3cc[nH]c3cc2Nc2cc(F)c([O-])cc2N)nc1
REMARK SMILES IDX 7 1 8 2 9 3 10 4 11 5 12 6 13 7 14 8 15 9 6 11 3 12 4 13
REMARK SMILES IDX 27 14 5 15 26 16 2 17 1 18 16 19 17 21 18 22 24 23 19 24
REMARK SMILES IDX 23 25 21 26 20 27 22 28 25 29
REMARK H PARENT 12 10 16 20 25 30 25 31
ROOT
ATOM      1  C   UNL     1      42.896 126.472  23.746  1.00  0.00     0.024 A 
ATOM      2  C   UNL     1      41.674 125.895  23.331  1.00  0.00     0.022 A 
ATOM      3  C   UNL     1      41.524 124.517  23.447  1.00  0.00     0.000 A 
ATOM      4  C   UNL     1      40.455 123.704  23.136  1.00  0.00     0.028 A 
ATOM      5  C   UNL     1      40.868 122.420  23.473  1.00  0.00     0.083 A 
ATOM      6  N   UNL     1      42.126 122.435  23.969  1.00  0.00    -0.361 N 
ATOM      7  C   UNL     1      42.513 123.720  23.949  1.00  0.00     0.047 A 
ATOM      8  C   UNL     1      43.735 124.242  24.360  1.00  0.00     0.053 A 
ATOM      9  C   UNL     1      43.948 125.632  24.238  1.00  0.00     0.050 A 
ATOM     10  H   UNL     1      42.679 121.613  24.300  1.00  0.00     0.166 HD
ENDROOT
BRANCH   1  11
ATOM     11  C   UNL     1      43.037 127.944  23.715  1.00  0.00     0.072 A 
ATOM     12  C   UNL     1      43.323 130.717  23.523  1.00  0.00    -0.008 A 
ATOM     13  C   UNL     1      42.118 130.161  23.977  1.00  0.00     0.012 A 
ATOM     14  C   UNL     1      44.380 129.844  23.204  1.00  0.00     0.119 A 
ATOM     15  C   UNL     1      41.971 128.777  24.074  1.00  0.00     0.030 A 
ATOM     16  N   UNL     1      44.210 128.499  23.305  1.00  0.00    -0.256 NA
BRANCH  12  17
ATOM     17  C   UNL     1      43.438 132.192  23.421  1.00  0.00     0.002 C 
ATOM     18  C   UNL     1      43.958 132.967  24.374  1.00  0.00     0.009 C 
ENDBRANCH  12  17
ENDBRANCH   1  11
BRANCH   9  19
ATOM     19  N   UNL     1      45.235 126.161  24.607  1.00  0.00    -0.353 N 
ATOM     20  H   UNL     1      45.320 126.633  25.534  1.00  0.00     0.167 HD
BRANCH  19  21
ATOM     21  C   UNL     1      46.446 125.870  23.884  1.00  0.00     0.065 A 
ATOM     22  C   UNL     1      47.692 126.265  24.408  1.00  0.00     0.066 A 
ATOM     23  C   UNL     1      46.401 125.193  22.643  1.00  0.00     0.055 A 
ATOM     24  C   UNL     1      48.873 125.981  23.720  1.00  0.00     0.117 A 
ATOM     25  C   UNL     1      47.596 124.921  21.960  1.00  0.00     0.022 A 
ATOM     26  C   UNL     1      48.826 125.309  22.497  1.00  0.00    -0.070 A 
ATOM     27  F   UNL     1      50.065 126.361  24.244  1.00  0.00    -0.208 F 
ATOM     28  O   UNL     1      50.002 125.024  21.813  1.00  0.00    -0.870 OA
BRANCH  23  29
ATOM     29  N   UNL     1      45.161 124.730  22.091  1.00  0.00    -0.397 N 
ATOM     30  H   UNL     1      44.970 123.717  21.933  1.00  0.00     0.156 HD
ATOM     31  H   UNL     1      44.435 125.411  21.775  1.00  0.00     0.156 HD
ENDBRANCH  23  29
ENDBRANCH  19  21
ENDBRANCH   9  19
TORSDOF 5
ENDMDL
MODEL 5
REMARK VINA RESULT:      -3.8      1.758      5.505
REMARK SMILES C=Cc1ccc(-c2cc3cc[nH]c3cc2Nc2cc(F)c([O-])cc2N)nc1
REMARK SMILES IDX 7 1 8 2 9 3 10 4 11 5 12 6 13 7 14 8 15 9 6 11 3 12 4 13
REMARK SMILES IDX 27 14 5 15 26 16 2 17 1 18 16 19 17 21 18 22 24 23 19 24
REMARK SMILES IDX 23 25 21 26 20 27 22 28 25 29
REMARK H PARENT 12 10 16 20 25 30 25 31
ROOT
ATOM      1  C   UNL     1      43.539 126.841  23.566  1.00  0.00     0.024 A 
ATOM      2  C   UNL     1      42.505 125.972  23.986  1.00  0.00     0.022 A 
ATOM      3  C   UNL     1      41.240 126.508  24.199  1.00  0.00     0.000 A 
ATOM      4  C   UNL     1      40.065 125.904  24.592  1.00  0.00     0.028 A 
ATOM      5  C   UNL     1      39.124 126.927  24.624  1.00  0.00     0.083 A 
ATOM      6  N   UNL     1      39.685 128.106  24.269  1.00  0.00    -0.361 N 
ATOM      7  C   UNL     1      40.975 127.835  24.010  1.00  0.00     0.047 A 
ATOM      8  C   UNL     1      41.962 128.729  23.608  1.00  0.00     0.053 A 
ATOM      9  C   UNL     1      43.269 128.239  23.404  1.00  0.00     0.050 A 
ATOM     10  H   UNL     1      39.209 129.033  24.208  1.00  0.00     0.166 HD
ENDROOT
BRANCH   1  11
ATOM     11  C   UNL     1      44.865 126.269  23.247  1.00  0.00     0.072 A 
ATOM     12  C   UNL     1      47.316 125.130  22.539  1.00  0.00    -0.008 A 
ATOM     13  C   UNL     1      47.169 126.525  22.570  1.00  0.00     0.012 A 
ATOM     14  C   UNL     1      46.213 124.336  22.905  1.00  0.00     0.119 A 
ATOM     15  C   UNL     1      45.946 127.098  22.922  1.00  0.00     0.030 A 
ATOM     16  N   UNL     1      45.033 124.919  23.242  1.00  0.00    -0.256 NA
BRANCH  12  17
ATOM     17  C   UNL     1      48.627 124.557  22.148  1.00  0.00     0.002 C 
ATOM     18  C   UNL     1      49.296 123.660  22.873  1.00  0.00     0.009 C 
ENDBRANCH  12  17
ENDBRANCH   1  11
BRANCH   9  19
ATOM     19  N   UNL     1      44.302 129.176  23.048  1.00  0.00    -0.353 N 
ATOM     20  H   UNL     1      45.267 128.997  23.406  1.00  0.00     0.167 HD
BRANCH  19  21
ATOM     21  C   UNL     1      44.134 130.197  22.046  1.00  0.00     0.065 A 
ATOM     22  C   UNL     1      43.034 131.073  22.111  1.00  0.00     0.066 A 
ATOM     23  C   UNL     1      45.062 130.329  20.988  1.00  0.00     0.055 A 
ATOM     24  C   UNL     1      42.865 132.072  21.151  1.00  0.00     0.117 A 
ATOM     25  C   UNL     1      44.875 131.334  20.026  1.00  0.00     0.022 A 
ATOM     26  C   UNL     1      43.785 132.204  20.108  1.00  0.00    -0.070 A 
ATOM     27  F   UNL     1      41.804 132.914  21.233  1.00  0.00    -0.208 F 
ATOM     28  O   UNL     1      43.619 133.199  19.153  1.00  0.00    -0.870 OA
BRANCH  23  29
ATOM     29  N   UNL     1      46.223 129.492  20.905  1.00  0.00    -0.397 N 
ATOM     30  H   UNL     1      47.187 129.870  21.024  1.00  0.00     0.156 HD
ATOM     31  H   UNL     1      46.130 128.481  20.660  1.00  0.00     0.156 HD
ENDBRANCH  23  29
ENDBRANCH  19  21
ENDBRANCH   9  19
TORSDOF 5
ENDMDL
MODEL 6
REMARK VINA RESULT:      -3.6      3.683      7.493
REMARK SMILES C=Cc1ccc(-c2cc3cc[nH]c3cc2Nc2cc(F)c([O-])cc2N)nc1
REMARK SMILES IDX 7 1 8 2 9 3 10 4 11 5 12 6 13 7 14 8 15 9 6 11 3 12 4 13
REMARK SMILES IDX 27 14 5 15 26 16 2 17 1 18 16 19 17 21 18 22 24 23 19 24
REMARK SMILES IDX 23 25 21 26 20 27 22 28 25 29
REMARK H PARENT 12 10 16 20 25 30 25 31
ROOT
ATOM      1  C   UNL     1      45.562 132.259  21.016  1.00  0.00     0.024 A 
ATOM      2  C   UNL     1      46.630 133.180  21.127  1.00  0.00     0.022 A 
ATOM      3  C   UNL     1      46.984 133.630  22.394  1.00  0.00     0.000 A 
ATOM      4  C   UNL     1      47.974 134.502  22.791  1.00  0.00     0.028 A 
ATOM      5  C   UNL     1      47.868 134.565  24.176  1.00  0.00     0.083 A 
ATOM      6  N   UNL     1      46.866 133.771  24.616  1.00  0.00    -0.361 N 
ATOM      7  C   UNL     1      46.336 133.205  23.520  1.00  0.00     0.047 A 
ATOM      8  C   UNL     1      45.274 132.309  23.459  1.00  0.00     0.053 A 
ATOM      9  C   UNL     1      44.859 131.843  22.194  1.00  0.00     0.050 A 
ATOM     10  H   UNL     1      46.568 133.629  25.607  1.00  0.00     0.166 HD
ENDROOT
BRANCH   1  11
ATOM     11  C   UNL     1      45.234 131.703  19.686  1.00  0.00     0.072 A 
ATOM     12  C   UNL     1      44.619 130.776  17.123  1.00  0.00    -0.008 A 
ATOM     13  C   UNL     1      45.799 130.362  17.759  1.00  0.00     0.012 A 
ATOM     14  C   UNL     1      43.751 131.635  17.824  1.00  0.00     0.119 A 
ATOM     15  C   UNL     1      46.110 130.823  19.038  1.00  0.00     0.030 A 
ATOM     16  N   UNL     1      44.079 132.071  19.069  1.00  0.00    -0.256 NA
BRANCH  12  17
ATOM     17  C   UNL     1      44.327 130.275  15.758  1.00  0.00     0.002 C 
ATOM     18  C   UNL     1      45.257 129.828  14.912  1.00  0.00     0.009 C 
ENDBRANCH  12  17
ENDBRANCH   1  11
BRANCH   9  19
ATOM     19  N   UNL     1      43.721 130.965  22.129  1.00  0.00    -0.353 N 
ATOM     20  H   UNL     1      42.904 131.267  21.552  1.00  0.00     0.167 HD
BRANCH  19  21
ATOM     21  C   UNL     1      43.740 129.608  22.611  1.00  0.00     0.065 A 
ATOM     22  C   UNL     1      44.802 128.751  22.267  1.00  0.00     0.066 A 
ATOM     23  C   UNL     1      42.694 129.119  23.429  1.00  0.00     0.055 A 
ATOM     24  C   UNL     1      44.835 127.437  22.736  1.00  0.00     0.117 A 
ATOM     25  C   UNL     1      42.738 127.793  23.887  1.00  0.00     0.022 A 
ATOM     26  C   UNL     1      43.804 126.957  23.546  1.00  0.00    -0.070 A 
ATOM     27  F   UNL     1      45.871 126.628  22.401  1.00  0.00    -0.208 F 
ATOM     28  O   UNL     1      43.837 125.650  24.015  1.00  0.00    -0.870 OA
BRANCH  23  29
ATOM     29  N   UNL     1      41.615 129.966  23.846  1.00  0.00    -0.397 N 
ATOM     30  H   UNL     1      41.778 130.926  24.220  1.00  0.00     0.156 HD
ATOM     31  H   UNL     1      40.632 129.613  23.840  1.00  0.00     0.156 HD
ENDBRANCH  23  29
ENDBRANCH  19  21
ENDBRANCH   9  19
TORSDOF 5
ENDMDL
MODEL 7
REMARK VINA RESULT:      -3.0      5.400      8.186
REMARK SMILES C=Cc1ccc(-c2cc3cc[nH]c3cc2Nc2cc(F)c([O-])cc2N)nc1
REMARK SMILES IDX 7 1 8 2 9 3 10 4 11 5 12 6 13 7 14 8 15 9 6 11 3 12 4 13
REMARK SMILES IDX 27 14 5 15 26 16 2 17 1 18 16 19 17 21 18 22 24 23 19 24
REMARK SMILES IDX 23 25 21 26 20 27 22 28 25 29
REMARK H PARENT 12 10 16 20 25 30 25 31
ROOT
ATOM      1  C   UNL     1      44.860 131.444  20.660  1.00  0.00     0.024 A 
ATOM      2  C   UNL     1      43.720 130.839  21.239  1.00  0.00     0.022 A 
ATOM      3  C   UNL     1      43.443 131.100  22.576  1.00  0.00     0.000 A 
ATOM      4  C   UNL     1      42.412 130.663  23.379  1.00  0.00     0.028 A 
ATOM      5  C   UNL     1      42.639 131.255  24.616  1.00  0.00     0.083 A 
ATOM      6  N   UNL     1      43.753 132.022  24.583  1.00  0.00    -0.361 N 
ATOM      7  C   UNL     1      44.232 131.919  23.333  1.00  0.00     0.047 A 
ATOM      8  C   UNL     1      45.368 132.528  22.810  1.00  0.00     0.053 A 
ATOM      9  C   UNL     1      45.708 132.274  21.464  1.00  0.00     0.050 A 
ATOM     10  H   UNL     1      44.155 132.578  25.370  1.00  0.00     0.166 HD
ENDROOT
BRANCH   1  11
ATOM     11  C   UNL     1      45.116 131.250  19.217  1.00  0.00     0.072 A 
ATOM     12  C   UNL     1      45.663 131.000  16.488  1.00  0.00    -0.008 A 
ATOM     13  C   UNL     1      46.186 130.072  17.400  1.00  0.00     0.012 A 
ATOM     14  C   UNL     1      44.837 132.028  16.983  1.00  0.00     0.119 A 
ATOM     15  C   UNL     1      45.916 130.193  18.764  1.00  0.00     0.030 A 
ATOM     16  N   UNL     1      44.591 132.125  18.316  1.00  0.00    -0.256 NA
BRANCH  12  17
ATOM     17  C   UNL     1      45.981 130.847  15.048  1.00  0.00     0.002 C 
ATOM     18  C   UNL     1      46.965 131.499  14.427  1.00  0.00     0.009 C 
ENDBRANCH  12  17
ENDBRANCH   1  11
BRANCH   9  19
ATOM     19  N   UNL     1      46.918 132.855  20.943  1.00  0.00    -0.353 N 
ATOM     20  H   UNL     1      46.996 132.970  19.908  1.00  0.00     0.167 HD
BRANCH  19  21
ATOM     21  C   UNL     1      47.908 133.494  21.770  1.00  0.00     0.065 A 
ATOM     22  C   UNL     1      48.745 132.719  22.596  1.00  0.00     0.066 A 
ATOM     23  C   UNL     1      48.050 134.902  21.768  1.00  0.00     0.055 A 
ATOM     24  C   UNL     1      49.715 133.328  23.395  1.00  0.00     0.117 A 
ATOM     25  C   UNL     1      49.025 135.499  22.582  1.00  0.00     0.022 A 
ATOM     26  C   UNL     1      49.856 134.717  23.388  1.00  0.00    -0.070 A 
ATOM     27  F   UNL     1      50.518 132.565  24.178  1.00  0.00    -0.208 F 
ATOM     28  O   UNL     1      50.822 135.323  24.182  1.00  0.00    -0.870 OA
BRANCH  23  29
ATOM     29  N   UNL     1      47.255 135.730  20.910  1.00  0.00    -0.397 N 
ATOM     30  H   UNL     1      46.274 135.992  21.148  1.00  0.00     0.156 HD
ATOM     31  H   UNL     1      47.625 136.044  19.985  1.00  0.00     0.156 HD
ENDBRANCH  23  29
ENDBRANCH  19  21
ENDBRANCH   9  19
TORSDOF 5
ENDMDL
MODEL 8
REMARK VINA RESULT:      -3.0      3.909      8.301
REMARK SMILES C=Cc1ccc(-c2cc3cc[nH]c3cc2Nc2cc(F)c([O-])cc2N)nc1
REMARK SMILES IDX 7 1 8 2 9 3 10 4 11 5 12 6 13 7 14 8 15 9 6 11 3 12 4 13
REMARK SMILES IDX 27 14 5 15 26 16 2 17 1 18 16 19 17 21 18 22 24 23 19 24
REMARK SMILES IDX 23 25 21 26 20 27 22 28 25 29
REMARK H PARENT 12 10 16 20 25 30 25 31
ROOT
ATOM      1  C   UNL     1      43.772 131.521  19.522  1.00  0.00     0.024 A 
ATOM      2  C   UNL     1      42.627 132.341  19.393  1.00  0.00     0.022 A 
ATOM      3  C   UNL     1      41.932 132.688  20.546  1.00  0.00     0.000 A 
ATOM      4  C   UNL     1      40.809 133.469  20.714  1.00  0.00     0.028 A 
ATOM      5  C   UNL     1      40.574 133.476  22.084  1.00  0.00     0.083 A 
ATOM      6  N   UNL     1      41.504 132.738  22.734  1.00  0.00    -0.361 N 
ATOM      7  C   UNL     1      42.326 132.265  21.783  1.00  0.00     0.047 A 
ATOM      8  C   UNL     1      43.439 131.450  21.958  1.00  0.00     0.053 A 
ATOM      9  C   UNL     1      44.164 131.048  20.816  1.00  0.00     0.050 A 
ATOM     10  H   UNL     1      41.566 132.574  23.763  1.00  0.00     0.166 HD
ENDROOT
BRANCH   1  11
ATOM     11  C   UNL     1      44.573 131.220  18.316  1.00  0.00     0.072 A 
ATOM     12  C   UNL     1      46.130 130.777  16.038  1.00  0.00    -0.008 A 
ATOM     13  C   UNL     1      46.389 130.066  17.219  1.00  0.00     0.012 A 
ATOM     14  C   UNL     1      45.053 131.684  16.029  1.00  0.00     0.119 A 
ATOM     15  C   UNL     1      45.614 130.284  18.358  1.00  0.00     0.030 A 
ATOM     16  N   UNL     1      44.315 131.880  17.154  1.00  0.00    -0.256 NA
BRANCH  12  17
ATOM     17  C   UNL     1      46.982 130.527  14.850  1.00  0.00     0.002 C 
ATOM     18  C   UNL     1      47.385 129.317  14.462  1.00  0.00     0.009 C 
ENDBRANCH  12  17
ENDBRANCH   1  11
BRANCH   9  19
ATOM     19  N   UNL     1      45.278 130.154  20.993  1.00  0.00    -0.353 N 
ATOM     20  H   UNL     1      46.206 130.453  20.620  1.00  0.00     0.167 HD
BRANCH  19  21
ATOM     21  C   UNL     1      45.237 128.998  21.852  1.00  0.00     0.065 A 
ATOM     22  C   UNL     1      45.566 127.729  21.341  1.00  0.00     0.066 A 
ATOM     23  C   UNL     1      44.863 129.122  23.210  1.00  0.00     0.055 A 
ATOM     24  C   UNL     1      45.539 126.603  22.167  1.00  0.00     0.117 A 
ATOM     25  C   UNL     1      44.833 127.980  24.026  1.00  0.00     0.022 A 
ATOM     26  C   UNL     1      45.172 126.728  23.508  1.00  0.00    -0.070 A 
ATOM     27  F   UNL     1      45.867 125.388  21.660  1.00  0.00    -0.208 F 
ATOM     28  O   UNL     1      45.147 125.608  24.331  1.00  0.00    -0.870 OA
BRANCH  23  29
ATOM     29  N   UNL     1      44.565 130.400  23.788  1.00  0.00    -0.397 N 
ATOM     30  H   UNL     1      44.232 131.203  23.212  1.00  0.00     0.156 HD
ATOM     31  H   UNL     1      44.735 130.574  24.804  1.00  0.00     0.156 HD
ENDBRANCH  23  29
ENDBRANCH  19  21
ENDBRANCH   9  19
TORSDOF 5
ENDMDL
MODEL 9
REMARK VINA RESULT:      -2.9      3.517      5.597
REMARK SMILES C=Cc1ccc(-c2cc3cc[nH]c3cc2Nc2cc(F)c([O-])cc2N)nc1
REMARK SMILES IDX 7 1 8 2 9 3 10 4 11 5 12 6 13 7 14 8 15 9 6 11 3 12 4 13
REMARK SMILES IDX 27 14 5 15 26 16 2 17 1 18 16 19 17 21 18 22 24 23 19 24
REMARK SMILES IDX 23 25 21 26 20 27 22 28 25 29
REMARK H PARENT 12 10 16 20 25 30 25 31
ROOT
ATOM      1  C   UNL     1      44.784 131.513  22.650  1.00  0.00     0.024 A 
ATOM      2  C   UNL     1      45.395 132.381  23.585  1.00  0.00     0.022 A 
ATOM      3  C   UNL     1      46.338 133.290  23.120  1.00  0.00     0.000 A 
ATOM      4  C   UNL     1      47.069 134.246  23.793  1.00  0.00     0.028 A 
ATOM      5  C   UNL     1      47.840 134.866  22.817  1.00  0.00     0.083 A 
ATOM      6  N   UNL     1      47.600 134.325  21.600  1.00  0.00    -0.361 N 
ATOM      7  C   UNL     1      46.681 133.367  21.800  1.00  0.00     0.047 A 
ATOM      8  C   UNL     1      46.114 132.527  20.847  1.00  0.00     0.053 A 
ATOM      9  C   UNL     1      45.171 131.568  21.272  1.00  0.00     0.050 A 
ATOM     10  H   UNL     1      48.040 134.600  20.694  1.00  0.00     0.166 HD
ENDROOT
BRANCH   1  11
ATOM     11  C   UNL     1      43.713 130.604  23.115  1.00  0.00     0.072 A 
ATOM     12  C   UNL     1      41.776 128.839  24.083  1.00  0.00    -0.008 A 
ATOM     13  C   UNL     1      41.565 130.224  24.150  1.00  0.00     0.012 A 
ATOM     14  C   UNL     1      42.965 128.374  23.489  1.00  0.00     0.119 A 
ATOM     15  C   UNL     1      42.530 131.109  23.668  1.00  0.00     0.030 A 
ATOM     16  N   UNL     1      43.890 129.258  23.029  1.00  0.00    -0.256 NA
BRANCH  12  17
ATOM     17  C   UNL     1      40.733 127.929  24.617  1.00  0.00     0.002 C 
ATOM     18  C   UNL     1      39.424 128.176  24.555  1.00  0.00     0.009 C 
ENDBRANCH  12  17
ENDBRANCH   1  11
BRANCH   9  19
ATOM     19  N   UNL     1      44.632 130.659  20.294  1.00  0.00    -0.353 N 
ATOM     20  H   UNL     1      44.038 129.872  20.636  1.00  0.00     0.167 HD
BRANCH  19  21
ATOM     21  C   UNL     1      44.670 130.909  18.876  1.00  0.00     0.065 A 
ATOM     22  C   UNL     1      45.776 130.488  18.115  1.00  0.00     0.066 A 
ATOM     23  C   UNL     1      43.604 131.581  18.234  1.00  0.00     0.055 A 
ATOM     24  C   UNL     1      45.820 130.717  16.738  1.00  0.00     0.117 A 
ATOM     25  C   UNL     1      43.665 131.810  16.850  1.00  0.00     0.022 A 
ATOM     26  C   UNL     1      44.765 131.378  16.105  1.00  0.00    -0.070 A 
ATOM     27  F   UNL     1      46.891 130.297  16.019  1.00  0.00    -0.208 F 
ATOM     28  O   UNL     1      44.806 131.604  14.735  1.00  0.00    -0.870 OA
BRANCH  23  29
ATOM     29  N   UNL     1      42.435 131.987  18.957  1.00  0.00    -0.397 N 
ATOM     30  H   UNL     1      41.475 131.709  18.658  1.00  0.00     0.156 HD
ATOM     31  H   UNL     1      42.515 132.630  19.776  1.00  0.00     0.156 HD
ENDBRANCH  23  29
ENDBRANCH  19  21
ENDBRANCH   9  19
TORSDOF 5
ENDMDL


