REMARK SMILES C=Cc1ccc(-c2c[nH+]c3ocnc3c2)c(C#N)c1F
REMARK SMILES IDX 3 1 4 2 5 3 6 4 16 5 19 6 20 7 2 8 1 9 17 10 18 11 7 12 8 13
REMARK SMILES IDX 15 14 9 15 14 16 10 17 13 18 11 19 12 20
REMARK H PARENT 9 21
ROOT
ATOM      1  C   UNL     1       0.803   0.606   1.913  1.00  0.00     0.011 A 
ATOM      2  C   UNL     1       0.929   1.221   0.654  1.00  0.00     0.012 A 
ATOM      3  C   UNL     1       0.057   0.896  -0.385  1.00  0.00     0.011 A 
ATOM      4  C   UNL     1      -0.971  -0.039  -0.194  1.00  0.00     0.009 A 
ATOM      5  C   UNL     1      -1.107  -0.662   1.067  1.00  0.00     0.096 A 
ATOM      6  C   UNL     1      -0.228  -0.331   2.112  1.00  0.00     0.148 A 
ATOM      7  F   UNL     1      -0.363  -0.942   3.319  1.00  0.00    -0.205 F 
ENDROOT
BRANCH   1   8
ATOM      8  C   UNL     1       1.706   0.940   3.044  1.00  0.00     0.003 C 
ATOM      9  C   UNL     1       2.921   1.470   2.897  1.00  0.00     0.009 C 
ENDBRANCH   1   8
BRANCH   5  10
ATOM     10  C   UNL     1      -2.109  -1.677   1.298  1.00  0.00     0.103 C 
ATOM     11  N   UNL     1      -2.911  -2.491   1.482  1.00  0.00    -0.192 NA
ENDBRANCH   5  10
BRANCH   4  12
ATOM     12  C   UNL     1      -1.881  -0.342  -1.325  1.00  0.00     0.050 A 
ATOM     13  C   UNL     1      -3.291  -0.208  -1.179  1.00  0.00     0.318 A 
ATOM     14  C   UNL     1      -1.354  -0.739  -2.575  1.00  0.00     0.054 A 
ATOM     15  N   UNL     1      -4.129  -0.475  -2.227  1.00  0.00    -0.177 N 
ATOM     16  C   UNL     1      -2.258  -0.994  -3.599  1.00  0.00     0.179 A 
ATOM     17  C   UNL     1      -3.591  -0.862  -3.409  1.00  0.00     0.399 A 
ATOM     18  N   UNL     1      -2.011  -1.385  -4.860  1.00  0.00    -0.209 NA
ATOM     19  O   UNL     1      -4.218  -1.156  -4.513  1.00  0.00    -0.391 OA
ATOM     20  C   UNL     1      -3.266  -1.470  -5.380  1.00  0.00     0.316 A 
ATOM     21  H   UNL     1      -5.163  -0.377  -2.120  1.00  0.00     0.457 HD
ENDBRANCH   4  12
TORSDOF 3


