REMARK SMILES CN(/C=C(\O)N(N)c1cccc2cc3ccccc3cc12)CCO
REMARK SMILES IDX 3 1 4 2 5 3 6 5 8 6 9 7 21 8 10 9 20 10 12 11 11 12 19 13
REMARK SMILES IDX 13 14 18 15 14 16 17 17 15 18 16 19 7 20 2 23 1 24 22 25
REMARK SMILES IDX 23 26 24 27
REMARK H PARENT 5 4 7 21 7 22 24 28
ROOT
ATOM      1  C   UNL     1      -0.205   0.274  -3.278  1.00  0.00     0.149 C 
ENDROOT
BRANCH   1   2
ATOM      2  C   UNL     1       0.130  -0.005  -2.005  1.00  0.00     0.222 C 
BRANCH   2   3
ATOM      3  O   UNL     1       1.306  -0.700  -1.730  1.00  0.00    -0.493 OA
ATOM      4  H   UNL     1       1.572  -0.946  -0.785  1.00  0.00     0.295 HD
ENDBRANCH   2   3
BRANCH   2   5
ATOM      5  N   UNL     1      -0.700   0.438  -0.908  1.00  0.00    -0.247 N 
BRANCH   5   6
ATOM      6  C   UNL     1      -0.096   0.823   0.338  1.00  0.00     0.069 A 
ATOM      7  C   UNL     1       0.865   1.847   0.338  1.00  0.00     0.028 A 
ATOM      8  C   UNL     1      -0.470   0.215   1.562  1.00  0.00     0.008 A 
ATOM      9  C   UNL     1       1.433   2.289   1.533  1.00  0.00     0.003 A 
ATOM     10  C   UNL     1      -1.375  -0.864   1.605  1.00  0.00     0.019 A 
ATOM     11  C   UNL     1       0.107   0.682   2.773  1.00  0.00    -0.016 A 
ATOM     12  C   UNL     1       1.052   1.719   2.746  1.00  0.00     0.009 A 
ATOM     13  C   UNL     1      -1.731  -1.452   2.828  1.00  0.00    -0.018 A 
ATOM     14  C   UNL     1      -0.257   0.099   3.997  1.00  0.00     0.017 A 
ATOM     15  C   UNL     1      -2.637  -2.525   2.868  1.00  0.00     0.009 A 
ATOM     16  C   UNL     1      -1.172  -0.963   4.033  1.00  0.00    -0.018 A 
ATOM     17  C   UNL     1      -2.989  -3.102   4.092  1.00  0.00     0.001 A 
ATOM     18  C   UNL     1      -1.533  -1.552   5.255  1.00  0.00     0.009 A 
ATOM     19  C   UNL     1      -2.438  -2.617   5.282  1.00  0.00     0.001 A 
ENDBRANCH   5   6
BRANCH   5  20
ATOM     20  N   UNL     1      -2.085   0.643  -1.066  1.00  0.00    -0.240 NA
ATOM     21  H   UNL     1      -2.466  -0.107  -1.685  1.00  0.00     0.144 HD
ATOM     22  H   UNL     1      -2.219   1.564  -1.538  1.00  0.00     0.144 HD
ENDBRANCH   5  20
ENDBRANCH   2   5
ENDBRANCH   1   2
BRANCH   1  23
ATOM     23  N   UNL     1       0.560  -0.158  -4.423  1.00  0.00    -0.374 N 
ATOM     24  C   UNL     1       1.254  -1.451  -4.446  1.00  0.00     0.143 C 
BRANCH  23  25
ATOM     25  C   UNL     1       0.537   0.675  -5.635  1.00  0.00     0.144 C 
BRANCH  25  26
ATOM     26  C   UNL     1       1.590   1.780  -5.541  1.00  0.00     0.177 C 
BRANCH  26  27
ATOM     27  O   UNL     1       1.277   2.659  -4.495  1.00  0.00    -0.395 OA
ATOM     28  H   UNL     1       2.038   3.294  -4.433  1.00  0.00     0.210 HD
ENDBRANCH  26  27
ENDBRANCH  25  26
ENDBRANCH  23  25
ENDBRANCH   1  23
TORSDOF 9


