MODEL 1
REMARK VINA RESULT:      -6.6      0.000      0.000
REMARK SMILES C=Cc1ccc(-c2ccc(Nc3ccc(O)cc3F)c3ccoc23)[nH+]c1
REMARK SMILES IDX 7 1 8 2 9 3 10 4 20 5 21 6 22 7 23 8 24 9 6 10 3 11 4 12
REMARK SMILES IDX 26 13 5 14 25 15 2 17 1 18 11 19 12 21 13 22 18 23 14 24
REMARK SMILES IDX 17 25 15 26 19 27 16 28
REMARK H PARENT 25 16 11 20 16 29
ROOT
ATOM      1  C   UNL     1      45.415 130.988  18.479  1.00  0.00     0.089 A 
ATOM      2  C   UNL     1      46.161 130.481  19.567  1.00  0.00     0.021 A 
ATOM      3  C   UNL     1      45.603 130.424  20.862  1.00  0.00     0.028 A 
ATOM      4  C   UNL     1      44.280 130.858  21.097  1.00  0.00     0.050 A 
ATOM      5  C   UNL     1      43.570 131.365  20.005  1.00  0.00     0.045 A 
ATOM      6  C   UNL     1      42.283 131.849  19.909  1.00  0.00     0.053 A 
ATOM      7  C   UNL     1      42.127 132.173  18.567  1.00  0.00     0.196 A 
ATOM      8  O   UNL     1      43.234 131.905  17.898  1.00  0.00    -0.463 OA
ATOM      9  C   UNL     1      44.110 131.422  18.746  1.00  0.00     0.149 A 
ENDROOT
BRANCH   1  10
ATOM     10  C   UNL     1      45.992 131.058  17.114  1.00  0.00     0.214 A 
ATOM     11  C   UNL     1      47.059 131.201  14.532  1.00  0.00     0.038 A 
ATOM     12  C   UNL     1      47.248 130.052  15.309  1.00  0.00     0.021 A 
ATOM     13  C   UNL     1      46.342 132.274  15.094  1.00  0.00     0.314 A 
ATOM     14  C   UNL     1      46.715 129.975  16.596  1.00  0.00     0.081 A 
ATOM     15  N   UNL     1      45.831 132.179  16.352  1.00  0.00    -0.210 N 
ATOM     16  H   UNL     1      45.327 133.009  16.740  1.00  0.00     0.453 HD
BRANCH  11  17
ATOM     17  C   UNL     1      47.647 131.247  13.170  1.00  0.00     0.006 C 
ATOM     18  C   UNL     1      47.268 130.460  12.162  1.00  0.00     0.009 C 
ENDBRANCH  11  17
ENDBRANCH   1  10
BRANCH   4  19
ATOM     19  N   UNL     1      43.696 130.836  22.411  1.00  0.00    -0.353 N 
ATOM     20  H   UNL     1      43.835 131.670  23.026  1.00  0.00     0.167 HD
BRANCH  19  21
ATOM     21  C   UNL     1      43.022 129.699  22.973  1.00  0.00     0.075 A 
ATOM     22  C   UNL     1      43.480 128.408  22.668  1.00  0.00     0.033 A 
ATOM     23  C   UNL     1      41.946 129.853  23.871  1.00  0.00     0.150 A 
ATOM     24  C   UNL     1      42.850 127.287  23.215  1.00  0.00     0.048 A 
ATOM     25  C   UNL     1      41.320 128.727  24.415  1.00  0.00     0.087 A 
ATOM     26  C   UNL     1      41.768 127.441  24.086  1.00  0.00     0.118 A 
ATOM     27  F   UNL     1      41.530 131.088  24.250  1.00  0.00    -0.205 F 
BRANCH  26  28
ATOM     28  O   UNL     1      41.149 126.314  24.621  1.00  0.00    -0.508 OA
ATOM     29  H   UNL     1      41.346 125.385  24.268  1.00  0.00     0.293 HD
ENDBRANCH  26  28
ENDBRANCH  19  21
ENDBRANCH   4  19
TORSDOF 5
ENDMDL
MODEL 2
REMARK VINA RESULT:      -6.4      1.348      1.817
REMARK SMILES C=Cc1ccc(-c2ccc(Nc3ccc(O)cc3F)c3ccoc23)[nH+]c1
REMARK SMILES IDX 7 1 8 2 9 3 10 4 20 5 21 6 22 7 23 8 24 9 6 10 3 11 4 12
REMARK SMILES IDX 26 13 5 14 25 15 2 17 1 18 11 19 12 21 13 22 18 23 14 24
REMARK SMILES IDX 17 25 15 26 19 27 16 28
REMARK H PARENT 25 16 11 20 16 29
ROOT
ATOM      1  C   UNL     1      45.653 130.686  17.961  1.00  0.00     0.089 A 
ATOM      2  C   UNL     1      46.528 130.239  18.977  1.00  0.00     0.021 A 
ATOM      3  C   UNL     1      46.143 130.285  20.334  1.00  0.00     0.028 A 
ATOM      4  C   UNL     1      44.868 130.764  20.707  1.00  0.00     0.050 A 
ATOM      5  C   UNL     1      44.029 131.211  19.682  1.00  0.00     0.045 A 
ATOM      6  C   UNL     1      42.748 131.717  19.719  1.00  0.00     0.053 A 
ATOM      7  C   UNL     1      42.422 131.951  18.388  1.00  0.00     0.196 A 
ATOM      8  O   UNL     1      43.428 131.611  17.604  1.00  0.00    -0.463 OA
ATOM      9  C   UNL     1      44.401 131.168  18.364  1.00  0.00     0.149 A 
ENDROOT
BRANCH   1  10
ATOM     10  C   UNL     1      46.048 130.649  16.532  1.00  0.00     0.214 A 
ATOM     11  C   UNL     1      46.818 130.572  13.843  1.00  0.00     0.038 A 
ATOM     12  C   UNL     1      45.931 131.558  14.294  1.00  0.00     0.021 A 
ATOM     13  C   UNL     1      47.285 129.623  14.771  1.00  0.00     0.314 A 
ATOM     14  C   UNL     1      45.547 131.602  15.634  1.00  0.00     0.081 A 
ATOM     15  N   UNL     1      46.898 129.682  16.074  1.00  0.00    -0.210 N 
ATOM     16  H   UNL     1      47.248 128.942  16.724  1.00  0.00     0.453 HD
BRANCH  11  17
ATOM     17  C   UNL     1      47.196 130.555  12.408  1.00  0.00     0.006 C 
ATOM     18  C   UNL     1      48.162 131.307  11.878  1.00  0.00     0.009 C 
ENDBRANCH  11  17
ENDBRANCH   1  10
BRANCH   4  19
ATOM     19  N   UNL     1      44.461 130.847  22.084  1.00  0.00    -0.353 N 
ATOM     20  H   UNL     1      44.844 131.626  22.665  1.00  0.00     0.167 HD
BRANCH  19  21
ATOM     21  C   UNL     1      43.642 129.866  22.740  1.00  0.00     0.075 A 
ATOM     22  C   UNL     1      42.414 130.256  23.295  1.00  0.00     0.033 A 
ATOM     23  C   UNL     1      44.018 128.508  22.786  1.00  0.00     0.150 A 
ATOM     24  C   UNL     1      41.592 129.317  23.925  1.00  0.00     0.048 A 
ATOM     25  C   UNL     1      43.191 127.573  23.417  1.00  0.00     0.087 A 
ATOM     26  C   UNL     1      41.978 127.975  23.991  1.00  0.00     0.118 A 
ATOM     27  F   UNL     1      45.160 128.084  22.189  1.00  0.00    -0.205 F 
BRANCH  26  28
ATOM     28  O   UNL     1      41.149 127.051  24.624  1.00  0.00    -0.508 OA
ATOM     29  H   UNL     1      40.707 126.299  24.109  1.00  0.00     0.293 HD
ENDBRANCH  26  28
ENDBRANCH  19  21
ENDBRANCH   4  19
TORSDOF 5
ENDMDL
MODEL 3
REMARK VINA RESULT:      -5.6      0.756      1.010
REMARK SMILES C=Cc1ccc(-c2ccc(Nc3ccc(O)cc3F)c3ccoc23)[nH+]c1
REMARK SMILES IDX 7 1 8 2 9 3 10 4 20 5 21 6 22 7 23 8 24 9 6 10 3 11 4 12
REMARK SMILES IDX 26 13 5 14 25 15 2 17 1 18 11 19 12 21 13 22 18 23 14 24
REMARK SMILES IDX 17 25 15 26 19 27 16 28
REMARK H PARENT 25 16 11 20 16 29
ROOT
ATOM      1  C   UNL     1      45.133 130.880  18.311  1.00  0.00     0.089 A 
ATOM      2  C   UNL     1      45.895 130.127  19.233  1.00  0.00     0.021 A 
ATOM      3  C   UNL     1      45.505 130.033  20.586  1.00  0.00     0.028 A 
ATOM      4  C   UNL     1      44.336 130.678  21.046  1.00  0.00     0.050 A 
ATOM      5  C   UNL     1      43.610 131.425  20.115  1.00  0.00     0.045 A 
ATOM      6  C   UNL     1      42.444 132.148  20.247  1.00  0.00     0.053 A 
ATOM      7  C   UNL     1      42.187 132.641  18.974  1.00  0.00     0.196 A 
ATOM      8  O   UNL     1      43.124 132.246  18.132  1.00  0.00    -0.463 OA
ATOM      9  C   UNL     1      43.986 131.518  18.800  1.00  0.00     0.149 A 
ENDROOT
BRANCH   1  10
ATOM     10  C   UNL     1      45.535 130.991  16.887  1.00  0.00     0.214 A 
ATOM     11  C   UNL     1      46.316 131.208  14.209  1.00  0.00     0.038 A 
ATOM     12  C   UNL     1      45.023 131.577  14.598  1.00  0.00     0.021 A 
ATOM     13  C   UNL     1      47.190 130.711  15.194  1.00  0.00     0.314 A 
ATOM     14  C   UNL     1      44.630 131.473  15.932  1.00  0.00     0.081 A 
ATOM     15  N   UNL     1      46.788 130.617  16.491  1.00  0.00    -0.210 N 
ATOM     16  H   UNL     1      47.460 130.220  17.185  1.00  0.00     0.453 HD
BRANCH  11  17
ATOM     17  C   UNL     1      46.694 131.326  12.779  1.00  0.00     0.006 C 
ATOM     18  C   UNL     1      47.803 130.807  12.250  1.00  0.00     0.009 C 
ENDBRANCH  11  17
ENDBRANCH   1  10
BRANCH   4  19
ATOM     19  N   UNL     1      43.931 130.622  22.425  1.00  0.00    -0.353 N 
ATOM     20  H   UNL     1      44.362 131.300  23.093  1.00  0.00     0.167 HD
BRANCH  19  21
ATOM     21  C   UNL     1      43.048 129.624  22.964  1.00  0.00     0.075 A 
ATOM     22  C   UNL     1      43.338 128.267  22.758  1.00  0.00     0.033 A 
ATOM     23  C   UNL     1      41.930 129.978  23.745  1.00  0.00     0.150 A 
ATOM     24  C   UNL     1      42.504 127.277  23.285  1.00  0.00     0.048 A 
ATOM     25  C   UNL     1      41.099 128.984  24.271  1.00  0.00     0.087 A 
ATOM     26  C   UNL     1      41.381 127.631  24.040  1.00  0.00     0.118 A 
ATOM     27  F   UNL     1      41.667 131.278  24.031  1.00  0.00    -0.205 F 
BRANCH  26  28
ATOM     28  O   UNL     1      40.558 126.634  24.557  1.00  0.00    -0.508 OA
ATOM     29  H   UNL     1      39.850 126.185  23.988  1.00  0.00     0.293 HD
ENDBRANCH  26  28
ENDBRANCH  19  21
ENDBRANCH   4  19
TORSDOF 5
ENDMDL
MODEL 4
REMARK VINA RESULT:      -4.7      7.244     10.544
REMARK SMILES C=Cc1ccc(-c2ccc(Nc3ccc(O)cc3F)c3ccoc23)[nH+]c1
REMARK SMILES IDX 7 1 8 2 9 3 10 4 20 5 21 6 22 7 23 8 24 9 6 10 3 11 4 12
REMARK SMILES IDX 26 13 5 14 25 15 2 17 1 18 11 19 12 21 13 22 18 23 14 24
REMARK SMILES IDX 17 25 15 26 19 27 16 28
REMARK H PARENT 25 16 11 20 16 29
ROOT
ATOM      1  C   UNL     1      44.957 123.817  22.533  1.00  0.00     0.089 A 
ATOM      2  C   UNL     1      45.750 122.759  22.033  1.00  0.00     0.021 A 
ATOM      3  C   UNL     1      47.150 122.895  21.922  1.00  0.00     0.028 A 
ATOM      4  C   UNL     1      47.794 124.087  22.322  1.00  0.00     0.050 A 
ATOM      5  C   UNL     1      46.983 125.120  22.801  1.00  0.00     0.045 A 
ATOM      6  C   UNL     1      47.302 126.377  23.268  1.00  0.00     0.053 A 
ATOM      7  C   UNL     1      46.085 126.936  23.637  1.00  0.00     0.196 A 
ATOM      8  O   UNL     1      45.102 126.084  23.414  1.00  0.00    -0.463 OA
ATOM      9  C   UNL     1      45.623 124.991  22.909  1.00  0.00     0.149 A 
ENDROOT
BRANCH   1  10
ATOM     10  C   UNL     1      43.484 123.688  22.650  1.00  0.00     0.214 A 
ATOM     11  C   UNL     1      40.705 123.468  22.880  1.00  0.00     0.038 A 
ATOM     12  C   UNL     1      41.527 122.387  23.219  1.00  0.00     0.021 A 
ATOM     13  C   UNL     1      41.315 124.645  22.406  1.00  0.00     0.314 A 
ATOM     14  C   UNL     1      42.913 122.493  23.109  1.00  0.00     0.081 A 
ATOM     15  N   UNL     1      42.669 124.729  22.305  1.00  0.00    -0.210 N 
ATOM     16  H   UNL     1      43.079 125.611  21.925  1.00  0.00     0.453 HD
BRANCH  11  17
ATOM     17  C   UNL     1      39.234 123.314  23.005  1.00  0.00     0.006 C 
ATOM     18  C   UNL     1      38.632 122.607  23.963  1.00  0.00     0.009 C 
ENDBRANCH  11  17
ENDBRANCH   1  10
BRANCH   4  19
ATOM     19  N   UNL     1      49.215 124.263  22.194  1.00  0.00    -0.353 N 
ATOM     20  H   UNL     1      49.741 124.643  23.013  1.00  0.00     0.167 HD
BRANCH  19  21
ATOM     21  C   UNL     1      49.945 124.046  20.975  1.00  0.00     0.075 A 
ATOM     22  C   UNL     1      49.453 123.130  20.034  1.00  0.00     0.033 A 
ATOM     23  C   UNL     1      51.112 124.778  20.679  1.00  0.00     0.150 A 
ATOM     24  C   UNL     1      50.137 122.913  18.834  1.00  0.00     0.048 A 
ATOM     25  C   UNL     1      51.792 124.559  19.476  1.00  0.00     0.087 A 
ATOM     26  C   UNL     1      51.308 123.623  18.552  1.00  0.00     0.118 A 
ATOM     27  F   UNL     1      51.569 125.730  21.532  1.00  0.00    -0.205 F 
BRANCH  26  28
ATOM     28  O   UNL     1      51.979 123.396  17.353  1.00  0.00    -0.508 OA
ATOM     29  H   UNL     1      52.589 122.595  17.233  1.00  0.00     0.293 HD
ENDBRANCH  26  28
ENDBRANCH  19  21
ENDBRANCH   4  19
TORSDOF 5
ENDMDL
MODEL 5
REMARK VINA RESULT:      -4.5      7.011     10.141
REMARK SMILES C=Cc1ccc(-c2ccc(Nc3ccc(O)cc3F)c3ccoc23)[nH+]c1
REMARK SMILES IDX 7 1 8 2 9 3 10 4 20 5 21 6 22 7 23 8 24 9 6 10 3 11 4 12
REMARK SMILES IDX 26 13 5 14 25 15 2 17 1 18 11 19 12 21 13 22 18 23 14 24
REMARK SMILES IDX 17 25 15 26 19 27 16 28
REMARK H PARENT 25 16 11 20 16 29
ROOT
ATOM      1  C   UNL     1      43.214 124.590  23.799  1.00  0.00     0.089 A 
ATOM      2  C   UNL     1      43.582 123.232  23.932  1.00  0.00     0.021 A 
ATOM      3  C   UNL     1      44.937 122.843  23.887  1.00  0.00     0.028 A 
ATOM      4  C   UNL     1      45.959 123.805  23.723  1.00  0.00     0.050 A 
ATOM      5  C   UNL     1      45.565 125.138  23.582  1.00  0.00     0.045 A 
ATOM      6  C   UNL     1      46.306 126.288  23.419  1.00  0.00     0.053 A 
ATOM      7  C   UNL     1      45.367 127.311  23.374  1.00  0.00     0.196 A 
ATOM      8  O   UNL     1      44.148 126.820  23.502  1.00  0.00    -0.463 OA
ATOM      9  C   UNL     1      44.248 125.518  23.625  1.00  0.00     0.149 A 
ENDROOT
BRANCH   1  10
ATOM     10  C   UNL     1      41.791 125.011  23.839  1.00  0.00     0.214 A 
ATOM     11  C   UNL     1      39.108 125.800  23.891  1.00  0.00     0.038 A 
ATOM     12  C   UNL     1      40.070 126.529  24.599  1.00  0.00     0.021 A 
ATOM     13  C   UNL     1      39.528 124.660  23.179  1.00  0.00     0.314 A 
ATOM     14  C   UNL     1      41.409 126.142  24.575  1.00  0.00     0.081 A 
ATOM     15  N   UNL     1      40.840 124.298  23.168  1.00  0.00    -0.210 N 
ATOM     16  H   UNL     1      41.105 123.431  22.648  1.00  0.00     0.453 HD
BRANCH  11  17
ATOM     17  C   UNL     1      37.692 126.240  23.948  1.00  0.00     0.006 C 
ATOM     18  C   UNL     1      37.111 127.020  23.035  1.00  0.00     0.009 C 
ENDBRANCH  11  17
ENDBRANCH   1  10
BRANCH   4  19
ATOM     19  N   UNL     1      47.346 123.433  23.646  1.00  0.00    -0.353 N 
ATOM     20  H   UNL     1      47.849 123.218  24.536  1.00  0.00     0.167 HD
BRANCH  19  21
ATOM     21  C   UNL     1      48.114 123.439  22.431  1.00  0.00     0.075 A 
ATOM     22  C   UNL     1      47.450 123.348  21.199  1.00  0.00     0.033 A 
ATOM     23  C   UNL     1      49.514 123.593  22.449  1.00  0.00     0.150 A 
ATOM     24  C   UNL     1      48.173 123.368  20.003  1.00  0.00     0.048 A 
ATOM     25  C   UNL     1      50.233 123.613  21.249  1.00  0.00     0.087 A 
ATOM     26  C   UNL     1      49.565 123.496  20.023  1.00  0.00     0.118 A 
ATOM     27  F   UNL     1      50.179 123.764  23.620  1.00  0.00    -0.205 F 
BRANCH  26  28
ATOM     28  O   UNL     1      50.272 123.512  18.824  1.00  0.00    -0.508 OA
ATOM     29  H   UNL     1      49.957 124.060  18.032  1.00  0.00     0.293 HD
ENDBRANCH  26  28
ENDBRANCH  19  21
ENDBRANCH   4  19
TORSDOF 5
ENDMDL
MODEL 6
REMARK VINA RESULT:      -4.2      7.473     10.509
REMARK SMILES C=Cc1ccc(-c2ccc(Nc3ccc(O)cc3F)c3ccoc23)[nH+]c1
REMARK SMILES IDX 7 1 8 2 9 3 10 4 20 5 21 6 22 7 23 8 24 9 6 10 3 11 4 12
REMARK SMILES IDX 26 13 5 14 25 15 2 17 1 18 11 19 12 21 13 22 18 23 14 24
REMARK SMILES IDX 17 25 15 26 19 27 16 28
REMARK H PARENT 25 16 11 20 16 29
ROOT
ATOM      1  C   UNL     1      43.975 124.127  23.469  1.00  0.00     0.089 A 
ATOM      2  C   UNL     1      44.356 122.836  23.037  1.00  0.00     0.021 A 
ATOM      3  C   UNL     1      45.713 122.450  23.022  1.00  0.00     0.028 A 
ATOM      4  C   UNL     1      46.722 123.341  23.454  1.00  0.00     0.050 A 
ATOM      5  C   UNL     1      46.317 124.614  23.863  1.00  0.00     0.045 A 
ATOM      6  C   UNL     1      47.043 125.685  24.338  1.00  0.00     0.053 A 
ATOM      7  C   UNL     1      46.094 126.661  24.615  1.00  0.00     0.196 A 
ATOM      8  O   UNL     1      44.883 126.216  24.333  1.00  0.00    -0.463 OA
ATOM      9  C   UNL     1      44.999 124.991  23.878  1.00  0.00     0.149 A 
ENDROOT
BRANCH   1  10
ATOM     10  C   UNL     1      42.552 124.546  23.485  1.00  0.00     0.214 A 
ATOM     11  C   UNL     1      39.876 125.359  23.526  1.00  0.00     0.038 A 
ATOM     12  C   UNL     1      40.213 124.030  23.811  1.00  0.00     0.021 A 
ATOM     13  C   UNL     1      40.913 126.253  23.202  1.00  0.00     0.314 A 
ATOM     14  C   UNL     1      41.546 123.621  23.794  1.00  0.00     0.081 A 
ATOM     15  N   UNL     1      42.208 125.835  23.191  1.00  0.00    -0.210 N 
ATOM     16  H   UNL     1      42.944 126.526  22.921  1.00  0.00     0.453 HD
BRANCH  11  17
ATOM     17  C   UNL     1      38.445 125.753  23.547  1.00  0.00     0.006 C 
ATOM     18  C   UNL     1      37.849 126.360  24.574  1.00  0.00     0.009 C 
ENDBRANCH  11  17
ENDBRANCH   1  10
BRANCH   4  19
ATOM     19  N   UNL     1      48.114 122.983  23.422  1.00  0.00    -0.353 N 
ATOM     20  H   UNL     1      48.596 122.800  24.331  1.00  0.00     0.167 HD
BRANCH  19  21
ATOM     21  C   UNL     1      48.912 122.963  22.228  1.00  0.00     0.075 A 
ATOM     22  C   UNL     1      48.277 122.982  20.977  1.00  0.00     0.033 A 
ATOM     23  C   UNL     1      50.320 122.984  22.286  1.00  0.00     0.150 A 
ATOM     24  C   UNL     1      49.033 122.978  19.801  1.00  0.00     0.048 A 
ATOM     25  C   UNL     1      51.071 122.981  21.106  1.00  0.00     0.087 A 
ATOM     26  C   UNL     1      50.429 122.975  19.860  1.00  0.00     0.118 A 
ATOM     27  F   UNL     1      50.965 123.047  23.478  1.00  0.00    -0.205 F 
BRANCH  26  28
ATOM     28  O   UNL     1      51.168 122.970  18.679  1.00  0.00    -0.508 OA
ATOM     29  H   UNL     1      52.138 122.676  18.664  1.00  0.00     0.293 HD
ENDBRANCH  26  28
ENDBRANCH  19  21
ENDBRANCH   4  19
TORSDOF 5
ENDMDL
MODEL 7
REMARK VINA RESULT:      -3.9      1.056      1.384
REMARK SMILES C=Cc1ccc(-c2ccc(Nc3ccc(O)cc3F)c3ccoc23)[nH+]c1
REMARK SMILES IDX 7 1 8 2 9 3 10 4 20 5 21 6 22 7 23 8 24 9 6 10 3 11 4 12
REMARK SMILES IDX 26 13 5 14 25 15 2 17 1 18 11 19 12 21 13 22 18 23 14 24
REMARK SMILES IDX 17 25 15 26 19 27 16 28
REMARK H PARENT 25 16 11 20 16 29
ROOT
ATOM      1  C   UNL     1      45.819 130.893  17.760  1.00  0.00     0.089 A 
ATOM      2  C   UNL     1      46.600 130.402  18.831  1.00  0.00     0.021 A 
ATOM      3  C   UNL     1      46.087 130.371  20.145  1.00  0.00     0.028 A 
ATOM      4  C   UNL     1      44.775 130.817  20.418  1.00  0.00     0.050 A 
ATOM      5  C   UNL     1      44.031 131.309  19.343  1.00  0.00     0.045 A 
ATOM      6  C   UNL     1      42.744 131.800  19.282  1.00  0.00     0.053 A 
ATOM      7  C   UNL     1      42.543 132.101  17.941  1.00  0.00     0.196 A 
ATOM      8  O   UNL     1      43.624 131.814  17.240  1.00  0.00    -0.463 OA
ATOM      9  C   UNL     1      44.527 131.340  18.065  1.00  0.00     0.149 A 
ENDROOT
BRANCH   1  10
ATOM     10  C   UNL     1      46.348 130.936  16.375  1.00  0.00     0.214 A 
ATOM     11  C   UNL     1      47.367 131.001  13.770  1.00  0.00     0.038 A 
ATOM     12  C   UNL     1      46.831 132.159  14.346  1.00  0.00     0.021 A 
ATOM     13  C   UNL     1      47.356 129.815  14.529  1.00  0.00     0.314 A 
ATOM     14  C   UNL     1      46.325 132.132  15.645  1.00  0.00     0.081 A 
ATOM     15  N   UNL     1      46.857 129.809  15.795  1.00  0.00    -0.210 N 
ATOM     16  H   UNL     1      46.846 128.901  16.313  1.00  0.00     0.453 HD
BRANCH  11  17
ATOM     17  C   UNL     1      47.889 131.069  12.383  1.00  0.00     0.006 C 
ATOM     18  C   UNL     1      47.418 130.343  11.367  1.00  0.00     0.009 C 
ENDBRANCH  11  17
ENDBRANCH   1  10
BRANCH   4  19
ATOM     19  N   UNL     1      44.238 130.822  21.752  1.00  0.00    -0.353 N 
ATOM     20  H   UNL     1      44.191 131.734  22.261  1.00  0.00     0.167 HD
BRANCH  19  21
ATOM     21  C   UNL     1      43.857 129.638  22.470  1.00  0.00     0.075 A 
ATOM     22  C   UNL     1      44.789 128.601  22.629  1.00  0.00     0.033 A 
ATOM     23  C   UNL     1      42.587 129.519  23.070  1.00  0.00     0.150 A 
ATOM     24  C   UNL     1      44.448 127.445  23.337  1.00  0.00     0.048 A 
ATOM     25  C   UNL     1      42.251 128.361  23.778  1.00  0.00     0.087 A 
ATOM     26  C   UNL     1      43.179 127.319  23.910  1.00  0.00     0.118 A 
ATOM     27  F   UNL     1      41.691 130.536  23.004  1.00  0.00    -0.205 F 
BRANCH  26  28
ATOM     28  O   UNL     1      42.853 126.161  24.612  1.00  0.00    -0.508 OA
ATOM     29  H   UNL     1      43.538 125.676  25.179  1.00  0.00     0.293 HD
ENDBRANCH  26  28
ENDBRANCH  19  21
ENDBRANCH   4  19
TORSDOF 5
ENDMDL
MODEL 8
REMARK VINA RESULT:      -3.6      8.156     10.616
REMARK SMILES C=Cc1ccc(-c2ccc(Nc3ccc(O)cc3F)c3ccoc23)[nH+]c1
REMARK SMILES IDX 7 1 8 2 9 3 10 4 20 5 21 6 22 7 23 8 24 9 6 10 3 11 4 12
REMARK SMILES IDX 26 13 5 14 25 15 2 17 1 18 11 19 12 21 13 22 18 23 14 24
REMARK SMILES IDX 17 25 15 26 19 27 16 28
REMARK H PARENT 25 16 11 20 16 29
ROOT
ATOM      1  C   UNL     1      46.396 124.306  23.481  1.00  0.00     0.089 A 
ATOM      2  C   UNL     1      47.042 124.902  24.588  1.00  0.00     0.021 A 
ATOM      3  C   UNL     1      48.447 125.027  24.623  1.00  0.00     0.028 A 
ATOM      4  C   UNL     1      49.240 124.574  23.545  1.00  0.00     0.050 A 
ATOM      5  C   UNL     1      48.575 123.978  22.470  1.00  0.00     0.045 A 
ATOM      6  C   UNL     1      49.053 123.454  21.289  1.00  0.00     0.053 A 
ATOM      7  C   UNL     1      47.920 123.040  20.601  1.00  0.00     0.196 A 
ATOM      8  O   UNL     1      46.835 123.295  21.308  1.00  0.00    -0.463 OA
ATOM      9  C   UNL     1      47.210 123.855  22.434  1.00  0.00     0.149 A 
ENDROOT
BRANCH   1  10
ATOM     10  C   UNL     1      44.920 124.164  23.434  1.00  0.00     0.214 A 
ATOM     11  C   UNL     1      42.135 123.918  23.333  1.00  0.00     0.038 A 
ATOM     12  C   UNL     1      42.829 123.597  24.506  1.00  0.00     0.021 A 
ATOM     13  C   UNL     1      42.879 124.343  22.216  1.00  0.00     0.314 A 
ATOM     14  C   UNL     1      44.217 123.720  24.562  1.00  0.00     0.081 A 
ATOM     15  N   UNL     1      44.233 124.457  22.291  1.00  0.00    -0.210 N 
ATOM     16  H   UNL     1      44.748 124.751  21.430  1.00  0.00     0.453 HD
BRANCH  11  17
ATOM     17  C   UNL     1      40.659 123.766  23.312  1.00  0.00     0.006 C 
ATOM     18  C   UNL     1      39.805 124.764  23.079  1.00  0.00     0.009 C 
ENDBRANCH  11  17
ENDBRANCH   1  10
BRANCH   4  19
ATOM     19  N   UNL     1      50.675 124.664  23.567  1.00  0.00    -0.353 N 
ATOM     20  H   UNL     1      51.222 123.781  23.681  1.00  0.00     0.167 HD
BRANCH  19  21
ATOM     21  C   UNL     1      51.403 125.902  23.548  1.00  0.00     0.075 A 
ATOM     22  C   UNL     1      51.254 126.803  24.613  1.00  0.00     0.033 A 
ATOM     23  C   UNL     1      52.308 126.205  22.511  1.00  0.00     0.150 A 
ATOM     24  C   UNL     1      51.964 128.008  24.625  1.00  0.00     0.048 A 
ATOM     25  C   UNL     1      53.016 127.411  22.528  1.00  0.00     0.087 A 
ATOM     26  C   UNL     1      52.843 128.317  23.583  1.00  0.00     0.118 A 
ATOM     27  F   UNL     1      52.535 125.320  21.508  1.00  0.00    -0.205 F 
BRANCH  26  28
ATOM     28  O   UNL     1      53.542 129.522  23.608  1.00  0.00    -0.508 OA
ATOM     29  H   UNL     1      53.201 130.341  23.119  1.00  0.00     0.293 HD
ENDBRANCH  26  28
ENDBRANCH  19  21
ENDBRANCH   4  19
TORSDOF 5
ENDMDL


