MODEL 1
REMARK VINA RESULT:      -8.1      0.000      0.000
REMARK SMILES Cc1cc(Cl)ccc1C(=O)N[C@H]1CC12CCC2
REMARK SMILES IDX 1 1 2 2 3 3 4 4 5 5 6 6 7 7 8 8 9 9 11 10 10 11 12 13 13 14
REMARK SMILES IDX 14 15 15 16 17 17 16 18
REMARK H PARENT 11 12
ROOT
ATOM      1  C   UNL     1      42.309 132.090  18.562  1.00  0.00     0.045 C 
ATOM      2  C   UNL     1      43.168 131.776  19.759  1.00  0.00    -0.037 A 
ATOM      3  C   UNL     1      42.575 131.777  21.035  1.00  0.00     0.024 A 
ATOM      4  C   UNL     1      43.337 131.512  22.174  1.00  0.00     0.041 A 
ATOM      5  Cl  UNL     1      42.582 131.525  23.758  1.00  0.00    -0.084 Cl
ATOM      6  C   UNL     1      44.699 131.238  22.055  1.00  0.00     0.021 A 
ATOM      7  C   UNL     1      45.302 131.219  20.795  1.00  0.00     0.015 A 
ATOM      8  C   UNL     1      44.551 131.478  19.635  1.00  0.00     0.042 A 
ENDROOT
BRANCH   8   9
ATOM      9  C   UNL     1      45.232 131.411  18.319  1.00  0.00     0.251 C 
ATOM     10  N   UNL     1      45.716 130.157  17.817  1.00  0.00    -0.349 N 
ATOM     11  O   UNL     1      45.363 132.454  17.624  1.00  0.00    -0.269 OA
ATOM     12  H   UNL     1      45.770 129.332  18.456  1.00  0.00     0.164 HD
BRANCH  10  13
ATOM     13  C   UNL     1      46.271 130.040  16.473  1.00  0.00     0.089 C 
ATOM     14  C   UNL     1      45.588 128.981  15.598  1.00  0.00     0.034 C 
ATOM     15  C   UNL     1      45.297 130.462  15.398  1.00  0.00    -0.007 C 
ATOM     16  C   UNL     1      45.552 131.033  14.034  1.00  0.00     0.009 C 
ATOM     17  C   UNL     1      43.858 130.893  15.460  1.00  0.00     0.009 C 
ATOM     18  C   UNL     1      44.079 131.494  14.057  1.00  0.00     0.001 C 
ENDBRANCH  10  13
ENDBRANCH   8   9
TORSDOF 2
ENDMDL
MODEL 2
REMARK VINA RESULT:      -8.1      1.431      1.999
REMARK SMILES Cc1cc(Cl)ccc1C(=O)N[C@H]1CC12CCC2
REMARK SMILES IDX 1 1 2 2 3 3 4 4 5 5 6 6 7 7 8 8 9 9 11 10 10 11 12 13 13 14
REMARK SMILES IDX 14 15 15 16 17 17 16 18
REMARK H PARENT 11 12
ROOT
ATOM      1  C   UNL     1      41.794 132.879  19.959  1.00  0.00     0.045 C 
ATOM      2  C   UNL     1      42.944 132.041  20.456  1.00  0.00    -0.037 A 
ATOM      3  C   UNL     1      43.030 131.761  21.832  1.00  0.00     0.024 A 
ATOM      4  C   UNL     1      44.090 131.007  22.340  1.00  0.00     0.041 A 
ATOM      5  Cl  UNL     1      44.185 130.674  24.061  1.00  0.00    -0.084 Cl
ATOM      6  C   UNL     1      45.073 130.519  21.482  1.00  0.00     0.021 A 
ATOM      7  C   UNL     1      44.997 130.775  20.111  1.00  0.00     0.015 A 
ATOM      8  C   UNL     1      43.936 131.529  19.579  1.00  0.00     0.042 A 
ENDROOT
BRANCH   8   9
ATOM      9  C   UNL     1      43.883 131.742  18.112  1.00  0.00     0.251 C 
ATOM     10  N   UNL     1      45.088 131.732  17.334  1.00  0.00    -0.349 N 
ATOM     11  O   UNL     1      42.772 131.906  17.539  1.00  0.00    -0.269 OA
ATOM     12  H   UNL     1      46.014 131.775  17.817  1.00  0.00     0.164 HD
BRANCH  10  13
ATOM     13  C   UNL     1      45.054 131.809  15.878  1.00  0.00     0.089 C 
ATOM     14  C   UNL     1      46.316 132.413  15.248  1.00  0.00     0.034 C 
ATOM     15  C   UNL     1      46.074 130.910  15.219  1.00  0.00    -0.007 C 
ATOM     16  C   UNL     1      46.049 130.245  13.874  1.00  0.00     0.009 C 
ATOM     17  C   UNL     1      47.152 130.030  15.787  1.00  0.00     0.009 C 
ATOM     18  C   UNL     1      47.158 129.320  14.418  1.00  0.00     0.001 C 
ENDBRANCH  10  13
ENDBRANCH   8   9
TORSDOF 2
ENDMDL
MODEL 3
REMARK VINA RESULT:      -7.9      1.374      2.456
REMARK SMILES Cc1cc(Cl)ccc1C(=O)N[C@H]1CC12CCC2
REMARK SMILES IDX 1 1 2 2 3 3 4 4 5 5 6 6 7 7 8 8 9 9 11 10 10 11 12 13 13 14
REMARK SMILES IDX 14 15 15 16 17 17 16 18
REMARK H PARENT 11 12
ROOT
ATOM      1  C   UNL     1      46.000 130.636  19.939  1.00  0.00     0.045 C 
ATOM      2  C   UNL     1      44.812 131.148  20.711  1.00  0.00    -0.037 A 
ATOM      3  C   UNL     1      44.850 131.104  22.117  1.00  0.00     0.024 A 
ATOM      4  C   UNL     1      43.762 131.547  22.873  1.00  0.00     0.041 A 
ATOM      5  Cl  UNL     1      43.824 131.477  24.625  1.00  0.00    -0.084 Cl
ATOM      6  C   UNL     1      42.627 132.046  22.236  1.00  0.00     0.021 A 
ATOM      7  C   UNL     1      42.577 132.112  20.842  1.00  0.00     0.015 A 
ATOM      8  C   UNL     1      43.663 131.674  20.063  1.00  0.00     0.042 A 
ENDROOT
BRANCH   8   9
ATOM      9  C   UNL     1      43.574 131.797  18.587  1.00  0.00     0.251 C 
ATOM     10  N   UNL     1      44.766 131.828  17.789  1.00  0.00    -0.349 N 
ATOM     11  O   UNL     1      42.446 131.848  18.027  1.00  0.00    -0.269 OA
ATOM     12  H   UNL     1      45.693 131.965  18.252  1.00  0.00     0.164 HD
BRANCH  10  13
ATOM     13  C   UNL     1      44.704 131.818  16.332  1.00  0.00     0.089 C 
ATOM     14  C   UNL     1      45.979 132.325  15.643  1.00  0.00     0.034 C 
ATOM     15  C   UNL     1      45.671 130.835  15.711  1.00  0.00    -0.007 C 
ATOM     16  C   UNL     1      45.589 130.091  14.411  1.00  0.00     0.009 C 
ATOM     17  C   UNL     1      46.721 129.944  16.314  1.00  0.00     0.009 C 
ATOM     18  C   UNL     1      46.668 129.152  14.991  1.00  0.00     0.001 C 
ENDBRANCH  10  13
ENDBRANCH   8   9
TORSDOF 2
ENDMDL
MODEL 4
REMARK VINA RESULT:      -7.7      3.193      6.422
REMARK SMILES Cc1cc(Cl)ccc1C(=O)N[C@H]1CC12CCC2
REMARK SMILES IDX 1 1 2 2 3 3 4 4 5 5 6 6 7 7 8 8 9 9 11 10 10 11 12 13 13 14
REMARK SMILES IDX 14 15 15 16 17 17 16 18
REMARK H PARENT 11 12
ROOT
ATOM      1  C   UNL     1      43.655 131.867  14.426  1.00  0.00     0.045 C 
ATOM      2  C   UNL     1      44.886 131.179  14.957  1.00  0.00    -0.037 A 
ATOM      3  C   UNL     1      45.854 130.726  14.041  1.00  0.00     0.024 A 
ATOM      4  C   UNL     1      47.000 130.064  14.486  1.00  0.00     0.041 A 
ATOM      5  Cl  UNL     1      48.193 129.500  13.330  1.00  0.00    -0.084 Cl
ATOM      6  C   UNL     1      47.198 129.851  15.850  1.00  0.00     0.021 A 
ATOM      7  C   UNL     1      46.255 130.305  16.774  1.00  0.00     0.015 A 
ATOM      8  C   UNL     1      45.096 130.978  16.347  1.00  0.00     0.042 A 
ENDROOT
BRANCH   8   9
ATOM      9  C   UNL     1      44.143 131.471  17.371  1.00  0.00     0.251 C 
ATOM     10  N   UNL     1      44.547 131.579  18.743  1.00  0.00    -0.349 N 
ATOM     11  O   UNL     1      42.981 131.824  17.032  1.00  0.00    -0.269 OA
ATOM     12  H   UNL     1      45.435 131.127  19.057  1.00  0.00     0.164 HD
BRANCH  10  13
ATOM     13  C   UNL     1      43.675 132.182  19.746  1.00  0.00     0.089 C 
ATOM     14  C   UNL     1      42.515 131.283  20.196  1.00  0.00     0.034 C 
ATOM     15  C   UNL     1      43.740 131.474  21.080  1.00  0.00    -0.007 C 
ATOM     16  C   UNL     1      43.511 132.002  22.466  1.00  0.00     0.009 C 
ATOM     17  C   UNL     1      44.465 130.234  21.524  1.00  0.00     0.009 C 
ATOM     18  C   UNL     1      44.250 130.742  22.964  1.00  0.00     0.001 C 
ENDBRANCH  10  13
ENDBRANCH   8   9
TORSDOF 2
ENDMDL
MODEL 5
REMARK VINA RESULT:      -7.3      3.348      6.540
REMARK SMILES Cc1cc(Cl)ccc1C(=O)N[C@H]1CC12CCC2
REMARK SMILES IDX 1 1 2 2 3 3 4 4 5 5 6 6 7 7 8 8 9 9 11 10 10 11 12 13 13 14
REMARK SMILES IDX 14 15 15 16 17 17 16 18
REMARK H PARENT 11 12
ROOT
ATOM      1  C   UNL     1      45.828 129.698  17.554  1.00  0.00     0.045 C 
ATOM      2  C   UNL     1      46.053 130.101  16.119  1.00  0.00    -0.037 A 
ATOM      3  C   UNL     1      47.166 129.577  15.437  1.00  0.00     0.024 A 
ATOM      4  C   UNL     1      47.425 129.939  14.113  1.00  0.00     0.041 A 
ATOM      5  Cl  UNL     1      48.822 129.282  13.280  1.00  0.00    -0.084 Cl
ATOM      6  C   UNL     1      46.573 130.824  13.453  1.00  0.00     0.021 A 
ATOM      7  C   UNL     1      45.456 131.344  14.110  1.00  0.00     0.015 A 
ATOM      8  C   UNL     1      45.175 130.988  15.441  1.00  0.00     0.042 A 
ENDROOT
BRANCH   8   9
ATOM      9  C   UNL     1      43.957 131.540  16.081  1.00  0.00     0.251 C 
ATOM     10  N   UNL     1      43.877 131.654  17.509  1.00  0.00    -0.349 N 
ATOM     11  O   UNL     1      42.996 131.937  15.369  1.00  0.00    -0.269 OA
ATOM     12  H   UNL     1      44.584 131.169  18.106  1.00  0.00     0.164 HD
BRANCH  10  13
ATOM     13  C   UNL     1      42.747 132.311  18.157  1.00  0.00     0.089 C 
ATOM     14  C   UNL     1      41.680 131.347  18.695  1.00  0.00     0.034 C 
ATOM     15  C   UNL     1      42.669 132.019  19.638  1.00  0.00    -0.007 C 
ATOM     16  C   UNL     1      42.100 132.842  20.756  1.00  0.00     0.009 C 
ATOM     17  C   UNL     1      43.484 131.123  20.528  1.00  0.00     0.009 C 
ATOM     18  C   UNL     1      42.921 131.944  21.706  1.00  0.00     0.001 C 
ENDBRANCH  10  13
ENDBRANCH   8   9
TORSDOF 2
ENDMDL
MODEL 6
REMARK VINA RESULT:      -7.2      1.590      2.051
REMARK SMILES Cc1cc(Cl)ccc1C(=O)N[C@H]1CC12CCC2
REMARK SMILES IDX 1 1 2 2 3 3 4 4 5 5 6 6 7 7 8 8 9 9 11 10 10 11 12 13 13 14
REMARK SMILES IDX 14 15 15 16 17 17 16 18
REMARK H PARENT 11 12
ROOT
ATOM      1  C   UNL     1      43.152 131.769  16.751  1.00  0.00     0.045 C 
ATOM      2  C   UNL     1      43.209 131.876  18.253  1.00  0.00    -0.037 A 
ATOM      3  C   UNL     1      42.152 132.516  18.925  1.00  0.00     0.024 A 
ATOM      4  C   UNL     1      42.173 132.658  20.314  1.00  0.00     0.041 A 
ATOM      5  Cl  UNL     1      40.849 133.466  21.134  1.00  0.00    -0.084 Cl
ATOM      6  C   UNL     1      43.245 132.156  21.050  1.00  0.00     0.021 A 
ATOM      7  C   UNL     1      44.297 131.506  20.402  1.00  0.00     0.015 A 
ATOM      8  C   UNL     1      44.293 131.350  19.004  1.00  0.00     0.042 A 
ENDROOT
BRANCH   8   9
ATOM      9  C   UNL     1      45.417 130.620  18.368  1.00  0.00     0.251 C 
ATOM     10  N   UNL     1      45.414 130.376  16.954  1.00  0.00    -0.349 N 
ATOM     11  O   UNL     1      46.393 130.235  19.066  1.00  0.00    -0.269 OA
ATOM     12  H   UNL     1      44.539 130.531  16.405  1.00  0.00     0.164 HD
BRANCH  10  13
ATOM     13  C   UNL     1      46.564 129.777  16.285  1.00  0.00     0.089 C 
ATOM     14  C   UNL     1      46.200 128.784  15.172  1.00  0.00     0.034 C 
ATOM     15  C   UNL     1      46.679 130.190  14.835  1.00  0.00    -0.007 C 
ATOM     16  C   UNL     1      47.890 130.310  13.959  1.00  0.00     0.009 C 
ATOM     17  C   UNL     1      45.790 131.025  13.957  1.00  0.00     0.009 C 
ATOM     18  C   UNL     1      47.013 131.173  13.028  1.00  0.00     0.001 C 
ENDBRANCH  10  13
ENDBRANCH   8   9
TORSDOF 2
ENDMDL
MODEL 7
REMARK VINA RESULT:      -7.2      3.239      6.375
REMARK SMILES Cc1cc(Cl)ccc1C(=O)N[C@H]1CC12CCC2
REMARK SMILES IDX 1 1 2 2 3 3 4 4 5 5 6 6 7 7 8 8 9 9 11 10 10 11 12 13 13 14
REMARK SMILES IDX 14 15 15 16 17 17 16 18
REMARK H PARENT 11 12
ROOT
ATOM      1  C   UNL     1      42.297 132.221  18.728  1.00  0.00     0.045 C 
ATOM      2  C   UNL     1      43.576 131.622  18.202  1.00  0.00    -0.037 A 
ATOM      3  C   UNL     1      43.757 131.535  16.809  1.00  0.00     0.024 A 
ATOM      4  C   UNL     1      44.917 130.968  16.277  1.00  0.00     0.041 A 
ATOM      5  Cl  UNL     1      45.123 130.860  14.538  1.00  0.00    -0.084 Cl
ATOM      6  C   UNL     1      45.912 130.487  17.127  1.00  0.00     0.021 A 
ATOM      7  C   UNL     1      45.755 130.578  18.511  1.00  0.00     0.015 A 
ATOM      8  C   UNL     1      44.597 131.150  19.067  1.00  0.00     0.042 A 
ENDROOT
BRANCH   8   9
ATOM      9  C   UNL     1      44.496 131.255  20.544  1.00  0.00     0.251 C 
ATOM     10  N   UNL     1      43.366 130.701  21.233  1.00  0.00    -0.349 N 
ATOM     11  O   UNL     1      45.418 131.808  21.200  1.00  0.00    -0.269 OA
ATOM     12  H   UNL     1      42.524 130.405  20.690  1.00  0.00     0.164 HD
BRANCH  10  13
ATOM     13  C   UNL     1      43.304 130.676  22.691  1.00  0.00     0.089 C 
ATOM     14  C   UNL     1      42.403 129.573  23.265  1.00  0.00     0.034 C 
ATOM     15  C   UNL     1      43.919 129.428  23.282  1.00  0.00    -0.007 C 
ATOM     16  C   UNL     1      44.573 129.212  24.615  1.00  0.00     0.009 C 
ATOM     17  C   UNL     1      44.497 128.195  22.644  1.00  0.00     0.009 C 
ATOM     18  C   UNL     1      45.187 127.937  23.999  1.00  0.00     0.001 C 
ENDBRANCH  10  13
ENDBRANCH   8   9
TORSDOF 2
ENDMDL
MODEL 8
REMARK VINA RESULT:      -7.1      3.199      6.537
REMARK SMILES Cc1cc(Cl)ccc1C(=O)N[C@H]1CC12CCC2
REMARK SMILES IDX 1 1 2 2 3 3 4 4 5 5 6 6 7 7 8 8 9 9 11 10 10 11 12 13 13 14
REMARK SMILES IDX 14 15 15 16 17 17 16 18
REMARK H PARENT 11 12
ROOT
ATOM      1  C   UNL     1      46.186 129.796  18.243  1.00  0.00     0.045 C 
ATOM      2  C   UNL     1      45.964 130.360  16.863  1.00  0.00    -0.037 A 
ATOM      3  C   UNL     1      46.844 129.985  15.831  1.00  0.00     0.024 A 
ATOM      4  C   UNL     1      46.689 130.499  14.542  1.00  0.00     0.041 A 
ATOM      5  Cl  UNL     1      47.801 130.027  13.269  1.00  0.00    -0.084 Cl
ATOM      6  C   UNL     1      45.651 131.388  14.265  1.00  0.00     0.021 A 
ATOM      7  C   UNL     1      44.760 131.759  15.273  1.00  0.00     0.015 A 
ATOM      8  C   UNL     1      44.896 131.250  16.577  1.00  0.00     0.042 A 
ENDROOT
BRANCH   8   9
ATOM      9  C   UNL     1      43.901 131.649  17.602  1.00  0.00     0.251 C 
ATOM     10  N   UNL     1      44.275 131.720  18.986  1.00  0.00    -0.349 N 
ATOM     11  O   UNL     1      42.728 131.954  17.257  1.00  0.00    -0.269 OA
ATOM     12  H   UNL     1      45.181 131.303  19.297  1.00  0.00     0.164 HD
BRANCH  10  13
ATOM     13  C   UNL     1      43.356 132.233  19.996  1.00  0.00     0.089 C 
ATOM     14  C   UNL     1      42.318 131.212  20.482  1.00  0.00     0.034 C 
ATOM     15  C   UNL     1      43.527 131.561  21.339  1.00  0.00    -0.007 C 
ATOM     16  C   UNL     1      43.261 132.083  22.720  1.00  0.00     0.009 C 
ATOM     17  C   UNL     1      44.401 130.424  21.787  1.00  0.00     0.009 C 
ATOM     18  C   UNL     1      44.152 130.928  23.224  1.00  0.00     0.001 C 
ENDBRANCH  10  13
ENDBRANCH   8   9
TORSDOF 2
ENDMDL
MODEL 9
REMARK VINA RESULT:      -7.0      0.498      1.670
REMARK SMILES Cc1cc(Cl)ccc1C(=O)N[C@H]1CC12CCC2
REMARK SMILES IDX 1 1 2 2 3 3 4 4 5 5 6 6 7 7 8 8 9 9 11 10 10 11 12 13 13 14
REMARK SMILES IDX 14 15 15 16 17 17 16 18
REMARK H PARENT 11 12
ROOT
ATOM      1  C   UNL     1      46.117 129.957  20.734  1.00  0.00     0.045 C 
ATOM      2  C   UNL     1      44.862 130.792  20.749  1.00  0.00    -0.037 A 
ATOM      3  C   UNL     1      44.144 130.911  21.953  1.00  0.00     0.024 A 
ATOM      4  C   UNL     1      42.965 131.656  22.008  1.00  0.00     0.041 A 
ATOM      5  Cl  UNL     1      42.078 131.787  23.517  1.00  0.00    -0.084 Cl
ATOM      6  C   UNL     1      42.490 132.297  20.865  1.00  0.00     0.021 A 
ATOM      7  C   UNL     1      43.197 132.202  19.664  1.00  0.00     0.015 A 
ATOM      8  C   UNL     1      44.389 131.460  19.589  1.00  0.00     0.042 A 
ENDROOT
BRANCH   8   9
ATOM      9  C   UNL     1      45.120 131.420  18.299  1.00  0.00     0.251 C 
ATOM     10  N   UNL     1      45.636 130.179  17.797  1.00  0.00    -0.349 N 
ATOM     11  O   UNL     1      45.265 132.475  17.624  1.00  0.00    -0.269 OA
ATOM     12  H   UNL     1      45.676 129.345  18.425  1.00  0.00     0.164 HD
BRANCH  10  13
ATOM     13  C   UNL     1      46.243 130.088  16.473  1.00  0.00     0.089 C 
ATOM     14  C   UNL     1      45.627 129.013  15.568  1.00  0.00     0.034 C 
ATOM     15  C   UNL     1      45.295 130.485  15.365  1.00  0.00    -0.007 C 
ATOM     16  C   UNL     1      45.580 131.073  14.014  1.00  0.00     0.009 C 
ATOM     17  C   UNL     1      43.842 130.868  15.378  1.00  0.00     0.009 C 
ATOM     18  C   UNL     1      44.093 131.484  13.986  1.00  0.00     0.001 C 
ENDBRANCH  10  13
ENDBRANCH   8   9
TORSDOF 2
ENDMDL


