MODEL 1
REMARK VINA RESULT:      -7.7      0.000      0.000
REMARK SMILES C=Cc1ccc([C@H]2CCC[C@]3(Cl)C=CO[C@H]23)nc1
REMARK SMILES IDX 3 1 4 2 5 3 6 4 17 5 18 6 2 7 1 8 7 9 8 10 16 11 9 12 15 13
REMARK SMILES IDX 11 14 10 15 14 16 13 17 12 18
REMARK H PARENT
ROOT
ATOM      1  C   UNL     1      46.690 130.383  15.127  1.00  0.00    -0.008 A 
ATOM      2  C   UNL     1      46.266 131.720  15.115  1.00  0.00     0.011 A 
ATOM      3  C   UNL     1      45.493 132.227  16.161  1.00  0.00     0.025 A 
ATOM      4  C   UNL     1      45.130 131.386  17.221  1.00  0.00     0.047 A 
ATOM      5  N   UNL     1      45.544 130.090  17.215  1.00  0.00    -0.260 NA
ATOM      6  C   UNL     1      46.299 129.573  16.210  1.00  0.00     0.119 A 
ENDROOT
BRANCH   1   7
ATOM      7  C   UNL     1      47.504 129.882  13.992  1.00  0.00     0.002 C 
ATOM      8  C   UNL     1      47.875 130.624  12.948  1.00  0.00     0.009 C 
ENDBRANCH   1   7
BRANCH   4   9
ATOM      9  C   UNL     1      44.313 131.913  18.380  1.00  0.00     0.081 C 
ATOM     10  C   UNL     1      42.805 131.755  18.109  1.00  0.00     0.014 C 
ATOM     11  C   UNL     1      44.693 131.183  19.685  1.00  0.00     0.206 C 
ATOM     12  C   UNL     1      41.924 132.275  19.269  1.00  0.00     0.003 C 
ATOM     13  O   UNL     1      45.983 131.591  20.122  1.00  0.00    -0.495 OA
ATOM     14  C   UNL     1      43.758 131.526  20.884  1.00  0.00     0.103 C 
ATOM     15  C   UNL     1      42.710 132.609  20.550  1.00  0.00     0.031 C 
ATOM     16  C   UNL     1      45.944 132.058  21.422  1.00  0.00     0.185 C 
ATOM     17  C   UNL     1      44.721 132.036  21.908  1.00  0.00     0.038 C 
ATOM     18  Cl  UNL     1      42.954 130.056  21.518  1.00  0.00    -0.111 Cl
ENDBRANCH   4   9
TORSDOF 2
ENDMDL
MODEL 2
REMARK VINA RESULT:      -7.5      0.672      1.146
REMARK SMILES C=Cc1ccc([C@H]2CCC[C@]3(Cl)C=CO[C@H]23)nc1
REMARK SMILES IDX 3 1 4 2 5 3 6 4 17 5 18 6 2 7 1 8 7 9 8 10 16 11 9 12 15 13
REMARK SMILES IDX 11 14 10 15 14 16 13 17 12 18
REMARK H PARENT
ROOT
ATOM      1  C   UNL     1      46.561 130.581  15.183  1.00  0.00    -0.008 A 
ATOM      2  C   UNL     1      46.375 129.738  16.289  1.00  0.00     0.011 A 
ATOM      3  C   UNL     1      45.636 130.169  17.391  1.00  0.00     0.025 A 
ATOM      4  C   UNL     1      45.089 131.459  17.394  1.00  0.00     0.047 A 
ATOM      5  N   UNL     1      45.283 132.267  16.315  1.00  0.00    -0.260 NA
ATOM      6  C   UNL     1      45.997 131.870  15.229  1.00  0.00     0.119 A 
ENDROOT
BRANCH   1   7
ATOM      7  C   UNL     1      47.360 130.086  14.035  1.00  0.00     0.002 C 
ATOM      8  C   UNL     1      47.779 130.850  13.026  1.00  0.00     0.009 C 
ENDBRANCH   1   7
BRANCH   4   9
ATOM      9  C   UNL     1      44.263 131.946  18.563  1.00  0.00     0.081 C 
ATOM     10  C   UNL     1      42.759 131.746  18.298  1.00  0.00     0.014 C 
ATOM     11  C   UNL     1      44.672 131.211  19.857  1.00  0.00     0.206 C 
ATOM     12  C   UNL     1      41.869 132.224  19.469  1.00  0.00     0.003 C 
ATOM     13  O   UNL     1      45.951 131.653  20.292  1.00  0.00    -0.495 OA
ATOM     14  C   UNL     1      43.734 131.510  21.065  1.00  0.00     0.103 C 
ATOM     15  C   UNL     1      42.651 132.565  20.750  1.00  0.00     0.031 C 
ATOM     16  C   UNL     1      45.905 132.101  21.598  1.00  0.00     0.185 C 
ATOM     17  C   UNL     1      44.686 132.036  22.090  1.00  0.00     0.038 C 
ATOM     18  Cl  UNL     1      42.977 130.009  21.684  1.00  0.00    -0.111 Cl
ENDBRANCH   4   9
TORSDOF 2
ENDMDL
MODEL 3
REMARK VINA RESULT:      -6.6      1.551      2.421
REMARK SMILES C=Cc1ccc([C@H]2CCC[C@]3(Cl)C=CO[C@H]23)nc1
REMARK SMILES IDX 3 1 4 2 5 3 6 4 17 5 18 6 2 7 1 8 7 9 8 10 16 11 9 12 15 13
REMARK SMILES IDX 11 14 10 15 14 16 13 17 12 18
REMARK H PARENT
ROOT
ATOM      1  C   UNL     1      46.261 130.862  14.573  1.00  0.00    -0.008 A 
ATOM      2  C   UNL     1      45.880 131.991  15.314  1.00  0.00     0.011 A 
ATOM      3  C   UNL     1      45.464 131.859  16.640  1.00  0.00     0.025 A 
ATOM      4  C   UNL     1      45.417 130.588  17.227  1.00  0.00     0.047 A 
ATOM      5  N   UNL     1      45.785 129.502  16.492  1.00  0.00    -0.260 NA
ATOM      6  C   UNL     1      46.195 129.604  15.200  1.00  0.00     0.119 A 
ENDROOT
BRANCH   1   7
ATOM      7  C   UNL     1      46.690 131.045  13.165  1.00  0.00     0.002 C 
ATOM      8  C   UNL     1      47.961 131.055  12.761  1.00  0.00     0.009 C 
ENDBRANCH   1   7
BRANCH   4   9
ATOM      9  C   UNL     1      44.994 130.416  18.668  1.00  0.00     0.081 C 
ATOM     10  C   UNL     1      46.160 129.889  19.526  1.00  0.00     0.014 C 
ATOM     11  C   UNL     1      44.481 131.753  19.243  1.00  0.00     0.206 C 
ATOM     12  C   UNL     1      45.779 129.700  21.014  1.00  0.00     0.003 C 
ATOM     13  O   UNL     1      43.217 132.079  18.680  1.00  0.00    -0.495 OA
ATOM     14  C   UNL     1      44.215 131.708  20.778  1.00  0.00     0.103 C 
ATOM     15  C   UNL     1      44.415 130.306  21.391  1.00  0.00     0.031 C 
ATOM     16  C   UNL     1      42.274 132.296  19.667  1.00  0.00     0.185 C 
ATOM     17  C   UNL     1      42.778 132.112  20.868  1.00  0.00     0.038 C 
ATOM     18  Cl  UNL     1      45.217 132.914  21.644  1.00  0.00    -0.111 Cl
ENDBRANCH   4   9
TORSDOF 2
ENDMDL
MODEL 4
REMARK VINA RESULT:      -6.6      1.578      2.641
REMARK SMILES C=Cc1ccc([C@H]2CCC[C@]3(Cl)C=CO[C@H]23)nc1
REMARK SMILES IDX 3 1 4 2 5 3 6 4 17 5 18 6 2 7 1 8 7 9 8 10 16 11 9 12 15 13
REMARK SMILES IDX 11 14 10 15 14 16 13 17 12 18
REMARK H PARENT
ROOT
ATOM      1  C   UNL     1      46.397 130.988  14.529  1.00  0.00    -0.008 A 
ATOM      2  C   UNL     1      46.351 129.703  15.089  1.00  0.00     0.011 A 
ATOM      3  C   UNL     1      45.927 129.519  16.407  1.00  0.00     0.025 A 
ATOM      4  C   UNL     1      45.559 130.632  17.174  1.00  0.00     0.047 A 
ATOM      5  N   UNL     1      45.615 131.873  16.618  1.00  0.00    -0.260 NA
ATOM      6  C   UNL     1      46.022 132.078  15.337  1.00  0.00     0.119 A 
ENDROOT
BRANCH   1   7
ATOM      7  C   UNL     1      46.859 131.139  13.127  1.00  0.00     0.002 C 
ATOM      8  C   UNL     1      48.109 130.913  12.720  1.00  0.00     0.009 C 
ENDBRANCH   1   7
BRANCH   4   9
ATOM      9  C   UNL     1      45.074 130.463  18.596  1.00  0.00     0.081 C 
ATOM     10  C   UNL     1      46.203 129.944  19.507  1.00  0.00     0.014 C 
ATOM     11  C   UNL     1      44.528 131.798  19.144  1.00  0.00     0.206 C 
ATOM     12  C   UNL     1      45.758 129.758  20.977  1.00  0.00     0.003 C 
ATOM     13  O   UNL     1      43.288 132.115  18.525  1.00  0.00    -0.495 OA
ATOM     14  C   UNL     1      44.195 131.756  20.666  1.00  0.00     0.103 C 
ATOM     15  C   UNL     1      44.376 130.357  21.292  1.00  0.00     0.031 C 
ATOM     16  C   UNL     1      42.301 132.330  19.468  1.00  0.00     0.185 C 
ATOM     17  C   UNL     1      42.753 132.152  20.691  1.00  0.00     0.038 C 
ATOM     18  Cl  UNL     1      45.151 132.971  21.571  1.00  0.00    -0.111 Cl
ENDBRANCH   4   9
TORSDOF 2
ENDMDL
MODEL 5
REMARK VINA RESULT:      -6.5      2.568      3.843
REMARK SMILES C=Cc1ccc([C@H]2CCC[C@]3(Cl)C=CO[C@H]23)nc1
REMARK SMILES IDX 3 1 4 2 5 3 6 4 17 5 18 6 2 7 1 8 7 9 8 10 16 11 9 12 15 13
REMARK SMILES IDX 11 14 10 15 14 16 13 17 12 18
REMARK H PARENT
ROOT
ATOM      1  C   UNL     1      44.632 131.458  17.682  1.00  0.00    -0.008 A 
ATOM      2  C   UNL     1      45.674 131.016  18.509  1.00  0.00     0.011 A 
ATOM      3  C   UNL     1      45.486 130.907  19.888  1.00  0.00     0.025 A 
ATOM      4  C   UNL     1      44.248 131.255  20.445  1.00  0.00     0.047 A 
ATOM      5  N   UNL     1      43.249 131.688  19.629  1.00  0.00    -0.260 NA
ATOM      6  C   UNL     1      43.406 131.801  18.284  1.00  0.00     0.119 A 
ENDROOT
BRANCH   1   7
ATOM      7  C   UNL     1      44.876 131.566  16.222  1.00  0.00     0.002 C 
ATOM      8  C   UNL     1      46.085 131.662  15.668  1.00  0.00     0.009 C 
ENDBRANCH   1   7
BRANCH   4   9
ATOM      9  C   UNL     1      44.007 131.125  21.932  1.00  0.00     0.081 C 
ATOM     10  C   UNL     1      42.855 132.042  22.387  1.00  0.00     0.014 C 
ATOM     11  C   UNL     1      43.691 129.661  22.303  1.00  0.00     0.206 C 
ATOM     12  C   UNL     1      42.564 131.943  23.903  1.00  0.00     0.003 C 
ATOM     13  O   UNL     1      44.862 128.862  22.200  1.00  0.00    -0.495 OA
ATOM     14  C   UNL     1      43.233 129.479  23.781  1.00  0.00     0.103 C 
ATOM     15  C   UNL     1      43.294 130.783  24.604  1.00  0.00     0.031 C 
ATOM     16  C   UNL     1      45.112 128.191  23.381  1.00  0.00     0.185 C 
ATOM     17  C   UNL     1      44.224 128.489  24.305  1.00  0.00     0.038 C 
ATOM     18  Cl  UNL     1      41.592 128.766  23.867  1.00  0.00    -0.111 Cl
ENDBRANCH   4   9
TORSDOF 2
ENDMDL
MODEL 6
REMARK VINA RESULT:      -6.3      2.562      3.763
REMARK SMILES C=Cc1ccc([C@H]2CCC[C@]3(Cl)C=CO[C@H]23)nc1
REMARK SMILES IDX 3 1 4 2 5 3 6 4 17 5 18 6 2 7 1 8 7 9 8 10 16 11 9 12 15 13
REMARK SMILES IDX 11 14 10 15 14 16 13 17 12 18
REMARK H PARENT
ROOT
ATOM      1  C   UNL     1      44.963 131.161  17.766  1.00  0.00    -0.008 A 
ATOM      2  C   UNL     1      43.771 131.739  18.227  1.00  0.00     0.011 A 
ATOM      3  C   UNL     1      43.450 131.712  19.585  1.00  0.00     0.025 A 
ATOM      4  C   UNL     1      44.323 131.090  20.488  1.00  0.00     0.047 A 
ATOM      5  N   UNL     1      45.472 130.528  20.024  1.00  0.00    -0.260 NA
ATOM      6  C   UNL     1      45.808 130.543  18.707  1.00  0.00     0.119 A 
ENDROOT
BRANCH   1   7
ATOM      7  C   UNL     1      45.262 131.205  16.313  1.00  0.00     0.002 C 
ATOM      8  C   UNL     1      45.934 132.190  15.714  1.00  0.00     0.009 C 
ENDBRANCH   1   7
BRANCH   4   9
ATOM      9  C   UNL     1      44.014 131.065  21.968  1.00  0.00     0.081 C 
ATOM     10  C   UNL     1      42.840 132.004  22.302  1.00  0.00     0.014 C 
ATOM     11  C   UNL     1      43.686 129.629  22.429  1.00  0.00     0.206 C 
ATOM     12  C   UNL     1      42.480 132.012  23.807  1.00  0.00     0.003 C 
ATOM     13  O   UNL     1      44.864 128.833  22.437  1.00  0.00    -0.495 OA
ATOM     14  C   UNL     1      43.162 129.551  23.894  1.00  0.00     0.103 C 
ATOM     15  C   UNL     1      43.181 130.911  24.623  1.00  0.00     0.031 C 
ATOM     16  C   UNL     1      45.062 128.250  23.673  1.00  0.00     0.185 C 
ATOM     17  C   UNL     1      44.132 128.608  24.533  1.00  0.00     0.038 C 
ATOM     18  Cl  UNL     1      41.522 128.834  23.957  1.00  0.00    -0.111 Cl
ENDBRANCH   4   9
TORSDOF 2
ENDMDL
MODEL 7
REMARK VINA RESULT:      -5.3      2.615      6.101
REMARK SMILES C=Cc1ccc([C@H]2CCC[C@]3(Cl)C=CO[C@H]23)nc1
REMARK SMILES IDX 3 1 4 2 5 3 6 4 17 5 18 6 2 7 1 8 7 9 8 10 16 11 9 12 15 13
REMARK SMILES IDX 11 14 10 15 14 16 13 17 12 18
REMARK H PARENT
ROOT
ATOM      1  C   UNL     1      44.561 131.422  21.129  1.00  0.00    -0.008 A 
ATOM      2  C   UNL     1      43.518 131.941  20.348  1.00  0.00     0.011 A 
ATOM      3  C   UNL     1      43.517 131.766  18.963  1.00  0.00     0.025 A 
ATOM      4  C   UNL     1      44.574 131.078  18.353  1.00  0.00     0.047 A 
ATOM      5  N   UNL     1      45.582 130.585  19.125  1.00  0.00    -0.260 NA
ATOM      6  C   UNL     1      45.605 130.740  20.475  1.00  0.00     0.119 A 
ENDROOT
BRANCH   1   7
ATOM      7  C   UNL     1      44.528 131.636  22.597  1.00  0.00     0.002 C 
ATOM      8  C   UNL     1      43.418 131.605  23.336  1.00  0.00     0.009 C 
ENDBRANCH   1   7
BRANCH   4   9
ATOM      9  C   UNL     1      44.589 130.852  16.858  1.00  0.00     0.081 C 
ATOM     10  C   UNL     1      43.738 131.911  16.132  1.00  0.00     0.014 C 
ATOM     11  C   UNL     1      46.035 130.880  16.320  1.00  0.00     0.206 C 
ATOM     12  C   UNL     1      43.723 131.727  14.596  1.00  0.00     0.003 C 
ATOM     13  O   UNL     1      46.735 129.712  16.726  1.00  0.00    -0.495 OA
ATOM     14  C   UNL     1      46.120 130.856  14.764  1.00  0.00     0.103 C 
ATOM     15  C   UNL     1      44.746 130.699  14.080  1.00  0.00     0.031 C 
ATOM     16  C   UNL     1      47.271 129.050  15.638  1.00  0.00     0.185 C 
ATOM     17  C   UNL     1      46.968 129.652  14.507  1.00  0.00     0.038 C 
ATOM     18  Cl  UNL     1      46.962 132.309  14.140  1.00  0.00    -0.111 Cl
ENDBRANCH   4   9
TORSDOF 2
ENDMDL
MODEL 8
REMARK VINA RESULT:      -5.0      2.666      6.158
REMARK SMILES C=Cc1ccc([C@H]2CCC[C@]3(Cl)C=CO[C@H]23)nc1
REMARK SMILES IDX 3 1 4 2 5 3 6 4 17 5 18 6 2 7 1 8 7 9 8 10 16 11 9 12 15 13
REMARK SMILES IDX 11 14 10 15 14 16 13 17 12 18
REMARK H PARENT
ROOT
ATOM      1  C   UNL     1      43.295 131.892  20.711  1.00  0.00    -0.008 A 
ATOM      2  C   UNL     1      44.577 131.442  20.366  1.00  0.00     0.011 A 
ATOM      3  C   UNL     1      44.888 131.141  19.038  1.00  0.00     0.025 A 
ATOM      4  C   UNL     1      43.904 131.280  18.050  1.00  0.00     0.047 A 
ATOM      5  N   UNL     1      42.663 131.712  18.403  1.00  0.00    -0.260 NA
ATOM      6  C   UNL     1      42.336 132.013  19.687  1.00  0.00     0.119 A 
ENDROOT
BRANCH   1   7
ATOM      7  C   UNL     1      43.003 132.194  22.135  1.00  0.00     0.002 C 
ATOM      8  C   UNL     1      43.587 131.584  23.167  1.00  0.00     0.009 C 
ENDBRANCH   1   7
BRANCH   4   9
ATOM      9  C   UNL     1      44.218 130.984  16.601  1.00  0.00     0.081 C 
ATOM     10  C   UNL     1      43.481 131.962  15.667  1.00  0.00     0.014 C 
ATOM     11  C   UNL     1      45.739 131.063  16.350  1.00  0.00     0.206 C 
ATOM     12  C   UNL     1      43.772 131.705  14.169  1.00  0.00     0.003 C 
ATOM     13  O   UNL     1      46.395 129.953  16.948  1.00  0.00    -0.495 OA
ATOM     14  C   UNL     1      46.126 130.969  14.844  1.00  0.00     0.103 C 
ATOM     15  C   UNL     1      44.918 130.708  13.919  1.00  0.00     0.031 C 
ATOM     16  C   UNL     1      47.160 129.269  16.022  1.00  0.00     0.185 C 
ATOM     17  C   UNL     1      47.057 129.800  14.822  1.00  0.00     0.038 C 
ATOM     18  Cl  UNL     1      47.011 132.433  14.311  1.00  0.00    -0.111 Cl
ENDBRANCH   4   9
TORSDOF 2
ENDMDL


