REMARK SMILES Cc1ccc(-c2ccc(O)cc2)c2cn(C(=O)NC3(C(F)(F)F)CC3)nc12
REMARK SMILES IDX 1 1 2 2 3 3 4 4 5 5 13 6 14 7 15 8 26 9 27 10 6 11 7 12
REMARK SMILES IDX 12 13 8 14 11 15 9 16 10 17 16 19 18 20 17 21 19 23 24 24
REMARK SMILES IDX 25 25 20 26 21 27 22 28 23 29
REMARK H PARENT 10 18 18 22
ROOT
ATOM      1  C   UNL     1       1.520   3.735  -1.255  1.00  0.00     0.047 C 
ATOM      2  C   UNL     1       1.135   2.340  -1.650  1.00  0.00    -0.023 A 
ATOM      3  C   UNL     1       1.342   1.868  -2.963  1.00  0.00     0.006 A 
ATOM      4  C   UNL     1       1.017   0.539  -3.312  1.00  0.00     0.010 A 
ATOM      5  C   UNL     1       0.482  -0.352  -2.354  1.00  0.00    -0.007 A 
ATOM      6  C   UNL     1       0.308   0.144  -1.054  1.00  0.00     0.029 A 
ATOM      7  C   UNL     1      -0.117  -0.444   0.119  1.00  0.00     0.129 A 
ATOM      8  N   UNL     1      -0.051   0.498   1.090  1.00  0.00    -0.189 N 
ATOM      9  N   UNL     1       0.402   1.644   0.595  1.00  0.00    -0.164 NA
ATOM     10  C   UNL     1       0.626   1.434  -0.716  1.00  0.00     0.096 A 
ENDROOT
BRANCH   5  11
ATOM     11  C   UNL     1       0.134  -1.744  -2.724  1.00  0.00    -0.017 A 
ATOM     12  C   UNL     1      -1.113  -2.288  -2.369  1.00  0.00     0.012 A 
ATOM     13  C   UNL     1       1.039  -2.529  -3.458  1.00  0.00     0.012 A 
ATOM     14  C   UNL     1      -1.440  -3.599  -2.729  1.00  0.00     0.047 A 
ATOM     15  C   UNL     1       0.709  -3.840  -3.815  1.00  0.00     0.047 A 
ATOM     16  C   UNL     1      -0.528  -4.379  -3.452  1.00  0.00     0.115 A 
BRANCH  16  17
ATOM     17  O   UNL     1      -0.843  -5.687  -3.814  1.00  0.00    -0.508 OA
ATOM     18  H   UNL     1      -1.732  -6.106  -3.567  1.00  0.00     0.293 HD
ENDBRANCH  16  17
ENDBRANCH   5  11
BRANCH   8  19
ATOM     19  C   UNL     1      -0.401   0.306   2.468  1.00  0.00     0.342 C 
ATOM     20  N   UNL     1      -0.275   1.386   3.404  1.00  0.00    -0.322 N 
ATOM     21  O   UNL     1      -0.825  -0.818   2.855  1.00  0.00    -0.246 OA
ATOM     22  H   UNL     1       0.109   2.303   3.082  1.00  0.00     0.166 HD
BRANCH  20  23
ATOM     23  C   UNL     1      -0.559   1.220   4.828  1.00  0.00     0.137 C 
ATOM     24  C   UNL     1      -2.017   0.953   5.176  1.00  0.00     0.041 C 
ATOM     25  C   UNL     1      -1.413   2.335   5.417  1.00  0.00     0.041 C 
BRANCH  23  26
ATOM     26  C   UNL     1       0.552   0.631   5.709  1.00  0.00     0.411 C 
ATOM     27  F   UNL     1       0.876  -0.635   5.258  1.00  0.00    -0.168 F 
ATOM     28  F   UNL     1       1.673   1.436   5.627  1.00  0.00    -0.168 F 
ATOM     29  F   UNL     1       0.164   0.542   7.036  1.00  0.00    -0.168 F 
ENDBRANCH  23  26
ENDBRANCH  20  23
ENDBRANCH   8  19
TORSDOF 5


