MODEL 1
REMARK VINA RESULT:      -4.8      0.000      0.000
REMARK SMILES CC(F)(F)COC(=O)N(c1cn2ccccc2n1)c1cc2cccc(F)c2[nH]1
REMARK SMILES IDX 6 1 5 2 2 3 1 4 3 5 4 6 7 7 8 8 9 9 10 10 11 11 18 12 12 13
REMARK SMILES IDX 17 14 13 15 16 16 14 17 15 18 19 19 20 20 28 21 21 22 27 23
REMARK SMILES IDX 22 24 25 25 23 26 24 27 26 29
REMARK H PARENT 28 28
ROOT
ATOM      1  O   UNL     1      46.422 133.233  21.290  1.00  0.00    -0.442 OA
ENDROOT
BRANCH   1   2
ATOM      2  C   UNL     1      47.797 133.125  21.647  1.00  0.00     0.311 C 
BRANCH   2   3
ATOM      3  C   UNL     1      48.242 134.376  22.408  1.00  0.00     0.278 C 
ATOM      4  C   UNL     1      48.317 135.595  21.489  1.00  0.00     0.091 C 
ATOM      5  F   UNL     1      47.348 134.633  23.434  1.00  0.00    -0.203 F 
ATOM      6  F   UNL     1      49.492 134.150  22.957  1.00  0.00    -0.203 F 
ENDBRANCH   2   3
ENDBRANCH   1   2
BRANCH   1   7
ATOM      7  C   UNL     1      45.414 132.488  21.912  1.00  0.00     0.421 C 
ATOM      8  O   UNL     1      44.979 132.838  23.043  1.00  0.00    -0.223 OA
BRANCH   7   9
ATOM      9  N   UNL     1      44.871 131.328  21.253  1.00  0.00    -0.213 N 
BRANCH   9  10
ATOM     10  C   UNL     1      44.186 130.322  22.025  1.00  0.00     0.163 A 
ATOM     11  C   UNL     1      42.927 130.458  22.595  1.00  0.00     0.140 A 
ATOM     12  N   UNL     1      44.714 129.106  22.314  1.00  0.00    -0.211 NA
ATOM     13  N   UNL     1      42.675 129.311  23.239  1.00  0.00    -0.305 N 
ATOM     14  C   UNL     1      43.750 128.526  23.056  1.00  0.00     0.139 A 
ATOM     15  C   UNL     1      41.586 128.937  23.959  1.00  0.00     0.093 A 
ATOM     16  C   UNL     1      43.806 127.249  23.612  1.00  0.00     0.048 A 
ATOM     17  C   UNL     1      41.586 127.661  24.542  1.00  0.00     0.018 A 
ATOM     18  C   UNL     1      42.701 126.818  24.365  1.00  0.00     0.005 A 
ENDBRANCH   9  10
BRANCH   9  19
ATOM     19  C   UNL     1      45.021 131.173  19.828  1.00  0.00     0.123 A 
ATOM     20  C   UNL     1      46.077 130.514  19.201  1.00  0.00     0.056 A 
ATOM     21  N   UNL     1      44.140 131.665  18.923  1.00  0.00    -0.338 N 
ATOM     22  C   UNL     1      45.807 130.620  17.856  1.00  0.00     0.005 A 
ATOM     23  C   UNL     1      44.632 131.318  17.722  1.00  0.00     0.083 A 
ATOM     24  C   UNL     1      46.512 130.150  16.750  1.00  0.00     0.010 A 
ATOM     25  C   UNL     1      44.083 131.591  16.469  1.00  0.00     0.147 A 
ATOM     26  C   UNL     1      45.983 130.412  15.473  1.00  0.00     0.004 A 
ATOM     27  C   UNL     1      44.774 131.129  15.332  1.00  0.00     0.041 A 
ATOM     28  H   UNL     1      43.255 132.185  19.114  1.00  0.00     0.168 HD
ATOM     29  F   UNL     1      42.923 132.280  16.346  1.00  0.00    -0.205 F 
ENDBRANCH   9  19
ENDBRANCH   7   9
ENDBRANCH   1   7
TORSDOF 6
ENDMDL
MODEL 2
REMARK VINA RESULT:      -4.7      1.985      6.153
REMARK SMILES CC(F)(F)COC(=O)N(c1cn2ccccc2n1)c1cc2cccc(F)c2[nH]1
REMARK SMILES IDX 6 1 5 2 2 3 1 4 3 5 4 6 7 7 8 8 9 9 10 10 11 11 18 12 12 13
REMARK SMILES IDX 17 14 13 15 16 16 14 17 15 18 19 19 20 20 28 21 21 22 27 23
REMARK SMILES IDX 22 24 25 25 23 26 24 27 26 29
REMARK H PARENT 28 28
ROOT
ATOM      1  O   UNL     1      46.822 132.616  21.857  1.00  0.00    -0.442 OA
ENDROOT
BRANCH   1   2
ATOM      2  C   UNL     1      48.130 133.137  21.634  1.00  0.00     0.311 C 
BRANCH   2   3
ATOM      3  C   UNL     1      48.297 134.468  22.371  1.00  0.00     0.278 C 
ATOM      4  C   UNL     1      48.453 135.634  21.396  1.00  0.00     0.091 C 
ATOM      5  F   UNL     1      47.191 134.691  23.175  1.00  0.00    -0.203 F 
ATOM      6  F   UNL     1      49.421 134.400  23.175  1.00  0.00    -0.203 F 
ENDBRANCH   2   3
ENDBRANCH   1   2
BRANCH   1   7
ATOM      7  C   UNL     1      45.840 132.576  20.861  1.00  0.00     0.421 C 
ATOM      8  O   UNL     1      45.364 133.651  20.403  1.00  0.00    -0.223 OA
BRANCH   7   9
ATOM      9  N   UNL     1      45.381 131.307  20.358  1.00  0.00    -0.213 N 
BRANCH   9  10
ATOM     10  C   UNL     1      45.292 131.090  18.936  1.00  0.00     0.163 A 
ATOM     11  C   UNL     1      46.099 130.237  18.195  1.00  0.00     0.140 A 
ATOM     12  N   UNL     1      44.405 131.730  18.132  1.00  0.00    -0.211 NA
ATOM     13  N   UNL     1      45.703 130.349  16.920  1.00  0.00    -0.305 N 
ATOM     14  C   UNL     1      44.697 131.240  16.910  1.00  0.00     0.139 A 
ATOM     15  C   UNL     1      46.171 129.733  15.805  1.00  0.00     0.093 A 
ATOM     16  C   UNL     1      44.062 131.588  15.719  1.00  0.00     0.048 A 
ATOM     17  C   UNL     1      45.569 130.043  14.577  1.00  0.00     0.018 A 
ATOM     18  C   UNL     1      44.512 130.974  14.539  1.00  0.00     0.005 A 
ENDBRANCH   9  10
BRANCH   9  19
ATOM     19  C   UNL     1      45.006 130.262  21.277  1.00  0.00     0.123 A 
ATOM     20  C   UNL     1      44.101 130.407  22.328  1.00  0.00     0.056 A 
ATOM     21  N   UNL     1      45.503 129.002  21.225  1.00  0.00    -0.338 N 
ATOM     22  C   UNL     1      44.061 129.169  22.928  1.00  0.00     0.005 A 
ATOM     23  C   UNL     1      44.915 128.345  22.238  1.00  0.00     0.083 A 
ATOM     24  C   UNL     1      43.331 128.718  24.026  1.00  0.00     0.010 A 
ATOM     25  C   UNL     1      45.095 127.011  22.602  1.00  0.00     0.147 A 
ATOM     26  C   UNL     1      43.494 127.376  24.417  1.00  0.00     0.004 A 
ATOM     27  C   UNL     1      44.372 126.526  23.709  1.00  0.00     0.041 A 
ATOM     28  H   UNL     1      46.182 128.615  20.533  1.00  0.00     0.168 HD
ATOM     29  F   UNL     1      45.941 126.203  21.916  1.00  0.00    -0.205 F 
ENDBRANCH   9  19
ENDBRANCH   7   9
ENDBRANCH   1   7
TORSDOF 6
ENDMDL
MODEL 3
REMARK VINA RESULT:      -4.4      1.595      2.138
REMARK SMILES CC(F)(F)COC(=O)N(c1cn2ccccc2n1)c1cc2cccc(F)c2[nH]1
REMARK SMILES IDX 6 1 5 2 2 3 1 4 3 5 4 6 7 7 8 8 9 9 10 10 11 11 18 12 12 13
REMARK SMILES IDX 17 14 13 15 16 16 14 17 15 18 19 19 20 20 28 21 21 22 27 23
REMARK SMILES IDX 22 24 25 25 23 26 24 27 26 29
REMARK H PARENT 28 28
ROOT
ATOM      1  O   UNL     1      47.177 132.365  21.624  1.00  0.00    -0.442 OA
ENDROOT
BRANCH   1   2
ATOM      2  C   UNL     1      47.652 133.683  21.365  1.00  0.00     0.311 C 
BRANCH   2   3
ATOM      3  C   UNL     1      48.126 134.336  22.665  1.00  0.00     0.278 C 
ATOM      4  C   UNL     1      49.398 133.675  23.195  1.00  0.00     0.091 C 
ATOM      5  F   UNL     1      48.370 135.681  22.442  1.00  0.00    -0.203 F 
ATOM      6  F   UNL     1      47.129 134.219  23.618  1.00  0.00    -0.203 F 
ENDBRANCH   2   3
ENDBRANCH   1   2
BRANCH   1   7
ATOM      7  C   UNL     1      45.824 132.018  21.561  1.00  0.00     0.421 C 
ATOM      8  O   UNL     1      44.962 132.736  22.140  1.00  0.00    -0.223 OA
BRANCH   7   9
ATOM      9  N   UNL     1      45.417 130.846  20.828  1.00  0.00    -0.213 N 
BRANCH   9  10
ATOM     10  C   UNL     1      45.154 129.617  21.532  1.00  0.00     0.163 A 
ATOM     11  C   UNL     1      44.251 129.459  22.575  1.00  0.00     0.140 A 
ATOM     12  N   UNL     1      45.793 128.448  21.270  1.00  0.00    -0.211 NA
ATOM     13  N   UNL     1      44.331 128.178  22.957  1.00  0.00    -0.305 N 
ATOM     14  C   UNL     1      45.252 127.600  22.167  1.00  0.00     0.139 A 
ATOM     15  C   UNL     1      43.661 127.517  23.936  1.00  0.00     0.093 A 
ATOM     16  C   UNL     1      45.577 126.253  22.316  1.00  0.00     0.048 A 
ATOM     17  C   UNL     1      43.946 126.158  24.131  1.00  0.00     0.018 A 
ATOM     18  C   UNL     1      44.908 125.528  23.315  1.00  0.00     0.005 A 
ENDBRANCH   9  10
BRANCH   9  19
ATOM     19  C   UNL     1      45.282 130.906  19.394  1.00  0.00     0.123 A 
ATOM     20  C   UNL     1      44.261 131.567  18.714  1.00  0.00     0.056 A 
ATOM     21  N   UNL     1      46.143 130.310  18.533  1.00  0.00    -0.338 N 
ATOM     22  C   UNL     1      44.533 131.353  17.381  1.00  0.00     0.005 A 
ATOM     23  C   UNL     1      45.674 130.593  17.307  1.00  0.00     0.083 A 
ATOM     24  C   UNL     1      43.856 131.776  16.239  1.00  0.00     0.010 A 
ATOM     25  C   UNL     1      46.215 130.207  16.081  1.00  0.00     0.147 A 
ATOM     26  C   UNL     1      44.379 131.400  14.988  1.00  0.00     0.004 A 
ATOM     27  C   UNL     1      45.553 130.619  14.909  1.00  0.00     0.041 A 
ATOM     28  H   UNL     1      47.001 129.764  18.769  1.00  0.00     0.168 HD
ATOM     29  F   UNL     1      47.343 129.456  16.017  1.00  0.00    -0.205 F 
ENDBRANCH   9  19
ENDBRANCH   7   9
ENDBRANCH   1   7
TORSDOF 6
ENDMDL
MODEL 4
REMARK VINA RESULT:      -4.0      1.552      1.913
REMARK SMILES CC(F)(F)COC(=O)N(c1cn2ccccc2n1)c1cc2cccc(F)c2[nH]1
REMARK SMILES IDX 6 1 5 2 2 3 1 4 3 5 4 6 7 7 8 8 9 9 10 10 11 11 18 12 12 13
REMARK SMILES IDX 17 14 13 15 16 16 14 17 15 18 19 19 20 20 28 21 21 22 27 23
REMARK SMILES IDX 22 24 25 25 23 26 24 27 26 29
REMARK H PARENT 28 28
ROOT
ATOM      1  O   UNL     1      45.551 133.374  21.012  1.00  0.00    -0.442 OA
ENDROOT
BRANCH   1   2
ATOM      2  C   UNL     1      46.824 132.895  21.437  1.00  0.00     0.311 C 
BRANCH   2   3
ATOM      3  C   UNL     1      47.568 133.992  22.202  1.00  0.00     0.278 C 
ATOM      4  C   UNL     1      49.014 133.590  22.493  1.00  0.00     0.091 C 
ATOM      5  F   UNL     1      47.560 135.159  21.457  1.00  0.00    -0.203 F 
ATOM      6  F   UNL     1      46.918 134.227  23.401  1.00  0.00    -0.203 F 
ENDBRANCH   2   3
ENDBRANCH   1   2
BRANCH   1   7
ATOM      7  C   UNL     1      44.552 132.535  20.509  1.00  0.00     0.421 C 
ATOM      8  O   UNL     1      43.357 132.939  20.456  1.00  0.00    -0.223 OA
BRANCH   7   9
ATOM      9  N   UNL     1      44.892 131.214  20.045  1.00  0.00    -0.213 N 
BRANCH   9  10
ATOM     10  C   UNL     1      44.972 130.124  20.984  1.00  0.00     0.163 A 
ATOM     11  C   UNL     1      44.466 130.131  22.277  1.00  0.00     0.140 A 
ATOM     12  N   UNL     1      45.590 128.945  20.718  1.00  0.00    -0.211 NA
ATOM     13  N   UNL     1      44.772 128.942  22.813  1.00  0.00    -0.305 N 
ATOM     14  C   UNL     1      45.437 128.257  21.867  1.00  0.00     0.139 A 
ATOM     15  C   UNL     1      44.508 128.449  24.050  1.00  0.00     0.093 A 
ATOM     16  C   UNL     1      45.906 126.968  22.114  1.00  0.00     0.048 A 
ATOM     17  C   UNL     1      44.955 127.156  24.355  1.00  0.00     0.018 A 
ATOM     18  C   UNL     1      45.655 126.416  23.381  1.00  0.00     0.005 A 
ENDBRANCH   9  10
BRANCH   9  19
ATOM     19  C   UNL     1      45.157 130.989  18.646  1.00  0.00     0.123 A 
ATOM     20  C   UNL     1      46.236 130.264  18.143  1.00  0.00     0.056 A 
ATOM     21  N   UNL     1      44.377 131.469  17.647  1.00  0.00    -0.338 N 
ATOM     22  C   UNL     1      46.086 130.318  16.775  1.00  0.00     0.005 A 
ATOM     23  C   UNL     1      44.956 131.050  16.510  1.00  0.00     0.083 A 
ATOM     24  C   UNL     1      46.864 129.772  15.756  1.00  0.00     0.010 A 
ATOM     25  C   UNL     1      44.527 131.284  15.204  1.00  0.00     0.147 A 
ATOM     26  C   UNL     1      46.457 129.993  14.428  1.00  0.00     0.004 A 
ATOM     27  C   UNL     1      45.293 130.746  14.152  1.00  0.00     0.041 A 
ATOM     28  H   UNL     1      43.500 132.029  17.739  1.00  0.00     0.168 HD
ATOM     29  F   UNL     1      43.410 132.008  14.950  1.00  0.00    -0.205 F 
ENDBRANCH   9  19
ENDBRANCH   7   9
ENDBRANCH   1   7
TORSDOF 6
ENDMDL
MODEL 5
REMARK VINA RESULT:      -3.7      2.055      6.170
REMARK SMILES CC(F)(F)COC(=O)N(c1cn2ccccc2n1)c1cc2cccc(F)c2[nH]1
REMARK SMILES IDX 6 1 5 2 2 3 1 4 3 5 4 6 7 7 8 8 9 9 10 10 11 11 18 12 12 13
REMARK SMILES IDX 17 14 13 15 16 16 14 17 15 18 19 19 20 20 28 21 21 22 27 23
REMARK SMILES IDX 22 24 25 25 23 26 24 27 26 29
REMARK H PARENT 28 28
ROOT
ATOM      1  O   UNL     1      45.599 133.023  21.795  1.00  0.00    -0.442 OA
ENDROOT
BRANCH   1   2
ATOM      2  C   UNL     1      47.000 132.845  21.603  1.00  0.00     0.311 C 
BRANCH   2   3
ATOM      3  C   UNL     1      47.763 134.048  22.162  1.00  0.00     0.278 C 
ATOM      4  C   UNL     1      47.603 134.159  23.678  1.00  0.00     0.091 C 
ATOM      5  F   UNL     1      49.108 133.922  21.854  1.00  0.00    -0.203 F 
ATOM      6  F   UNL     1      47.280 135.203  21.573  1.00  0.00    -0.203 F 
ENDBRANCH   2   3
ENDBRANCH   1   2
BRANCH   1   7
ATOM      7  C   UNL     1      44.732 131.967  22.095  1.00  0.00     0.421 C 
ATOM      8  O   UNL     1      43.906 132.080  23.041  1.00  0.00    -0.223 OA
BRANCH   7   9
ATOM      9  N   UNL     1      44.781 130.756  21.316  1.00  0.00    -0.213 N 
BRANCH   9  10
ATOM     10  C   UNL     1      44.851 130.831  19.879  1.00  0.00     0.163 A 
ATOM     11  C   UNL     1      45.863 130.303  19.088  1.00  0.00     0.140 A 
ATOM     12  N   UNL     1      43.926 131.464  19.113  1.00  0.00    -0.211 NA
ATOM     13  N   UNL     1      45.557 130.611  17.821  1.00  0.00    -0.305 N 
ATOM     14  C   UNL     1      44.404 131.299  17.863  1.00  0.00     0.139 A 
ATOM     15  C   UNL     1      46.223 130.331  16.671  1.00  0.00     0.093 A 
ATOM     16  C   UNL     1      43.813 131.775  16.695  1.00  0.00     0.048 A 
ATOM     17  C   UNL     1      45.674 130.785  15.463  1.00  0.00     0.018 A 
ATOM     18  C   UNL     1      44.465 131.508  15.480  1.00  0.00     0.005 A 
ENDBRANCH   9  10
BRANCH   9  19
ATOM     19  C   UNL     1      44.754 129.475  21.976  1.00  0.00     0.123 A 
ATOM     20  C   UNL     1      43.868 129.117  22.991  1.00  0.00     0.056 A 
ATOM     21  N   UNL     1      45.605 128.461  21.684  1.00  0.00    -0.338 N 
ATOM     22  C   UNL     1      44.212 127.824  23.315  1.00  0.00     0.005 A 
ATOM     23  C   UNL     1      45.261 127.459  22.508  1.00  0.00     0.083 A 
ATOM     24  C   UNL     1      43.672 126.952  24.259  1.00  0.00     0.010 A 
ATOM     25  C   UNL     1      45.839 126.192  22.591  1.00  0.00     0.147 A 
ATOM     26  C   UNL     1      44.237 125.668  24.366  1.00  0.00     0.004 A 
ATOM     27  C   UNL     1      45.315 125.289  23.536  1.00  0.00     0.041 A 
ATOM     28  H   UNL     1      46.355 128.450  20.958  1.00  0.00     0.168 HD
ATOM     29  F   UNL     1      46.874 125.839  21.791  1.00  0.00    -0.205 F 
ENDBRANCH   9  19
ENDBRANCH   7   9
ENDBRANCH   1   7
TORSDOF 6
ENDMDL
MODEL 6
REMARK VINA RESULT:      -3.7      2.648      6.739
REMARK SMILES CC(F)(F)COC(=O)N(c1cn2ccccc2n1)c1cc2cccc(F)c2[nH]1
REMARK SMILES IDX 6 1 5 2 2 3 1 4 3 5 4 6 7 7 8 8 9 9 10 10 11 11 18 12 12 13
REMARK SMILES IDX 17 14 13 15 16 16 14 17 15 18 19 19 20 20 28 21 21 22 27 23
REMARK SMILES IDX 22 24 25 25 23 26 24 27 26 29
REMARK H PARENT 28 28
ROOT
ATOM      1  O   UNL     1      44.742 132.671  21.626  1.00  0.00    -0.442 OA
ENDROOT
BRANCH   1   2
ATOM      2  C   UNL     1      43.452 132.108  21.849  1.00  0.00     0.311 C 
BRANCH   2   3
ATOM      3  C   UNL     1      42.547 132.374  20.643  1.00  0.00     0.278 C 
ATOM      4  C   UNL     1      41.286 133.139  21.046  1.00  0.00     0.091 C 
ATOM      5  F   UNL     1      43.244 133.110  19.699  1.00  0.00    -0.203 F 
ATOM      6  F   UNL     1      42.179 131.165  20.080  1.00  0.00    -0.203 F 
ENDBRANCH   2   3
ENDBRANCH   1   2
BRANCH   1   7
ATOM      7  C   UNL     1      45.821 131.928  21.136  1.00  0.00     0.421 C 
ATOM      8  O   UNL     1      46.999 132.354  21.288  1.00  0.00    -0.223 OA
BRANCH   7   9
ATOM      9  N   UNL     1      45.583 130.675  20.465  1.00  0.00    -0.213 N 
BRANCH   9  10
ATOM     10  C   UNL     1      45.522 130.634  19.026  1.00  0.00     0.163 A 
ATOM     11  C   UNL     1      44.705 131.423  18.228  1.00  0.00     0.140 A 
ATOM     12  N   UNL     1      46.254 129.781  18.266  1.00  0.00    -0.211 NA
ATOM     13  N   UNL     1      44.938 131.055  16.961  1.00  0.00    -0.305 N 
ATOM     14  C   UNL     1      45.861 130.080  17.011  1.00  0.00     0.139 A 
ATOM     15  C   UNL     1      44.394 131.514  15.805  1.00  0.00     0.093 A 
ATOM     16  C   UNL     1      46.322 129.471  15.846  1.00  0.00     0.048 A 
ATOM     17  C   UNL     1      44.820 130.939  14.600  1.00  0.00     0.018 A 
ATOM     18  C   UNL     1      45.788 129.915  14.625  1.00  0.00     0.005 A 
ENDBRANCH   9  10
BRANCH   9  19
ATOM     19  C   UNL     1      45.402 129.471  21.235  1.00  0.00     0.123 A 
ATOM     20  C   UNL     1      44.460 129.304  22.249  1.00  0.00     0.056 A 
ATOM     21  N   UNL     1      46.141 128.349  21.060  1.00  0.00    -0.338 N 
ATOM     22  C   UNL     1      44.652 128.016  22.697  1.00  0.00     0.005 A 
ATOM     23  C   UNL     1      45.672 127.468  21.959  1.00  0.00     0.083 A 
ATOM     24  C   UNL     1      44.000 127.298  23.697  1.00  0.00     0.010 A 
ATOM     25  C   UNL     1      46.105 126.160  22.172  1.00  0.00     0.147 A 
ATOM     26  C   UNL     1      44.417 125.975  23.935  1.00  0.00     0.004 A 
ATOM     27  C   UNL     1      45.465 125.408  23.176  1.00  0.00     0.041 A 
ATOM     28  H   UNL     1      46.902 128.191  20.362  1.00  0.00     0.168 HD
ATOM     29  F   UNL     1      47.112 125.625  21.438  1.00  0.00    -0.205 F 
ENDBRANCH   9  19
ENDBRANCH   7   9
ENDBRANCH   1   7
TORSDOF 6
ENDMDL
MODEL 7
REMARK VINA RESULT:      -3.7      2.403      3.243
REMARK SMILES CC(F)(F)COC(=O)N(c1cn2ccccc2n1)c1cc2cccc(F)c2[nH]1
REMARK SMILES IDX 6 1 5 2 2 3 1 4 3 5 4 6 7 7 8 8 9 9 10 10 11 11 18 12 12 13
REMARK SMILES IDX 17 14 13 15 16 16 14 17 15 18 19 19 20 20 28 21 21 22 27 23
REMARK SMILES IDX 22 24 25 25 23 26 24 27 26 29
REMARK H PARENT 28 28
ROOT
ATOM      1  O   UNL     1      44.756 133.058  20.898  1.00  0.00    -0.442 OA
ENDROOT
BRANCH   1   2
ATOM      2  C   UNL     1      43.623 133.005  20.035  1.00  0.00     0.311 C 
BRANCH   2   3
ATOM      3  C   UNL     1      42.441 132.357  20.758  1.00  0.00     0.278 C 
ATOM      4  C   UNL     1      41.160 133.172  20.582  1.00  0.00     0.091 C 
ATOM      5  F   UNL     1      42.241 131.080  20.261  1.00  0.00    -0.203 F 
ATOM      6  F   UNL     1      42.733 132.266  22.108  1.00  0.00    -0.203 F 
ENDBRANCH   2   3
ENDBRANCH   1   2
BRANCH   1   7
ATOM      7  C   UNL     1      45.790 132.118  20.855  1.00  0.00     0.421 C 
ATOM      8  O   UNL     1      46.917 132.398  21.348  1.00  0.00    -0.223 OA
BRANCH   7   9
ATOM      9  N   UNL     1      45.562 130.829  20.253  1.00  0.00    -0.213 N 
BRANCH   9  10
ATOM     10  C   UNL     1      45.344 129.676  21.090  1.00  0.00     0.163 A 
ATOM     11  C   UNL     1      44.523 129.632  22.209  1.00  0.00     0.140 A 
ATOM     12  N   UNL     1      45.951 128.478  20.893  1.00  0.00    -0.211 NA
ATOM     13  N   UNL     1      44.622 128.392  22.705  1.00  0.00    -0.305 N 
ATOM     14  C   UNL     1      45.474 127.728  21.906  1.00  0.00     0.139 A 
ATOM     15  C   UNL     1      44.025 127.837  23.791  1.00  0.00     0.093 A 
ATOM     16  C   UNL     1      45.800 126.396  22.158  1.00  0.00     0.048 A 
ATOM     17  C   UNL     1      44.314 126.499  24.093  1.00  0.00     0.018 A 
ATOM     18  C   UNL     1      45.205 125.779  23.271  1.00  0.00     0.005 A 
ENDBRANCH   9  10
BRANCH   9  19
ATOM     19  C   UNL     1      45.559 130.695  18.818  1.00  0.00     0.123 A 
ATOM     20  C   UNL     1      46.503 129.984  18.079  1.00  0.00     0.056 A 
ATOM     21  N   UNL     1      44.627 131.261  18.013  1.00  0.00    -0.338 N 
ATOM     22  C   UNL     1      46.107 130.136  16.768  1.00  0.00     0.005 A 
ATOM     23  C   UNL     1      44.974 130.910  16.764  1.00  0.00     0.083 A 
ATOM     24  C   UNL     1      46.668 129.645  15.590  1.00  0.00     0.010 A 
ATOM     25  C   UNL     1      44.322 131.243  15.577  1.00  0.00     0.147 A 
ATOM     26  C   UNL     1      46.032 129.967  14.377  1.00  0.00     0.004 A 
ATOM     27  C   UNL     1      44.865 130.762  14.369  1.00  0.00     0.041 A 
ATOM     28  H   UNL     1      43.801 131.833  18.300  1.00  0.00     0.168 HD
ATOM     29  F   UNL     1      43.203 132.008  15.580  1.00  0.00    -0.205 F 
ENDBRANCH   9  19
ENDBRANCH   7   9
ENDBRANCH   1   7
TORSDOF 6
ENDMDL
MODEL 8
REMARK VINA RESULT:      -3.6      1.325      2.090
REMARK SMILES CC(F)(F)COC(=O)N(c1cn2ccccc2n1)c1cc2cccc(F)c2[nH]1
REMARK SMILES IDX 6 1 5 2 2 3 1 4 3 5 4 6 7 7 8 8 9 9 10 10 11 11 18 12 12 13
REMARK SMILES IDX 17 14 13 15 16 16 14 17 15 18 19 19 20 20 28 21 21 22 27 23
REMARK SMILES IDX 22 24 25 25 23 26 24 27 26 29
REMARK H PARENT 28 28
ROOT
ATOM      1  O   UNL     1      45.914 133.327  21.608  1.00  0.00    -0.442 OA
ENDROOT
BRANCH   1   2
ATOM      2  C   UNL     1      47.328 133.294  21.781  1.00  0.00     0.311 C 
BRANCH   2   3
ATOM      3  C   UNL     1      47.771 134.436  22.699  1.00  0.00     0.278 C 
ATOM      4  C   UNL     1      48.298 133.911  24.034  1.00  0.00     0.091 C 
ATOM      5  F   UNL     1      48.765 135.170  22.073  1.00  0.00    -0.203 F 
ATOM      6  F   UNL     1      46.691 135.268  22.938  1.00  0.00    -0.203 F 
ENDBRANCH   2   3
ENDBRANCH   1   2
BRANCH   1   7
ATOM      7  C   UNL     1      45.048 132.436  22.249  1.00  0.00     0.421 C 
ATOM      8  O   UNL     1      44.678 132.661  23.435  1.00  0.00    -0.223 OA
BRANCH   7   9
ATOM      9  N   UNL     1      44.576 131.267  21.552  1.00  0.00    -0.213 N 
BRANCH   9  10
ATOM     10  C   UNL     1      44.073 130.142  22.298  1.00  0.00     0.163 A 
ATOM     11  C   UNL     1      44.764 128.964  22.551  1.00  0.00     0.140 A 
ATOM     12  N   UNL     1      42.826 130.089  22.832  1.00  0.00    -0.211 NA
ATOM     13  N   UNL     1      43.936 128.179  23.251  1.00  0.00    -0.305 N 
ATOM     14  C   UNL     1      42.794 128.870  23.405  1.00  0.00     0.139 A 
ATOM     15  C   UNL     1      44.127 126.926  23.739  1.00  0.00     0.093 A 
ATOM     16  C   UNL     1      41.714 128.321  24.094  1.00  0.00     0.048 A 
ATOM     17  C   UNL     1      43.074 126.323  24.442  1.00  0.00     0.018 A 
ATOM     18  C   UNL     1      41.865 127.027  24.618  1.00  0.00     0.005 A 
ENDBRANCH   9  10
BRANCH   9  19
ATOM     19  C   UNL     1      44.614 131.225  20.112  1.00  0.00     0.123 A 
ATOM     20  C   UNL     1      43.603 131.686  19.270  1.00  0.00     0.056 A 
ATOM     21  N   UNL     1      45.652 130.718  19.403  1.00  0.00    -0.338 N 
ATOM     22  C   UNL     1      44.068 131.440  17.998  1.00  0.00     0.005 A 
ATOM     23  C   UNL     1      45.305 130.857  18.113  1.00  0.00     0.083 A 
ATOM     24  C   UNL     1      43.486 131.692  16.757  1.00  0.00     0.010 A 
ATOM     25  C   UNL     1      46.045 130.489  16.990  1.00  0.00     0.147 A 
ATOM     26  C   UNL     1      44.210 131.329  15.606  1.00  0.00     0.004 A 
ATOM     27  C   UNL     1      45.484 130.730  15.721  1.00  0.00     0.041 A 
ATOM     28  H   UNL     1      46.543 130.321  19.775  1.00  0.00     0.168 HD
ATOM     29  F   UNL     1      47.267 129.914  17.112  1.00  0.00    -0.205 F 
ENDBRANCH   9  19
ENDBRANCH   7   9
ENDBRANCH   1   7
TORSDOF 6
ENDMDL
MODEL 9
REMARK VINA RESULT:      -3.5      6.632      8.902
REMARK SMILES CC(F)(F)COC(=O)N(c1cn2ccccc2n1)c1cc2cccc(F)c2[nH]1
REMARK SMILES IDX 6 1 5 2 2 3 1 4 3 5 4 6 7 7 8 8 9 9 10 10 11 11 18 12 12 13
REMARK SMILES IDX 17 14 13 15 16 16 14 17 15 18 19 19 20 20 28 21 21 22 27 23
REMARK SMILES IDX 22 24 25 25 23 26 24 27 26 29
REMARK H PARENT 28 28
ROOT
ATOM      1  O   UNL     1      44.240 123.527  22.187  1.00  0.00    -0.442 OA
ENDROOT
BRANCH   1   2
ATOM      2  C   UNL     1      43.263 122.707  22.824  1.00  0.00     0.311 C 
BRANCH   2   3
ATOM      3  C   UNL     1      41.860 123.112  22.367  1.00  0.00     0.278 C 
ATOM      4  C   UNL     1      40.820 122.863  23.460  1.00  0.00     0.091 C 
ATOM      5  F   UNL     1      41.855 124.456  22.031  1.00  0.00    -0.203 F 
ATOM      6  F   UNL     1      41.520 122.375  21.246  1.00  0.00    -0.203 F 
ENDBRANCH   2   3
ENDBRANCH   1   2
BRANCH   1   7
ATOM      7  C   UNL     1      45.564 123.613  22.627  1.00  0.00     0.421 C 
ATOM      8  O   UNL     1      46.265 122.568  22.723  1.00  0.00    -0.223 OA
BRANCH   7   9
ATOM      9  N   UNL     1      46.126 124.896  22.964  1.00  0.00    -0.213 N 
BRANCH   9  10
ATOM     10  C   UNL     1      45.255 125.990  23.313  1.00  0.00     0.163 A 
ATOM     11  C   UNL     1      45.662 127.227  23.796  1.00  0.00     0.140 A 
ATOM     12  N   UNL     1      43.902 125.929  23.234  1.00  0.00    -0.211 NA
ATOM     13  N   UNL     1      44.548 127.937  24.013  1.00  0.00    -0.305 N 
ATOM     14  C   UNL     1      43.518 127.145  23.671  1.00  0.00     0.139 A 
ATOM     15  C   UNL     1      44.398 129.201  24.485  1.00  0.00     0.093 A 
ATOM     16  C   UNL     1      42.203 127.592  23.787  1.00  0.00     0.048 A 
ATOM     17  C   UNL     1      43.097 129.705  24.623  1.00  0.00     0.018 A 
ATOM     18  C   UNL     1      41.999 128.895  24.270  1.00  0.00     0.005 A 
ENDBRANCH   9  10
BRANCH   9  19
ATOM     19  C   UNL     1      47.555 125.083  22.945  1.00  0.00     0.123 A 
ATOM     20  C   UNL     1      48.278 125.819  23.882  1.00  0.00     0.056 A 
ATOM     21  N   UNL     1      48.367 124.561  21.994  1.00  0.00    -0.338 N 
ATOM     22  C   UNL     1      49.587 125.726  23.464  1.00  0.00     0.005 A 
ATOM     23  C   UNL     1      49.606 124.961  22.325  1.00  0.00     0.083 A 
ATOM     24  C   UNL     1      50.752 126.261  24.010  1.00  0.00     0.010 A 
ATOM     25  C   UNL     1      50.797 124.677  21.656  1.00  0.00     0.147 A 
ATOM     26  C   UNL     1      51.969 125.992  23.356  1.00  0.00     0.004 A 
ATOM     27  C   UNL     1      51.991 125.203  22.184  1.00  0.00     0.041 A 
ATOM     28  H   UNL     1      48.095 123.958  21.186  1.00  0.00     0.168 HD
ATOM     29  F   UNL     1      50.807 123.919  20.532  1.00  0.00    -0.205 F 
ENDBRANCH   9  19
ENDBRANCH   7   9
ENDBRANCH   1   7
TORSDOF 6
ENDMDL


