MODEL 1
REMARK VINA RESULT:      -4.7      0.000      0.000
REMARK SMILES CC(F)(F)C[N-]C(=O)CCSc1ccc([C@H]2O[C@@H]2C(=O)c2ccc(F)cc2)cc1F
REMARK SMILES IDX 10 1 9 2 7 3 8 4 6 5 5 6 2 7 1 8 3 9 4 10 11 11 12 12 13 13
REMARK SMILES IDX 29 14 14 15 28 16 15 17 30 18 16 19 17 20 18 21 19 22 20 23
REMARK SMILES IDX 21 24 22 25 27 26 23 27 26 28 24 29 25 30
REMARK H PARENT
ROOT
ATOM      1  C   UNL     1      41.331 129.807  22.966  1.00  0.00     0.081 C 
ENDROOT
BRANCH   1   2
ATOM      2  C   UNL     1      42.440 128.762  23.096  1.00  0.00     0.066 C 
BRANCH   2   3
ATOM      3  C   UNL     1      42.030 127.677  24.052  1.00  0.00     0.052 C 
ATOM      4  O   UNL     1      40.894 127.737  24.591  1.00  0.00    -0.320 OA
BRANCH   3   5
ATOM      5  N   UNL     1      42.919 126.615  24.429  1.00  0.00    -0.649 NA
BRANCH   5   6
ATOM      6  C   UNL     1      43.734 125.813  23.520  1.00  0.00    -0.040 C 
BRANCH   6   7
ATOM      7  C   UNL     1      45.205 126.245  23.591  1.00  0.00     0.229 C 
ATOM      8  C   UNL     1      45.643 126.897  22.282  1.00  0.00     0.085 C 
ATOM      9  F   UNL     1      45.367 127.154  24.622  1.00  0.00    -0.209 F 
ATOM     10  F   UNL     1      46.014 125.148  23.836  1.00  0.00    -0.209 F 
ENDBRANCH   6   7
ENDBRANCH   5   6
ENDBRANCH   3   5
ENDBRANCH   2   3
ENDBRANCH   1   2
BRANCH   1  11
ATOM     11  S   UNL     1      41.982 131.481  23.304  1.00  0.00    -0.123 SA
BRANCH  11  12
ATOM     12  C   UNL     1      43.064 131.522  21.868  1.00  0.00     0.043 A 
ATOM     13  C   UNL     1      42.528 131.749  20.595  1.00  0.00     0.018 A 
ATOM     14  C   UNL     1      44.446 131.341  22.020  1.00  0.00     0.137 A 
ATOM     15  C   UNL     1      43.364 131.766  19.474  1.00  0.00     0.008 A 
ATOM     16  C   UNL     1      45.282 131.362  20.899  1.00  0.00     0.047 A 
ATOM     17  C   UNL     1      44.743 131.553  19.618  1.00  0.00    -0.013 A 
ATOM     18  F   UNL     1      44.981 131.140  23.250  1.00  0.00    -0.206 F 
BRANCH  17  19
ATOM     19  C   UNL     1      45.630 131.596  18.411  1.00  0.00     0.186 C 
ATOM     20  O   UNL     1      45.545 130.412  17.649  1.00  0.00    -0.356 OA
ATOM     21  C   UNL     1      44.922 131.555  17.106  1.00  0.00     0.224 C 
BRANCH  21  22
ATOM     22  C   UNL     1      45.686 132.084  15.929  1.00  0.00     0.194 C 
ATOM     23  O   UNL     1      45.581 133.307  15.647  1.00  0.00    -0.291 OA
BRANCH  22  24
ATOM     24  C   UNL     1      46.523 131.198  15.079  1.00  0.00     0.021 A 
ATOM     25  C   UNL     1      46.876 129.911  15.532  1.00  0.00     0.015 A 
ATOM     26  C   UNL     1      46.985 131.621  13.816  1.00  0.00     0.015 A 
ATOM     27  C   UNL     1      47.664 129.070  14.741  1.00  0.00     0.040 A 
ATOM     28  C   UNL     1      47.771 130.774  13.028  1.00  0.00     0.040 A 
ATOM     29  C   UNL     1      48.111 129.501  13.490  1.00  0.00     0.123 A 
ATOM     30  F   UNL     1      48.877 128.684  12.726  1.00  0.00    -0.207 F 
ENDBRANCH  22  24
ENDBRANCH  21  22
ENDBRANCH  17  19
ENDBRANCH  11  12
ENDBRANCH   1  11
TORSDOF 10
ENDMDL
MODEL 2
REMARK VINA RESULT:      -4.7      1.509      2.011
REMARK SMILES CC(F)(F)C[N-]C(=O)CCSc1ccc([C@H]2O[C@@H]2C(=O)c2ccc(F)cc2)cc1F
REMARK SMILES IDX 10 1 9 2 7 3 8 4 6 5 5 6 2 7 1 8 3 9 4 10 11 11 12 12 13 13
REMARK SMILES IDX 29 14 14 15 28 16 15 17 30 18 16 19 17 20 18 21 19 22 20 23
REMARK SMILES IDX 21 24 22 25 27 26 23 27 26 28 24 29 25 30
REMARK H PARENT
ROOT
ATOM      1  C   UNL     1      41.595 130.800  23.038  1.00  0.00     0.081 C 
ENDROOT
BRANCH   1   2
ATOM      2  C   UNL     1      42.207 129.546  22.412  1.00  0.00     0.066 C 
BRANCH   2   3
ATOM      3  C   UNL     1      42.506 128.522  23.471  1.00  0.00     0.052 C 
ATOM      4  O   UNL     1      42.831 128.914  24.623  1.00  0.00    -0.320 OA
BRANCH   3   5
ATOM      5  N   UNL     1      42.508 127.114  23.194  1.00  0.00    -0.649 NA
BRANCH   5   6
ATOM      6  C   UNL     1      43.595 126.362  22.571  1.00  0.00    -0.040 C 
BRANCH   6   7
ATOM      7  C   UNL     1      44.890 127.184  22.574  1.00  0.00     0.229 C 
ATOM      8  C   UNL     1      46.110 126.275  22.449  1.00  0.00     0.085 C 
ATOM      9  F   UNL     1      44.876 128.066  21.507  1.00  0.00    -0.209 F 
ATOM     10  F   UNL     1      44.994 127.910  23.749  1.00  0.00    -0.209 F 
ENDBRANCH   6   7
ENDBRANCH   5   6
ENDBRANCH   3   5
ENDBRANCH   2   3
ENDBRANCH   1   2
BRANCH   1  11
ATOM     11  S   UNL     1      42.871 132.086  23.279  1.00  0.00    -0.123 SA
BRANCH  11  12
ATOM     12  C   UNL     1      43.549 131.948  21.619  1.00  0.00     0.043 A 
ATOM     13  C   UNL     1      44.835 131.429  21.430  1.00  0.00     0.018 A 
ATOM     14  C   UNL     1      42.788 132.344  20.511  1.00  0.00     0.137 A 
ATOM     15  C   UNL     1      45.372 131.334  20.142  1.00  0.00     0.008 A 
ATOM     16  C   UNL     1      43.323 132.246  19.222  1.00  0.00     0.047 A 
ATOM     17  C   UNL     1      44.626 131.760  19.034  1.00  0.00    -0.013 A 
ATOM     18  F   UNL     1      41.532 132.830  20.679  1.00  0.00    -0.206 F 
BRANCH  17  19
ATOM     19  C   UNL     1      45.205 131.632  17.657  1.00  0.00     0.186 C 
ATOM     20  O   UNL     1      45.828 130.382  17.458  1.00  0.00    -0.356 OA
ATOM     21  C   UNL     1      44.591 130.578  16.810  1.00  0.00     0.224 C 
BRANCH  21  22
ATOM     22  C   UNL     1      44.771 130.739  15.330  1.00  0.00     0.194 C 
ATOM     23  O   UNL     1      43.783 131.109  14.642  1.00  0.00    -0.291 OA
BRANCH  22  24
ATOM     24  C   UNL     1      46.065 130.438  14.664  1.00  0.00     0.021 A 
ATOM     25  C   UNL     1      46.783 131.463  14.019  1.00  0.00     0.015 A 
ATOM     26  C   UNL     1      46.596 129.131  14.657  1.00  0.00     0.015 A 
ATOM     27  C   UNL     1      48.001 131.190  13.388  1.00  0.00     0.040 A 
ATOM     28  C   UNL     1      47.815 128.865  14.026  1.00  0.00     0.040 A 
ATOM     29  C   UNL     1      48.516 129.893  13.391  1.00  0.00     0.123 A 
ATOM     30  F   UNL     1      49.696 129.631  12.777  1.00  0.00    -0.207 F 
ENDBRANCH  22  24
ENDBRANCH  21  22
ENDBRANCH  17  19
ENDBRANCH  11  12
ENDBRANCH   1  11
TORSDOF 10
ENDMDL
MODEL 3
REMARK VINA RESULT:      -3.8      3.059      8.223
REMARK SMILES CC(F)(F)C[N-]C(=O)CCSc1ccc([C@H]2O[C@@H]2C(=O)c2ccc(F)cc2)cc1F
REMARK SMILES IDX 10 1 9 2 7 3 8 4 6 5 5 6 2 7 1 8 3 9 4 10 11 11 12 12 13 13
REMARK SMILES IDX 29 14 14 15 28 16 15 17 30 18 16 19 17 20 18 21 19 22 20 23
REMARK SMILES IDX 21 24 22 25 27 26 23 27 26 28 24 29 25 30
REMARK H PARENT
ROOT
ATOM      1  C   UNL     1      42.811 132.266  18.763  1.00  0.00     0.081 C 
ENDROOT
BRANCH   1   2
ATOM      2  C   UNL     1      43.736 131.257  18.083  1.00  0.00     0.066 C 
BRANCH   2   3
ATOM      3  C   UNL     1      43.770 131.492  16.598  1.00  0.00     0.052 C 
ATOM      4  O   UNL     1      42.988 132.343  16.099  1.00  0.00    -0.320 OA
BRANCH   3   5
ATOM      5  N   UNL     1      44.609 130.726  15.722  1.00  0.00    -0.649 NA
BRANCH   5   6
ATOM      6  C   UNL     1      46.017 130.406  15.944  1.00  0.00    -0.040 C 
BRANCH   6   7
ATOM      7  C   UNL     1      46.851 130.747  14.702  1.00  0.00     0.229 C 
ATOM      8  C   UNL     1      46.080 130.419  13.425  1.00  0.00     0.085 C 
ATOM      9  F   UNL     1      47.154 132.097  14.709  1.00  0.00    -0.209 F 
ATOM     10  F   UNL     1      48.033 130.026  14.706  1.00  0.00    -0.209 F 
ENDBRANCH   6   7
ENDBRANCH   5   6
ENDBRANCH   3   5
ENDBRANCH   2   3
ENDBRANCH   1   2
BRANCH   1  11
ATOM     11  S   UNL     1      43.660 133.075  20.166  1.00  0.00    -0.123 SA
BRANCH  11  12
ATOM     12  C   UNL     1      44.108 131.538  20.985  1.00  0.00     0.043 A 
ATOM     13  C   UNL     1      45.191 130.785  20.515  1.00  0.00     0.018 A 
ATOM     14  C   UNL     1      43.386 131.097  22.103  1.00  0.00     0.137 A 
ATOM     15  C   UNL     1      45.533 129.582  21.140  1.00  0.00     0.008 A 
ATOM     16  C   UNL     1      43.731 129.896  22.730  1.00  0.00     0.047 A 
ATOM     17  C   UNL     1      44.792 129.121  22.238  1.00  0.00    -0.013 A 
ATOM     18  F   UNL     1      42.347 131.828  22.581  1.00  0.00    -0.206 F 
BRANCH  17  19
ATOM     19  C   UNL     1      45.184 127.841  22.912  1.00  0.00     0.186 C 
ATOM     20  O   UNL     1      44.904 127.863  24.295  1.00  0.00    -0.356 OA
ATOM     21  C   UNL     1      44.060 127.065  23.495  1.00  0.00     0.224 C 
BRANCH  21  22
ATOM     22  C   UNL     1      44.318 125.605  23.719  1.00  0.00     0.194 C 
ATOM     23  O   UNL     1      43.658 125.009  24.612  1.00  0.00    -0.291 OA
BRANCH  22  24
ATOM     24  C   UNL     1      45.349 124.866  22.944  1.00  0.00     0.021 A 
ATOM     25  C   UNL     1      45.210 123.482  22.724  1.00  0.00     0.015 A 
ATOM     26  C   UNL     1      46.481 125.524  22.421  1.00  0.00     0.015 A 
ATOM     27  C   UNL     1      46.174 122.777  21.998  1.00  0.00     0.040 A 
ATOM     28  C   UNL     1      47.440 124.814  21.693  1.00  0.00     0.040 A 
ATOM     29  C   UNL     1      47.288 123.442  21.483  1.00  0.00     0.123 A 
ATOM     30  F   UNL     1      48.223 122.756  20.780  1.00  0.00    -0.207 F 
ENDBRANCH  22  24
ENDBRANCH  21  22
ENDBRANCH  17  19
ENDBRANCH  11  12
ENDBRANCH   1  11
TORSDOF 10
ENDMDL
MODEL 4
REMARK VINA RESULT:      -3.2      1.595      2.064
REMARK SMILES CC(F)(F)C[N-]C(=O)CCSc1ccc([C@H]2O[C@@H]2C(=O)c2ccc(F)cc2)cc1F
REMARK SMILES IDX 10 1 9 2 7 3 8 4 6 5 5 6 2 7 1 8 3 9 4 10 11 11 12 12 13 13
REMARK SMILES IDX 29 14 14 15 28 16 15 17 30 18 16 19 17 20 18 21 19 22 20 23
REMARK SMILES IDX 21 24 22 25 27 26 23 27 26 28 24 29 25 30
REMARK H PARENT
ROOT
ATOM      1  C   UNL     1      42.865 131.280  23.284  1.00  0.00     0.081 C 
ENDROOT
BRANCH   1   2
ATOM      2  C   UNL     1      42.105 130.003  22.926  1.00  0.00     0.066 C 
BRANCH   2   3
ATOM      3  C   UNL     1      42.355 128.936  23.955  1.00  0.00     0.052 C 
ATOM      4  O   UNL     1      41.406 128.179  24.290  1.00  0.00    -0.320 OA
BRANCH   3   5
ATOM      5  N   UNL     1      43.617 128.798  24.623  1.00  0.00    -0.649 NA
BRANCH   5   6
ATOM      6  C   UNL     1      44.482 127.621  24.591  1.00  0.00    -0.040 C 
BRANCH   6   7
ATOM      7  C   UNL     1      44.214 126.788  23.330  1.00  0.00     0.229 C 
ATOM      8  C   UNL     1      45.214 127.132  22.229  1.00  0.00     0.085 C 
ATOM      9  F   UNL     1      44.327 125.443  23.636  1.00  0.00    -0.209 F 
ATOM     10  F   UNL     1      42.933 127.031  22.861  1.00  0.00    -0.209 F 
ENDBRANCH   6   7
ENDBRANCH   5   6
ENDBRANCH   3   5
ENDBRANCH   2   3
ENDBRANCH   1   2
BRANCH   1  11
ATOM     11  S   UNL     1      42.277 132.684  22.272  1.00  0.00    -0.123 SA
BRANCH  11  12
ATOM     12  C   UNL     1      43.113 132.156  20.771  1.00  0.00     0.043 A 
ATOM     13  C   UNL     1      42.364 131.799  19.642  1.00  0.00     0.018 A 
ATOM     14  C   UNL     1      44.512 132.114  20.719  1.00  0.00     0.137 A 
ATOM     15  C   UNL     1      43.010 131.372  18.478  1.00  0.00     0.008 A 
ATOM     16  C   UNL     1      45.158 131.690  19.553  1.00  0.00     0.047 A 
ATOM     17  C   UNL     1      44.410 131.297  18.433  1.00  0.00    -0.013 A 
ATOM     18  F   UNL     1      45.250 132.476  21.799  1.00  0.00    -0.206 F 
BRANCH  17  19
ATOM     19  C   UNL     1      45.089 130.860  17.171  1.00  0.00     0.186 C 
ATOM     20  O   UNL     1      46.189 130.014  17.427  1.00  0.00    -0.356 OA
ATOM     21  C   UNL     1      45.034 129.401  16.898  1.00  0.00     0.224 C 
BRANCH  21  22
ATOM     22  C   UNL     1      45.240 128.994  15.470  1.00  0.00     0.194 C 
ATOM     23  O   UNL     1      44.639 127.972  15.044  1.00  0.00    -0.291 OA
BRANCH  22  24
ATOM     24  C   UNL     1      46.157 129.741  14.569  1.00  0.00     0.021 A 
ATOM     25  C   UNL     1      47.452 129.249  14.314  1.00  0.00     0.015 A 
ATOM     26  C   UNL     1      45.760 130.949  13.960  1.00  0.00     0.015 A 
ATOM     27  C   UNL     1      48.323 129.944  13.469  1.00  0.00     0.040 A 
ATOM     28  C   UNL     1      46.634 131.638  13.114  1.00  0.00     0.040 A 
ATOM     29  C   UNL     1      47.915 131.137  12.870  1.00  0.00     0.123 A 
ATOM     30  F   UNL     1      48.762 131.810  12.053  1.00  0.00    -0.207 F 
ENDBRANCH  22  24
ENDBRANCH  21  22
ENDBRANCH  17  19
ENDBRANCH  11  12
ENDBRANCH   1  11
TORSDOF 10
ENDMDL
MODEL 5
REMARK VINA RESULT:      -2.8      4.634      6.574
REMARK SMILES CC(F)(F)C[N-]C(=O)CCSc1ccc([C@H]2O[C@@H]2C(=O)c2ccc(F)cc2)cc1F
REMARK SMILES IDX 10 1 9 2 7 3 8 4 6 5 5 6 2 7 1 8 3 9 4 10 11 11 12 12 13 13
REMARK SMILES IDX 29 14 14 15 28 16 15 17 30 18 16 19 17 20 18 21 19 22 20 23
REMARK SMILES IDX 21 24 22 25 27 26 23 27 26 28 24 29 25 30
REMARK H PARENT
ROOT
ATOM      1  C   UNL     1      46.627 134.299  22.115  1.00  0.00     0.081 C 
ENDROOT
BRANCH   1   2
ATOM      2  C   UNL     1      48.129 134.302  22.399  1.00  0.00     0.066 C 
BRANCH   2   3
ATOM      3  C   UNL     1      48.806 135.408  21.639  1.00  0.00     0.052 C 
ATOM      4  O   UNL     1      48.108 136.358  21.196  1.00  0.00    -0.320 OA
BRANCH   3   5
ATOM      5  N   UNL     1      50.208 135.382  21.337  1.00  0.00    -0.649 NA
BRANCH   5   6
ATOM      6  C   UNL     1      51.199 136.364  21.772  1.00  0.00    -0.040 C 
BRANCH   6   7
ATOM      7  C   UNL     1      51.347 136.341  23.299  1.00  0.00     0.229 C 
ATOM      8  C   UNL     1      51.688 134.937  23.791  1.00  0.00     0.085 C 
ATOM      9  F   UNL     1      52.358 137.208  23.676  1.00  0.00    -0.209 F 
ATOM     10  F   UNL     1      50.167 136.749  23.899  1.00  0.00    -0.209 F 
ENDBRANCH   6   7
ENDBRANCH   5   6
ENDBRANCH   3   5
ENDBRANCH   2   3
ENDBRANCH   1   2
BRANCH   1  11
ATOM     11  S   UNL     1      45.871 132.729  22.667  1.00  0.00    -0.123 SA
BRANCH  11  12
ATOM     12  C   UNL     1      45.481 132.151  21.010  1.00  0.00     0.043 A 
ATOM     13  C   UNL     1      44.986 133.048  20.055  1.00  0.00     0.018 A 
ATOM     14  C   UNL     1      45.686 130.809  20.663  1.00  0.00     0.137 A 
ATOM     15  C   UNL     1      44.668 132.600  18.769  1.00  0.00     0.008 A 
ATOM     16  C   UNL     1      45.370 130.361  19.376  1.00  0.00     0.047 A 
ATOM     17  C   UNL     1      44.840 131.250  18.429  1.00  0.00    -0.013 A 
ATOM     18  F   UNL     1      46.184 129.933  21.573  1.00  0.00    -0.206 F 
BRANCH  17  19
ATOM     19  C   UNL     1      44.516 130.788  17.041  1.00  0.00     0.186 C 
ATOM     20  O   UNL     1      43.393 131.457  16.509  1.00  0.00    -0.356 OA
ATOM     21  C   UNL     1      44.651 131.822  15.984  1.00  0.00     0.224 C 
BRANCH  21  22
ATOM     22  C   UNL     1      44.826 131.311  14.586  1.00  0.00     0.194 C 
ATOM     23  O   UNL     1      43.846 131.373  13.796  1.00  0.00    -0.291 OA
BRANCH  22  24
ATOM     24  C   UNL     1      46.105 130.707  14.130  1.00  0.00     0.021 A 
ATOM     25  C   UNL     1      46.620 129.568  14.780  1.00  0.00     0.015 A 
ATOM     26  C   UNL     1      46.829 131.256  13.052  1.00  0.00     0.015 A 
ATOM     27  C   UNL     1      47.823 128.992  14.360  1.00  0.00     0.040 A 
ATOM     28  C   UNL     1      48.030 130.674  12.635  1.00  0.00     0.040 A 
ATOM     29  C   UNL     1      48.527 129.544  13.288  1.00  0.00     0.123 A 
ATOM     30  F   UNL     1      49.694 128.985  12.884  1.00  0.00    -0.207 F 
ENDBRANCH  22  24
ENDBRANCH  21  22
ENDBRANCH  17  19
ENDBRANCH  11  12
ENDBRANCH   1  11
TORSDOF 10
ENDMDL


