MODEL 1
REMARK VINA RESULT:      -8.9      0.000      0.000
REMARK SMILES C=Cc1cc([S-])cc(-c2ccc3c(c2)CC3)c1
REMARK SMILES IDX 3 1 4 2 5 3 6 4 7 5 8 6 17 7 2 8 1 9 9 10 10 11 14 12 11 13
REMARK SMILES IDX 13 14 12 15 15 16 16 17
REMARK H PARENT
ROOT
ATOM      1  C   UNL     1      44.947 130.395  20.575  1.00  0.00    -0.027 A 
ATOM      2  C   UNL     1      43.813 131.197  20.768  1.00  0.00    -0.013 A 
ATOM      3  C   UNL     1      43.301 131.970  19.721  1.00  0.00    -0.174 A 
ATOM      4  S   UNL     1      41.854 133.010  19.995  1.00  0.00    -0.780 S 
ATOM      5  C   UNL     1      43.914 131.942  18.466  1.00  0.00    -0.012 A 
ATOM      6  C   UNL     1      45.040 131.135  18.241  1.00  0.00    -0.019 A 
ATOM      7  C   UNL     1      45.549 130.360  19.300  1.00  0.00     0.016 A 
ENDROOT
BRANCH   1   8
ATOM      8  C   UNL     1      45.445 129.587  21.714  1.00  0.00     0.000 C 
ATOM      9  C   UNL     1      44.659 128.934  22.570  1.00  0.00     0.009 C 
ENDBRANCH   1   8
BRANCH   6  10
ATOM     10  C   UNL     1      45.683 131.096  16.903  1.00  0.00    -0.018 A 
ATOM     11  C   UNL     1      45.602 132.242  16.035  1.00  0.00     0.009 A 
ATOM     12  C   UNL     1      46.376 129.921  16.489  1.00  0.00     0.012 A 
ATOM     13  C   UNL     1      46.200 132.258  14.751  1.00  0.00     0.004 A 
ATOM     14  C   UNL     1      46.946 129.970  15.234  1.00  0.00    -0.044 A 
ATOM     15  C   UNL     1      46.862 131.103  14.391  1.00  0.00    -0.044 A 
ATOM     16  C   UNL     1      47.744 129.243  14.207  1.00  0.00     0.040 C 
ATOM     17  C   UNL     1      47.655 130.404  13.341  1.00  0.00     0.040 C 
ENDBRANCH   6  10
TORSDOF 2
ENDMDL
MODEL 2
REMARK VINA RESULT:      -8.7      1.929      6.285
REMARK SMILES C=Cc1cc([S-])cc(-c2ccc3c(c2)CC3)c1
REMARK SMILES IDX 3 1 4 2 5 3 6 4 7 5 8 6 17 7 2 8 1 9 9 10 10 11 14 12 11 13
REMARK SMILES IDX 13 14 12 15 15 16 16 17
REMARK H PARENT
ROOT
ATOM      1  C   UNL     1      46.464 130.311  15.211  1.00  0.00    -0.027 A 
ATOM      2  C   UNL     1      45.477 130.779  14.332  1.00  0.00    -0.013 A 
ATOM      3  C   UNL     1      44.285 131.319  14.822  1.00  0.00    -0.174 A 
ATOM      4  S   UNL     1      43.020 131.898  13.675  1.00  0.00    -0.780 S 
ATOM      5  C   UNL     1      44.070 131.406  16.200  1.00  0.00    -0.012 A 
ATOM      6  C   UNL     1      45.049 130.960  17.102  1.00  0.00    -0.019 A 
ATOM      7  C   UNL     1      46.246 130.417  16.600  1.00  0.00     0.016 A 
ENDROOT
BRANCH   1   8
ATOM      8  C   UNL     1      47.715 129.755  14.641  1.00  0.00     0.000 C 
ATOM      9  C   UNL     1      48.096 129.915  13.373  1.00  0.00     0.009 C 
ENDBRANCH   1   8
BRANCH   6  10
ATOM     10  C   UNL     1      44.825 131.064  18.567  1.00  0.00    -0.018 A 
ATOM     11  C   UNL     1      45.829 130.584  19.481  1.00  0.00     0.009 A 
ATOM     12  C   UNL     1      43.615 131.639  19.055  1.00  0.00     0.012 A 
ATOM     13  C   UNL     1      45.666 130.662  20.886  1.00  0.00     0.004 A 
ATOM     14  C   UNL     1      43.489 131.700  20.427  1.00  0.00    -0.044 A 
ATOM     15  C   UNL     1      44.484 131.227  21.316  1.00  0.00    -0.044 A 
ATOM     16  C   UNL     1      42.634 132.112  21.575  1.00  0.00     0.040 C 
ATOM     17  C   UNL     1      43.653 131.625  22.487  1.00  0.00     0.040 C 
ENDBRANCH   6  10
TORSDOF 2
ENDMDL
MODEL 3
REMARK VINA RESULT:      -8.2      1.525      2.580
REMARK SMILES C=Cc1cc([S-])cc(-c2ccc3c(c2)CC3)c1
REMARK SMILES IDX 3 1 4 2 5 3 6 4 7 5 8 6 17 7 2 8 1 9 9 10 10 11 14 12 11 13
REMARK SMILES IDX 13 14 12 15 15 16 16 17
REMARK H PARENT
ROOT
ATOM      1  C   UNL     1      43.095 131.908  19.273  1.00  0.00    -0.027 A 
ATOM      2  C   UNL     1      43.611 131.249  20.399  1.00  0.00    -0.013 A 
ATOM      3  C   UNL     1      44.795 130.512  20.311  1.00  0.00    -0.174 A 
ATOM      4  S   UNL     1      45.432 129.656  21.764  1.00  0.00    -0.780 S 
ATOM      5  C   UNL     1      45.483 130.434  19.098  1.00  0.00    -0.012 A 
ATOM      6  C   UNL     1      44.997 131.099  17.960  1.00  0.00    -0.019 A 
ATOM      7  C   UNL     1      43.804 131.838  18.057  1.00  0.00     0.016 A 
ENDROOT
BRANCH   1   8
ATOM      8  C   UNL     1      41.839 132.684  19.421  1.00  0.00     0.000 C 
ATOM      9  C   UNL     1      41.448 133.268  20.553  1.00  0.00     0.009 C 
ENDBRANCH   1   8
BRANCH   6  10
ATOM     10  C   UNL     1      45.736 131.025  16.674  1.00  0.00    -0.018 A 
ATOM     11  C   UNL     1      45.823 132.189  15.830  1.00  0.00     0.009 A 
ATOM     12  C   UNL     1      46.354 129.801  16.285  1.00  0.00     0.012 A 
ATOM     13  C   UNL     1      46.517 132.173  14.595  1.00  0.00     0.004 A 
ATOM     14  C   UNL     1      47.021 129.820  15.079  1.00  0.00    -0.044 A 
ATOM     15  C   UNL     1      47.101 130.971  14.258  1.00  0.00    -0.044 A 
ATOM     16  C   UNL     1      47.828 129.043  14.097  1.00  0.00     0.040 C 
ATOM     17  C   UNL     1      47.908 130.221  13.255  1.00  0.00     0.040 C 
ENDBRANCH   6  10
TORSDOF 2
ENDMDL
MODEL 4
REMARK VINA RESULT:      -7.7      0.887      1.581
REMARK SMILES C=Cc1cc([S-])cc(-c2ccc3c(c2)CC3)c1
REMARK SMILES IDX 3 1 4 2 5 3 6 4 7 5 8 6 17 7 2 8 1 9 9 10 10 11 14 12 11 13
REMARK SMILES IDX 13 14 12 15 15 16 16 17
REMARK H PARENT
ROOT
ATOM      1  C   UNL     1      44.823 130.977  20.160  1.00  0.00    -0.027 A 
ATOM      2  C   UNL     1      43.580 131.621  20.079  1.00  0.00    -0.013 A 
ATOM      3  C   UNL     1      43.031 131.956  18.838  1.00  0.00    -0.174 A 
ATOM      4  S   UNL     1      41.441 132.801  18.754  1.00  0.00    -0.780 S 
ATOM      5  C   UNL     1      43.717 131.641  17.662  1.00  0.00    -0.012 A 
ATOM      6  C   UNL     1      44.955 130.981  17.715  1.00  0.00    -0.019 A 
ATOM      7  C   UNL     1      45.500 130.648  18.969  1.00  0.00     0.016 A 
ENDROOT
BRANCH   1   8
ATOM      8  C   UNL     1      45.357 130.635  21.501  1.00  0.00     0.000 C 
ATOM      9  C   UNL     1      44.731 129.853  22.380  1.00  0.00     0.009 C 
ENDBRANCH   1   8
BRANCH   6  10
ATOM     10  C   UNL     1      45.677 130.636  16.464  1.00  0.00    -0.018 A 
ATOM     11  C   UNL     1      45.799 129.258  16.062  1.00  0.00     0.009 A 
ATOM     12  C   UNL     1      46.246 131.675  15.669  1.00  0.00     0.012 A 
ATOM     13  C   UNL     1      46.475 128.876  14.878  1.00  0.00     0.004 A 
ATOM     14  C   UNL     1      46.896 131.268  14.523  1.00  0.00    -0.044 A 
ATOM     15  C   UNL     1      47.007 129.910  14.138  1.00  0.00    -0.044 A 
ATOM     16  C   UNL     1      47.654 131.691  13.313  1.00  0.00     0.040 C 
ATOM     17  C   UNL     1      47.770 130.299  12.920  1.00  0.00     0.040 C 
ENDBRANCH   6  10
TORSDOF 2
ENDMDL
MODEL 5
REMARK VINA RESULT:      -7.4      2.025      6.155
REMARK SMILES C=Cc1cc([S-])cc(-c2ccc3c(c2)CC3)c1
REMARK SMILES IDX 3 1 4 2 5 3 6 4 7 5 8 6 17 7 2 8 1 9 9 10 10 11 14 12 11 13
REMARK SMILES IDX 13 14 12 15 15 16 16 17
REMARK H PARENT
ROOT
ATOM      1  C   UNL     1      46.210 130.377  15.514  1.00  0.00    -0.027 A 
ATOM      2  C   UNL     1      45.341 130.797  14.496  1.00  0.00    -0.013 A 
ATOM      3  C   UNL     1      44.109 131.380  14.807  1.00  0.00    -0.174 A 
ATOM      4  S   UNL     1      42.997 131.895  13.485  1.00  0.00    -0.780 S 
ATOM      5  C   UNL     1      43.736 131.559  16.142  1.00  0.00    -0.012 A 
ATOM      6  C   UNL     1      44.595 131.164  17.180  1.00  0.00    -0.019 A 
ATOM      7  C   UNL     1      45.834 130.577  16.858  1.00  0.00     0.016 A 
ENDROOT
BRANCH   1   8
ATOM      8  C   UNL     1      47.509 129.772  15.131  1.00  0.00     0.000 C 
ATOM      9  C   UNL     1      47.900 129.572  13.873  1.00  0.00     0.009 C 
ENDBRANCH   1   8
BRANCH   6  10
ATOM     10  C   UNL     1      44.204 131.366  18.598  1.00  0.00    -0.018 A 
ATOM     11  C   UNL     1      42.936 131.971  18.913  1.00  0.00     0.009 A 
ATOM     12  C   UNL     1      45.090 130.958  19.638  1.00  0.00     0.012 A 
ATOM     13  C   UNL     1      42.514 132.184  20.248  1.00  0.00     0.004 A 
ATOM     14  C   UNL     1      44.649 131.179  20.925  1.00  0.00    -0.044 A 
ATOM     15  C   UNL     1      43.399 131.773  21.223  1.00  0.00    -0.044 A 
ATOM     16  C   UNL     1      44.951 131.046  22.378  1.00  0.00     0.040 C 
ATOM     17  C   UNL     1      43.671 131.658  22.683  1.00  0.00     0.040 C 
ENDBRANCH   6  10
TORSDOF 2
ENDMDL
MODEL 6
REMARK VINA RESULT:      -7.0      1.828      2.985
REMARK SMILES C=Cc1cc([S-])cc(-c2ccc3c(c2)CC3)c1
REMARK SMILES IDX 3 1 4 2 5 3 6 4 7 5 8 6 17 7 2 8 1 9 9 10 10 11 14 12 11 13
REMARK SMILES IDX 13 14 12 15 15 16 16 17
REMARK H PARENT
ROOT
ATOM      1  C   UNL     1      43.139 132.023  18.774  1.00  0.00    -0.027 A 
ATOM      2  C   UNL     1      43.875 132.108  19.965  1.00  0.00    -0.013 A 
ATOM      3  C   UNL     1      45.224 131.743  19.996  1.00  0.00    -0.174 A 
ATOM      4  S   UNL     1      46.148 131.841  21.541  1.00  0.00    -0.780 S 
ATOM      5  C   UNL     1      45.856 131.296  18.833  1.00  0.00    -0.012 A 
ATOM      6  C   UNL     1      45.146 131.218  17.623  1.00  0.00    -0.019 A 
ATOM      7  C   UNL     1      43.788 131.587  17.601  1.00  0.00     0.016 A 
ENDROOT
BRANCH   1   8
ATOM      8  C   UNL     1      41.713 132.431  18.792  1.00  0.00     0.000 C 
ATOM      9  C   UNL     1      41.099 132.959  19.850  1.00  0.00     0.009 C 
ENDBRANCH   1   8
BRANCH   6  10
ATOM     10  C   UNL     1      45.821 130.755  16.384  1.00  0.00    -0.018 A 
ATOM     11  C   UNL     1      45.917 129.346  16.103  1.00  0.00     0.009 A 
ATOM     12  C   UNL     1      46.370 131.713  15.481  1.00  0.00     0.012 A 
ATOM     13  C   UNL     1      46.547 128.852  14.935  1.00  0.00     0.004 A 
ATOM     14  C   UNL     1      46.976 131.199  14.355  1.00  0.00    -0.044 A 
ATOM     15  C   UNL     1      47.062 129.811  14.088  1.00  0.00    -0.044 A 
ATOM     16  C   UNL     1      47.694 131.504  13.086  1.00  0.00     0.040 C 
ATOM     17  C   UNL     1      47.785 130.082  12.814  1.00  0.00     0.040 C 
ENDBRANCH   6  10
TORSDOF 2
ENDMDL
MODEL 7
REMARK VINA RESULT:      -6.8      1.358      1.560
REMARK SMILES C=Cc1cc([S-])cc(-c2ccc3c(c2)CC3)c1
REMARK SMILES IDX 3 1 4 2 5 3 6 4 7 5 8 6 17 7 2 8 1 9 9 10 10 11 14 12 11 13
REMARK SMILES IDX 13 14 12 15 15 16 16 17
REMARK H PARENT
ROOT
ATOM      1  C   UNL     1      45.207 131.666  19.903  1.00  0.00    -0.027 A 
ATOM      2  C   UNL     1      43.825 131.894  19.974  1.00  0.00    -0.013 A 
ATOM      3  C   UNL     1      43.038 131.866  18.818  1.00  0.00    -0.174 A 
ATOM      4  S   UNL     1      41.267 132.180  18.928  1.00  0.00    -0.780 S 
ATOM      5  C   UNL     1      43.625 131.599  17.579  1.00  0.00    -0.012 A 
ATOM      6  C   UNL     1      45.003 131.351  17.482  1.00  0.00    -0.019 A 
ATOM      7  C   UNL     1      45.788 131.381  18.650  1.00  0.00     0.016 A 
ENDROOT
BRANCH   1   8
ATOM      8  C   UNL     1      45.996 131.698  21.158  1.00  0.00     0.000 C 
ATOM      9  C   UNL     1      46.843 132.674  21.486  1.00  0.00     0.009 C 
ENDBRANCH   1   8
BRANCH   6  10
ATOM     10  C   UNL     1      45.624 131.055  16.165  1.00  0.00    -0.018 A 
ATOM     11  C   UNL     1      45.075 131.635  14.967  1.00  0.00     0.009 A 
ATOM     12  C   UNL     1      46.762 130.198  16.100  1.00  0.00     0.012 A 
ATOM     13  C   UNL     1      45.630 131.388  13.688  1.00  0.00     0.004 A 
ATOM     14  C   UNL     1      47.277 129.979  14.840  1.00  0.00    -0.044 A 
ATOM     15  C   UNL     1      46.729 130.556  13.669  1.00  0.00    -0.044 A 
ATOM     16  C   UNL     1      48.327 129.296  14.033  1.00  0.00     0.040 C 
ATOM     17  C   UNL     1      47.764 129.886  12.833  1.00  0.00     0.040 C 
ENDBRANCH   6  10
TORSDOF 2
ENDMDL
MODEL 8
REMARK VINA RESULT:      -6.5      1.415      2.238
REMARK SMILES C=Cc1cc([S-])cc(-c2ccc3c(c2)CC3)c1
REMARK SMILES IDX 3 1 4 2 5 3 6 4 7 5 8 6 17 7 2 8 1 9 9 10 10 11 14 12 11 13
REMARK SMILES IDX 13 14 12 15 15 16 16 17
REMARK H PARENT
ROOT
ATOM      1  C   UNL     1      44.028 130.855  21.833  1.00  0.00    -0.027 A 
ATOM      2  C   UNL     1      42.929 131.710  22.000  1.00  0.00    -0.013 A 
ATOM      3  C   UNL     1      42.379 132.385  20.906  1.00  0.00    -0.174 A 
ATOM      4  S   UNL     1      40.978 133.494  21.144  1.00  0.00    -0.780 S 
ATOM      5  C   UNL     1      42.918 132.206  19.630  1.00  0.00    -0.012 A 
ATOM      6  C   UNL     1      44.009 131.343  19.433  1.00  0.00    -0.019 A 
ATOM      7  C   UNL     1      44.556 130.667  20.539  1.00  0.00     0.016 A 
ENDROOT
BRANCH   1   8
ATOM      8  C   UNL     1      44.569 130.155  23.024  1.00  0.00     0.000 C 
ATOM      9  C   UNL     1      44.191 130.409  24.277  1.00  0.00     0.009 C 
ENDBRANCH   1   8
BRANCH   6  10
ATOM     10  C   UNL     1      44.573 131.144  18.074  1.00  0.00    -0.018 A 
ATOM     11  C   UNL     1      45.840 130.476  17.914  1.00  0.00     0.009 A 
ATOM     12  C   UNL     1      43.855 131.615  16.936  1.00  0.00     0.012 A 
ATOM     13  C   UNL     1      46.420 130.258  16.641  1.00  0.00     0.004 A 
ATOM     14  C   UNL     1      44.448 131.387  15.713  1.00  0.00    -0.044 A 
ATOM     15  C   UNL     1      45.693 130.728  15.568  1.00  0.00    -0.044 A 
ATOM     16  C   UNL     1      44.343 131.548  14.235  1.00  0.00     0.040 C 
ATOM     17  C   UNL     1      45.620 130.875  14.088  1.00  0.00     0.040 C 
ENDBRANCH   6  10
TORSDOF 2
ENDMDL
MODEL 9
REMARK VINA RESULT:      -6.4      2.698      6.617
REMARK SMILES C=Cc1cc([S-])cc(-c2ccc3c(c2)CC3)c1
REMARK SMILES IDX 3 1 4 2 5 3 6 4 7 5 8 6 17 7 2 8 1 9 9 10 10 11 14 12 11 13
REMARK SMILES IDX 13 14 12 15 15 16 16 17
REMARK H PARENT
ROOT
ATOM      1  C   UNL     1      44.274 131.489  14.896  1.00  0.00    -0.027 A 
ATOM      2  C   UNL     1      45.408 130.867  14.352  1.00  0.00    -0.013 A 
ATOM      3  C   UNL     1      46.384 130.313  15.185  1.00  0.00    -0.174 A 
ATOM      4  S   UNL     1      47.843 129.535  14.468  1.00  0.00    -0.780 S 
ATOM      5  C   UNL     1      46.233 130.367  16.573  1.00  0.00    -0.012 A 
ATOM      6  C   UNL     1      45.099 130.969  17.142  1.00  0.00    -0.019 A 
ATOM      7  C   UNL     1      44.121 131.525  16.297  1.00  0.00     0.016 A 
ENDROOT
BRANCH   1   8
ATOM      8  C   UNL     1      43.263 132.054  13.968  1.00  0.00     0.000 C 
ATOM      9  C   UNL     1      42.493 131.321  13.164  1.00  0.00     0.009 C 
ENDBRANCH   1   8
BRANCH   6  10
ATOM     10  C   UNL     1      44.933 131.015  18.618  1.00  0.00    -0.018 A 
ATOM     11  C   UNL     1      45.944 130.449  19.472  1.00  0.00     0.009 A 
ATOM     12  C   UNL     1      43.769 131.622  19.177  1.00  0.00     0.012 A 
ATOM     13  C   UNL     1      45.835 130.469  20.884  1.00  0.00     0.004 A 
ATOM     14  C   UNL     1      43.695 131.625  20.553  1.00  0.00    -0.044 A 
ATOM     15  C   UNL     1      44.697 131.066  21.383  1.00  0.00    -0.044 A 
ATOM     16  C   UNL     1      42.902 132.022  21.750  1.00  0.00     0.040 C 
ATOM     17  C   UNL     1      43.928 131.447  22.600  1.00  0.00     0.040 C 
ENDBRANCH   6  10
TORSDOF 2
ENDMDL


