MODEL 1
REMARK VINA RESULT:      -9.5      0.000      0.000
REMARK SMILES Nc1ccc(-c2ccc3cc[nH]c(=O)c3c2)cc1C=O
REMARK SMILES IDX 2 1 3 2 4 3 5 4 17 5 18 6 1 7 19 10 20 11 6 12 7 13 16 14
REMARK SMILES IDX 8 15 15 16 9 17 13 18 10 19 12 20 11 21 14 22
REMARK H PARENT 1 8 1 9 12 23
ROOT
ATOM      1  C   UNL     1      46.115 131.037  14.178  1.00  0.00     0.042 A 
ATOM      2  C   UNL     1      45.087 131.849  14.678  1.00  0.00     0.027 A 
ATOM      3  C   UNL     1      44.761 131.837  16.034  1.00  0.00     0.011 A 
ATOM      4  C   UNL     1      45.460 131.011  16.926  1.00  0.00    -0.018 A 
ATOM      5  C   UNL     1      46.479 130.181  16.428  1.00  0.00     0.022 A 
ATOM      6  C   UNL     1      46.801 130.164  15.061  1.00  0.00     0.038 A 
ENDROOT
BRANCH   1   7
ATOM      7  N   UNL     1      46.474 131.161  12.795  1.00  0.00    -0.398 N 
ATOM      8  H   UNL     1      47.168 131.865  12.465  1.00  0.00     0.156 HD
ATOM      9  H   UNL     1      45.928 130.657  12.061  1.00  0.00     0.156 HD
ENDBRANCH   1   7
BRANCH   6  10
ATOM     10  C   UNL     1      47.824 129.194  14.612  1.00  0.00     0.262 C 
ATOM     11  O   UNL     1      48.574 129.429  13.629  1.00  0.00    -0.298 OA
ENDBRANCH   6  10
BRANCH   4  12
ATOM     12  C   UNL     1      45.123 131.009  18.372  1.00  0.00    -0.018 A 
ATOM     13  C   UNL     1      45.956 130.353  19.295  1.00  0.00     0.009 A 
ATOM     14  C   UNL     1      43.966 131.661  18.837  1.00  0.00     0.023 A 
ATOM     15  C   UNL     1      45.646 130.349  20.656  1.00  0.00     0.009 A 
ATOM     16  C   UNL     1      43.644 131.662  20.207  1.00  0.00     0.048 A 
ATOM     17  C   UNL     1      44.494 130.998  21.121  1.00  0.00    -0.011 A 
ATOM     18  C   UNL     1      42.490 132.305  20.700  1.00  0.00     0.255 A 
ATOM     19  C   UNL     1      44.177 130.995  22.484  1.00  0.00     0.027 A 
ATOM     20  N   UNL     1      42.214 132.282  22.034  1.00  0.00    -0.329 N 
ATOM     21  C   UNL     1      43.025 131.648  22.922  1.00  0.00     0.086 A 
ATOM     22  O   UNL     1      41.706 132.908  19.915  1.00  0.00    -0.269 OA
ATOM     23  H   UNL     1      41.356 132.761  22.391  1.00  0.00     0.169 HD
ENDBRANCH   4  12
TORSDOF 3
ENDMDL
MODEL 2
REMARK VINA RESULT:      -7.5      1.526      2.106
REMARK SMILES Nc1ccc(-c2ccc3cc[nH]c(=O)c3c2)cc1C=O
REMARK SMILES IDX 2 1 3 2 4 3 5 4 17 5 18 6 1 7 19 10 20 11 6 12 7 13 16 14
REMARK SMILES IDX 8 15 15 16 9 17 13 18 10 19 12 20 11 21 14 22
REMARK H PARENT 1 8 1 9 12 23
ROOT
ATOM      1  C   UNL     1      46.103 130.608  14.749  1.00  0.00     0.042 A 
ATOM      2  C   UNL     1      46.926 130.085  15.757  1.00  0.00     0.027 A 
ATOM      3  C   UNL     1      46.564 130.185  17.100  1.00  0.00     0.011 A 
ATOM      4  C   UNL     1      45.363 130.811  17.467  1.00  0.00    -0.018 A 
ATOM      5  C   UNL     1      44.543 131.353  16.463  1.00  0.00     0.022 A 
ATOM      6  C   UNL     1      44.908 131.281  15.108  1.00  0.00     0.038 A 
ENDROOT
BRANCH   1   7
ATOM      7  N   UNL     1      46.475 130.390  13.380  1.00  0.00    -0.398 N 
ATOM      8  H   UNL     1      46.428 131.148  12.667  1.00  0.00     0.156 HD
ATOM      9  H   UNL     1      46.648 129.422  13.029  1.00  0.00     0.156 HD
ENDBRANCH   1   7
BRANCH   6  10
ATOM     10  C   UNL     1      44.029 131.958  14.128  1.00  0.00     0.262 C 
ATOM     11  O   UNL     1      42.877 131.527  13.865  1.00  0.00    -0.298 OA
ENDBRANCH   6  10
BRANCH   4  12
ATOM     12  C   UNL     1      44.969 130.904  18.896  1.00  0.00    -0.018 A 
ATOM     13  C   UNL     1      45.748 130.286  19.890  1.00  0.00     0.009 A 
ATOM     14  C   UNL     1      43.812 131.611  19.274  1.00  0.00     0.023 A 
ATOM     15  C   UNL     1      45.385 130.372  21.235  1.00  0.00     0.009 A 
ATOM     16  C   UNL     1      43.437 131.703  20.627  1.00  0.00     0.048 A 
ATOM     17  C   UNL     1      44.233 131.076  21.613  1.00  0.00    -0.011 A 
ATOM     18  C   UNL     1      42.282 132.402  21.033  1.00  0.00     0.255 A 
ATOM     19  C   UNL     1      43.863 131.163  22.959  1.00  0.00     0.027 A 
ATOM     20  N   UNL     1      41.954 132.467  22.354  1.00  0.00    -0.329 N 
ATOM     21  C   UNL     1      42.713 131.868  23.311  1.00  0.00     0.086 A 
ATOM     22  O   UNL     1      41.545 132.975  20.183  1.00  0.00    -0.269 OA
ATOM     23  H   UNL     1      41.095 132.987  22.647  1.00  0.00     0.169 HD
ENDBRANCH   4  12
TORSDOF 3
ENDMDL
MODEL 3
REMARK VINA RESULT:      -7.3      1.485      2.107
REMARK SMILES Nc1ccc(-c2ccc3cc[nH]c(=O)c3c2)cc1C=O
REMARK SMILES IDX 2 1 3 2 4 3 5 4 17 5 18 6 1 7 19 10 20 11 6 12 7 13 16 14
REMARK SMILES IDX 8 15 15 16 9 17 13 18 10 19 12 20 11 21 14 22
REMARK H PARENT 1 8 1 9 12 23
ROOT
ATOM      1  C   UNL     1      45.829 130.945  13.979  1.00  0.00     0.042 A 
ATOM      2  C   UNL     1      44.582 131.575  14.105  1.00  0.00     0.027 A 
ATOM      3  C   UNL     1      43.997 131.758  15.357  1.00  0.00     0.011 A 
ATOM      4  C   UNL     1      44.648 131.316  16.518  1.00  0.00    -0.018 A 
ATOM      5  C   UNL     1      45.888 130.666  16.397  1.00  0.00     0.022 A 
ATOM      6  C   UNL     1      46.478 130.453  15.140  1.00  0.00     0.038 A 
ENDROOT
BRANCH   1   7
ATOM      7  N   UNL     1      46.430 130.871  12.678  1.00  0.00    -0.398 N 
ATOM      8  H   UNL     1      46.276 130.060  12.043  1.00  0.00     0.156 HD
ATOM      9  H   UNL     1      47.169 131.555  12.401  1.00  0.00     0.156 HD
ENDBRANCH   1   7
BRANCH   6  10
ATOM     10  C   UNL     1      47.740 129.681  15.100  1.00  0.00     0.262 C 
ATOM     11  O   UNL     1      48.161 129.154  14.038  1.00  0.00    -0.298 OA
ENDBRANCH   6  10
BRANCH   4  12
ATOM     12  C   UNL     1      44.031 131.524  17.853  1.00  0.00    -0.018 A 
ATOM     13  C   UNL     1      42.693 131.938  17.961  1.00  0.00     0.009 A 
ATOM     14  C   UNL     1      44.779 131.310  19.027  1.00  0.00     0.023 A 
ATOM     15  C   UNL     1      42.107 132.134  19.213  1.00  0.00     0.009 A 
ATOM     16  C   UNL     1      44.198 131.506  20.293  1.00  0.00     0.048 A 
ATOM     17  C   UNL     1      42.849 131.922  20.382  1.00  0.00    -0.011 A 
ATOM     18  C   UNL     1      44.924 131.301  21.485  1.00  0.00     0.255 A 
ATOM     19  C   UNL     1      42.268 132.118  21.640  1.00  0.00     0.027 A 
ATOM     20  N   UNL     1      44.324 131.502  22.691  1.00  0.00    -0.329 N 
ATOM     21  C   UNL     1      43.027 131.901  22.789  1.00  0.00     0.086 A 
ATOM     22  O   UNL     1      46.130 130.931  21.447  1.00  0.00    -0.269 OA
ATOM     23  H   UNL     1      44.869 131.349  23.570  1.00  0.00     0.169 HD
ENDBRANCH   4  12
TORSDOF 3
ENDMDL
MODEL 4
REMARK VINA RESULT:      -7.1      1.906      7.031
REMARK SMILES Nc1ccc(-c2ccc3cc[nH]c(=O)c3c2)cc1C=O
REMARK SMILES IDX 2 1 3 2 4 3 5 4 17 5 18 6 1 7 19 10 20 11 6 12 7 13 16 14
REMARK SMILES IDX 8 15 15 16 9 17 13 18 10 19 12 20 11 21 14 22
REMARK H PARENT 1 8 1 9 12 23
ROOT
ATOM      1  C   UNL     1      41.993 132.548  21.602  1.00  0.00     0.042 A 
ATOM      2  C   UNL     1      41.675 132.875  20.276  1.00  0.00     0.027 A 
ATOM      3  C   UNL     1      42.490 132.462  19.222  1.00  0.00     0.011 A 
ATOM      4  C   UNL     1      43.646 131.707  19.471  1.00  0.00    -0.018 A 
ATOM      5  C   UNL     1      43.980 131.393  20.800  1.00  0.00     0.022 A 
ATOM      6  C   UNL     1      43.182 131.824  21.873  1.00  0.00     0.038 A 
ENDROOT
BRANCH   1   7
ATOM      7  N   UNL     1      41.069 132.913  22.638  1.00  0.00    -0.398 N 
ATOM      8  H   UNL     1      41.382 133.358  23.526  1.00  0.00     0.156 HD
ATOM      9  H   UNL     1      40.076 132.593  22.593  1.00  0.00     0.156 HD
ENDBRANCH   1   7
BRANCH   6  10
ATOM     10  C   UNL     1      43.659 131.525  23.241  1.00  0.00     0.262 C 
ATOM     11  O   UNL     1      42.873 131.146  24.148  1.00  0.00    -0.298 OA
ENDBRANCH   6  10
BRANCH   4  12
ATOM     12  C   UNL     1      44.506 131.254  18.349  1.00  0.00    -0.018 A 
ATOM     13  C   UNL     1      45.689 130.539  18.603  1.00  0.00     0.009 A 
ATOM     14  C   UNL     1      44.149 131.536  17.016  1.00  0.00     0.023 A 
ATOM     15  C   UNL     1      46.501 130.110  17.552  1.00  0.00     0.009 A 
ATOM     16  C   UNL     1      44.961 131.108  15.950  1.00  0.00     0.048 A 
ATOM     17  C   UNL     1      46.147 130.389  16.225  1.00  0.00    -0.011 A 
ATOM     18  C   UNL     1      44.629 131.380  14.606  1.00  0.00     0.255 A 
ATOM     19  C   UNL     1      46.958 129.963  15.167  1.00  0.00     0.027 A 
ATOM     20  N   UNL     1      45.443 130.947  13.603  1.00  0.00    -0.329 N 
ATOM     21  C   UNL     1      46.586 130.254  13.856  1.00  0.00     0.086 A 
ATOM     22  O   UNL     1      43.579 132.019  14.321  1.00  0.00    -0.269 OA
ATOM     23  H   UNL     1      45.190 131.152  12.610  1.00  0.00     0.169 HD
ENDBRANCH   4  12
TORSDOF 3
ENDMDL
MODEL 5
REMARK VINA RESULT:      -6.9      2.238      3.105
REMARK SMILES Nc1ccc(-c2ccc3cc[nH]c(=O)c3c2)cc1C=O
REMARK SMILES IDX 2 1 3 2 4 3 5 4 17 5 18 6 1 7 19 10 20 11 6 12 7 13 16 14
REMARK SMILES IDX 8 15 15 16 9 17 13 18 10 19 12 20 11 21 14 22
REMARK H PARENT 1 8 1 9 12 23
ROOT
ATOM      1  C   UNL     1      45.890 130.490  15.458  1.00  0.00     0.042 A 
ATOM      2  C   UNL     1      46.485 130.059  16.652  1.00  0.00     0.027 A 
ATOM      3  C   UNL     1      45.894 130.334  17.885  1.00  0.00     0.011 A 
ATOM      4  C   UNL     1      44.688 131.046  17.953  1.00  0.00    -0.018 A 
ATOM      5  C   UNL     1      44.097 131.497  16.760  1.00  0.00     0.022 A 
ATOM      6  C   UNL     1      44.694 131.250  15.513  1.00  0.00     0.038 A 
ENDROOT
BRANCH   1   7
ATOM      7  N   UNL     1      46.488 130.096  14.214  1.00  0.00    -0.398 N 
ATOM      8  H   UNL     1      46.542 129.098  13.919  1.00  0.00     0.156 HD
ATOM      9  H   UNL     1      47.029 130.786  13.648  1.00  0.00     0.156 HD
ENDBRANCH   1   7
BRANCH   6  10
ATOM     10  C   UNL     1      44.049 131.840  14.319  1.00  0.00     0.262 C 
ATOM     11  O   UNL     1      43.022 131.329  13.801  1.00  0.00    -0.298 OA
ENDBRANCH   6  10
BRANCH   4  12
ATOM     12  C   UNL     1      44.051 131.326  19.265  1.00  0.00    -0.018 A 
ATOM     13  C   UNL     1      43.073 132.329  19.381  1.00  0.00     0.009 A 
ATOM     14  C   UNL     1      44.418 130.592  20.408  1.00  0.00     0.023 A 
ATOM     15  C   UNL     1      42.469 132.596  20.611  1.00  0.00     0.009 A 
ATOM     16  C   UNL     1      43.816 130.854  21.653  1.00  0.00     0.048 A 
ATOM     17  C   UNL     1      42.834 131.866  21.750  1.00  0.00    -0.011 A 
ATOM     18  C   UNL     1      44.167 130.136  22.815  1.00  0.00     0.255 A 
ATOM     19  C   UNL     1      42.233 132.130  22.986  1.00  0.00     0.027 A 
ATOM     20  N   UNL     1      43.560 130.421  24.001  1.00  0.00    -0.329 N 
ATOM     21  C   UNL     1      42.612 131.392  24.106  1.00  0.00     0.086 A 
ATOM     22  O   UNL     1      45.040 129.226  22.769  1.00  0.00    -0.269 OA
ATOM     23  H   UNL     1      43.826 129.884  24.858  1.00  0.00     0.169 HD
ENDBRANCH   4  12
TORSDOF 3
ENDMDL
MODEL 6
REMARK VINA RESULT:      -6.6      1.744      2.374
REMARK SMILES Nc1ccc(-c2ccc3cc[nH]c(=O)c3c2)cc1C=O
REMARK SMILES IDX 2 1 3 2 4 3 5 4 17 5 18 6 1 7 19 10 20 11 6 12 7 13 16 14
REMARK SMILES IDX 8 15 15 16 9 17 13 18 10 19 12 20 11 21 14 22
REMARK H PARENT 1 8 1 9 12 23
ROOT
ATOM      1  C   UNL     1      45.135 131.036  14.849  1.00  0.00     0.042 A 
ATOM      2  C   UNL     1      43.924 131.689  15.120  1.00  0.00     0.027 A 
ATOM      3  C   UNL     1      43.473 131.844  16.431  1.00  0.00     0.011 A 
ATOM      4  C   UNL     1      44.228 131.350  17.506  1.00  0.00    -0.018 A 
ATOM      5  C   UNL     1      45.433 130.678  17.238  1.00  0.00     0.022 A 
ATOM      6  C   UNL     1      45.887 130.493  15.921  1.00  0.00     0.038 A 
ENDROOT
BRANCH   1   7
ATOM      7  N   UNL     1      45.599 130.992  13.492  1.00  0.00    -0.398 N 
ATOM      8  H   UNL     1      45.877 131.853  12.974  1.00  0.00     0.156 HD
ATOM      9  H   UNL     1      45.515 130.113  12.935  1.00  0.00     0.156 HD
ENDBRANCH   1   7
BRANCH   6  10
ATOM     10  C   UNL     1      47.118 129.696  15.729  1.00  0.00     0.262 C 
ATOM     11  O   UNL     1      47.730 129.677  14.630  1.00  0.00    -0.298 OA
ENDBRANCH   6  10
BRANCH   4  12
ATOM     12  C   UNL     1      43.756 131.527  18.902  1.00  0.00    -0.018 A 
ATOM     13  C   UNL     1      42.762 132.475  19.202  1.00  0.00     0.009 A 
ATOM     14  C   UNL     1      44.297 130.751  19.944  1.00  0.00     0.023 A 
ATOM     15  C   UNL     1      42.313 132.646  20.512  1.00  0.00     0.009 A 
ATOM     16  C   UNL     1      43.852 130.916  21.268  1.00  0.00     0.048 A 
ATOM     17  C   UNL     1      42.851 131.874  21.550  1.00  0.00    -0.011 A 
ATOM     18  C   UNL     1      44.379 130.153  22.331  1.00  0.00     0.255 A 
ATOM     19  C   UNL     1      42.405 132.042  22.866  1.00  0.00     0.027 A 
ATOM     20  N   UNL     1      43.920 130.344  23.600  1.00  0.00    -0.329 N 
ATOM     21  C   UNL     1      42.956 131.262  23.882  1.00  0.00     0.086 A 
ATOM     22  O   UNL     1      45.274 129.289  22.120  1.00  0.00    -0.269 OA
ATOM     23  H   UNL     1      44.316 129.775  24.382  1.00  0.00     0.169 HD
ENDBRANCH   4  12
TORSDOF 3
ENDMDL


