REMARK SMILES COCC/[NH+]=C(/S)n1[nH+]c2cc(-c3c[nH+]c(F)cc3C)ccc2c1C
REMARK SMILES IDX 5 1 6 3 7 4 8 6 24 7 9 8 23 9 10 10 22 11 11 12 21 13 12 14
REMARK SMILES IDX 25 15 13 17 19 18 14 19 18 20 15 21 16 22 20 23 17 25 4 26
REMARK SMILES IDX 3 27 2 28 1 29
REMARK H PARENT 5 2 7 5 9 16 15 24
ROOT
ATOM      1  N   UNL     1      -2.888  -2.253   2.576  1.00  0.00    -0.262 N 
ATOM      2  H   UNL     1      -3.727  -2.476   3.159  1.00  0.00     0.306 HD
ENDROOT
BRANCH   1   3
ATOM      3  C   UNL     1      -3.072  -1.823   1.358  1.00  0.00     0.368 C 
BRANCH   3   4
ATOM      4  S   UNL     1      -4.739  -1.595   0.744  1.00  0.00    -0.050 SA
ATOM      5  H   UNL     1      -4.783  -0.267   1.208  1.00  0.00     0.116 HD
ENDBRANCH   3   4
BRANCH   3   6
ATOM      6  N   UNL     1      -1.974  -1.491   0.499  1.00  0.00     0.018 N 
ATOM      7  C   UNL     1      -1.157  -2.360  -0.152  1.00  0.00     0.185 A 
ATOM      8  N   UNL     1      -1.681  -0.248   0.135  1.00  0.00    -0.046 N 
ATOM      9  C   UNL     1      -0.308  -1.615  -0.948  1.00  0.00     0.099 A 
ATOM     10  C   UNL     1      -0.659  -0.309  -0.735  1.00  0.00     0.258 A 
ATOM     11  C   UNL     1       0.693  -1.970  -1.848  1.00  0.00     0.020 A 
ATOM     12  C   UNL     1      -0.027   0.742  -1.392  1.00  0.00     0.093 A 
ATOM     13  C   UNL     1       1.360  -0.932  -2.525  1.00  0.00     0.010 A 
ATOM     14  C   UNL     1       1.015   0.426  -2.294  1.00  0.00    -0.005 A 
ATOM     15  C   UNL     1      -1.280  -3.854  -0.142  1.00  0.00     0.101 C 
ATOM     16  H   UNL     1      -2.176   0.611   0.465  1.00  0.00     0.515 HD
BRANCH  14  17
ATOM     17  C   UNL     1       1.722   1.502  -3.022  1.00  0.00     0.049 A 
ATOM     18  C   UNL     1       2.420   2.537  -2.353  1.00  0.00    -0.028 A 
ATOM     19  C   UNL     1       1.707   1.496  -4.426  1.00  0.00     0.317 A 
ATOM     20  C   UNL     1       3.028   3.548  -3.112  1.00  0.00     0.118 A 
ATOM     21  N   UNL     1       2.324   2.484  -5.129  1.00  0.00    -0.186 N 
ATOM     22  C   UNL     1       2.971   3.502  -4.505  1.00  0.00     0.358 A 
ATOM     23  C   UNL     1       2.515   2.595  -0.851  1.00  0.00     0.045 C 
ATOM     24  H   UNL     1       2.292   2.461  -6.173  1.00  0.00     0.456 HD
ATOM     25  F   UNL     1       3.568   4.476  -5.237  1.00  0.00    -0.136 F 
ENDBRANCH  14  17
ENDBRANCH   3   6
ENDBRANCH   1   3
BRANCH   1  26
ATOM     26  C   UNL     1      -1.579  -2.377   3.228  1.00  0.00     0.263 C 
BRANCH  26  27
ATOM     27  C   UNL     1      -1.203  -1.080   3.942  1.00  0.00     0.205 C 
BRANCH  27  28
ATOM     28  O   UNL     1      -0.950  -0.070   2.990  1.00  0.00    -0.381 OA
ATOM     29  C   UNL     1      -0.626   1.131   3.652  1.00  0.00     0.195 C 
ENDBRANCH  27  28
ENDBRANCH  26  27
ENDBRANCH   1  26
TORSDOF 7


