MODEL 1
REMARK VINA RESULT:      -8.3      0.000      0.000
REMARK SMILES C=C[C@@H]1CCC[C@@](F)(c2ccc3c(c2)[C@H]([NH3+])CC3)[C@H]1Cl
REMARK SMILES IDX 9 1 10 2 11 3 12 4 13 5 14 6 15 7 17 8 18 9 7 10 3 11 4 12
REMARK SMILES IDX 19 13 5 14 6 15 20 16 8 17 2 18 1 19 16 20
REMARK H PARENT 16 21 16 22 16 23
ROOT
ATOM      1  C   UNL     1      44.914 131.415  18.145  1.00  0.00    -0.009 A 
ATOM      2  C   UNL     1      46.054 131.075  18.915  1.00  0.00     0.007 A 
ATOM      3  C   UNL     1      45.969 130.928  20.307  1.00  0.00     0.004 A 
ATOM      4  C   UNL     1      44.735 131.110  20.927  1.00  0.00    -0.039 A 
ATOM      5  C   UNL     1      43.618 131.429  20.201  1.00  0.00     0.013 A 
ATOM      6  C   UNL     1      43.673 131.575  18.813  1.00  0.00     0.017 A 
ATOM      7  C   UNL     1      42.413 131.569  21.065  1.00  0.00     0.212 C 
ATOM      8  C   UNL     1      42.919 131.145  22.467  1.00  0.00     0.075 C 
ATOM      9  C   UNL     1      44.448 130.988  22.375  1.00  0.00     0.042 C 
ENDROOT
BRANCH   1  10
ATOM     10  C   UNL     1      45.056 131.516  16.625  1.00  0.00     0.152 C 
ATOM     11  C   UNL     1      46.016 130.354  14.527  1.00  0.00     0.033 C 
ATOM     12  C   UNL     1      44.675 130.615  13.805  1.00  0.00     0.009 C 
ATOM     13  C   UNL     1      45.828 130.287  16.069  1.00  0.00     0.130 C 
ATOM     14  C   UNL     1      43.923 131.828  14.372  1.00  0.00     0.004 C 
ATOM     15  C   UNL     1      43.707 131.680  15.883  1.00  0.00     0.048 C 
ATOM     16  Cl  UNL     1      45.020 128.744  16.507  1.00  0.00    -0.118 Cl
ATOM     17  F   UNL     1      45.801 132.659  16.362  1.00  0.00    -0.237 F 
BRANCH  11  18
ATOM     18  C   UNL     1      47.061 131.377  14.130  1.00  0.00    -0.030 C 
ATOM     19  C   UNL     1      47.795 131.237  13.021  1.00  0.00     0.004 C 
ENDBRANCH  11  18
ENDBRANCH   1  10
BRANCH   7  20
ATOM     20  N   UNL     1      41.926 132.952  21.065  1.00  0.00    -0.351 N 
ATOM     21  H   UNL     1      40.981 132.989  20.619  1.00  0.00     0.345 HD
ATOM     22  H   UNL     1      42.574 133.557  20.511  1.00  0.00     0.345 HD
ATOM     23  H   UNL     1      41.860 133.321  22.042  1.00  0.00     0.345 HD
ENDBRANCH   7  20
TORSDOF 3
ENDMDL
MODEL 2
REMARK VINA RESULT:      -7.2      1.684      2.371
REMARK SMILES C=C[C@@H]1CCC[C@@](F)(c2ccc3c(c2)[C@H]([NH3+])CC3)[C@H]1Cl
REMARK SMILES IDX 9 1 10 2 11 3 12 4 13 5 14 6 15 7 17 8 18 9 7 10 3 11 4 12
REMARK SMILES IDX 19 13 5 14 6 15 20 16 8 17 2 18 1 19 16 20
REMARK H PARENT 16 21 16 22 16 23
ROOT
ATOM      1  C   UNL     1      44.874 131.272  17.593  1.00  0.00    -0.009 A 
ATOM      2  C   UNL     1      43.535 131.698  17.400  1.00  0.00     0.007 A 
ATOM      3  C   UNL     1      42.683 131.920  18.490  1.00  0.00     0.004 A 
ATOM      4  C   UNL     1      43.177 131.728  19.778  1.00  0.00    -0.039 A 
ATOM      5  C   UNL     1      44.469 131.327  19.988  1.00  0.00     0.013 A 
ATOM      6  C   UNL     1      45.342 131.103  18.921  1.00  0.00     0.017 A 
ATOM      7  C   UNL     1      44.781 131.191  21.438  1.00  0.00     0.212 C 
ATOM      8  C   UNL     1      43.501 131.712  22.137  1.00  0.00     0.075 C 
ATOM      9  C   UNL     1      42.435 131.921  21.045  1.00  0.00     0.042 C 
ENDROOT
BRANCH   1  10
ATOM     10  C   UNL     1      45.772 131.090  16.368  1.00  0.00     0.152 C 
ATOM     11  C   UNL     1      46.052 129.804  14.146  1.00  0.00     0.033 C 
ATOM     12  C   UNL     1      46.417 131.136  13.454  1.00  0.00     0.009 C 
ATOM     13  C   UNL     1      45.163 130.038  15.399  1.00  0.00     0.130 C 
ATOM     14  C   UNL     1      47.009 132.166  14.427  1.00  0.00     0.004 C 
ATOM     15  C   UNL     1      46.065 132.408  15.610  1.00  0.00     0.048 C 
ATOM     16  Cl  UNL     1      43.505 130.497  14.881  1.00  0.00    -0.118 Cl
ATOM     17  F   UNL     1      46.993 130.611  16.827  1.00  0.00    -0.237 F 
BRANCH  11  18
ATOM     18  C   UNL     1      47.293 128.999  14.476  1.00  0.00    -0.030 C 
ATOM     19  C   UNL     1      48.431 129.150  13.791  1.00  0.00     0.004 C 
ENDBRANCH  11  18
ENDBRANCH   1  10
BRANCH   7  20
ATOM     20  N   UNL     1      45.053 129.792  21.788  1.00  0.00    -0.351 N 
ATOM     21  H   UNL     1      45.790 129.411  21.153  1.00  0.00     0.345 HD
ATOM     22  H   UNL     1      44.185 129.222  21.664  1.00  0.00     0.345 HD
ATOM     23  H   UNL     1      45.377 129.715  22.780  1.00  0.00     0.345 HD
ENDBRANCH   7  20
TORSDOF 3
ENDMDL
MODEL 3
REMARK VINA RESULT:      -7.0      1.313      1.911
REMARK SMILES C=C[C@@H]1CCC[C@@](F)(c2ccc3c(c2)[C@H]([NH3+])CC3)[C@H]1Cl
REMARK SMILES IDX 9 1 10 2 11 3 12 4 13 5 14 6 15 7 17 8 18 9 7 10 3 11 4 12
REMARK SMILES IDX 19 13 5 14 6 15 20 16 8 17 2 18 1 19 16 20
REMARK H PARENT 16 21 16 22 16 23
ROOT
ATOM      1  C   UNL     1      44.199 131.557  17.862  1.00  0.00    -0.009 A 
ATOM      2  C   UNL     1      42.887 132.009  18.155  1.00  0.00     0.007 A 
ATOM      3  C   UNL     1      42.420 132.062  19.476  1.00  0.00     0.004 A 
ATOM      4  C   UNL     1      43.272 131.674  20.507  1.00  0.00    -0.039 A 
ATOM      5  C   UNL     1      44.546 131.244  20.247  1.00  0.00     0.013 A 
ATOM      6  C   UNL     1      45.040 131.187  18.941  1.00  0.00     0.017 A 
ATOM      7  C   UNL     1      45.279 130.887  21.493  1.00  0.00     0.212 C 
ATOM      8  C   UNL     1      44.299 131.296  22.621  1.00  0.00     0.075 C 
ATOM      9  C   UNL     1      42.962 131.672  21.955  1.00  0.00     0.042 C 
ENDROOT
BRANCH   1  10
ATOM     10  C   UNL     1      44.671 131.565  16.407  1.00  0.00     0.152 C 
ATOM     11  C   UNL     1      46.049 130.277  14.644  1.00  0.00     0.033 C 
ATOM     12  C   UNL     1      44.902 130.492  13.631  1.00  0.00     0.009 C 
ATOM     13  C   UNL     1      45.529 130.304  16.108  1.00  0.00     0.130 C 
ATOM     14  C   UNL     1      44.060 131.736  13.946  1.00  0.00     0.004 C 
ATOM     15  C   UNL     1      43.517 131.682  15.380  1.00  0.00     0.048 C 
ATOM     16  Cl  UNL     1      44.626 128.791  16.452  1.00  0.00    -0.118 Cl
ATOM     17  F   UNL     1      45.469 132.690  16.245  1.00  0.00    -0.237 F 
BRANCH  11  18
ATOM     18  C   UNL     1      47.169 131.274  14.423  1.00  0.00    -0.030 C 
ATOM     19  C   UNL     1      47.815 131.358  13.255  1.00  0.00     0.004 C 
ENDBRANCH  11  18
ENDBRANCH   1  10
BRANCH   7  20
ATOM     20  N   UNL     1      45.576 129.451  21.535  1.00  0.00    -0.351 N 
ATOM     21  H   UNL     1      46.366 129.240  20.884  1.00  0.00     0.345 HD
ATOM     22  H   UNL     1      44.739 128.907  21.223  1.00  0.00     0.345 HD
ATOM     23  H   UNL     1      45.838 129.155  22.504  1.00  0.00     0.345 HD
ENDBRANCH   7  20
TORSDOF 3
ENDMDL
MODEL 4
REMARK VINA RESULT:      -5.7      1.381      1.569
REMARK SMILES C=C[C@@H]1CCC[C@@](F)(c2ccc3c(c2)[C@H]([NH3+])CC3)[C@H]1Cl
REMARK SMILES IDX 9 1 10 2 11 3 12 4 13 5 14 6 15 7 17 8 18 9 7 10 3 11 4 12
REMARK SMILES IDX 19 13 5 14 6 15 20 16 8 17 2 18 1 19 16 20
REMARK H PARENT 16 21 16 22 16 23
ROOT
ATOM      1  C   UNL     1      45.355 131.132  18.082  1.00  0.00    -0.009 A 
ATOM      2  C   UNL     1      46.086 130.663  19.203  1.00  0.00     0.007 A 
ATOM      3  C   UNL     1      45.553 130.741  20.497  1.00  0.00     0.004 A 
ATOM      4  C   UNL     1      44.279 131.278  20.668  1.00  0.00    -0.039 A 
ATOM      5  C   UNL     1      43.551 131.727  19.598  1.00  0.00     0.013 A 
ATOM      6  C   UNL     1      44.055 131.657  18.297  1.00  0.00     0.017 A 
ATOM      7  C   UNL     1      42.221 132.253  20.011  1.00  0.00     0.212 C 
ATOM      8  C   UNL     1      42.157 131.935  21.526  1.00  0.00     0.075 C 
ATOM      9  C   UNL     1      43.551 131.432  21.948  1.00  0.00     0.042 C 
ENDROOT
BRANCH   1  10
ATOM     10  C   UNL     1      45.967 130.979  16.688  1.00  0.00     0.152 C 
ATOM     11  C   UNL     1      45.810 129.684  14.460  1.00  0.00     0.033 C 
ATOM     12  C   UNL     1      45.949 131.025  13.704  1.00  0.00     0.009 C 
ATOM     13  C   UNL     1      45.210 129.890  15.878  1.00  0.00     0.130 C 
ATOM     14  C   UNL     1      46.692 132.091  14.522  1.00  0.00     0.004 C 
ATOM     15  C   UNL     1      46.021 132.302  15.884  1.00  0.00     0.048 C 
ATOM     16  Cl  UNL     1      43.459 130.265  15.741  1.00  0.00    -0.118 Cl
ATOM     17  F   UNL     1      47.281 130.563  16.866  1.00  0.00    -0.237 F 
BRANCH  11  18
ATOM     18  C   UNL     1      47.131 128.942  14.506  1.00  0.00    -0.030 C 
ATOM     19  C   UNL     1      48.175 129.318  13.761  1.00  0.00     0.004 C 
ENDBRANCH  11  18
ENDBRANCH   1  10
BRANCH   7  20
ATOM     20  N   UNL     1      42.125 133.696  19.761  1.00  0.00    -0.351 N 
ATOM     21  H   UNL     1      42.371 134.217  20.633  1.00  0.00     0.345 HD
ATOM     22  H   UNL     1      41.145 133.945  19.495  1.00  0.00     0.345 HD
ATOM     23  H   UNL     1      42.774 133.982  18.992  1.00  0.00     0.345 HD
ENDBRANCH   7  20
TORSDOF 3
ENDMDL


