REMARK SMILES [N-]=[N+]=Nc1[nH+]ccc2ccc(-c3cccc([C@H]4CO4)c3)cc12
REMARK SMILES IDX 11 1 10 2 9 3 8 4 7 5 6 6 5 7 4 9 22 10 21 11 12 12 14 13
REMARK SMILES IDX 13 14 15 15 16 16 20 17 17 18 19 19 18 20 3 21 2 22 1 23
REMARK H PARENT 5 8
ROOT
ATOM      1  C   UNL     1      -0.042  -0.017   0.987  1.00  0.00    -0.018 A 
ATOM      2  C   UNL     1      -0.001  -0.051   2.391  1.00  0.00     0.009 A 
ATOM      3  C   UNL     1      -0.189   1.115   3.136  1.00  0.00     0.009 A 
ATOM      4  C   UNL     1      -0.422   2.337   2.491  1.00  0.00    -0.011 A 
ATOM      5  C   UNL     1      -0.610   3.506   3.235  1.00  0.00     0.052 A 
ATOM      6  C   UNL     1      -0.842   4.710   2.574  1.00  0.00     0.194 A 
ATOM      7  N   UNL     1      -0.885   4.753   1.216  1.00  0.00    -0.279 N 
ATOM      8  H   UNL     1      -1.062   5.678   0.765  1.00  0.00     0.308 HD
ATOM      9  C   UNL     1      -0.706   3.634   0.451  1.00  0.00     0.193 A 
ATOM     10  C   UNL     1      -0.468   2.391   1.079  1.00  0.00     0.031 A 
ATOM     11  C   UNL     1      -0.277   1.209   0.338  1.00  0.00     0.021 A 
ENDROOT
BRANCH   1  12
ATOM     12  C   UNL     1       0.160  -1.259   0.199  1.00  0.00    -0.018 A 
ATOM     13  C   UNL     1      -0.232  -3.639  -0.130  1.00  0.00     0.001 A 
ATOM     14  C   UNL     1      -0.429  -2.469   0.609  1.00  0.00     0.009 A 
ATOM     15  C   UNL     1       0.548  -3.615  -1.287  1.00  0.00     0.006 A 
ATOM     16  C   UNL     1       1.129  -2.416  -1.721  1.00  0.00    -0.016 A 
ATOM     17  C   UNL     1       0.946  -1.245  -0.969  1.00  0.00     0.015 A 
BRANCH  16  18
ATOM     18  C   UNL     1       1.998  -2.402  -2.944  1.00  0.00     0.174 C 
ATOM     19  O   UNL     1       1.621  -1.382  -3.841  1.00  0.00    -0.368 OA
ATOM     20  C   UNL     1       1.321  -2.702  -4.227  1.00  0.00     0.198 C 
ENDBRANCH  16  18
ENDBRANCH   1  12
BRANCH   9  21
ATOM     21  N   UNL     1      -0.757   3.713  -0.983  1.00  0.00    -0.017 NA
BRANCH  21  22
ATOM     22  N   UNL     1      -0.961   4.773  -1.575  1.00  0.00     0.009 N 
ATOM     23  N   UNL     1      -1.164   5.831  -2.169  1.00  0.00    -0.003 NA
ENDBRANCH  21  22
ENDBRANCH   9  21
TORSDOF 4


