REMARK SMILES C[C@H]1CC[C@H](C(=O)N(c2cn3ccccc3n2)c2cc3cccc(F)c3[nH]2)S1
REMARK SMILES IDX 6 1 7 2 5 3 2 4 3 5 28 6 4 7 1 8 8 9 9 10 10 11 17 12 11 13
REMARK SMILES IDX 16 14 12 15 15 16 13 17 14 18 18 19 19 20 27 21 20 22 26 23
REMARK SMILES IDX 21 24 24 25 22 26 23 27 25 29
REMARK H PARENT 27 28
ROOT
ATOM      1  C   UNL     1       0.622   0.548   1.824  1.00  0.00     0.247 C 
ATOM      2  O   UNL     1       1.617   0.119   2.470  1.00  0.00    -0.273 OA
ENDROOT
BRANCH   1   3
ATOM      3  C   UNL     1      -0.379   1.436   2.520  1.00  0.00     0.137 C 
ATOM      4  C   UNL     1      -0.381   2.829   4.758  1.00  0.00     0.044 C 
ATOM      5  C   UNL     1      -1.524   1.826   4.641  1.00  0.00     0.016 C 
ATOM      6  S   UNL     1       0.445   2.941   3.136  1.00  0.00    -0.145 SA
ATOM      7  C   UNL     1      -1.052   0.736   3.699  1.00  0.00     0.025 C 
ATOM      8  C   UNL     1      -0.872   4.204   5.205  1.00  0.00     0.019 C 
ENDBRANCH   1   3
BRANCH   1   9
ATOM      9  N   UNL     1       0.490   0.229   0.425  1.00  0.00    -0.247 N 
BRANCH   9  10
ATOM     10  C   UNL     1       1.667   0.154  -0.402  1.00  0.00     0.160 A 
ATOM     11  C   UNL     1       1.765  -0.509  -1.619  1.00  0.00     0.140 A 
ATOM     12  N   UNL     1       2.854   0.722  -0.070  1.00  0.00    -0.211 NA
ATOM     13  N   UNL     1       3.024  -0.343  -2.043  1.00  0.00    -0.305 N 
ATOM     14  C   UNL     1       3.649   0.391  -1.107  1.00  0.00     0.139 A 
ATOM     15  C   UNL     1       3.629  -0.794  -3.171  1.00  0.00     0.093 A 
ATOM     16  C   UNL     1       4.991   0.739  -1.250  1.00  0.00     0.048 A 
ATOM     17  C   UNL     1       4.981  -0.473  -3.369  1.00  0.00     0.018 A 
ATOM     18  C   UNL     1       5.660   0.296  -2.404  1.00  0.00     0.005 A 
ENDBRANCH   9  10
BRANCH   9  19
ATOM     19  C   UNL     1      -0.811  -0.023  -0.133  1.00  0.00     0.119 A 
ATOM     20  C   UNL     1      -1.271   0.477  -1.349  1.00  0.00     0.056 A 
ATOM     21  N   UNL     1      -1.760  -0.760   0.491  1.00  0.00    -0.338 N 
ATOM     22  C   UNL     1      -2.562   0.009  -1.451  1.00  0.00     0.005 A 
ATOM     23  C   UNL     1      -2.826  -0.733  -0.327  1.00  0.00     0.083 A 
ATOM     24  C   UNL     1      -3.514   0.189  -2.452  1.00  0.00     0.010 A 
ATOM     25  C   UNL     1      -4.062  -1.347  -0.130  1.00  0.00     0.147 A 
ATOM     26  C   UNL     1      -4.772  -0.419  -2.280  1.00  0.00     0.004 A 
ATOM     27  C   UNL     1      -5.045  -1.183  -1.123  1.00  0.00     0.041 A 
ATOM     28  H   UNL     1      -1.675  -1.261   1.403  1.00  0.00     0.168 HD
ATOM     29  F   UNL     1      -4.314  -2.076   0.986  1.00  0.00    -0.205 F 
ENDBRANCH   9  19
ENDBRANCH   1   9
TORSDOF 4


