MODEL 1
REMARK VINA RESULT:     -10.3      0.000      0.000
REMARK SMILES N[NH2+]c1ccccc1-c1nc2ccccc2[n-]1
REMARK SMILES IDX 2 1 1 4 3 7 4 8 8 9 5 10 7 11 6 12 9 13 10 14 17 15 11 16
REMARK SMILES IDX 16 17 12 18 15 19 13 20 14 21
REMARK H PARENT 2 2 2 3 1 5 1 6
ROOT
ATOM      1  N   UNL     1      42.661 132.064  17.836  1.00  0.00    -0.239 N 
ATOM      2  H   UNL     1      43.213 132.525  17.076  1.00  0.00     0.376 HD
ATOM      3  H   UNL     1      42.219 131.207  17.427  1.00  0.00     0.376 HD
ENDROOT
BRANCH   1   4
ATOM      4  N   UNL     1      41.649 132.936  18.286  1.00  0.00    -0.178 NA
ATOM      5  H   UNL     1      41.035 132.404  18.946  1.00  0.00     0.183 HD
ATOM      6  H   UNL     1      42.094 133.701  18.848  1.00  0.00     0.183 HD
ENDBRANCH   1   4
BRANCH   1   7
ATOM      7  C   UNL     1      43.511 131.724  18.952  1.00  0.00     0.155 A 
ATOM      8  C   UNL     1      43.024 131.919  20.259  1.00  0.00     0.070 A 
ATOM      9  C   UNL     1      44.824 131.197  18.776  1.00  0.00     0.036 A 
ATOM     10  C   UNL     1      43.791 131.569  21.370  1.00  0.00     0.006 A 
ATOM     11  C   UNL     1      45.572 130.835  19.912  1.00  0.00     0.014 A 
ATOM     12  C   UNL     1      45.059 131.021  21.196  1.00  0.00     0.001 A 
BRANCH   9  13
ATOM     13  C   UNL     1      45.449 131.009  17.442  1.00  0.00    -0.045 A 
ATOM     14  N   UNL     1      46.004 129.827  17.057  1.00  0.00    -0.435 NA
ATOM     15  N   UNL     1      45.573 132.004  16.523  1.00  0.00    -0.435 NA
ATOM     16  C   UNL     1      46.478 130.105  15.834  1.00  0.00    -0.038 A 
ATOM     17  C   UNL     1      46.222 131.402  15.517  1.00  0.00    -0.038 A 
ATOM     18  C   UNL     1      47.150 129.251  14.964  1.00  0.00     0.004 A 
ATOM     19  C   UNL     1      46.614 131.957  14.300  1.00  0.00     0.004 A 
ATOM     20  C   UNL     1      47.562 129.775  13.724  1.00  0.00     0.000 A 
ATOM     21  C   UNL     1      47.295 131.123  13.393  1.00  0.00     0.000 A 
ENDBRANCH   9  13
ENDBRANCH   1   7
TORSDOF 3
ENDMDL
MODEL 2
REMARK VINA RESULT:     -10.2      0.084      1.421
REMARK SMILES N[NH2+]c1ccccc1-c1nc2ccccc2[n-]1
REMARK SMILES IDX 2 1 1 4 3 7 4 8 8 9 5 10 7 11 6 12 9 13 10 14 17 15 11 16
REMARK SMILES IDX 16 17 12 18 15 19 13 20 14 21
REMARK H PARENT 2 2 2 3 1 5 1 6
ROOT
ATOM      1  N   UNL     1      42.650 131.986  17.786  1.00  0.00    -0.239 N 
ATOM      2  H   UNL     1      43.225 132.403  17.018  1.00  0.00     0.376 HD
ATOM      3  H   UNL     1      42.208 131.114  17.409  1.00  0.00     0.376 HD
ENDROOT
BRANCH   1   4
ATOM      4  N   UNL     1      41.638 132.890  18.168  1.00  0.00    -0.178 NA
ATOM      5  H   UNL     1      40.955 132.962  17.377  1.00  0.00     0.183 HD
ATOM      6  H   UNL     1      41.112 132.479  18.976  1.00  0.00     0.183 HD
ENDBRANCH   1   4
BRANCH   1   7
ATOM      7  C   UNL     1      43.470 131.693  18.938  1.00  0.00     0.155 A 
ATOM      8  C   UNL     1      42.929 131.894  20.223  1.00  0.00     0.070 A 
ATOM      9  C   UNL     1      44.805 131.206  18.818  1.00  0.00     0.036 A 
ATOM     10  C   UNL     1      43.666 131.588  21.366  1.00  0.00     0.006 A 
ATOM     11  C   UNL     1      45.521 130.888  19.987  1.00  0.00     0.014 A 
ATOM     12  C   UNL     1      44.956 131.079  21.248  1.00  0.00     0.001 A 
BRANCH   9  13
ATOM     13  C   UNL     1      45.483 131.016  17.511  1.00  0.00    -0.045 A 
ATOM     14  N   UNL     1      45.557 132.005  16.578  1.00  0.00    -0.435 NA
ATOM     15  N   UNL     1      46.032 129.837  17.113  1.00  0.00    -0.435 NA
ATOM     16  C   UNL     1      46.197 131.408  15.563  1.00  0.00    -0.038 A 
ATOM     17  C   UNL     1      46.478 130.117  15.881  1.00  0.00    -0.038 A 
ATOM     18  C   UNL     1      46.547 131.959  14.332  1.00  0.00     0.004 A 
ATOM     19  C   UNL     1      47.137 129.264  14.997  1.00  0.00     0.004 A 
ATOM     20  C   UNL     1      47.215 131.128  13.412  1.00  0.00     0.000 A 
ATOM     21  C   UNL     1      47.509 129.786  13.744  1.00  0.00     0.000 A 
ENDBRANCH   9  13
ENDBRANCH   1   7
TORSDOF 3
ENDMDL
MODEL 3
REMARK VINA RESULT:      -9.5      1.578      2.677
REMARK SMILES N[NH2+]c1ccccc1-c1nc2ccccc2[n-]1
REMARK SMILES IDX 2 1 1 4 3 7 4 8 8 9 5 10 7 11 6 12 9 13 10 14 17 15 11 16
REMARK SMILES IDX 16 17 12 18 15 19 13 20 14 21
REMARK H PARENT 2 2 2 3 1 5 1 6
ROOT
ATOM      1  N   UNL     1      46.186 131.069  19.799  1.00  0.00    -0.239 N 
ATOM      2  H   UNL     1      46.756 130.829  18.955  1.00  0.00     0.376 HD
ATOM      3  H   UNL     1      46.647 131.885  20.267  1.00  0.00     0.376 HD
ENDROOT
BRANCH   1   4
ATOM      4  N   UNL     1      46.169 129.976  20.689  1.00  0.00    -0.178 NA
ATOM      5  H   UNL     1      45.816 130.318  21.613  1.00  0.00     0.183 HD
ATOM      6  H   UNL     1      45.469 129.277  20.345  1.00  0.00     0.183 HD
ENDBRANCH   1   4
BRANCH   1   7
ATOM      7  C   UNL     1      44.828 131.386  19.426  1.00  0.00     0.155 A 
ATOM      8  C   UNL     1      43.892 131.652  20.445  1.00  0.00     0.070 A 
ATOM      9  C   UNL     1      44.405 131.440  18.066  1.00  0.00     0.036 A 
ATOM     10  C   UNL     1      42.578 132.002  20.135  1.00  0.00     0.006 A 
ATOM     11  C   UNL     1      43.078 131.813  17.779  1.00  0.00     0.014 A 
ATOM     12  C   UNL     1      42.174 132.090  18.805  1.00  0.00     0.001 A 
BRANCH   9  13
ATOM     13  C   UNL     1      45.300 131.120  16.926  1.00  0.00    -0.045 A 
ATOM     14  N   UNL     1      45.580 132.020  15.943  1.00  0.00    -0.435 NA
ATOM     15  N   UNL     1      45.865 129.897  16.734  1.00  0.00    -0.435 NA
ATOM     16  C   UNL     1      46.368 131.321  15.115  1.00  0.00    -0.038 A 
ATOM     17  C   UNL     1      46.537 130.057  15.586  1.00  0.00    -0.038 A 
ATOM     18  C   UNL     1      46.956 131.752  13.929  1.00  0.00     0.004 A 
ATOM     19  C   UNL     1      47.311 129.114  14.911  1.00  0.00     0.004 A 
ATOM     20  C   UNL     1      47.747 130.828  13.219  1.00  0.00     0.000 A 
ATOM     21  C   UNL     1      47.922 129.513  13.708  1.00  0.00     0.000 A 
ENDBRANCH   9  13
ENDBRANCH   1   7
TORSDOF 3
ENDMDL
MODEL 4
REMARK VINA RESULT:      -9.4      1.508      2.227
REMARK SMILES N[NH2+]c1ccccc1-c1nc2ccccc2[n-]1
REMARK SMILES IDX 2 1 1 4 3 7 4 8 8 9 5 10 7 11 6 12 9 13 10 14 17 15 11 16
REMARK SMILES IDX 16 17 12 18 15 19 13 20 14 21
REMARK H PARENT 2 2 2 3 1 5 1 6
ROOT
ATOM      1  N   UNL     1      46.168 130.948  19.847  1.00  0.00    -0.239 N 
ATOM      2  H   UNL     1      46.223 129.925  20.061  1.00  0.00     0.376 HD
ATOM      3  H   UNL     1      46.802 131.132  19.033  1.00  0.00     0.376 HD
ENDROOT
BRANCH   1   4
ATOM      4  N   UNL     1      46.613 131.693  20.958  1.00  0.00    -0.178 NA
ATOM      5  H   UNL     1      47.310 132.395  20.616  1.00  0.00     0.183 HD
ATOM      6  H   UNL     1      45.803 132.240  21.337  1.00  0.00     0.183 HD
ENDBRANCH   1   4
BRANCH   1   7
ATOM      7  C   UNL     1      44.810 131.334  19.541  1.00  0.00     0.155 A 
ATOM      8  C   UNL     1      43.928 131.605  20.605  1.00  0.00     0.070 A 
ATOM      9  C   UNL     1      44.335 131.450  18.202  1.00  0.00     0.036 A 
ATOM     10  C   UNL     1      42.619 132.020  20.362  1.00  0.00     0.006 A 
ATOM     11  C   UNL     1      43.016 131.888  17.982  1.00  0.00     0.014 A 
ATOM     12  C   UNL     1      42.167 132.168  19.053  1.00  0.00     0.001 A 
BRANCH   9  13
ATOM     13  C   UNL     1      45.170 131.131  17.016  1.00  0.00    -0.045 A 
ATOM     14  N   UNL     1      45.725 129.903  16.825  1.00  0.00    -0.435 NA
ATOM     15  N   UNL     1      45.497 132.041  16.060  1.00  0.00    -0.435 NA
ATOM     16  C   UNL     1      46.414 130.061  15.687  1.00  0.00    -0.038 A 
ATOM     17  C   UNL     1      46.279 131.335  15.232  1.00  0.00    -0.038 A 
ATOM     18  C   UNL     1      47.184 129.115  15.015  1.00  0.00     0.004 A 
ATOM     19  C   UNL     1      46.900 131.772  14.063  1.00  0.00     0.004 A 
ATOM     20  C   UNL     1      47.827 129.519  13.829  1.00  0.00     0.000 A 
ATOM     21  C   UNL     1      47.686 130.843  13.356  1.00  0.00     0.000 A 
ENDBRANCH   9  13
ENDBRANCH   1   7
TORSDOF 3
ENDMDL
MODEL 5
REMARK VINA RESULT:      -9.2      1.025      1.722
REMARK SMILES N[NH2+]c1ccccc1-c1nc2ccccc2[n-]1
REMARK SMILES IDX 2 1 1 4 3 7 4 8 8 9 5 10 7 11 6 12 9 13 10 14 17 15 11 16
REMARK SMILES IDX 16 17 12 18 15 19 13 20 14 21
REMARK H PARENT 2 2 2 3 1 5 1 6
ROOT
ATOM      1  N   UNL     1      41.990 131.611  18.896  1.00  0.00    -0.239 N 
ATOM      2  H   UNL     1      42.274 131.023  18.079  1.00  0.00     0.376 HD
ATOM      3  H   UNL     1      41.090 131.220  19.266  1.00  0.00     0.376 HD
ENDROOT
BRANCH   1   4
ATOM      4  N   UNL     1      41.778 132.940  18.477  1.00  0.00    -0.178 NA
ATOM      5  H   UNL     1      40.983 133.331  19.035  1.00  0.00     0.183 HD
ATOM      6  H   UNL     1      42.623 133.506  18.727  1.00  0.00     0.183 HD
ENDBRANCH   1   4
BRANCH   1   7
ATOM      7  C   UNL     1      43.013 131.602  19.914  1.00  0.00     0.155 A 
ATOM      8  C   UNL     1      42.638 131.825  21.253  1.00  0.00     0.070 A 
ATOM      9  C   UNL     1      44.387 131.374  19.610  1.00  0.00     0.036 A 
ATOM     10  C   UNL     1      43.583 131.787  22.278  1.00  0.00     0.006 A 
ATOM     11  C   UNL     1      45.319 131.323  20.664  1.00  0.00     0.014 A 
ATOM     12  C   UNL     1      44.920 131.529  21.984  1.00  0.00     0.001 A 
BRANCH   9  13
ATOM     13  C   UNL     1      44.890 131.187  18.226  1.00  0.00    -0.045 A 
ATOM     14  N   UNL     1      44.329 131.813  17.155  1.00  0.00    -0.435 NA
ATOM     15  N   UNL     1      45.904 130.339  17.902  1.00  0.00    -0.435 NA
ATOM     16  C   UNL     1      45.043 131.339  16.125  1.00  0.00    -0.038 A 
ATOM     17  C   UNL     1      45.980 130.461  16.570  1.00  0.00    -0.038 A 
ATOM     18  C   UNL     1      44.900 131.646  14.774  1.00  0.00     0.004 A 
ATOM     19  C   UNL     1      46.858 129.814  15.702  1.00  0.00     0.004 A 
ATOM     20  C   UNL     1      45.770 131.013  13.866  1.00  0.00     0.000 A 
ATOM     21  C   UNL     1      46.745 130.099  14.328  1.00  0.00     0.000 A 
ENDBRANCH   9  13
ENDBRANCH   1   7
TORSDOF 3
ENDMDL
MODEL 6
REMARK VINA RESULT:      -8.7      1.275      5.637
REMARK SMILES N[NH2+]c1ccccc1-c1nc2ccccc2[n-]1
REMARK SMILES IDX 2 1 1 4 3 7 4 8 8 9 5 10 7 11 6 12 9 13 10 14 17 15 11 16
REMARK SMILES IDX 16 17 12 18 15 19 13 20 14 21
REMARK H PARENT 2 2 2 3 1 5 1 6
ROOT
ATOM      1  N   UNL     1      44.474 132.314  14.517  1.00  0.00    -0.239 N 
ATOM      2  H   UNL     1      44.340 132.813  15.426  1.00  0.00     0.376 HD
ATOM      3  H   UNL     1      44.690 133.038  13.791  1.00  0.00     0.376 HD
ENDROOT
BRANCH   1   4
ATOM      4  N   UNL     1      43.287 131.642  14.162  1.00  0.00    -0.178 NA
ATOM      5  H   UNL     1      43.353 131.383  13.150  1.00  0.00     0.183 HD
ATOM      6  H   UNL     1      43.243 130.741  14.695  1.00  0.00     0.183 HD
ENDBRANCH   1   4
BRANCH   1   7
ATOM      7  C   UNL     1      45.543 131.348  14.617  1.00  0.00     0.155 A 
ATOM      8  C   UNL     1      46.220 130.965  13.442  1.00  0.00     0.070 A 
ATOM      9  C   UNL     1      45.936 130.773  15.861  1.00  0.00     0.036 A 
ATOM     10  C   UNL     1      47.285 130.066  13.491  1.00  0.00     0.006 A 
ATOM     11  C   UNL     1      47.026 129.882  15.886  1.00  0.00     0.014 A 
ATOM     12  C   UNL     1      47.692 129.532  14.711  1.00  0.00     0.001 A 
BRANCH   9  13
ATOM     13  C   UNL     1      45.248 131.069  17.143  1.00  0.00    -0.045 A 
ATOM     14  N   UNL     1      45.826 130.832  18.352  1.00  0.00    -0.435 NA
ATOM     15  N   UNL     1      43.975 131.541  17.221  1.00  0.00    -0.435 NA
ATOM     16  C   UNL     1      44.867 131.191  19.216  1.00  0.00    -0.038 A 
ATOM     17  C   UNL     1      43.764 131.612  18.543  1.00  0.00    -0.038 A 
ATOM     18  C   UNL     1      44.915 131.157  20.608  1.00  0.00     0.004 A 
ATOM     19  C   UNL     1      42.613 132.038  19.202  1.00  0.00     0.004 A 
ATOM     20  C   UNL     1      43.770 131.581  21.310  1.00  0.00     0.000 A 
ATOM     21  C   UNL     1      42.623 132.020  20.610  1.00  0.00     0.000 A 
ENDBRANCH   9  13
ENDBRANCH   1   7
TORSDOF 3
ENDMDL
MODEL 7
REMARK VINA RESULT:      -8.7      1.353      5.890
REMARK SMILES N[NH2+]c1ccccc1-c1nc2ccccc2[n-]1
REMARK SMILES IDX 2 1 1 4 3 7 4 8 8 9 5 10 7 11 6 12 9 13 10 14 17 15 11 16
REMARK SMILES IDX 16 17 12 18 15 19 13 20 14 21
REMARK H PARENT 2 2 2 3 1 5 1 6
ROOT
ATOM      1  N   UNL     1      45.870 128.420  15.669  1.00  0.00    -0.239 N 
ATOM      2  H   UNL     1      46.361 127.539  15.391  1.00  0.00     0.376 HD
ATOM      3  H   UNL     1      45.962 128.515  16.709  1.00  0.00     0.376 HD
ENDROOT
BRANCH   1   4
ATOM      4  N   UNL     1      44.504 128.331  15.333  1.00  0.00    -0.178 NA
ATOM      5  H   UNL     1      43.975 128.985  15.957  1.00  0.00     0.183 HD
ATOM      6  H   UNL     1      44.378 128.688  14.356  1.00  0.00     0.183 HD
ENDBRANCH   1   4
BRANCH   1   7
ATOM      7  C   UNL     1      46.442 129.561  14.995  1.00  0.00     0.155 A 
ATOM      8  C   UNL     1      47.340 129.339  13.932  1.00  0.00     0.070 A 
ATOM      9  C   UNL     1      46.128 130.901  15.366  1.00  0.00     0.036 A 
ATOM     10  C   UNL     1      47.888 130.407  13.223  1.00  0.00     0.006 A 
ATOM     11  C   UNL     1      46.680 131.962  14.623  1.00  0.00     0.014 A 
ATOM     12  C   UNL     1      47.553 131.715  13.563  1.00  0.00     0.001 A 
BRANCH   9  13
ATOM     13  C   UNL     1      45.240 131.239  16.507  1.00  0.00    -0.045 A 
ATOM     14  N   UNL     1      45.669 131.211  17.798  1.00  0.00    -0.435 NA
ATOM     15  N   UNL     1      43.921 131.543  16.369  1.00  0.00    -0.435 NA
ATOM     16  C   UNL     1      44.565 131.530  18.487  1.00  0.00    -0.038 A 
ATOM     17  C   UNL     1      43.524 131.727  17.635  1.00  0.00    -0.038 A 
ATOM     18  C   UNL     1      44.423 131.652  19.867  1.00  0.00     0.004 A 
ATOM     19  C   UNL     1      42.250 132.065  18.090  1.00  0.00     0.004 A 
ATOM     20  C   UNL     1      43.152 131.994  20.365  1.00  0.00     0.000 A 
ATOM     21  C   UNL     1      42.069 132.199  19.480  1.00  0.00     0.000 A 
ENDBRANCH   9  13
ENDBRANCH   1   7
TORSDOF 3
ENDMDL
MODEL 8
REMARK VINA RESULT:      -8.7      1.287      5.744
REMARK SMILES N[NH2+]c1ccccc1-c1nc2ccccc2[n-]1
REMARK SMILES IDX 2 1 1 4 3 7 4 8 8 9 5 10 7 11 6 12 9 13 10 14 17 15 11 16
REMARK SMILES IDX 16 17 12 18 15 19 13 20 14 21
REMARK H PARENT 2 2 2 3 1 5 1 6
ROOT
ATOM      1  N   UNL     1      44.350 132.294  14.691  1.00  0.00    -0.239 N 
ATOM      2  H   UNL     1      44.087 132.620  15.649  1.00  0.00     0.376 HD
ATOM      3  H   UNL     1      44.619 133.141  14.135  1.00  0.00     0.376 HD
ENDROOT
BRANCH   1   4
ATOM      4  N   UNL     1      43.243 131.672  14.078  1.00  0.00    -0.178 NA
ATOM      5  H   UNL     1      43.605 131.035  13.330  1.00  0.00     0.183 HD
ATOM      6  H   UNL     1      42.772 131.061  14.786  1.00  0.00     0.183 HD
ENDBRANCH   1   4
BRANCH   1   7
ATOM      7  C   UNL     1      45.440 131.349  14.751  1.00  0.00     0.155 A 
ATOM      8  C   UNL     1      46.110 131.012  13.559  1.00  0.00     0.070 A 
ATOM      9  C   UNL     1      45.860 130.750  15.975  1.00  0.00     0.036 A 
ATOM     10  C   UNL     1      47.194 130.135  13.572  1.00  0.00     0.006 A 
ATOM     11  C   UNL     1      46.968 129.882  15.963  1.00  0.00     0.014 A 
ATOM     12  C   UNL     1      47.627 129.577  14.772  1.00  0.00     0.001 A 
BRANCH   9  13
ATOM     13  C   UNL     1      45.182 130.996  17.272  1.00  0.00    -0.045 A 
ATOM     14  N   UNL     1      43.950 131.571  17.354  1.00  0.00    -0.435 NA
ATOM     15  N   UNL     1      45.748 130.728  18.480  1.00  0.00    -0.435 NA
ATOM     16  C   UNL     1      43.743 131.645  18.676  1.00  0.00    -0.038 A 
ATOM     17  C   UNL     1      44.814 131.143  19.346  1.00  0.00    -0.038 A 
ATOM     18  C   UNL     1      42.629 132.153  19.338  1.00  0.00     0.004 A 
ATOM     19  C   UNL     1      44.863 131.105  20.738  1.00  0.00     0.004 A 
ATOM     20  C   UNL     1      42.640 132.130  20.746  1.00  0.00     0.000 A 
ATOM     21  C   UNL     1      43.754 131.608  21.444  1.00  0.00     0.000 A 
ENDBRANCH   9  13
ENDBRANCH   1   7
TORSDOF 3
ENDMDL
MODEL 9
REMARK VINA RESULT:      -8.6      1.448      2.715
REMARK SMILES N[NH2+]c1ccccc1-c1nc2ccccc2[n-]1
REMARK SMILES IDX 2 1 1 4 3 7 4 8 8 9 5 10 7 11 6 12 9 13 10 14 17 15 11 16
REMARK SMILES IDX 16 17 12 18 15 19 13 20 14 21
REMARK H PARENT 2 2 2 3 1 5 1 6
ROOT
ATOM      1  N   UNL     1      46.176 130.700  20.518  1.00  0.00    -0.239 N 
ATOM      2  H   UNL     1      46.750 130.901  19.667  1.00  0.00     0.376 HD
ATOM      3  H   UNL     1      46.671 131.127  21.338  1.00  0.00     0.376 HD
ENDROOT
BRANCH   1   4
ATOM      4  N   UNL     1      46.080 129.307  20.712  1.00  0.00    -0.178 NA
ATOM      5  H   UNL     1      46.771 129.036  21.451  1.00  0.00     0.183 HD
ATOM      6  H   UNL     1      45.131 129.089  21.099  1.00  0.00     0.183 HD
ENDBRANCH   1   4
BRANCH   1   7
ATOM      7  C   UNL     1      44.846 131.243  20.379  1.00  0.00     0.155 A 
ATOM      8  C   UNL     1      44.094 131.498  21.542  1.00  0.00     0.070 A 
ATOM      9  C   UNL     1      44.270 131.530  19.106  1.00  0.00     0.036 A 
ATOM     10  C   UNL     1      42.819 132.059  21.462  1.00  0.00     0.006 A 
ATOM     11  C   UNL     1      42.990 132.112  19.053  1.00  0.00     0.014 A 
ATOM     12  C   UNL     1      42.272 132.372  20.220  1.00  0.00     0.001 A 
BRANCH   9  13
ATOM     13  C   UNL     1      44.959 131.243  17.823  1.00  0.00    -0.045 A 
ATOM     14  N   UNL     1      44.721 131.960  16.691  1.00  0.00    -0.435 NA
ATOM     15  N   UNL     1      45.834 130.214  17.652  1.00  0.00    -0.435 NA
ATOM     16  C   UNL     1      45.499 131.353  15.784  1.00  0.00    -0.038 A 
ATOM     17  C   UNL     1      46.161 130.313  16.356  1.00  0.00    -0.038 A 
ATOM     18  C   UNL     1      45.652 131.674  14.437  1.00  0.00     0.004 A 
ATOM     19  C   UNL     1      47.036 129.505  15.633  1.00  0.00     0.004 A 
ATOM     20  C   UNL     1      46.529 130.882  13.673  1.00  0.00     0.000 A 
ATOM     21  C   UNL     1      47.218 129.800  14.268  1.00  0.00     0.000 A 
ENDBRANCH   9  13
ENDBRANCH   1   7
TORSDOF 3
ENDMDL


