REMARK SMILES C=C1CC[C@@H](c2ccc(C)c(F)c2)[C@@H]2[NH2+]C=C[C@H]12
REMARK SMILES IDX 1 1 2 2 3 3 4 4 5 5 14 6 15 7 16 8 17 9 18 10 6 13 7 14
REMARK SMILES IDX 13 15 8 16 11 17 9 18 12 19 10 20
REMARK H PARENT 15 11 15 12
ROOT
ATOM      1  C   UNL     1       0.212   2.067   4.089  1.00  0.00     0.008 C 
ATOM      2  C   UNL     1       0.262   1.490   2.877  1.00  0.00    -0.064 C 
ATOM      3  C   UNL     1       1.363   0.489   2.604  1.00  0.00     0.032 C 
ATOM      4  C   UNL     1       1.069  -0.393   1.394  1.00  0.00     0.019 C 
ATOM      5  C   UNL     1       0.661   0.465   0.193  1.00  0.00     0.079 C 
ATOM      6  C   UNL     1      -0.708   1.147   0.458  1.00  0.00     0.205 C 
ATOM      7  N   UNL     1      -0.986   2.187  -0.558  1.00  0.00    -0.317 N 
ATOM      8  C   UNL     1      -0.837   3.422   0.143  1.00  0.00     0.217 C 
ATOM      9  C   UNL     1      -0.705   3.293   1.449  1.00  0.00     0.046 C 
ATOM     10  C   UNL     1      -0.787   1.861   1.835  1.00  0.00     0.102 C 
ATOM     11  H   UNL     1      -0.327   2.170  -1.370  1.00  0.00     0.352 HD
ATOM     12  H   UNL     1      -1.973   2.112  -0.898  1.00  0.00     0.352 HD
ENDROOT
BRANCH   5  13
ATOM     13  C   UNL     1       0.633  -0.371  -1.077  1.00  0.00    -0.036 A 
ATOM     14  C   UNL     1       1.464  -0.032  -2.159  1.00  0.00     0.005 A 
ATOM     15  C   UNL     1      -0.214  -1.489  -1.196  1.00  0.00     0.043 A 
ATOM     16  C   UNL     1       1.446  -0.787  -3.334  1.00  0.00     0.007 A 
ATOM     17  C   UNL     1      -0.233  -2.246  -2.372  1.00  0.00     0.126 A 
ATOM     18  C   UNL     1       0.590  -1.892  -3.454  1.00  0.00    -0.015 A 
ATOM     19  F   UNL     1      -1.052  -3.325  -2.454  1.00  0.00    -0.207 F 
ATOM     20  C   UNL     1       0.589  -2.720  -4.706  1.00  0.00     0.047 C 
ENDBRANCH   5  13
TORSDOF 1


