REMARK SMILES CC(=O)c1ccc(-c2[nH+]ccc(C)c2F)c2c[n-]nc12
REMARK SMILES IDX 4 1 5 2 6 3 7 4 16 5 17 6 18 7 19 8 20 9 2 10 1 11 3 12 8 13
REMARK SMILES IDX 9 14 14 15 10 16 12 17 11 18 15 20 13 21
REMARK H PARENT 9 19
ROOT
ATOM      1  C   UNL     1      -2.938   0.178  -0.026  1.00  0.00     0.042 A 
ATOM      2  C   UNL     1      -2.195  -0.481  -1.037  1.00  0.00     0.015 A 
ATOM      3  C   UNL     1      -0.783  -0.457  -1.036  1.00  0.00     0.016 A 
ATOM      4  C   UNL     1      -0.072   0.228  -0.028  1.00  0.00     0.057 A 
ATOM      5  C   UNL     1      -0.829   0.872   0.955  1.00  0.00    -0.008 A 
ATOM      6  C   UNL     1      -0.476   1.587   2.078  1.00  0.00    -0.113 A 
ATOM      7  N   UNL     1      -1.609   1.972   2.708  1.00  0.00    -0.581 NA
ATOM      8  N   UNL     1      -2.660   1.523   2.029  1.00  0.00    -0.367 NA
ATOM      9  C   UNL     1      -2.197   0.848   0.961  1.00  0.00     0.058 A 
ENDROOT
BRANCH   1  10
ATOM     10  C   UNL     1      -4.426   0.157  -0.011  1.00  0.00     0.161 C 
ATOM     11  C   UNL     1      -5.215  -0.575  -1.055  1.00  0.00     0.093 C 
ATOM     12  O   UNL     1      -5.056   0.768   0.894  1.00  0.00    -0.294 OA
ENDBRANCH   1  10
BRANCH   4  13
ATOM     13  C   UNL     1       1.408   0.273  -0.032  1.00  0.00     0.247 A 
ATOM     14  N   UNL     1       2.053   1.473   0.071  1.00  0.00    -0.209 N 
ATOM     15  C   UNL     1       2.160  -0.910  -0.144  1.00  0.00     0.198 A 
ATOM     16  C   UNL     1       3.410   1.556   0.077  1.00  0.00     0.307 A 
ATOM     17  C   UNL     1       3.562  -0.843  -0.155  1.00  0.00    -0.002 A 
ATOM     18  C   UNL     1       4.188   0.403  -0.031  1.00  0.00     0.077 A 
ATOM     19  H   UNL     1       1.502   2.359   0.134  1.00  0.00     0.453 HD
ATOM     20  F   UNL     1       1.538  -2.117  -0.211  1.00  0.00    -0.199 F 
ATOM     21  C   UNL     1       4.380  -2.099  -0.240  1.00  0.00     0.048 C 
ENDBRANCH   4  13
TORSDOF 2


