REMARK SMILES N#Cc1cnc(N(c2cn3ccccc3n2)c2cc3ccccc3[n-]2)cn1
REMARK SMILES IDX 3 1 4 2 5 3 6 4 26 5 27 6 2 7 1 8 7 9 8 10 9 11 16 12 10 13
REMARK SMILES IDX 15 14 11 15 14 16 12 17 13 18 17 19 18 20 25 21 19 22 24 23
REMARK SMILES IDX 20 24 23 25 21 26 22 27
REMARK H PARENT
ROOT
ATOM      1  C   UNL     1       1.166  -2.983   4.135  1.00  0.00     0.158 A 
ATOM      2  C   UNL     1       1.489  -3.511   2.882  1.00  0.00     0.151 A 
ATOM      3  N   UNL     1       1.221  -2.786   1.764  1.00  0.00    -0.256 NA
ATOM      4  C   UNL     1       0.641  -1.556   1.833  1.00  0.00     0.075 A 
ATOM      5  C   UNL     1       0.324  -1.028   3.096  1.00  0.00     0.137 A 
ATOM      6  N   UNL     1       0.593  -1.754   4.213  1.00  0.00    -0.242 NA
ENDROOT
BRANCH   1   7
ATOM      7  C   UNL     1       1.437  -3.725   5.335  1.00  0.00     0.121 C 
ATOM      8  N   UNL     1       1.655  -4.322   6.302  1.00  0.00    -0.191 NA
ENDBRANCH   1   7
BRANCH   4   9
ATOM      9  N   UNL     1       0.377  -0.813   0.626  1.00  0.00    -0.384 N 
BRANCH   9  10
ATOM     10  C   UNL     1      -0.861  -0.089   0.485  1.00  0.00     0.075 A 
ATOM     11  C   UNL     1      -1.061   1.027  -0.317  1.00  0.00     0.117 A 
ATOM     12  N   UNL     1      -1.996  -0.407   1.156  1.00  0.00    -0.233 NA
ATOM     13  N   UNL     1      -2.336   1.397  -0.143  1.00  0.00    -0.307 N 
ATOM     14  C   UNL     1      -2.869   0.530   0.735  1.00  0.00     0.136 A 
ATOM     15  C   UNL     1      -3.027   2.428  -0.693  1.00  0.00     0.093 A 
ATOM     16  C   UNL     1      -4.198   0.646   1.137  1.00  0.00     0.048 A 
ATOM     17  C   UNL     1      -4.371   2.593  -0.326  1.00  0.00     0.018 A 
ATOM     18  C   UNL     1      -4.954   1.697   0.592  1.00  0.00     0.005 A 
ENDBRANCH   9  10
BRANCH   9  19
ATOM     19  C   UNL     1       1.314  -0.869  -0.468  1.00  0.00    -0.051 A 
ATOM     20  C   UNL     1       2.685  -1.080  -0.333  1.00  0.00     0.008 A 
ATOM     21  N   UNL     1       0.947  -0.719  -1.766  1.00  0.00    -0.435 NA
ATOM     22  C   UNL     1       3.165  -1.055  -1.618  1.00  0.00    -0.023 A 
ATOM     23  C   UNL     1       2.099  -0.837  -2.451  1.00  0.00    -0.034 A 
ATOM     24  C   UNL     1       4.463  -1.206  -2.104  1.00  0.00     0.008 A 
ATOM     25  C   UNL     1       2.259  -0.756  -3.833  1.00  0.00     0.004 A 
ATOM     26  C   UNL     1       4.654  -1.129  -3.495  1.00  0.00     0.001 A 
ATOM     27  C   UNL     1       3.557  -0.905  -4.356  1.00  0.00     0.000 A 
ENDBRANCH   9  19
ENDBRANCH   4   9
TORSDOF 4


