MODEL 1
REMARK VINA RESULT:      -8.4      0.000      0.000
REMARK SMILES Oc1ccc(/N=c2\ccc3ccc(-c4cccnc4F)[nH]c-3c2F)c(F)c1
REMARK SMILES IDX 6 1 5 2 2 3 3 4 27 5 4 6 25 7 26 8 1 9 7 11 8 12 23 13 9 14
REMARK SMILES IDX 22 15 10 16 21 17 11 18 13 19 12 20 24 21 14 23 19 24 15 25
REMARK SMILES IDX 18 26 16 27 17 28 20 29
REMARK H PARENT 1 10 21 22
ROOT
ATOM      1  N   UNL     1      44.740 129.672  22.783  1.00  0.00    -0.243 NA
ENDROOT
BRANCH   1   2
ATOM      2  C   UNL     1      44.241 128.419  23.276  1.00  0.00     0.100 A 
ATOM      3  C   UNL     1      43.172 125.983  24.173  1.00  0.00     0.118 A 
ATOM      4  C   UNL     1      42.515 127.188  24.457  1.00  0.00     0.048 A 
ATOM      5  C   UNL     1      44.352 125.995  23.425  1.00  0.00     0.087 A 
ATOM      6  C   UNL     1      43.042 128.399  23.999  1.00  0.00     0.035 A 
ATOM      7  C   UNL     1      44.883 127.206  22.965  1.00  0.00     0.152 A 
ATOM      8  F   UNL     1      46.003 127.195  22.200  1.00  0.00    -0.204 F 
BRANCH   3   9
ATOM      9  O   UNL     1      42.655 124.770  24.625  1.00  0.00    -0.508 OA
ATOM     10  H   UNL     1      43.260 124.025  24.952  1.00  0.00     0.293 HD
ENDBRANCH   3   9
ENDBRANCH   1   2
BRANCH   1  11
ATOM     11  C   UNL     1      44.414 130.265  21.666  1.00  0.00     0.102 A 
ATOM     12  C   UNL     1      43.281 131.108  21.566  1.00  0.00     0.032 A 
ATOM     13  C   UNL     1      45.202 130.017  20.529  1.00  0.00     0.172 A 
ATOM     14  C   UNL     1      42.942 131.729  20.362  1.00  0.00     0.013 A 
ATOM     15  C   UNL     1      44.892 130.622  19.302  1.00  0.00     0.084 A 
ATOM     16  C   UNL     1      43.718 131.516  19.222  1.00  0.00     0.001 A 
ATOM     17  N   UNL     1      45.645 130.408  18.185  1.00  0.00    -0.352 N 
ATOM     18  C   UNL     1      43.418 132.111  17.998  1.00  0.00     0.012 A 
ATOM     19  C   UNL     1      45.343 131.006  16.993  1.00  0.00     0.050 A 
ATOM     20  C   UNL     1      44.225 131.856  16.889  1.00  0.00     0.027 A 
ATOM     21  F   UNL     1      46.277 129.190  20.625  1.00  0.00    -0.202 F 
ATOM     22  H   UNL     1      46.484 129.787  18.243  1.00  0.00     0.167 HD
BRANCH  19  23
ATOM     23  C   UNL     1      46.180 130.734  15.799  1.00  0.00     0.053 A 
ATOM     24  C   UNL     1      46.565 131.763  14.918  1.00  0.00     0.222 A 
ATOM     25  C   UNL     1      46.616 129.427  15.528  1.00  0.00     0.016 A 
ATOM     26  N   UNL     1      47.333 131.482  13.833  1.00  0.00    -0.228 NA
ATOM     27  C   UNL     1      47.401 129.167  14.405  1.00  0.00     0.021 A 
ATOM     28  C   UNL     1      47.751 130.218  13.557  1.00  0.00     0.114 A 
ATOM     29  F   UNL     1      46.210 133.051  15.157  1.00  0.00    -0.184 F 
ENDBRANCH  19  23
ENDBRANCH   1  11
TORSDOF 4
ENDMDL
MODEL 2
REMARK VINA RESULT:      -7.8      1.120      1.359
REMARK SMILES Oc1ccc(/N=c2\ccc3ccc(-c4cccnc4F)[nH]c-3c2F)c(F)c1
REMARK SMILES IDX 6 1 5 2 2 3 3 4 27 5 4 6 25 7 26 8 1 9 7 11 8 12 23 13 9 14
REMARK SMILES IDX 22 15 10 16 21 17 11 18 13 19 12 20 24 21 14 23 19 24 15 25
REMARK SMILES IDX 18 26 16 27 17 28 20 29
REMARK H PARENT 1 10 21 22
ROOT
ATOM      1  N   UNL     1      44.444 130.076  22.949  1.00  0.00    -0.243 NA
ENDROOT
BRANCH   1   2
ATOM      2  C   UNL     1      44.161 128.742  23.399  1.00  0.00     0.100 A 
ATOM      3  C   UNL     1      43.510 126.135  24.214  1.00  0.00     0.118 A 
ATOM      4  C   UNL     1      42.688 127.213  24.573  1.00  0.00     0.048 A 
ATOM      5  C   UNL     1      44.646 126.360  23.431  1.00  0.00     0.087 A 
ATOM      6  C   UNL     1      43.007 128.508  24.156  1.00  0.00     0.035 A 
ATOM      7  C   UNL     1      44.969 127.656  23.012  1.00  0.00     0.152 A 
ATOM      8  F   UNL     1      46.048 127.849  22.214  1.00  0.00    -0.204 F 
BRANCH   3   9
ATOM      9  O   UNL     1      43.202 124.840  24.625  1.00  0.00    -0.508 OA
ATOM     10  H   UNL     1      43.203 124.063  23.974  1.00  0.00     0.293 HD
ENDBRANCH   3   9
ENDBRANCH   1   2
BRANCH   1  11
ATOM     11  C   UNL     1      44.104 130.612  21.808  1.00  0.00     0.102 A 
ATOM     12  C   UNL     1      42.952 131.423  21.672  1.00  0.00     0.032 A 
ATOM     13  C   UNL     1      44.897 130.333  20.681  1.00  0.00     0.172 A 
ATOM     14  C   UNL     1      42.597 131.982  20.443  1.00  0.00     0.013 A 
ATOM     15  C   UNL     1      44.572 130.875  19.429  1.00  0.00     0.084 A 
ATOM     16  C   UNL     1      43.377 131.738  19.312  1.00  0.00     0.001 A 
ATOM     17  N   UNL     1      45.329 130.631  18.322  1.00  0.00    -0.352 N 
ATOM     18  C   UNL     1      43.063 132.271  18.063  1.00  0.00     0.012 A 
ATOM     19  C   UNL     1      45.012 131.168  17.105  1.00  0.00     0.050 A 
ATOM     20  C   UNL     1      43.875 131.986  16.966  1.00  0.00     0.027 A 
ATOM     21  F   UNL     1      45.991 129.537  20.812  1.00  0.00    -0.202 F 
ATOM     22  H   UNL     1      46.182 130.033  18.406  1.00  0.00     0.167 HD
BRANCH  19  23
ATOM     23  C   UNL     1      45.855 130.864  15.923  1.00  0.00     0.053 A 
ATOM     24  C   UNL     1      46.139 129.538  15.541  1.00  0.00     0.222 A 
ATOM     25  C   UNL     1      46.386 131.909  15.150  1.00  0.00     0.016 A 
ATOM     26  N   UNL     1      46.916 129.293  14.453  1.00  0.00    -0.228 NA
ATOM     27  C   UNL     1      47.182 131.626  14.040  1.00  0.00     0.021 A 
ATOM     28  C   UNL     1      47.442 130.297  13.704  1.00  0.00     0.114 A 
ATOM     29  F   UNL     1      45.615 128.490  16.225  1.00  0.00    -0.184 F 
ENDBRANCH  19  23
ENDBRANCH   1  11
TORSDOF 4
ENDMDL
MODEL 3
REMARK VINA RESULT:      -7.4      0.951      1.074
REMARK SMILES Oc1ccc(/N=c2\ccc3ccc(-c4cccnc4F)[nH]c-3c2F)c(F)c1
REMARK SMILES IDX 6 1 5 2 2 3 3 4 27 5 4 6 25 7 26 8 1 9 7 11 8 12 23 13 9 14
REMARK SMILES IDX 22 15 10 16 21 17 11 18 13 19 12 20 24 21 14 23 19 24 15 25
REMARK SMILES IDX 18 26 16 27 17 28 20 29
REMARK H PARENT 1 10 21 22
ROOT
ATOM      1  N   UNL     1      44.988 128.769  23.438  1.00  0.00    -0.243 NA
ENDROOT
BRANCH   1   2
ATOM      2  C   UNL     1      44.419 127.473  23.675  1.00  0.00     0.100 A 
ATOM      3  C   UNL     1      43.250 124.944  24.033  1.00  0.00     0.118 A 
ATOM      4  C   UNL     1      42.446 126.092  23.980  1.00  0.00     0.048 A 
ATOM      5  C   UNL     1      44.635 125.060  23.887  1.00  0.00     0.087 A 
ATOM      6  C   UNL     1      43.029 127.349  23.789  1.00  0.00     0.035 A 
ATOM      7  C   UNL     1      45.222 126.316  23.696  1.00  0.00     0.152 A 
ATOM      8  F   UNL     1      46.562 126.405  23.508  1.00  0.00    -0.204 F 
BRANCH   3   9
ATOM      9  O   UNL     1      42.680 123.687  24.224  1.00  0.00    -0.508 OA
ATOM     10  H   UNL     1      42.094 123.487  25.025  1.00  0.00     0.293 HD
ENDBRANCH   3   9
ENDBRANCH   1   2
BRANCH   1  11
ATOM     11  C   UNL     1      44.681 129.603  22.482  1.00  0.00     0.102 A 
ATOM     12  C   UNL     1      43.739 130.644  22.667  1.00  0.00     0.032 A 
ATOM     13  C   UNL     1      45.283 129.423  21.225  1.00  0.00     0.172 A 
ATOM     14  C   UNL     1      43.415 131.523  21.631  1.00  0.00     0.013 A 
ATOM     15  C   UNL     1      44.982 130.285  20.160  1.00  0.00     0.084 A 
ATOM     16  C   UNL     1      44.013 131.379  20.379  1.00  0.00     0.001 A 
ATOM     17  N   UNL     1      45.559 130.140  18.934  1.00  0.00    -0.352 N 
ATOM     18  C   UNL     1      43.720 132.229  19.314  1.00  0.00     0.012 A 
ATOM     19  C   UNL     1      45.268 130.988  17.900  1.00  0.00     0.050 A 
ATOM     20  C   UNL     1      44.343 132.033  18.082  1.00  0.00     0.027 A 
ATOM     21  F   UNL     1      46.171 128.409  21.046  1.00  0.00    -0.202 F 
ATOM     22  H   UNL     1      46.256 129.375  18.781  1.00  0.00     0.167 HD
BRANCH  19  23
ATOM     23  C   UNL     1      45.909 130.785  16.578  1.00  0.00     0.053 A 
ATOM     24  C   UNL     1      46.160 131.864  15.708  1.00  0.00     0.222 A 
ATOM     25  C   UNL     1      46.288 129.497  16.170  1.00  0.00     0.016 A 
ATOM     26  N   UNL     1      46.748 131.645  14.502  1.00  0.00    -0.228 NA
ATOM     27  C   UNL     1      46.888 129.302  14.926  1.00  0.00     0.021 A 
ATOM     28  C   UNL     1      47.110 130.401  14.094  1.00  0.00     0.114 A 
ATOM     29  F   UNL     1      45.855 133.135  16.070  1.00  0.00    -0.184 F 
ENDBRANCH  19  23
ENDBRANCH   1  11
TORSDOF 4
ENDMDL
MODEL 4
REMARK VINA RESULT:      -6.4      1.508      1.920
REMARK SMILES Oc1ccc(/N=c2\ccc3ccc(-c4cccnc4F)[nH]c-3c2F)c(F)c1
REMARK SMILES IDX 6 1 5 2 2 3 3 4 27 5 4 6 25 7 26 8 1 9 7 11 8 12 23 13 9 14
REMARK SMILES IDX 22 15 10 16 21 17 11 18 13 19 12 20 24 21 14 23 19 24 15 25
REMARK SMILES IDX 18 26 16 27 17 28 20 29
REMARK H PARENT 1 10 21 22
ROOT
ATOM      1  N   UNL     1      44.675 130.846  21.834  1.00  0.00    -0.243 NA
ENDROOT
BRANCH   1   2
ATOM      2  C   UNL     1      44.757 129.577  22.499  1.00  0.00     0.100 A 
ATOM      3  C   UNL     1      45.035 127.093  23.778  1.00  0.00     0.118 A 
ATOM      4  C   UNL     1      45.284 127.210  22.403  1.00  0.00     0.048 A 
ATOM      5  C   UNL     1      44.668 128.222  24.516  1.00  0.00     0.087 A 
ATOM      6  C   UNL     1      45.157 128.450  21.770  1.00  0.00     0.035 A 
ATOM      7  C   UNL     1      44.539 129.465  23.885  1.00  0.00     0.152 A 
ATOM      8  F   UNL     1      44.228 130.559  24.624  1.00  0.00    -0.204 F 
BRANCH   3   9
ATOM      9  O   UNL     1      45.158 125.862  24.420  1.00  0.00    -0.508 OA
ATOM     10  H   UNL     1      45.784 125.734  25.206  1.00  0.00     0.293 HD
ENDBRANCH   3   9
ENDBRANCH   1   2
BRANCH   1  11
ATOM     11  C   UNL     1      44.358 131.064  20.586  1.00  0.00     0.102 A 
ATOM     12  C   UNL     1      43.092 131.574  20.209  1.00  0.00     0.032 A 
ATOM     13  C   UNL     1      45.301 130.739  19.596  1.00  0.00     0.172 A 
ATOM     14  C   UNL     1      42.766 131.793  18.869  1.00  0.00     0.013 A 
ATOM     15  C   UNL     1      45.010 130.944  18.239  1.00  0.00     0.084 A 
ATOM     16  C   UNL     1      43.691 131.498  17.867  1.00  0.00     0.001 A 
ATOM     17  N   UNL     1      45.910 130.649  17.259  1.00  0.00    -0.352 N 
ATOM     18  C   UNL     1      43.412 131.697  16.516  1.00  0.00     0.012 A 
ATOM     19  C   UNL     1      45.624 130.857  15.937  1.00  0.00     0.050 A 
ATOM     20  C   UNL     1      44.372 131.377  15.557  1.00  0.00     0.027 A 
ATOM     21  F   UNL     1      46.508 130.230  19.961  1.00  0.00    -0.202 F 
ATOM     22  H   UNL     1      46.849 130.271  17.521  1.00  0.00     0.167 HD
BRANCH  19  23
ATOM     23  C   UNL     1      46.627 130.508  14.902  1.00  0.00     0.053 A 
ATOM     24  C   UNL     1      46.827 131.317  13.766  1.00  0.00     0.222 A 
ATOM     25  C   UNL     1      47.412 129.352  15.044  1.00  0.00     0.016 A 
ATOM     26  N   UNL     1      47.754 130.969  12.835  1.00  0.00    -0.228 NA
ATOM     27  C   UNL     1      48.354 129.019  14.071  1.00  0.00     0.021 A 
ATOM     28  C   UNL     1      48.511 129.847  12.959  1.00  0.00     0.114 A 
ATOM     29  F   UNL     1      46.129 132.468  13.602  1.00  0.00    -0.184 F 
ENDBRANCH  19  23
ENDBRANCH   1  11
TORSDOF 4
ENDMDL
MODEL 5
REMARK VINA RESULT:      -6.4      1.653      2.502
REMARK SMILES Oc1ccc(/N=c2\ccc3ccc(-c4cccnc4F)[nH]c-3c2F)c(F)c1
REMARK SMILES IDX 6 1 5 2 2 3 3 4 27 5 4 6 25 7 26 8 1 9 7 11 8 12 23 13 9 14
REMARK SMILES IDX 22 15 10 16 21 17 11 18 13 19 12 20 24 21 14 23 19 24 15 25
REMARK SMILES IDX 18 26 16 27 17 28 20 29
REMARK H PARENT 1 10 21 22
ROOT
ATOM      1  N   UNL     1      44.670 128.752  24.170  1.00  0.00    -0.243 NA
ENDROOT
BRANCH   1   2
ATOM      2  C   UNL     1      44.611 127.321  24.077  1.00  0.00     0.100 A 
ATOM      3  C   UNL     1      44.510 124.515  24.010  1.00  0.00     0.118 A 
ATOM      4  C   UNL     1      45.687 125.170  24.401  1.00  0.00     0.048 A 
ATOM      5  C   UNL     1      43.379 125.264  23.673  1.00  0.00     0.087 A 
ATOM      6  C   UNL     1      45.732 126.566  24.444  1.00  0.00     0.035 A 
ATOM      7  C   UNL     1      43.420 126.662  23.716  1.00  0.00     0.152 A 
ATOM      8  F   UNL     1      42.299 127.371  23.431  1.00  0.00    -0.204 F 
BRANCH   3   9
ATOM      9  O   UNL     1      44.455 123.124  23.962  1.00  0.00    -0.508 OA
ATOM     10  H   UNL     1      44.934 122.550  24.646  1.00  0.00     0.293 HD
ENDBRANCH   3   9
ENDBRANCH   1   2
BRANCH   1  11
ATOM     11  C   UNL     1      44.278 129.618  23.275  1.00  0.00     0.102 A 
ATOM     12  C   UNL     1      43.309 130.609  23.561  1.00  0.00     0.032 A 
ATOM     13  C   UNL     1      44.817 129.523  21.980  1.00  0.00     0.172 A 
ATOM     14  C   UNL     1      42.894 131.523  22.589  1.00  0.00     0.013 A 
ATOM     15  C   UNL     1      44.425 130.422  20.977  1.00  0.00     0.084 A 
ATOM     16  C   UNL     1      43.428 131.464  21.302  1.00  0.00     0.001 A 
ATOM     17  N   UNL     1      44.939 130.360  19.716  1.00  0.00    -0.352 N 
ATOM     18  C   UNL     1      43.045 132.351  20.298  1.00  0.00     0.012 A 
ATOM     19  C   UNL     1      44.559 131.243  18.743  1.00  0.00     0.050 A 
ATOM     20  C   UNL     1      43.606 132.240  19.026  1.00  0.00     0.027 A 
ATOM     21  F   UNL     1      45.732 128.556  21.704  1.00  0.00    -0.202 F 
ATOM     22  H   UNL     1      45.655 129.633  19.489  1.00  0.00     0.167 HD
BRANCH  19  23
ATOM     23  C   UNL     1      45.134 131.131  17.381  1.00  0.00     0.053 A 
ATOM     24  C   UNL     1      46.116 130.171  17.071  1.00  0.00     0.222 A 
ATOM     25  C   UNL     1      44.695 131.989  16.359  1.00  0.00     0.016 A 
ATOM     26  N   UNL     1      46.623 130.094  15.813  1.00  0.00    -0.228 NA
ATOM     27  C   UNL     1      45.235 131.889  15.078  1.00  0.00     0.021 A 
ATOM     28  C   UNL     1      46.212 130.926  14.820  1.00  0.00     0.114 A 
ATOM     29  F   UNL     1      46.544 129.287  18.008  1.00  0.00    -0.184 F 
ENDBRANCH  19  23
ENDBRANCH   1  11
TORSDOF 4
ENDMDL
MODEL 6
REMARK VINA RESULT:      -6.3      2.057      3.106
REMARK SMILES Oc1ccc(/N=c2\ccc3ccc(-c4cccnc4F)[nH]c-3c2F)c(F)c1
REMARK SMILES IDX 6 1 5 2 2 3 3 4 27 5 4 6 25 7 26 8 1 9 7 11 8 12 23 13 9 14
REMARK SMILES IDX 22 15 10 16 21 17 11 18 13 19 12 20 24 21 14 23 19 24 15 25
REMARK SMILES IDX 18 26 16 27 17 28 20 29
REMARK H PARENT 1 10 21 22
ROOT
ATOM      1  N   UNL     1      45.048 128.135  24.317  1.00  0.00    -0.243 NA
ENDROOT
BRANCH   1   2
ATOM      2  C   UNL     1      45.359 126.809  23.866  1.00  0.00     0.100 A 
ATOM      3  C   UNL     1      45.999 124.186  23.093  1.00  0.00     0.118 A 
ATOM      4  C   UNL     1      47.003 125.052  23.549  1.00  0.00     0.048 A 
ATOM      5  C   UNL     1      44.673 124.626  23.043  1.00  0.00     0.087 A 
ATOM      6  C   UNL     1      46.681 126.353  23.945  1.00  0.00     0.035 A 
ATOM      7  C   UNL     1      44.347 125.928  23.438  1.00  0.00     0.152 A 
ATOM      8  F   UNL     1      43.049 126.323  23.428  1.00  0.00    -0.204 F 
BRANCH   3   9
ATOM      9  O   UNL     1      46.308 122.887  22.696  1.00  0.00    -0.508 OA
ATOM     10  H   UNL     1      46.912 122.705  21.903  1.00  0.00     0.293 HD
ENDBRANCH   3   9
ENDBRANCH   1   2
BRANCH   1  11
ATOM     11  C   UNL     1      44.530 129.107  23.615  1.00  0.00     0.102 A 
ATOM     12  C   UNL     1      43.623 130.038  24.175  1.00  0.00     0.032 A 
ATOM     13  C   UNL     1      44.863 129.191  22.252  1.00  0.00     0.172 A 
ATOM     14  C   UNL     1      43.071 131.066  23.408  1.00  0.00     0.013 A 
ATOM     15  C   UNL     1      44.328 130.208  21.449  1.00  0.00     0.084 A 
ATOM     16  C   UNL     1      43.400 131.185  22.057  1.00  0.00     0.001 A 
ATOM     17  N   UNL     1      44.643 130.321  20.127  1.00  0.00    -0.352 N 
ATOM     18  C   UNL     1      42.873 132.192  21.250  1.00  0.00     0.012 A 
ATOM     19  C   UNL     1      44.124 131.319  19.350  1.00  0.00     0.050 A 
ATOM     20  C   UNL     1      43.232 132.257  19.904  1.00  0.00     0.027 A 
ATOM     21  F   UNL     1      45.719 128.281  21.714  1.00  0.00    -0.202 F 
ATOM     22  H   UNL     1      45.310 129.639  19.699  1.00  0.00     0.167 HD
BRANCH  19  23
ATOM     23  C   UNL     1      44.482 131.396  17.912  1.00  0.00     0.053 A 
ATOM     24  C   UNL     1      43.529 131.738  16.933  1.00  0.00     0.222 A 
ATOM     25  C   UNL     1      45.798 131.131  17.500  1.00  0.00     0.016 A 
ATOM     26  N   UNL     1      43.889 131.799  15.623  1.00  0.00    -0.228 NA
ATOM     27  C   UNL     1      46.137 131.198  16.148  1.00  0.00     0.021 A 
ATOM     28  C   UNL     1      45.158 131.535  15.213  1.00  0.00     0.114 A 
ATOM     29  F   UNL     1      42.255 132.048  17.280  1.00  0.00    -0.184 F 
ENDBRANCH  19  23
ENDBRANCH   1  11
TORSDOF 4
ENDMDL
MODEL 7
REMARK VINA RESULT:      -5.6      2.169      2.863
REMARK SMILES Oc1ccc(/N=c2\ccc3ccc(-c4cccnc4F)[nH]c-3c2F)c(F)c1
REMARK SMILES IDX 6 1 5 2 2 3 3 4 27 5 4 6 25 7 26 8 1 9 7 11 8 12 23 13 9 14
REMARK SMILES IDX 22 15 10 16 21 17 11 18 13 19 12 20 24 21 14 23 19 24 15 25
REMARK SMILES IDX 18 26 16 27 17 28 20 29
REMARK H PARENT 1 10 21 22
ROOT
ATOM      1  N   UNL     1      43.550 132.190  21.162  1.00  0.00    -0.243 NA
ENDROOT
BRANCH   1   2
ATOM      2  C   UNL     1      43.675 131.085  22.070  1.00  0.00     0.100 A 
ATOM      3  C   UNL     1      43.975 128.864  23.762  1.00  0.00     0.118 A 
ATOM      4  C   UNL     1      43.190 128.768  22.604  1.00  0.00     0.048 A 
ATOM      5  C   UNL     1      44.625 130.065  24.061  1.00  0.00     0.087 A 
ATOM      6  C   UNL     1      43.051 129.872  21.757  1.00  0.00     0.035 A 
ATOM      7  C   UNL     1      44.489 131.171  23.215  1.00  0.00     0.152 A 
ATOM      8  F   UNL     1      45.165 132.313  23.496  1.00  0.00    -0.204 F 
BRANCH   3   9
ATOM      9  O   UNL     1      44.120 127.771  24.614  1.00  0.00    -0.508 OA
ATOM     10  H   UNL     1      44.759 127.015  24.402  1.00  0.00     0.293 HD
ENDBRANCH   3   9
ENDBRANCH   1   2
BRANCH   1  11
ATOM     11  C   UNL     1      43.372 132.134  19.870  1.00  0.00     0.102 A 
ATOM     12  C   UNL     1      42.128 132.440  19.268  1.00  0.00     0.032 A 
ATOM     13  C   UNL     1      44.449 131.714  19.070  1.00  0.00     0.172 A 
ATOM     14  C   UNL     1      41.952 132.366  17.885  1.00  0.00     0.013 A 
ATOM     15  C   UNL     1      44.311 131.627  17.677  1.00  0.00     0.084 A 
ATOM     16  C   UNL     1      43.010 131.973  17.065  1.00  0.00     0.001 A 
ATOM     17  N   UNL     1      45.341 131.235  16.875  1.00  0.00    -0.352 N 
ATOM     18  C   UNL     1      42.882 131.881  15.680  1.00  0.00     0.012 A 
ATOM     19  C   UNL     1      45.203 131.158  15.517  1.00  0.00     0.050 A 
ATOM     20  C   UNL     1      43.972 131.474  14.911  1.00  0.00     0.027 A 
ATOM     21  F   UNL     1      45.637 131.401  19.654  1.00  0.00    -0.202 F 
ATOM     22  H   UNL     1      46.266 131.004  17.305  1.00  0.00     0.167 HD
BRANCH  19  23
ATOM     23  C   UNL     1      46.347 130.712  14.684  1.00  0.00     0.053 A 
ATOM     24  C   UNL     1      47.072 129.544  14.991  1.00  0.00     0.222 A 
ATOM     25  C   UNL     1      46.725 131.454  13.554  1.00  0.00     0.016 A 
ATOM     26  N   UNL     1      48.115 129.163  14.208  1.00  0.00    -0.228 NA
ATOM     27  C   UNL     1      47.802 131.040  12.770  1.00  0.00     0.021 A 
ATOM     28  C   UNL     1      48.495 129.880  13.118  1.00  0.00     0.114 A 
ATOM     29  F   UNL     1      46.721 128.765  16.044  1.00  0.00    -0.184 F 
ENDBRANCH  19  23
ENDBRANCH   1  11
TORSDOF 4
ENDMDL
MODEL 8
REMARK VINA RESULT:      -5.5      5.656      8.872
REMARK SMILES Oc1ccc(/N=c2\ccc3ccc(-c4cccnc4F)[nH]c-3c2F)c(F)c1
REMARK SMILES IDX 6 1 5 2 2 3 3 4 27 5 4 6 25 7 26 8 1 9 7 11 8 12 23 13 9 14
REMARK SMILES IDX 22 15 10 16 21 17 11 18 13 19 12 20 24 21 14 23 19 24 15 25
REMARK SMILES IDX 18 26 16 27 17 28 20 29
REMARK H PARENT 1 10 21 22
ROOT
ATOM      1  N   UNL     1      49.775 123.764  22.400  1.00  0.00    -0.243 NA
ENDROOT
BRANCH   1   2
ATOM      2  C   UNL     1      50.398 123.808  21.107  1.00  0.00     0.100 A 
ATOM      3  C   UNL     1      51.538 123.977  18.547  1.00  0.00     0.118 A 
ATOM      4  C   UNL     1      50.224 123.517  18.704  1.00  0.00     0.048 A 
ATOM      5  C   UNL     1      52.274 124.372  19.668  1.00  0.00     0.087 A 
ATOM      6  C   UNL     1      49.653 123.444  19.978  1.00  0.00     0.035 A 
ATOM      7  C   UNL     1      51.706 124.301  20.945  1.00  0.00     0.152 A 
ATOM      8  F   UNL     1      52.418 124.733  22.016  1.00  0.00    -0.204 F 
BRANCH   3   9
ATOM      9  O   UNL     1      52.117 124.053  17.281  1.00  0.00    -0.508 OA
ATOM     10  H   UNL     1      52.901 123.467  17.022  1.00  0.00     0.293 HD
ENDBRANCH   3   9
ENDBRANCH   1   2
BRANCH   1  11
ATOM     11  C   UNL     1      48.501 123.869  22.666  1.00  0.00     0.102 A 
ATOM     12  C   UNL     1      47.689 122.736  22.915  1.00  0.00     0.032 A 
ATOM     13  C   UNL     1      47.926 125.152  22.662  1.00  0.00     0.172 A 
ATOM     14  C   UNL     1      46.326 122.865  23.190  1.00  0.00     0.013 A 
ATOM     15  C   UNL     1      46.561 125.321  22.932  1.00  0.00     0.084 A 
ATOM     16  C   UNL     1      45.734 124.128  23.212  1.00  0.00     0.001 A 
ATOM     17  N   UNL     1      45.979 126.554  22.946  1.00  0.00    -0.352 N 
ATOM     18  C   UNL     1      44.378 124.308  23.478  1.00  0.00     0.012 A 
ATOM     19  C   UNL     1      44.648 126.715  23.218  1.00  0.00     0.050 A 
ATOM     20  C   UNL     1      43.838 125.594  23.480  1.00  0.00     0.027 A 
ATOM     21  F   UNL     1      48.706 126.235  22.402  1.00  0.00    -0.202 F 
ATOM     22  H   UNL     1      46.565 127.400  22.763  1.00  0.00     0.167 HD
BRANCH  19  23
ATOM     23  C   UNL     1      44.053 128.074  23.208  1.00  0.00     0.053 A 
ATOM     24  C   UNL     1      42.857 128.360  23.896  1.00  0.00     0.222 A 
ATOM     25  C   UNL     1      44.685 129.114  22.509  1.00  0.00     0.016 A 
ATOM     26  N   UNL     1      42.337 129.615  23.867  1.00  0.00    -0.228 NA
ATOM     27  C   UNL     1      44.127 130.392  22.495  1.00  0.00     0.021 A 
ATOM     28  C   UNL     1      42.937 130.626  23.185  1.00  0.00     0.114 A 
ATOM     29  F   UNL     1      42.229 127.404  24.625  1.00  0.00    -0.184 F 
ENDBRANCH  19  23
ENDBRANCH   1  11
TORSDOF 4
ENDMDL


