REMARK SMILES Cc1ccc([C@H]2O[C@@H]2C(=O)c2ccc(F)cc2)cc1F
REMARK SMILES IDX 6 1 7 2 8 3 5 4 2 5 3 6 19 7 4 8 18 9 1 10 20 11 9 12 10 13
REMARK SMILES IDX 11 14 12 15 17 16 13 17 16 18 14 19 15 20
REMARK H PARENT
ROOT
ATOM      1  C   UNL     1       0.104   0.041  -0.290  1.00  0.00     0.186 C 
ATOM      2  O   UNL     1       0.974   0.760   0.551  1.00  0.00    -0.356 OA
ATOM      3  C   UNL     1       1.102  -0.643   0.569  1.00  0.00     0.224 C 
ENDROOT
BRANCH   1   4
ATOM      4  C   UNL     1      -1.304   0.009   0.229  1.00  0.00    -0.013 A 
ATOM      5  C   UNL     1      -3.963  -0.068   1.141  1.00  0.00    -0.015 A 
ATOM      6  C   UNL     1      -3.195   1.096   1.298  1.00  0.00     0.007 A 
ATOM      7  C   UNL     1      -3.404  -1.183   0.491  1.00  0.00     0.126 A 
ATOM      8  C   UNL     1      -1.875   1.137   0.840  1.00  0.00     0.007 A 
ATOM      9  C   UNL     1      -2.079  -1.144   0.047  1.00  0.00     0.046 A 
ATOM     10  C   UNL     1      -5.388  -0.094   1.608  1.00  0.00     0.047 C 
ATOM     11  F   UNL     1      -4.138  -2.307   0.292  1.00  0.00    -0.207 F 
ENDBRANCH   1   4
BRANCH   3  12
ATOM     12  C   UNL     1       2.367  -1.084  -0.105  1.00  0.00     0.194 C 
ATOM     13  O   UNL     1       2.281  -1.785  -1.149  1.00  0.00    -0.291 OA
BRANCH  12  14
ATOM     14  C   UNL     1       3.704  -0.743   0.448  1.00  0.00     0.021 A 
ATOM     15  C   UNL     1       3.842  -0.142   1.716  1.00  0.00     0.015 A 
ATOM     16  C   UNL     1       4.866  -1.032  -0.293  1.00  0.00     0.015 A 
ATOM     17  C   UNL     1       5.109   0.166   2.222  1.00  0.00     0.040 A 
ATOM     18  C   UNL     1       6.131  -0.722   0.218  1.00  0.00     0.040 A 
ATOM     19  C   UNL     1       6.253  -0.126   1.476  1.00  0.00     0.123 A 
ATOM     20  F   UNL     1       7.479   0.194   1.961  1.00  0.00    -0.207 F 
ENDBRANCH  12  14
ENDBRANCH   3  12
TORSDOF 3


