MODEL 1
REMARK VINA RESULT:      -9.6      0.000      0.000
REMARK SMILES c1cc2cc(-c3ncc4c(n3)CCCC4)ccc2[nH]1
REMARK SMILES IDX 1 1 2 2 3 3 4 4 5 5 16 6 17 7 18 8 19 9 6 11 7 12 11 13 8 14
REMARK SMILES IDX 10 15 9 16 12 17 15 18 13 19 14 20
REMARK H PARENT 19 10
ROOT
ATOM      1  C   UNL     1      43.474 131.582  22.727  1.00  0.00     0.083 A 
ATOM      2  C   UNL     1      44.544 131.262  21.900  1.00  0.00     0.028 A 
ATOM      3  C   UNL     1      44.076 131.447  20.618  1.00  0.00     0.000 A 
ATOM      4  C   UNL     1      44.708 131.279  19.388  1.00  0.00     0.022 A 
ATOM      5  C   UNL     1      43.968 131.548  18.210  1.00  0.00     0.020 A 
ATOM      6  C   UNL     1      42.616 131.977  18.323  1.00  0.00     0.014 A 
ATOM      7  C   UNL     1      42.012 132.137  19.583  1.00  0.00     0.027 A 
ATOM      8  C   UNL     1      42.776 131.860  20.713  1.00  0.00     0.045 A 
ATOM      9  N   UNL     1      42.395 131.947  21.998  1.00  0.00    -0.361 N 
ATOM     10  H   UNL     1      41.460 132.237  22.363  1.00  0.00     0.166 HD
ENDROOT
BRANCH   5  11
ATOM     11  C   UNL     1      44.596 131.384  16.877  1.00  0.00     0.159 A 
ATOM     12  N   UNL     1      44.025 131.938  15.774  1.00  0.00    -0.236 NA
ATOM     13  N   UNL     1      45.752 130.677  16.745  1.00  0.00    -0.233 NA
ATOM     14  C   UNL     1      44.585 131.806  14.546  1.00  0.00     0.119 A 
ATOM     15  C   UNL     1      46.348 130.502  15.535  1.00  0.00     0.048 A 
ATOM     16  C   UNL     1      45.780 131.096  14.391  1.00  0.00    -0.008 A 
ATOM     17  C   UNL     1      47.660 129.765  15.474  1.00  0.00     0.056 C 
ATOM     18  C   UNL     1      46.359 130.886  13.013  1.00  0.00     0.039 C 
ATOM     19  C   UNL     1      48.001 129.291  14.058  1.00  0.00     0.007 C 
ATOM     20  C   UNL     1      47.822 130.432  13.055  1.00  0.00     0.005 C 
ENDBRANCH   5  11
TORSDOF 1
ENDMDL
MODEL 2
REMARK VINA RESULT:      -9.3      1.513      6.915
REMARK SMILES c1cc2cc(-c3ncc4c(n3)CCCC4)ccc2[nH]1
REMARK SMILES IDX 1 1 2 2 3 3 4 4 5 5 16 6 17 7 18 8 19 9 6 11 7 12 11 13 8 14
REMARK SMILES IDX 10 15 9 16 12 17 15 18 13 19 14 20
REMARK H PARENT 19 10
ROOT
ATOM      1  C   UNL     1      48.145 129.439  13.428  1.00  0.00     0.083 A 
ATOM      2  C   UNL     1      47.583 128.935  14.595  1.00  0.00     0.028 A 
ATOM      3  C   UNL     1      46.892 129.991  15.147  1.00  0.00     0.000 A 
ATOM      4  C   UNL     1      46.137 130.069  16.316  1.00  0.00     0.022 A 
ATOM      5  C   UNL     1      45.529 131.307  16.640  1.00  0.00     0.020 A 
ATOM      6  C   UNL     1      45.708 132.418  15.769  1.00  0.00     0.014 A 
ATOM      7  C   UNL     1      46.477 132.300  14.597  1.00  0.00     0.027 A 
ATOM      8  C   UNL     1      47.056 131.065  14.319  1.00  0.00     0.045 A 
ATOM      9  N   UNL     1      47.821 130.743  13.263  1.00  0.00    -0.361 N 
ATOM     10  H   UNL     1      48.108 131.365  12.475  1.00  0.00     0.166 HD
ENDROOT
BRANCH   5  11
ATOM     11  C   UNL     1      44.716 131.441  17.873  1.00  0.00     0.159 A 
ATOM     12  N   UNL     1      43.417 131.839  17.801  1.00  0.00    -0.236 NA
ATOM     13  N   UNL     1      45.262 131.167  19.089  1.00  0.00    -0.233 NA
ATOM     14  C   UNL     1      42.652 131.962  18.914  1.00  0.00     0.119 A 
ATOM     15  C   UNL     1      44.545 131.287  20.237  1.00  0.00     0.048 A 
ATOM     16  C   UNL     1      43.191 131.671  20.172  1.00  0.00    -0.008 A 
ATOM     17  C   UNL     1      45.194 130.902  21.541  1.00  0.00     0.056 C 
ATOM     18  C   UNL     1      42.360 131.884  21.414  1.00  0.00     0.039 C 
ATOM     19  C   UNL     1      44.448 131.462  22.756  1.00  0.00     0.007 C 
ATOM     20  C   UNL     1      42.949 131.177  22.640  1.00  0.00     0.005 C 
ENDBRANCH   5  11
TORSDOF 1
ENDMDL
MODEL 3
REMARK VINA RESULT:      -9.2      1.389      6.847
REMARK SMILES c1cc2cc(-c3ncc4c(n3)CCCC4)ccc2[nH]1
REMARK SMILES IDX 1 1 2 2 3 3 4 4 5 5 16 6 17 7 18 8 19 9 6 11 7 12 11 13 8 14
REMARK SMILES IDX 10 15 9 16 12 17 15 18 13 19 14 20
REMARK H PARENT 19 10
ROOT
ATOM      1  C   UNL     1      47.574 130.166  13.489  1.00  0.00     0.083 A 
ATOM      2  C   UNL     1      47.608 130.078  14.876  1.00  0.00     0.028 A 
ATOM      3  C   UNL     1      46.402 130.593  15.299  1.00  0.00     0.000 A 
ATOM      4  C   UNL     1      45.885 130.754  16.582  1.00  0.00     0.022 A 
ATOM      5  C   UNL     1      44.594 131.322  16.720  1.00  0.00     0.020 A 
ATOM      6  C   UNL     1      43.877 131.704  15.552  1.00  0.00     0.014 A 
ATOM      7  C   UNL     1      44.432 131.525  14.272  1.00  0.00     0.027 A 
ATOM      8  C   UNL     1      45.702 130.964  14.185  1.00  0.00     0.045 A 
ATOM      9  N   UNL     1      46.407 130.709  13.070  1.00  0.00    -0.361 N 
ATOM     10  H   UNL     1      46.118 130.889  12.083  1.00  0.00     0.166 HD
ENDROOT
BRANCH   5  11
ATOM     11  C   UNL     1      44.000 131.515  18.065  1.00  0.00     0.159 A 
ATOM     12  N   UNL     1      42.736 131.998  18.195  1.00  0.00    -0.236 NA
ATOM     13  N   UNL     1      44.716 131.210  19.181  1.00  0.00    -0.233 NA
ATOM     14  C   UNL     1      42.169 132.176  19.415  1.00  0.00     0.119 A 
ATOM     15  C   UNL     1      44.202 131.383  20.428  1.00  0.00     0.048 A 
ATOM     16  C   UNL     1      42.883 131.855  20.575  1.00  0.00    -0.008 A 
ATOM     17  C   UNL     1      45.026 130.961  21.616  1.00  0.00     0.056 C 
ATOM     18  C   UNL     1      42.278 132.128  21.931  1.00  0.00     0.039 C 
ATOM     19  C   UNL     1      44.522 131.574  22.927  1.00  0.00     0.007 C 
ATOM     20  C   UNL     1      43.009 131.388  23.057  1.00  0.00     0.005 C 
ENDBRANCH   5  11
TORSDOF 1
ENDMDL
MODEL 4
REMARK VINA RESULT:      -9.2      1.027      1.749
REMARK SMILES c1cc2cc(-c3ncc4c(n3)CCCC4)ccc2[nH]1
REMARK SMILES IDX 1 1 2 2 3 3 4 4 5 5 16 6 17 7 18 8 19 9 6 11 7 12 11 13 8 14
REMARK SMILES IDX 10 15 9 16 12 17 15 18 13 19 14 20
REMARK H PARENT 19 10
ROOT
ATOM      1  C   UNL     1      42.676 131.796  23.189  1.00  0.00     0.083 A 
ATOM      2  C   UNL     1      42.374 132.176  21.886  1.00  0.00     0.028 A 
ATOM      3  C   UNL     1      43.378 131.638  21.112  1.00  0.00     0.000 A 
ATOM      4  C   UNL     1      43.592 131.695  19.737  1.00  0.00     0.022 A 
ATOM      5  C   UNL     1      44.730 131.036  19.207  1.00  0.00     0.020 A 
ATOM      6  C   UNL     1      45.606 130.346  20.090  1.00  0.00     0.014 A 
ATOM      7  C   UNL     1      45.356 130.311  21.473  1.00  0.00     0.027 A 
ATOM      8  C   UNL     1      44.228 130.971  21.950  1.00  0.00     0.045 A 
ATOM      9  N   UNL     1      43.811 131.060  23.223  1.00  0.00    -0.361 N 
ATOM     10  H   UNL     1      44.264 130.647  24.068  1.00  0.00     0.166 HD
ENDROOT
BRANCH   5  11
ATOM     11  C   UNL     1      45.001 131.068  17.749  1.00  0.00     0.159 A 
ATOM     12  N   UNL     1      44.163 131.730  16.907  1.00  0.00    -0.236 NA
ATOM     13  N   UNL     1      46.093 130.434  17.240  1.00  0.00    -0.233 NA
ATOM     14  C   UNL     1      44.396 131.778  15.571  1.00  0.00     0.119 A 
ATOM     15  C   UNL     1      46.365 130.438  15.908  1.00  0.00     0.048 A 
ATOM     16  C   UNL     1      45.519 131.145  15.031  1.00  0.00    -0.008 A 
ATOM     17  C   UNL     1      47.626 129.772  15.424  1.00  0.00     0.056 C 
ATOM     18  C   UNL     1      45.732 131.135  13.536  1.00  0.00     0.039 C 
ATOM     19  C   UNL     1      47.602 129.494  13.918  1.00  0.00     0.007 C 
ATOM     20  C   UNL     1      47.163 130.743  13.151  1.00  0.00     0.005 C 
ENDBRANCH   5  11
TORSDOF 1
ENDMDL
MODEL 5
REMARK VINA RESULT:      -9.1      1.609      7.167
REMARK SMILES c1cc2cc(-c3ncc4c(n3)CCCC4)ccc2[nH]1
REMARK SMILES IDX 1 1 2 2 3 3 4 4 5 5 16 6 17 7 18 8 19 9 6 11 7 12 11 13 8 14
REMARK SMILES IDX 10 15 9 16 12 17 15 18 13 19 14 20
REMARK H PARENT 19 10
ROOT
ATOM      1  C   UNL     1      47.655 129.948  13.215  1.00  0.00     0.083 A 
ATOM      2  C   UNL     1      47.717 129.383  14.485  1.00  0.00     0.028 A 
ATOM      3  C   UNL     1      46.884 130.155  15.263  1.00  0.00     0.000 A 
ATOM      4  C   UNL     1      46.557 130.058  16.614  1.00  0.00     0.022 A 
ATOM      5  C   UNL     1      45.657 131.008  17.157  1.00  0.00     0.020 A 
ATOM      6  C   UNL     1      45.122 132.019  16.311  1.00  0.00     0.014 A 
ATOM      7  C   UNL     1      45.475 132.084  14.951  1.00  0.00     0.027 A 
ATOM      8  C   UNL     1      46.363 131.132  14.461  1.00  0.00     0.045 A 
ATOM      9  N   UNL     1      46.827 131.017  13.206  1.00  0.00    -0.361 N 
ATOM     10  H   UNL     1      46.597 131.624  12.388  1.00  0.00     0.166 HD
ENDROOT
BRANCH   5  11
ATOM     11  C   UNL     1      45.277 130.946  18.589  1.00  0.00     0.159 A 
ATOM     12  N   UNL     1      46.011 130.208  19.464  1.00  0.00    -0.236 NA
ATOM     13  N   UNL     1      44.191 131.630  19.041  1.00  0.00    -0.233 NA
ATOM     14  C   UNL     1      45.687 130.143  20.780  1.00  0.00     0.119 A 
ATOM     15  C   UNL     1      43.814 131.588  20.347  1.00  0.00     0.048 A 
ATOM     16  C   UNL     1      44.583 130.849  21.267  1.00  0.00    -0.008 A 
ATOM     17  C   UNL     1      42.641 132.423  20.789  1.00  0.00     0.056 C 
ATOM     18  C   UNL     1      44.181 130.712  22.716  1.00  0.00     0.039 C 
ATOM     19  C   UNL     1      42.082 131.978  22.144  1.00  0.00     0.007 C 
ATOM     20  C   UNL     1      43.213 131.814  23.161  1.00  0.00     0.005 C 
ENDBRANCH   5  11
TORSDOF 1
ENDMDL
MODEL 6
REMARK VINA RESULT:      -8.9      1.529      6.985
REMARK SMILES c1cc2cc(-c3ncc4c(n3)CCCC4)ccc2[nH]1
REMARK SMILES IDX 1 1 2 2 3 3 4 4 5 5 16 6 17 7 18 8 19 9 6 11 7 12 11 13 8 14
REMARK SMILES IDX 10 15 9 16 12 17 15 18 13 19 14 20
REMARK H PARENT 19 10
ROOT
ATOM      1  C   UNL     1      47.945 131.008  12.901  1.00  0.00     0.083 A 
ATOM      2  C   UNL     1      47.435 131.970  13.766  1.00  0.00     0.028 A 
ATOM      3  C   UNL     1      46.697 131.266  14.692  1.00  0.00     0.000 A 
ATOM      4  C   UNL     1      45.963 131.707  15.791  1.00  0.00     0.022 A 
ATOM      5  C   UNL     1      45.292 130.741  16.581  1.00  0.00     0.020 A 
ATOM      6  C   UNL     1      45.390 129.366  16.228  1.00  0.00     0.014 A 
ATOM      7  C   UNL     1      46.141 128.960  15.111  1.00  0.00     0.027 A 
ATOM      8  C   UNL     1      46.783 129.942  14.363  1.00  0.00     0.045 A 
ATOM      9  N   UNL     1      47.543 129.770  13.269  1.00  0.00    -0.361 N 
ATOM     10  H   UNL     1      47.779 128.868  12.798  1.00  0.00     0.166 HD
ENDROOT
BRANCH   5  11
ATOM     11  C   UNL     1      44.498 131.160  17.761  1.00  0.00     0.159 A 
ATOM     12  N   UNL     1      43.278 131.737  17.600  1.00  0.00    -0.236 NA
ATOM     13  N   UNL     1      44.984 130.970  19.019  1.00  0.00    -0.233 NA
ATOM     14  C   UNL     1      42.530 132.122  18.665  1.00  0.00     0.119 A 
ATOM     15  C   UNL     1      44.283 131.350  20.120  1.00  0.00     0.048 A 
ATOM     16  C   UNL     1      43.006 131.922  19.965  1.00  0.00    -0.008 A 
ATOM     17  C   UNL     1      44.854 131.047  21.481  1.00  0.00     0.056 C 
ATOM     18  C   UNL     1      42.206 132.422  21.144  1.00  0.00     0.039 C 
ATOM     19  C   UNL     1      44.191 131.871  22.590  1.00  0.00     0.007 C 
ATOM     20  C   UNL     1      42.668 131.803  22.468  1.00  0.00     0.005 C 
ENDBRANCH   5  11
TORSDOF 1
ENDMDL
MODEL 7
REMARK VINA RESULT:      -8.4      1.068      1.332
REMARK SMILES c1cc2cc(-c3ncc4c(n3)CCCC4)ccc2[nH]1
REMARK SMILES IDX 1 1 2 2 3 3 4 4 5 5 16 6 17 7 18 8 19 9 6 11 7 12 11 13 8 14
REMARK SMILES IDX 10 15 9 16 12 17 15 18 13 19 14 20
REMARK H PARENT 19 10
ROOT
ATOM      1  C   UNL     1      43.864 130.529  23.910  1.00  0.00     0.083 A 
ATOM      2  C   UNL     1      44.632 130.024  22.867  1.00  0.00     0.028 A 
ATOM      3  C   UNL     1      44.173 130.667  21.738  1.00  0.00     0.000 A 
ATOM      4  C   UNL     1      44.571 130.558  20.408  1.00  0.00     0.022 A 
ATOM      5  C   UNL     1      43.909 131.356  19.442  1.00  0.00     0.020 A 
ATOM      6  C   UNL     1      42.869 132.233  19.861  1.00  0.00     0.014 A 
ATOM      7  C   UNL     1      42.496 132.315  21.214  1.00  0.00     0.027 A 
ATOM      8  C   UNL     1      43.173 131.513  22.128  1.00  0.00     0.045 A 
ATOM      9  N   UNL     1      42.973 131.439  23.454  1.00  0.00    -0.361 N 
ATOM     10  H   UNL     1      42.277 131.973  24.020  1.00  0.00     0.166 HD
ENDROOT
BRANCH   5  11
ATOM     11  C   UNL     1      44.296 131.277  18.013  1.00  0.00     0.159 A 
ATOM     12  N   UNL     1      43.495 131.812  17.052  1.00  0.00    -0.236 NA
ATOM     13  N   UNL     1      45.458 130.669  17.649  1.00  0.00    -0.233 NA
ATOM     14  C   UNL     1      43.832 131.757  15.739  1.00  0.00     0.119 A 
ATOM     15  C   UNL     1      45.836 130.573  16.346  1.00  0.00     0.048 A 
ATOM     16  C   UNL     1      45.028 131.149  15.346  1.00  0.00    -0.008 A 
ATOM     17  C   UNL     1      47.167 129.946  16.023  1.00  0.00     0.056 C 
ATOM     18  C   UNL     1      45.362 131.022  13.879  1.00  0.00     0.039 C 
ATOM     19  C   UNL     1      47.280 129.537  14.551  1.00  0.00     0.007 C 
ATOM     20  C   UNL     1      46.838 130.685  13.642  1.00  0.00     0.005 C 
ENDBRANCH   5  11
TORSDOF 1
ENDMDL
MODEL 8
REMARK VINA RESULT:      -8.2      1.323      2.255
REMARK SMILES c1cc2cc(-c3ncc4c(n3)CCCC4)ccc2[nH]1
REMARK SMILES IDX 1 1 2 2 3 3 4 4 5 5 16 6 17 7 18 8 19 9 6 11 7 12 11 13 8 14
REMARK SMILES IDX 10 15 9 16 12 17 15 18 13 19 14 20
REMARK H PARENT 19 10
ROOT
ATOM      1  C   UNL     1      42.690 131.726  24.181  1.00  0.00     0.083 A 
ATOM      2  C   UNL     1      42.103 131.571  22.930  1.00  0.00     0.028 A 
ATOM      3  C   UNL     1      43.151 131.586  22.036  1.00  0.00     0.000 A 
ATOM      4  C   UNL     1      43.160 131.470  20.648  1.00  0.00     0.022 A 
ATOM      5  C   UNL     1      44.408 131.521  19.978  1.00  0.00     0.020 A 
ATOM      6  C   UNL     1      45.598 131.687  20.740  1.00  0.00     0.014 A 
ATOM      7  C   UNL     1      45.548 131.800  22.141  1.00  0.00     0.027 A 
ATOM      8  C   UNL     1      44.301 131.745  22.756  1.00  0.00     0.045 A 
ATOM      9  N   UNL     1      44.034 131.833  24.070  1.00  0.00    -0.361 N 
ATOM     10  H   UNL     1      44.720 131.957  24.848  1.00  0.00     0.166 HD
ENDROOT
BRANCH   5  11
ATOM     11  C   UNL     1      44.470 131.402  18.501  1.00  0.00     0.159 A 
ATOM     12  N   UNL     1      43.450 131.863  17.730  1.00  0.00    -0.236 NA
ATOM     13  N   UNL     1      45.551 130.829  17.904  1.00  0.00    -0.233 NA
ATOM     14  C   UNL     1      43.488 131.771  16.377  1.00  0.00     0.119 A 
ATOM     15  C   UNL     1      45.634 130.699  16.553  1.00  0.00     0.048 A 
ATOM     16  C   UNL     1      44.596 131.200  15.743  1.00  0.00    -0.008 A 
ATOM     17  C   UNL     1      46.889 130.117  15.958  1.00  0.00     0.056 C 
ATOM     18  C   UNL     1      44.600 131.029  14.243  1.00  0.00     0.039 C 
ATOM     19  C   UNL     1      46.692 129.655  14.510  1.00  0.00     0.007 C 
ATOM     20  C   UNL     1      46.002 130.747  13.691  1.00  0.00     0.005 C 
ENDBRANCH   5  11
TORSDOF 1
ENDMDL
MODEL 9
REMARK VINA RESULT:      -7.3      1.661      7.240
REMARK SMILES c1cc2cc(-c3ncc4c(n3)CCCC4)ccc2[nH]1
REMARK SMILES IDX 1 1 2 2 3 3 4 4 5 5 16 6 17 7 18 8 19 9 6 11 7 12 11 13 8 14
REMARK SMILES IDX 10 15 9 16 12 17 15 18 13 19 14 20
REMARK H PARENT 19 10
ROOT
ATOM      1  C   UNL     1      45.423 131.124  13.726  1.00  0.00     0.083 A 
ATOM      2  C   UNL     1      44.433 131.692  14.521  1.00  0.00     0.028 A 
ATOM      3  C   UNL     1      44.752 131.327  15.810  1.00  0.00     0.000 A 
ATOM      4  C   UNL     1      44.117 131.610  17.017  1.00  0.00     0.022 A 
ATOM      5  C   UNL     1      44.681 131.094  18.209  1.00  0.00     0.020 A 
ATOM      6  C   UNL     1      45.866 130.311  18.134  1.00  0.00     0.014 A 
ATOM      7  C   UNL     1      46.480 130.047  16.897  1.00  0.00     0.027 A 
ATOM      8  C   UNL     1      45.891 130.574  15.751  1.00  0.00     0.045 A 
ATOM      9  N   UNL     1      46.312 130.441  14.482  1.00  0.00    -0.361 N 
ATOM     10  H   UNL     1      47.152 129.920  14.145  1.00  0.00     0.166 HD
ENDROOT
BRANCH   5  11
ATOM     11  C   UNL     1      44.041 131.368  19.519  1.00  0.00     0.159 A 
ATOM     12  N   UNL     1      42.967 132.197  19.600  1.00  0.00    -0.236 NA
ATOM     13  N   UNL     1      44.525 130.790  20.653  1.00  0.00    -0.233 NA
ATOM     14  C   UNL     1      42.361 132.456  20.786  1.00  0.00     0.119 A 
ATOM     15  C   UNL     1      43.965 131.027  21.869  1.00  0.00     0.048 A 
ATOM     16  C   UNL     1      42.834 131.862  21.961  1.00  0.00    -0.008 A 
ATOM     17  C   UNL     1      44.511 130.302  23.071  1.00  0.00     0.056 C 
ATOM     18  C   UNL     1      42.207 132.213  23.288  1.00  0.00     0.039 C 
ATOM     19  C   UNL     1      44.083 130.951  24.392  1.00  0.00     0.007 C 
ATOM     20  C   UNL     1      42.577 131.217  24.393  1.00  0.00     0.005 C 
ENDBRANCH   5  11
TORSDOF 1
ENDMDL


