MODEL 1
REMARK VINA RESULT:      -9.8      0.000      0.000
REMARK SMILES Cc1cc(N)c(Nc2c(F)nc(C)c(-c3ccc4c(C)[nH][nH+]c4c3)c2C)cc1F
REMARK SMILES IDX 7 1 6 3 2 4 3 5 28 6 4 7 27 8 1 9 29 10 5 11 8 14 9 15 25 16
REMARK SMILES IDX 11 17 14 18 12 19 10 20 26 21 13 22 15 23 16 24 24 25 17 26
REMARK SMILES IDX 23 27 18 28 22 29 19 30 21 31 20 33
REMARK H PARENT 7 2 5 12 5 13 22 32 21 34
ROOT
ATOM      1  N   UNL     1      44.701 130.948  22.241  1.00  0.00    -0.350 N 
ATOM      2  H   UNL     1      45.072 131.725  22.833  1.00  0.00     0.167 HD
ENDROOT
BRANCH   1   3
ATOM      3  C   UNL     1      44.472 129.670  22.863  1.00  0.00     0.065 A 
ATOM      4  C   UNL     1      43.982 127.143  24.019  1.00  0.00    -0.013 A 
ATOM      5  C   UNL     1      43.394 128.296  24.560  1.00  0.00     0.034 A 
ATOM      6  C   UNL     1      44.803 127.255  22.887  1.00  0.00     0.128 A 
ATOM      7  C   UNL     1      43.639 129.560  23.999  1.00  0.00     0.056 A 
ATOM      8  C   UNL     1      45.045 128.507  22.317  1.00  0.00     0.067 A 
ATOM      9  C   UNL     1      43.699 125.794  24.614  1.00  0.00     0.047 C 
ATOM     10  F   UNL     1      45.363 126.152  22.329  1.00  0.00    -0.207 F 
BRANCH   7  11
ATOM     11  N   UNL     1      43.066 130.718  24.619  1.00  0.00    -0.397 N 
ATOM     12  H   UNL     1      42.495 130.625  25.489  1.00  0.00     0.156 HD
ATOM     13  H   UNL     1      43.251 131.683  24.269  1.00  0.00     0.156 HD
ENDBRANCH   7  11
ENDBRANCH   1   3
BRANCH   1  14
ATOM     14  C   UNL     1      44.200 131.286  20.937  1.00  0.00     0.098 A 
ATOM     15  C   UNL     1      42.876 131.722  20.813  1.00  0.00     0.237 A 
ATOM     16  C   UNL     1      45.010 131.204  19.779  1.00  0.00    -0.013 A 
ATOM     17  N   UNL     1      42.355 131.991  19.591  1.00  0.00    -0.223 NA
ATOM     18  C   UNL     1      44.430 131.463  18.513  1.00  0.00     0.008 A 
ATOM     19  C   UNL     1      43.075 131.861  18.447  1.00  0.00     0.049 A 
ATOM     20  F   UNL     1      42.088 131.843  21.910  1.00  0.00    -0.183 F 
ATOM     21  C   UNL     1      46.476 130.849  19.894  1.00  0.00     0.047 C 
ATOM     22  C   UNL     1      42.396 132.154  17.140  1.00  0.00     0.067 C 
BRANCH  18  23
ATOM     23  C   UNL     1      45.220 131.302  17.271  1.00  0.00    -0.009 A 
ATOM     24  C   UNL     1      45.330 132.379  16.351  1.00  0.00     0.010 A 
ATOM     25  C   UNL     1      45.874 130.078  17.009  1.00  0.00     0.091 A 
ATOM     26  C   UNL     1      46.083 132.239  15.170  1.00  0.00     0.018 A 
ATOM     27  C   UNL     1      46.612 129.977  15.833  1.00  0.00     0.236 A 
ATOM     28  C   UNL     1      46.714 131.018  14.950  1.00  0.00     0.073 A 
ATOM     29  N   UNL     1      47.298 128.919  15.369  1.00  0.00    -0.126 N 
ATOM     30  C   UNL     1      47.507 130.545  13.923  1.00  0.00     0.084 A 
ATOM     31  N   UNL     1      47.836 129.263  14.205  1.00  0.00    -0.171 N 
ATOM     32  H   UNL     1      47.395 127.981  15.820  1.00  0.00     0.488 HD
ATOM     33  C   UNL     1      47.878 131.266  12.668  1.00  0.00     0.071 C 
ATOM     34  H   UNL     1      48.413 128.626  13.611  1.00  0.00     0.238 HD
ENDBRANCH  18  23
ENDBRANCH   1  14
TORSDOF 4
ENDMDL
MODEL 2
REMARK VINA RESULT:      -8.0      1.116      1.507
REMARK SMILES Cc1cc(N)c(Nc2c(F)nc(C)c(-c3ccc4c(C)[nH][nH+]c4c3)c2C)cc1F
REMARK SMILES IDX 7 1 6 3 2 4 3 5 28 6 4 7 27 8 1 9 29 10 5 11 8 14 9 15 25 16
REMARK SMILES IDX 11 17 14 18 12 19 10 20 26 21 13 22 15 23 16 24 24 25 17 26
REMARK SMILES IDX 23 27 18 28 22 29 19 30 21 31 20 33
REMARK H PARENT 7 2 5 12 5 13 22 32 21 34
ROOT
ATOM      1  N   UNL     1      44.141 131.747  21.902  1.00  0.00    -0.350 N 
ATOM      2  H   UNL     1      44.273 132.621  22.460  1.00  0.00     0.167 HD
ENDROOT
BRANCH   1   3
ATOM      3  C   UNL     1      44.034 130.499  22.612  1.00  0.00     0.065 A 
ATOM      4  C   UNL     1      43.797 128.020  23.937  1.00  0.00    -0.013 A 
ATOM      5  C   UNL     1      42.965 129.093  24.288  1.00  0.00     0.034 A 
ATOM      6  C   UNL     1      44.738 128.185  22.910  1.00  0.00     0.128 A 
ATOM      7  C   UNL     1      43.081 130.334  23.642  1.00  0.00     0.056 A 
ATOM      8  C   UNL     1      44.854 129.413  22.255  1.00  0.00     0.067 A 
ATOM      9  C   UNL     1      43.653 126.691  24.621  1.00  0.00     0.047 C 
ATOM     10  F   UNL     1      45.537 127.154  22.535  1.00  0.00    -0.207 F 
BRANCH   7  11
ATOM     11  N   UNL     1      42.252 131.422  24.072  1.00  0.00    -0.397 N 
ATOM     12  H   UNL     1      42.426 131.889  24.990  1.00  0.00     0.156 HD
ATOM     13  H   UNL     1      41.502 131.821  23.466  1.00  0.00     0.156 HD
ENDBRANCH   7  11
ENDBRANCH   1   3
BRANCH   1  14
ATOM     14  C   UNL     1      43.808 131.889  20.511  1.00  0.00     0.098 A 
ATOM     15  C   UNL     1      42.543 132.378  20.164  1.00  0.00     0.237 A 
ATOM     16  C   UNL     1      44.725 131.560  19.485  1.00  0.00    -0.013 A 
ATOM     17  N   UNL     1      42.177 132.467  18.862  1.00  0.00    -0.223 NA
ATOM     18  C   UNL     1      44.304 131.635  18.134  1.00  0.00     0.008 A 
ATOM     19  C   UNL     1      43.000 132.099  17.846  1.00  0.00     0.049 A 
ATOM     20  F   UNL     1      41.658 132.733  21.127  1.00  0.00    -0.183 F 
ATOM     21  C   UNL     1      46.138 131.141  19.826  1.00  0.00     0.047 C 
ATOM     22  C   UNL     1      42.488 132.207  16.439  1.00  0.00     0.067 C 
BRANCH  18  23
ATOM     23  C   UNL     1      45.204 131.217  17.036  1.00  0.00    -0.009 A 
ATOM     24  C   UNL     1      45.677 129.879  16.971  1.00  0.00     0.010 A 
ATOM     25  C   UNL     1      45.583 132.150  16.045  1.00  0.00     0.091 A 
ATOM     26  C   UNL     1      46.530 129.469  15.929  1.00  0.00     0.018 A 
ATOM     27  C   UNL     1      46.425 131.709  15.028  1.00  0.00     0.236 A 
ATOM     28  C   UNL     1      46.878 130.418  14.972  1.00  0.00     0.073 A 
ATOM     29  N   UNL     1      46.926 132.412  13.998  1.00  0.00    -0.126 N 
ATOM     30  C   UNL     1      47.677 130.364  13.847  1.00  0.00     0.084 A 
ATOM     31  N   UNL     1      47.692 131.596  13.284  1.00  0.00    -0.171 N 
ATOM     32  H   UNL     1      46.765 133.422  13.785  1.00  0.00     0.488 HD
ATOM     33  C   UNL     1      48.469 129.194  13.361  1.00  0.00     0.071 C 
ATOM     34  H   UNL     1      48.222 131.881  12.431  1.00  0.00     0.238 HD
ENDBRANCH  18  23
ENDBRANCH   1  14
TORSDOF 4
ENDMDL
MODEL 3
REMARK VINA RESULT:      -7.8      0.995      1.092
REMARK SMILES Cc1cc(N)c(Nc2c(F)nc(C)c(-c3ccc4c(C)[nH][nH+]c4c3)c2C)cc1F
REMARK SMILES IDX 7 1 6 3 2 4 3 5 28 6 4 7 27 8 1 9 29 10 5 11 8 14 9 15 25 16
REMARK SMILES IDX 11 17 14 18 12 19 10 20 26 21 13 22 15 23 16 24 24 25 17 26
REMARK SMILES IDX 23 27 18 28 22 29 19 30 21 31 20 33
REMARK H PARENT 7 2 5 12 5 13 22 32 21 34
ROOT
ATOM      1  N   UNL     1      43.902 131.849  21.547  1.00  0.00    -0.350 N 
ATOM      2  H   UNL     1      44.058 132.758  22.040  1.00  0.00     0.167 HD
ENDROOT
BRANCH   1   3
ATOM      3  C   UNL     1      43.777 130.658  22.344  1.00  0.00     0.065 A 
ATOM      4  C   UNL     1      43.507 128.283  23.844  1.00  0.00    -0.013 A 
ATOM      5  C   UNL     1      42.659 129.374  24.085  1.00  0.00     0.034 A 
ATOM      6  C   UNL     1      44.480 128.377  22.839  1.00  0.00     0.128 A 
ATOM      7  C   UNL     1      42.791 130.564  23.352  1.00  0.00     0.056 A 
ATOM      8  C   UNL     1      44.613 129.553  22.098  1.00  0.00     0.067 A 
ATOM      9  C   UNL     1      43.346 127.008  24.620  1.00  0.00     0.047 C 
ATOM     10  F   UNL     1      45.296 127.326  22.568  1.00  0.00    -0.207 F 
BRANCH   7  11
ATOM     11  N   UNL     1      41.943 131.675  23.672  1.00  0.00    -0.397 N 
ATOM     12  H   UNL     1      41.422 131.700  24.577  1.00  0.00     0.156 HD
ATOM     13  H   UNL     1      41.870 132.513  23.055  1.00  0.00     0.156 HD
ENDBRANCH   7  11
ENDBRANCH   1   3
BRANCH   1  14
ATOM     14  C   UNL     1      43.557 131.900  20.152  1.00  0.00     0.098 A 
ATOM     15  C   UNL     1      42.247 132.233  19.791  1.00  0.00     0.237 A 
ATOM     16  C   UNL     1      44.506 131.634  19.136  1.00  0.00    -0.013 A 
ATOM     17  N   UNL     1      41.875 132.230  18.488  1.00  0.00    -0.223 NA
ATOM     18  C   UNL     1      44.080 131.610  17.785  1.00  0.00     0.008 A 
ATOM     19  C   UNL     1      42.734 131.916  17.484  1.00  0.00     0.049 A 
ATOM     20  F   UNL     1      41.326 132.525  20.742  1.00  0.00    -0.183 F 
ATOM     21  C   UNL     1      45.956 131.386  19.490  1.00  0.00     0.047 C 
ATOM     22  C   UNL     1      42.214 131.911  16.075  1.00  0.00     0.067 C 
BRANCH  18  23
ATOM     23  C   UNL     1      45.023 131.250  16.701  1.00  0.00    -0.009 A 
ATOM     24  C   UNL     1      45.618 132.267  15.907  1.00  0.00     0.010 A 
ATOM     25  C   UNL     1      45.338 129.893  16.466  1.00  0.00     0.091 A 
ATOM     26  C   UNL     1      46.519 131.937  14.878  1.00  0.00     0.018 A 
ATOM     27  C   UNL     1      46.234 129.605  15.442  1.00  0.00     0.236 A 
ATOM     28  C   UNL     1      46.804 130.589  14.680  1.00  0.00     0.073 A 
ATOM     29  N   UNL     1      46.667 128.402  15.028  1.00  0.00    -0.126 N 
ATOM     30  C   UNL     1      47.617 129.926  13.781  1.00  0.00     0.084 A 
ATOM     31  N   UNL     1      47.502 128.597  14.014  1.00  0.00    -0.171 N 
ATOM     32  H   UNL     1      46.399 127.468  15.412  1.00  0.00     0.488 HD
ATOM     33  C   UNL     1      48.422 130.532  12.678  1.00  0.00     0.071 C 
ATOM     34  H   UNL     1      47.978 127.832  13.487  1.00  0.00     0.238 HD
ENDBRANCH  18  23
ENDBRANCH   1  14
TORSDOF 4
ENDMDL
MODEL 4
REMARK VINA RESULT:      -7.2      1.900      2.792
REMARK SMILES Cc1cc(N)c(Nc2c(F)nc(C)c(-c3ccc4c(C)[nH][nH+]c4c3)c2C)cc1F
REMARK SMILES IDX 7 1 6 3 2 4 3 5 28 6 4 7 27 8 1 9 29 10 5 11 8 14 9 15 25 16
REMARK SMILES IDX 11 17 14 18 12 19 10 20 26 21 13 22 15 23 16 24 24 25 17 26
REMARK SMILES IDX 23 27 18 28 22 29 19 30 21 31 20 33
REMARK H PARENT 7 2 5 12 5 13 22 32 21 34
ROOT
ATOM      1  N   UNL     1      44.592 129.062  23.821  1.00  0.00    -0.350 N 
ATOM      2  H   UNL     1      45.153 129.393  24.639  1.00  0.00     0.167 HD
ENDROOT
BRANCH   1   3
ATOM      3  C   UNL     1      44.106 127.707  23.836  1.00  0.00     0.065 A 
ATOM      4  C   UNL     1      43.124 125.064  23.936  1.00  0.00    -0.013 A 
ATOM      5  C   UNL     1      44.505 125.308  23.956  1.00  0.00     0.034 A 
ATOM      6  C   UNL     1      42.234 126.147  23.883  1.00  0.00     0.128 A 
ATOM      7  C   UNL     1      45.005 126.619  23.896  1.00  0.00     0.056 A 
ATOM      8  C   UNL     1      42.722 127.454  23.832  1.00  0.00     0.067 A 
ATOM      9  C   UNL     1      42.598 123.660  24.019  1.00  0.00     0.047 C 
ATOM     10  F   UNL     1      40.893 125.939  23.888  1.00  0.00    -0.207 F 
BRANCH   7  11
ATOM     11  N   UNL     1      46.424 126.820  23.858  1.00  0.00    -0.397 N 
ATOM     12  H   UNL     1      47.065 126.026  23.634  1.00  0.00     0.156 HD
ATOM     13  H   UNL     1      46.854 127.762  23.985  1.00  0.00     0.156 HD
ENDBRANCH   7  11
ENDBRANCH   1   3
BRANCH   1  14
ATOM     14  C   UNL     1      44.127 130.052  22.889  1.00  0.00     0.098 A 
ATOM     15  C   UNL     1      43.227 131.027  23.330  1.00  0.00     0.237 A 
ATOM     16  C   UNL     1      44.563 130.075  21.542  1.00  0.00    -0.013 A 
ATOM     17  N   UNL     1      42.723 131.938  22.462  1.00  0.00    -0.223 NA
ATOM     18  C   UNL     1      43.998 131.020  20.651  1.00  0.00     0.008 A 
ATOM     19  C   UNL     1      43.062 131.956  21.146  1.00  0.00     0.049 A 
ATOM     20  F   UNL     1      42.818 131.049  24.623  1.00  0.00    -0.183 F 
ATOM     21  C   UNL     1      45.624 129.108  21.065  1.00  0.00     0.047 C 
ATOM     22  C   UNL     1      42.424 132.987  20.260  1.00  0.00     0.067 C 
BRANCH  18  23
ATOM     23  C   UNL     1      44.363 131.020  19.216  1.00  0.00    -0.009 A 
ATOM     24  C   UNL     1      43.496 131.614  18.260  1.00  0.00     0.010 A 
ATOM     25  C   UNL     1      45.581 130.438  18.802  1.00  0.00     0.091 A 
ATOM     26  C   UNL     1      43.836 131.624  16.894  1.00  0.00     0.018 A 
ATOM     27  C   UNL     1      45.886 130.469  17.445  1.00  0.00     0.236 A 
ATOM     28  C   UNL     1      45.046 131.042  16.527  1.00  0.00     0.073 A 
ATOM     29  N   UNL     1      46.967 129.969  16.822  1.00  0.00    -0.126 N 
ATOM     30  C   UNL     1      45.674 130.875  15.309  1.00  0.00     0.084 A 
ATOM     31  N   UNL     1      46.834 130.211  15.523  1.00  0.00    -0.171 N 
ATOM     32  H   UNL     1      47.772 129.467  17.259  1.00  0.00     0.488 HD
ATOM     33  C   UNL     1      45.151 131.267  13.965  1.00  0.00     0.071 C 
ATOM     34  H   UNL     1      47.524 129.918  14.796  1.00  0.00     0.238 HD
ENDBRANCH  18  23
ENDBRANCH   1  14
TORSDOF 4
ENDMDL


