MODEL 1
REMARK VINA RESULT:      -4.4      0.000      0.000
REMARK SMILES C[C@@H]1CC[C@@H](c2ccc3[nH+]cccc3c2)[C@H](F)N1c1nc[nH+]c2c1CCC2
REMARK SMILES IDX 1 1 2 2 3 3 4 4 5 5 16 6 17 7 18 8 19 9 20 10 24 11 21 12
REMARK SMILES IDX 23 13 25 14 22 15 27 16 26 17 6 19 7 20 15 21 8 22 14 23
REMARK SMILES IDX 9 24 13 25 10 26 12 27 11 28
REMARK H PARENT 22 18 10 29
ROOT
ATOM      1  C   UNL     1      41.581 132.984  20.959  1.00  0.00     0.031 C 
ATOM      2  C   UNL     1      42.679 132.769  19.902  1.00  0.00     0.085 C 
ATOM      3  C   UNL     1      42.028 132.292  18.589  1.00  0.00     0.026 C 
ATOM      4  C   UNL     1      43.086 131.956  17.537  1.00  0.00     0.015 C 
ATOM      5  C   UNL     1      44.053 130.888  18.073  1.00  0.00     0.074 C 
ATOM      6  C   UNL     1      44.722 131.373  19.372  1.00  0.00     0.273 C 
ATOM      7  F   UNL     1      45.492 130.344  19.893  1.00  0.00    -0.223 F 
ATOM      8  N   UNL     1      43.703 131.798  20.346  1.00  0.00    -0.302 N 
ENDROOT
BRANCH   8   9
ATOM      9  C   UNL     1      44.054 131.716  21.734  1.00  0.00     0.252 A 
ATOM     10  N   UNL     1      44.963 132.578  22.271  1.00  0.00    -0.030 NA
ATOM     11  C   UNL     1      43.471 130.758  22.564  1.00  0.00     0.063 A 
ATOM     12  C   UNL     1      45.301 132.514  23.592  1.00  0.00     0.451 A 
ATOM     13  C   UNL     1      43.819 130.712  23.882  1.00  0.00     0.110 A 
ATOM     14  C   UNL     1      42.456 129.737  22.217  1.00  0.00     0.046 C 
ATOM     15  N   UNL     1      44.727 131.578  24.403  1.00  0.00    -0.247 N 
ATOM     16  C   UNL     1      43.101 129.653  24.623  1.00  0.00     0.081 C 
ATOM     17  C   UNL     1      42.202 129.003  23.550  1.00  0.00     0.014 C 
ATOM     18  H   UNL     1      44.983 131.531  25.414  1.00  0.00     0.311 HD
ENDBRANCH   8   9
BRANCH   5  19
ATOM     19  C   UNL     1      45.082 130.501  17.027  1.00  0.00    -0.039 A 
ATOM     20  C   UNL     1      45.770 129.280  17.142  1.00  0.00     0.011 A 
ATOM     21  C   UNL     1      45.368 131.347  15.938  1.00  0.00     0.019 A 
ATOM     22  C   UNL     1      46.723 128.906  16.191  1.00  0.00     0.080 A 
ATOM     23  C   UNL     1      46.323 130.977  14.982  1.00  0.00     0.047 A 
ATOM     24  C   UNL     1      47.008 129.748  15.107  1.00  0.00     0.210 A 
ATOM     25  C   UNL     1      46.617 131.809  13.894  1.00  0.00     0.021 A 
ATOM     26  N   UNL     1      47.938 129.389  14.174  1.00  0.00    -0.211 N 
ATOM     27  C   UNL     1      47.572 131.416  12.957  1.00  0.00     0.071 A 
ATOM     28  C   UNL     1      48.228 130.193  13.114  1.00  0.00     0.306 A 
ATOM     29  H   UNL     1      48.448 128.481  14.262  1.00  0.00     0.453 HD
ENDBRANCH   5  19
TORSDOF 2
ENDMDL
MODEL 2
REMARK VINA RESULT:      -4.1      1.036      1.586
REMARK SMILES C[C@@H]1CC[C@@H](c2ccc3[nH+]cccc3c2)[C@H](F)N1c1nc[nH+]c2c1CCC2
REMARK SMILES IDX 1 1 2 2 3 3 4 4 5 5 16 6 17 7 18 8 19 9 20 10 24 11 21 12
REMARK SMILES IDX 23 13 25 14 22 15 27 16 26 17 6 19 7 20 15 21 8 22 14 23
REMARK SMILES IDX 9 24 13 25 10 26 12 27 11 28
REMARK H PARENT 22 18 10 29
ROOT
ATOM      1  C   UNL     1      41.390 132.135  21.703  1.00  0.00     0.031 C 
ATOM      2  C   UNL     1      42.369 132.365  20.538  1.00  0.00     0.085 C 
ATOM      3  C   UNL     1      41.704 131.913  19.224  1.00  0.00     0.026 C 
ATOM      4  C   UNL     1      42.676 132.016  18.047  1.00  0.00     0.015 C 
ATOM      5  C   UNL     1      43.937 131.181  18.322  1.00  0.00     0.074 C 
ATOM      6  C   UNL     1      44.616 131.646  19.622  1.00  0.00     0.273 C 
ATOM      7  F   UNL     1      45.677 130.798  19.904  1.00  0.00    -0.223 F 
ATOM      8  N   UNL     1      43.650 131.650  20.733  1.00  0.00    -0.302 N 
ENDROOT
BRANCH   8   9
ATOM      9  C   UNL     1      44.177 131.476  22.056  1.00  0.00     0.252 A 
ATOM     10  N   UNL     1      44.697 132.536  22.738  1.00  0.00    -0.030 NA
ATOM     11  C   UNL     1      44.164 130.226  22.673  1.00  0.00     0.063 A 
ATOM     12  C   UNL     1      45.195 132.385  24.000  1.00  0.00     0.451 A 
ATOM     13  C   UNL     1      44.664 130.097  23.935  1.00  0.00     0.110 A 
ATOM     14  C   UNL     1      43.640 128.945  22.145  1.00  0.00     0.046 C 
ATOM     15  N   UNL     1      45.179 131.161  24.603  1.00  0.00    -0.247 N 
ATOM     16  C   UNL     1      44.562 128.713  24.448  1.00  0.00     0.081 C 
ATOM     17  C   UNL     1      43.892 127.943  23.291  1.00  0.00     0.014 C 
ATOM     18  H   UNL     1      45.558 131.047  25.570  1.00  0.00     0.311 HD
ENDBRANCH   8   9
BRANCH   5  19
ATOM     19  C   UNL     1      44.895 131.226  17.145  1.00  0.00    -0.039 A 
ATOM     20  C   UNL     1      45.212 132.459  16.548  1.00  0.00     0.011 A 
ATOM     21  C   UNL     1      45.473 130.049  16.631  1.00  0.00     0.019 A 
ATOM     22  C   UNL     1      46.089 132.522  15.462  1.00  0.00     0.080 A 
ATOM     23  C   UNL     1      46.353 130.106  15.542  1.00  0.00     0.047 A 
ATOM     24  C   UNL     1      46.665 131.351  14.951  1.00  0.00     0.210 A 
ATOM     25  C   UNL     1      46.936 128.943  15.021  1.00  0.00     0.021 A 
ATOM     26  N   UNL     1      47.523 131.404  13.890  1.00  0.00    -0.211 N 
ATOM     27  C   UNL     1      47.808 129.030  13.936  1.00  0.00     0.071 A 
ATOM     28  C   UNL     1      48.092 130.278  13.379  1.00  0.00     0.306 A 
ATOM     29  H   UNL     1      47.756 132.323  13.449  1.00  0.00     0.453 HD
ENDBRANCH   5  19
TORSDOF 2
ENDMDL
MODEL 3
REMARK VINA RESULT:      -2.8      2.618      3.801
REMARK SMILES C[C@@H]1CC[C@@H](c2ccc3[nH+]cccc3c2)[C@H](F)N1c1nc[nH+]c2c1CCC2
REMARK SMILES IDX 1 1 2 2 3 3 4 4 5 5 16 6 17 7 18 8 19 9 20 10 24 11 21 12
REMARK SMILES IDX 23 13 25 14 22 15 27 16 26 17 6 19 7 20 15 21 8 22 14 23
REMARK SMILES IDX 9 24 13 25 10 26 12 27 11 28
REMARK H PARENT 22 18 10 29
ROOT
ATOM      1  C   UNL     1      44.163 130.044  24.618  1.00  0.00     0.031 C 
ATOM      2  C   UNL     1      44.805 130.419  23.271  1.00  0.00     0.085 C 
ATOM      3  C   UNL     1      44.013 131.582  22.642  1.00  0.00     0.026 C 
ATOM      4  C   UNL     1      44.541 131.923  21.248  1.00  0.00     0.015 C 
ATOM      5  C   UNL     1      44.483 130.685  20.339  1.00  0.00     0.074 C 
ATOM      6  C   UNL     1      45.293 129.529  20.953  1.00  0.00     0.273 C 
ATOM      7  F   UNL     1      45.122 128.395  20.172  1.00  0.00    -0.223 F 
ATOM      8  N   UNL     1      44.856 129.274  22.335  1.00  0.00    -0.302 N 
ENDROOT
BRANCH   8   9
ATOM      9  C   UNL     1      45.042 127.946  22.843  1.00  0.00     0.252 A 
ATOM     10  N   UNL     1      46.284 127.386  22.881  1.00  0.00    -0.030 NA
ATOM     11  C   UNL     1      43.960 127.201  23.312  1.00  0.00     0.063 A 
ATOM     12  C   UNL     1      46.475 126.126  23.368  1.00  0.00     0.451 A 
ATOM     13  C   UNL     1      44.171 125.944  23.797  1.00  0.00     0.110 A 
ATOM     14  C   UNL     1      42.534 127.598  23.387  1.00  0.00     0.046 C 
ATOM     15  N   UNL     1      45.415 125.400  23.829  1.00  0.00    -0.247 N 
ATOM     16  C   UNL     1      42.926 125.299  24.265  1.00  0.00     0.081 C 
ATOM     17  C   UNL     1      41.842 126.366  24.007  1.00  0.00     0.014 C 
ATOM     18  H   UNL     1      45.562 124.436  24.204  1.00  0.00     0.311 HD
ENDBRANCH   8   9
BRANCH   5  19
ATOM     19  C   UNL     1      44.954 131.011  18.933  1.00  0.00    -0.039 A 
ATOM     20  C   UNL     1      44.746 132.299  18.407  1.00  0.00     0.011 A 
ATOM     21  C   UNL     1      45.595 130.042  18.137  1.00  0.00     0.019 A 
ATOM     22  C   UNL     1      45.169 132.618  17.114  1.00  0.00     0.080 A 
ATOM     23  C   UNL     1      46.022 130.358  16.839  1.00  0.00     0.047 A 
ATOM     24  C   UNL     1      45.808 131.655  16.322  1.00  0.00     0.210 A 
ATOM     25  C   UNL     1      46.661 129.404  16.036  1.00  0.00     0.021 A 
ATOM     26  N   UNL     1      46.224 131.960  15.057  1.00  0.00    -0.211 N 
ATOM     27  C   UNL     1      47.075 129.745  14.749  1.00  0.00     0.071 A 
ATOM     28  C   UNL     1      46.846 131.038  14.272  1.00  0.00     0.306 A 
ATOM     29  H   UNL     1      46.068 132.918  14.670  1.00  0.00     0.453 HD
ENDBRANCH   5  19
TORSDOF 2
ENDMDL
MODEL 4
REMARK VINA RESULT:      -2.6      6.810     10.072
REMARK SMILES C[C@@H]1CC[C@@H](c2ccc3[nH+]cccc3c2)[C@H](F)N1c1nc[nH+]c2c1CCC2
REMARK SMILES IDX 1 1 2 2 3 3 4 4 5 5 16 6 17 7 18 8 19 9 20 10 24 11 21 12
REMARK SMILES IDX 23 13 25 14 22 15 27 16 26 17 6 19 7 20 15 21 8 22 14 23
REMARK SMILES IDX 9 24 13 25 10 26 12 27 11 28
REMARK H PARENT 22 18 10 29
ROOT
ATOM      1  C   UNL     1      49.295 122.822  24.142  1.00  0.00     0.031 C 
ATOM      2  C   UNL     1      48.141 123.771  24.511  1.00  0.00     0.085 C 
ATOM      3  C   UNL     1      46.806 123.129  24.086  1.00  0.00     0.026 C 
ATOM      4  C   UNL     1      45.632 124.079  24.330  1.00  0.00     0.015 C 
ATOM      5  C   UNL     1      45.852 125.402  23.578  1.00  0.00     0.074 C 
ATOM      6  C   UNL     1      47.174 126.057  24.018  1.00  0.00     0.273 C 
ATOM      7  F   UNL     1      47.401 127.181  23.238  1.00  0.00    -0.223 F 
ATOM      8  N   UNL     1      48.287 125.104  23.886  1.00  0.00    -0.302 N 
ENDROOT
BRANCH   8   9
ATOM      9  C   UNL     1      49.595 125.655  23.678  1.00  0.00     0.252 A 
ATOM     10  N   UNL     1      50.135 126.518  24.584  1.00  0.00    -0.030 NA
ATOM     11  C   UNL     1      50.343 125.317  22.550  1.00  0.00     0.063 A 
ATOM     12  C   UNL     1      51.382 127.043  24.402  1.00  0.00     0.451 A 
ATOM     13  C   UNL     1      51.588 125.851  22.386  1.00  0.00     0.110 A 
ATOM     14  C   UNL     1      49.980 124.396  21.448  1.00  0.00     0.046 C 
ATOM     15  N   UNL     1      52.112 126.709  23.298  1.00  0.00    -0.247 N 
ATOM     16  C   UNL     1      52.250 125.381  21.151  1.00  0.00     0.081 C 
ATOM     17  C   UNL     1      51.214 124.425  20.522  1.00  0.00     0.014 C 
ATOM     18  H   UNL     1      53.068 127.110  23.161  1.00  0.00     0.311 HD
ENDBRANCH   8   9
BRANCH   5  19
ATOM     19  C   UNL     1      44.675 126.343  23.763  1.00  0.00    -0.039 A 
ATOM     20  C   UNL     1      44.901 127.718  23.949  1.00  0.00     0.011 A 
ATOM     21  C   UNL     1      43.351 125.862  23.757  1.00  0.00     0.019 A 
ATOM     22  C   UNL     1      43.832 128.600  24.124  1.00  0.00     0.080 A 
ATOM     23  C   UNL     1      42.274 126.743  23.932  1.00  0.00     0.047 A 
ATOM     24  C   UNL     1      42.514 128.123  24.117  1.00  0.00     0.210 A 
ATOM     25  C   UNL     1      40.953 126.279  23.928  1.00  0.00     0.021 A 
ATOM     26  N   UNL     1      41.464 128.979  24.287  1.00  0.00    -0.211 N 
ATOM     27  C   UNL     1      39.901 127.177  24.104  1.00  0.00     0.071 A 
ATOM     28  C   UNL     1      40.177 128.534  24.284  1.00  0.00     0.306 A 
ATOM     29  H   UNL     1      41.636 130.001  24.425  1.00  0.00     0.453 HD
ENDBRANCH   5  19
TORSDOF 2
ENDMDL
MODEL 5
REMARK VINA RESULT:      -1.8      6.566      8.623
REMARK SMILES C[C@@H]1CC[C@@H](c2ccc3[nH+]cccc3c2)[C@H](F)N1c1nc[nH+]c2c1CCC2
REMARK SMILES IDX 1 1 2 2 3 3 4 4 5 5 16 6 17 7 18 8 19 9 20 10 24 11 21 12
REMARK SMILES IDX 23 13 25 14 22 15 27 16 26 17 6 19 7 20 15 21 8 22 14 23
REMARK SMILES IDX 9 24 13 25 10 26 12 27 11 28
REMARK H PARENT 22 18 10 29
ROOT
ATOM      1  C   UNL     1      42.087 124.239  23.474  1.00  0.00     0.031 C 
ATOM      2  C   UNL     1      43.578 124.139  23.105  1.00  0.00     0.085 C 
ATOM      3  C   UNL     1      44.157 122.839  23.697  1.00  0.00     0.026 C 
ATOM      4  C   UNL     1      45.664 122.743  23.454  1.00  0.00     0.015 C 
ATOM      5  C   UNL     1      46.379 123.966  24.050  1.00  0.00     0.074 C 
ATOM      6  C   UNL     1      45.819 125.265  23.443  1.00  0.00     0.273 C 
ATOM      7  F   UNL     1      46.398 126.349  24.087  1.00  0.00    -0.223 F 
ATOM      8  N   UNL     1      44.354 125.305  23.581  1.00  0.00    -0.302 N 
ENDROOT
BRANCH   8   9
ATOM      9  C   UNL     1      43.740 126.600  23.629  1.00  0.00     0.252 A 
ATOM     10  N   UNL     1      42.613 126.805  24.369  1.00  0.00    -0.030 NA
ATOM     11  C   UNL     1      44.281 127.676  22.925  1.00  0.00     0.063 A 
ATOM     12  C   UNL     1      42.023 128.034  24.428  1.00  0.00     0.451 A 
ATOM     13  C   UNL     1      43.678 128.897  22.999  1.00  0.00     0.110 A 
ATOM     14  C   UNL     1      45.495 127.702  22.076  1.00  0.00     0.046 C 
ATOM     15  N   UNL     1      42.556 129.086  23.741  1.00  0.00    -0.247 N 
ATOM     16  C   UNL     1      44.384 129.928  22.209  1.00  0.00     0.081 C 
ATOM     17  C   UNL     1      45.578 129.166  21.598  1.00  0.00     0.014 C 
ATOM     18  H   UNL     1      42.105 130.027  23.789  1.00  0.00     0.311 HD
ENDBRANCH   8   9
BRANCH   5  19
ATOM     19  C   UNL     1      47.883 123.868  23.867  1.00  0.00    -0.039 A 
ATOM     20  C   UNL     1      48.618 122.926  24.608  1.00  0.00     0.011 A 
ATOM     21  C   UNL     1      48.564 124.711  22.967  1.00  0.00     0.019 A 
ATOM     22  C   UNL     1      50.003 122.822  24.457  1.00  0.00     0.080 A 
ATOM     23  C   UNL     1      49.953 124.611  22.812  1.00  0.00     0.047 A 
ATOM     24  C   UNL     1      50.681 123.660  23.561  1.00  0.00     0.210 A 
ATOM     25  C   UNL     1      50.643 125.443  21.920  1.00  0.00     0.021 A 
ATOM     26  N   UNL     1      52.034 123.564  23.408  1.00  0.00    -0.211 N 
ATOM     27  C   UNL     1      52.026 125.322  21.785  1.00  0.00     0.071 A 
ATOM     28  C   UNL     1      52.710 124.370  22.543  1.00  0.00     0.306 A 
ATOM     29  H   UNL     1      52.577 122.862  23.961  1.00  0.00     0.453 HD
ENDBRANCH   5  19
TORSDOF 2
ENDMDL
MODEL 6
REMARK VINA RESULT:      -1.7      1.012      2.236
REMARK SMILES C[C@@H]1CC[C@@H](c2ccc3[nH+]cccc3c2)[C@H](F)N1c1nc[nH+]c2c1CCC2
REMARK SMILES IDX 1 1 2 2 3 3 4 4 5 5 16 6 17 7 18 8 19 9 20 10 24 11 21 12
REMARK SMILES IDX 23 13 25 14 22 15 27 16 26 17 6 19 7 20 15 21 8 22 14 23
REMARK SMILES IDX 9 24 13 25 10 26 12 27 11 28
REMARK H PARENT 22 18 10 29
ROOT
ATOM      1  C   UNL     1      41.649 133.113  20.791  1.00  0.00     0.031 C 
ATOM      2  C   UNL     1      42.709 132.859  19.705  1.00  0.00     0.085 C 
ATOM      3  C   UNL     1      42.016 132.302  18.446  1.00  0.00     0.026 C 
ATOM      4  C   UNL     1      43.038 131.926  17.372  1.00  0.00     0.015 C 
ATOM      5  C   UNL     1      44.043 130.903  17.926  1.00  0.00     0.074 C 
ATOM      6  C   UNL     1      44.753 131.466  19.169  1.00  0.00     0.273 C 
ATOM      7  F   UNL     1      45.560 130.478  19.713  1.00  0.00    -0.223 F 
ATOM      8  N   UNL     1      43.766 131.928  20.159  1.00  0.00    -0.302 N 
ENDROOT
BRANCH   8   9
ATOM      9  C   UNL     1      44.171 131.925  21.535  1.00  0.00     0.252 A 
ATOM     10  N   UNL     1      43.468 131.214  22.462  1.00  0.00    -0.030 NA
ATOM     11  C   UNL     1      45.292 132.641  21.952  1.00  0.00     0.063 A 
ATOM     12  C   UNL     1      43.847 131.197  23.773  1.00  0.00     0.451 A 
ATOM     13  C   UNL     1      45.656 132.610  23.266  1.00  0.00     0.110 A 
ATOM     14  C   UNL     1      46.214 133.464  21.136  1.00  0.00     0.046 C 
ATOM     15  N   UNL     1      44.946 131.897  24.178  1.00  0.00    -0.247 N 
ATOM     16  C   UNL     1      46.871 133.408  23.539  1.00  0.00     0.081 C 
ATOM     17  C   UNL     1      47.253 133.975  22.156  1.00  0.00     0.014 C 
ATOM     18  H   UNL     1      45.237 131.881  25.182  1.00  0.00     0.311 HD
ENDBRANCH   8   9
BRANCH   5  19
ATOM     19  C   UNL     1      45.037 130.475  16.861  1.00  0.00    -0.039 A 
ATOM     20  C   UNL     1      45.482 129.142  16.815  1.00  0.00     0.011 A 
ATOM     21  C   UNL     1      45.531 131.394  15.915  1.00  0.00     0.019 A 
ATOM     22  C   UNL     1      46.400 128.729  15.846  1.00  0.00     0.080 A 
ATOM     23  C   UNL     1      46.452 130.985  14.940  1.00  0.00     0.047 A 
ATOM     24  C   UNL     1      46.891 129.643  14.904  1.00  0.00     0.210 A 
ATOM     25  C   UNL     1      46.951 131.888  13.993  1.00  0.00     0.021 A 
ATOM     26  N   UNL     1      47.788 129.246  13.953  1.00  0.00    -0.211 N 
ATOM     27  C   UNL     1      47.866 131.454  13.034  1.00  0.00     0.071 A 
ATOM     28  C   UNL     1      48.277 130.119  13.029  1.00  0.00     0.306 A 
ATOM     29  H   UNL     1      48.116 128.254  13.922  1.00  0.00     0.453 HD
ENDBRANCH   5  19
TORSDOF 2
ENDMDL
MODEL 7
REMARK VINA RESULT:      -1.7      1.922      3.176
REMARK SMILES C[C@@H]1CC[C@@H](c2ccc3[nH+]cccc3c2)[C@H](F)N1c1nc[nH+]c2c1CCC2
REMARK SMILES IDX 1 1 2 2 3 3 4 4 5 5 16 6 17 7 18 8 19 9 20 10 24 11 21 12
REMARK SMILES IDX 23 13 25 14 22 15 27 16 26 17 6 19 7 20 15 21 8 22 14 23
REMARK SMILES IDX 9 24 13 25 10 26 12 27 11 28
REMARK H PARENT 22 18 10 29
ROOT
ATOM      1  C   UNL     1      44.470 132.292  24.602  1.00  0.00     0.031 C 
ATOM      2  C   UNL     1      44.970 131.758  23.248  1.00  0.00     0.085 C 
ATOM      3  C   UNL     1      45.486 132.936  22.400  1.00  0.00     0.026 C 
ATOM      4  C   UNL     1      45.893 132.475  21.000  1.00  0.00     0.015 C 
ATOM      5  C   UNL     1      44.708 131.792  20.298  1.00  0.00     0.074 C 
ATOM      6  C   UNL     1      44.206 130.600  21.131  1.00  0.00     0.273 C 
ATOM      7  F   UNL     1      43.066 130.082  20.534  1.00  0.00    -0.223 F 
ATOM      8  N   UNL     1      43.918 131.023  22.511  1.00  0.00    -0.302 N 
ENDROOT
BRANCH   8   9
ATOM      9  C   UNL     1      42.936 130.266  23.234  1.00  0.00     0.252 A 
ATOM     10  N   UNL     1      41.793 130.861  23.678  1.00  0.00    -0.030 NA
ATOM     11  C   UNL     1      43.127 128.910  23.493  1.00  0.00     0.063 A 
ATOM     12  C   UNL     1      40.848 130.151  24.361  1.00  0.00     0.451 A 
ATOM     13  C   UNL     1      42.170 128.216  24.175  1.00  0.00     0.110 A 
ATOM     14  C   UNL     1      44.268 128.050  23.100  1.00  0.00     0.046 C 
ATOM     15  N   UNL     1      41.036 128.823  24.611  1.00  0.00    -0.247 N 
ATOM     16  C   UNL     1      42.520 126.790  24.352  1.00  0.00     0.081 C 
ATOM     17  C   UNL     1      43.890 126.660  23.654  1.00  0.00     0.014 C 
ATOM     18  H   UNL     1      40.311 128.279  25.131  1.00  0.00     0.311 HD
ENDBRANCH   8   9
BRANCH   5  19
ATOM     19  C   UNL     1      45.072 131.372  18.886  1.00  0.00    -0.039 A 
ATOM     20  C   UNL     1      46.168 130.516  18.671  1.00  0.00     0.011 A 
ATOM     21  C   UNL     1      44.334 131.828  17.776  1.00  0.00     0.019 A 
ATOM     22  C   UNL     1      46.522 130.120  17.379  1.00  0.00     0.080 A 
ATOM     23  C   UNL     1      44.685 131.433  16.478  1.00  0.00     0.047 A 
ATOM     24  C   UNL     1      45.787 130.573  16.275  1.00  0.00     0.210 A 
ATOM     25  C   UNL     1      43.958 131.879  15.366  1.00  0.00     0.021 A 
ATOM     26  N   UNL     1      46.127 130.190  15.009  1.00  0.00    -0.211 N 
ATOM     27  C   UNL     1      44.330 131.471  14.085  1.00  0.00     0.071 A 
ATOM     28  C   UNL     1      45.425 130.620  13.924  1.00  0.00     0.306 A 
ATOM     29  H   UNL     1      46.941 129.554  14.854  1.00  0.00     0.453 HD
ENDBRANCH   5  19
TORSDOF 2
ENDMDL


