REMARK SMILES CC[C@@H](/[NH+]=C(/S)N(c1ccc2cc[nH]c2c1)c1cccc2cnoc12)c1ccccc1
REMARK SMILES IDX 5 1 6 2 7 4 8 5 9 6 16 7 10 8 15 9 11 10 14 11 12 12 13 13
REMARK SMILES IDX 17 15 18 16 25 17 19 18 24 19 21 20 20 21 23 22 22 23 4 24
REMARK SMILES IDX 3 26 26 27 27 28 31 29 28 30 30 31 29 32 2 33 1 34
REMARK H PARENT 6 3 14 14 4 25
ROOT
ATOM      1  C   UNL     1      -1.622   0.838   1.344  1.00  0.00     0.314 C 
ENDROOT
BRANCH   1   2
ATOM      2  S   UNL     1      -3.323   1.105   1.853  1.00  0.00    -0.055 SA
ATOM      3  H   UNL     1      -2.988   1.016   3.216  1.00  0.00     0.116 HD
ENDBRANCH   1   2
BRANCH   1   4
ATOM      4  N   UNL     1      -1.173  -0.514   1.113  1.00  0.00    -0.184 N 
BRANCH   4   5
ATOM      5  C   UNL     1      -0.127  -1.078   1.937  1.00  0.00     0.136 A 
ATOM      6  C   UNL     1       0.020  -0.680   3.294  1.00  0.00     0.053 A 
ATOM      7  C   UNL     1       0.794  -1.997   1.380  1.00  0.00     0.079 A 
ATOM      8  C   UNL     1       1.062  -1.193   4.087  1.00  0.00     0.015 A 
ATOM      9  C   UNL     1       1.814  -2.484   2.194  1.00  0.00     0.050 A 
ATOM     10  C   UNL     1       1.942  -2.096   3.499  1.00  0.00    -0.000 A 
ATOM     11  N   UNL     1       2.783  -3.351   1.856  1.00  0.00    -0.361 N 
ATOM     12  C   UNL     1       3.041  -2.745   4.017  1.00  0.00     0.028 A 
ATOM     13  C   UNL     1       3.536  -3.514   2.968  1.00  0.00     0.083 A 
ATOM     14  H   UNL     1       2.929  -3.806   0.928  1.00  0.00     0.166 HD
ENDBRANCH   4   5
BRANCH   4  15
ATOM     15  C   UNL     1      -1.922  -1.354   0.205  1.00  0.00     0.179 A 
ATOM     16  C   UNL     1      -2.177  -2.719   0.493  1.00  0.00     0.056 A 
ATOM     17  C   UNL     1      -2.449  -0.856  -0.994  1.00  0.00     0.213 A 
ATOM     18  C   UNL     1      -2.909  -3.525  -0.409  1.00  0.00     0.005 A 
ATOM     19  O   UNL     1      -2.377   0.355  -1.488  1.00  0.00    -0.352 OA
ATOM     20  C   UNL     1      -3.155  -1.641  -1.858  1.00  0.00     0.046 A 
ATOM     21  C   UNL     1      -3.407  -2.984  -1.608  1.00  0.00     0.014 A 
ATOM     22  N   UNL     1      -2.998   0.415  -2.636  1.00  0.00    -0.087 NA
ATOM     23  C   UNL     1      -3.497  -0.815  -2.901  1.00  0.00     0.167 A 
ENDBRANCH   4  15
ENDBRANCH   1   4
BRANCH   1  24
ATOM     24  N   UNL     1      -0.836   1.871   1.189  1.00  0.00    -0.261 N 
ATOM     25  H   UNL     1      -1.240   2.816   1.380  1.00  0.00     0.306 HD
BRANCH  24  26
ATOM     26  C   UNL     1       0.536   1.812   0.654  1.00  0.00     0.204 C 
BRANCH  26  27
ATOM     27  C   UNL     1       0.495   1.635  -0.849  1.00  0.00    -0.004 A 
ATOM     28  C   UNL     1      -0.174   2.566  -1.664  1.00  0.00     0.008 A 
ATOM     29  C   UNL     1       1.117   0.524  -1.448  1.00  0.00     0.008 A 
ATOM     30  C   UNL     1      -0.222   2.386  -3.050  1.00  0.00     0.000 A 
ATOM     31  C   UNL     1       1.060   0.345  -2.833  1.00  0.00     0.000 A 
ATOM     32  C   UNL     1       0.392   1.275  -3.633  1.00  0.00     0.000 A 
ENDBRANCH  26  27
BRANCH  26  33
ATOM     33  C   UNL     1       1.324   3.086   1.024  1.00  0.00     0.051 C 
ATOM     34  C   UNL     1       1.562   3.189   2.531  1.00  0.00     0.009 C 
ENDBRANCH  26  33
ENDBRANCH  24  26
ENDBRANCH   1  24
TORSDOF 8


