REMARK SMILES C[C@@H]1C[C@@H](c2cccc3ncoc23)[C@@H](Nc2cccc(N)c2O)[C@H](O)[C@@H]1F
REMARK SMILES IDX 15 1 14 3 2 4 3 5 26 6 4 7 24 8 1 9 27 10 5 11 6 12 13 13
REMARK SMILES IDX 7 14 12 15 9 16 8 17 11 18 10 19 25 20 16 22 17 23 22 24
REMARK SMILES IDX 18 25 20 26 19 27 23 28 21 30
REMARK H PARENT 15 2 25 21 23 29 21 31 21 32
ROOT
ATOM      1  N   UNL     1       1.117  -0.043  -1.198  1.00  0.00    -0.376 N 
ATOM      2  H   UNL     1       1.835   0.629  -1.550  1.00  0.00     0.161 HD
ENDROOT
BRANCH   1   3
ATOM      3  C   UNL     1       1.381  -0.772   0.054  1.00  0.00     0.118 C 
ATOM      4  C   UNL     1       2.117  -0.673   2.962  1.00  0.00     0.024 C 
ATOM      5  C   UNL     1       0.660  -0.948   2.546  1.00  0.00     0.017 C 
ATOM      6  C   UNL     1       3.097  -1.191   1.894  1.00  0.00     0.200 C 
ATOM      7  C   UNL     1       0.305  -0.432   1.133  1.00  0.00     0.048 C 
ATOM      8  C   UNL     1       2.837  -0.533   0.531  1.00  0.00     0.171 C 
ATOM      9  C   UNL     1       2.412  -1.312   4.326  1.00  0.00     0.011 C 
ATOM     10  F   UNL     1       2.998  -2.571   1.777  1.00  0.00    -0.244 F 
BRANCH   7  11
ATOM     11  C   UNL     1      -0.167   1.022   1.131  1.00  0.00     0.002 A 
ATOM     12  C   UNL     1       0.684   2.123   1.401  1.00  0.00     0.008 A 
ATOM     13  C   UNL     1      -1.498   1.333   0.813  1.00  0.00     0.158 A 
ATOM     14  C   UNL     1       0.195   3.449   1.344  1.00  0.00     0.003 A 
ATOM     15  O   UNL     1      -2.481   0.526   0.508  1.00  0.00    -0.443 OA
ATOM     16  C   UNL     1      -1.964   2.612   0.755  1.00  0.00     0.109 A 
ATOM     17  C   UNL     1      -1.146   3.704   1.014  1.00  0.00     0.032 A 
ATOM     18  C   UNL     1      -3.528   1.297   0.266  1.00  0.00     0.309 A 
ATOM     19  N   UNL     1      -3.261   2.621   0.405  1.00  0.00    -0.217 NA
ENDBRANCH   7  11
BRANCH   8  20
ATOM     20  O   UNL     1       3.734  -1.085  -0.402  1.00  0.00    -0.388 OA
ATOM     21  H   UNL     1       3.936  -0.383  -1.073  1.00  0.00     0.211 HD
ENDBRANCH   8  20
ENDBRANCH   1   3
BRANCH   1  22
ATOM     22  C   UNL     1      -0.128  -0.137  -1.914  1.00  0.00     0.079 A 
ATOM     23  C   UNL     1      -0.762  -1.383  -2.069  1.00  0.00     0.030 A 
ATOM     24  C   UNL     1      -0.734   1.020  -2.464  1.00  0.00     0.161 A 
ATOM     25  C   UNL     1      -1.969  -1.483  -2.760  1.00  0.00     0.005 A 
ATOM     26  C   UNL     1      -1.950   0.907  -3.167  1.00  0.00     0.076 A 
ATOM     27  C   UNL     1      -2.559  -0.346  -3.308  1.00  0.00     0.029 A 
BRANCH  24  28
ATOM     28  O   UNL     1      -0.172   2.288  -2.296  1.00  0.00    -0.504 OA
ATOM     29  H   UNL     1       0.648   2.464  -1.731  1.00  0.00     0.293 HD
ENDBRANCH  24  28
BRANCH  26  30
ATOM     30  N   UNL     1      -2.583   2.065  -3.723  1.00  0.00    -0.396 N 
ATOM     31  H   UNL     1      -2.161   3.015  -3.630  1.00  0.00     0.156 HD
ATOM     32  H   UNL     1      -3.487   1.981  -4.239  1.00  0.00     0.156 HD
ENDBRANCH  26  30
ENDBRANCH   1  22
TORSDOF 6


