REMARK SMILES [H]/N=c1\[nH]cccc1Nc1ccc2c(n[nH+]n2C)c1C=C
REMARK SMILES IDX 9 1 8 3 3 4 4 5 7 6 5 7 6 8 2 10 1 11 10 12 11 13 19 14
REMARK SMILES IDX 12 15 14 16 13 17 15 18 17 19 16 20 18 21 20 23 21 24
REMARK H PARENT 9 2 4 9 16 22
ROOT
ATOM      1  N   UNL     1       0.371   0.242  -1.702  1.00  0.00    -0.352 N 
ATOM      2  H   UNL     1       1.084   0.220  -2.466  1.00  0.00     0.167 HD
ENDROOT
BRANCH   1   3
ATOM      3  C   UNL     1      -0.946   0.746  -2.003  1.00  0.00     0.081 A 
ATOM      4  C   UNL     1      -1.131   1.705  -3.020  1.00  0.00     0.146 A 
ATOM      5  N   UNL     1      -2.387   2.164  -3.303  1.00  0.00    -0.345 N 
ATOM      6  C   UNL     1      -2.076   0.272  -1.314  1.00  0.00     0.031 A 
ATOM      7  C   UNL     1      -3.480   1.717  -2.629  1.00  0.00     0.084 A 
ATOM      8  C   UNL     1      -3.343   0.762  -1.624  1.00  0.00     0.020 A 
ATOM      9  H   UNL     1      -2.527   2.880  -4.053  1.00  0.00     0.167 HD
BRANCH   4  10
ATOM     10  N   UNL     1      -0.109   2.160  -3.677  1.00  0.00    -0.283 NA
ATOM     11  H   UNL     1      -0.206   2.874  -4.433  1.00  0.00     0.189 HD
ENDBRANCH   4  10
ENDBRANCH   1   3
BRANCH   1  12
ATOM     12  C   UNL     1       0.719  -0.391  -0.460  1.00  0.00     0.048 A 
ATOM     13  C   UNL     1       1.335  -1.668  -0.502  1.00  0.00     0.029 A 
ATOM     14  C   UNL     1       0.473   0.245   0.794  1.00  0.00     0.032 A 
ATOM     15  C   UNL     1       1.684  -2.344   0.679  1.00  0.00     0.037 A 
ATOM     16  C   UNL     1       0.840  -0.469   1.945  1.00  0.00     0.171 A 
ATOM     17  C   UNL     1       1.409  -1.707   1.883  1.00  0.00     0.133 A 
ATOM     18  N   UNL     1       0.797  -0.080   3.237  1.00  0.00     0.026 NA
ATOM     19  N   UNL     1       1.689  -2.089   3.139  1.00  0.00    -0.132 N 
ATOM     20  N   UNL     1       1.318  -1.089   3.930  1.00  0.00    -0.016 N 
ATOM     21  C   UNL     1       2.384  -3.295   3.577  1.00  0.00     0.226 C 
ATOM     22  H   UNL     1       1.437  -1.080   4.968  1.00  0.00     0.526 HD
BRANCH  14  23
ATOM     23  C   UNL     1      -0.049   1.631   0.861  1.00  0.00     0.005 C 
ATOM     24  C   UNL     1      -0.883   2.048   1.812  1.00  0.00     0.009 C 
ENDBRANCH  14  23
ENDBRANCH   1  12
TORSDOF 4


