REMARK SMILES Cc1ccc([NH2+][C@H]2CCC[C@@H](NN)[C@]2(O)c2nc3ccccc3[n-]2)cc1F
REMARK SMILES IDX 7 1 8 2 9 3 10 4 11 5 14 6 6 7 5 10 2 11 3 12 26 13 4 14
REMARK SMILES IDX 25 15 1 16 27 17 15 18 16 20 17 21 24 22 18 23 23 24 19 25
REMARK SMILES IDX 22 26 20 27 21 28 12 29 13 31
REMARK H PARENT 6 8 6 9 15 19 12 30 13 32 13 33
ROOT
ATOM      1  C   UNL     1       0.689   0.926  -1.405  1.00  0.00     0.225 C 
ATOM      2  C   UNL     1       1.478   1.872  -2.343  1.00  0.00     0.069 C 
ATOM      3  C   UNL     1       0.825   1.962  -3.724  1.00  0.00     0.008 C 
ATOM      4  C   UNL     1       0.707   0.579  -4.365  1.00  0.00     0.024 C 
ATOM      5  C   UNL     1      -0.094  -0.385  -3.459  1.00  0.00     0.111 C 
ATOM      6  C   UNL     1       0.556  -0.501  -2.049  1.00  0.00     0.150 C 
ENDROOT
BRANCH   1   7
ATOM      7  N   UNL     1       1.325   0.871  -0.064  1.00  0.00    -0.309 N 
ATOM      8  H   UNL     1       2.358   0.723  -0.157  1.00  0.00     0.352 HD
ATOM      9  H   UNL     1       0.956   0.064   0.490  1.00  0.00     0.352 HD
BRANCH   7  10
ATOM     10  C   UNL     1       1.066   2.073   0.695  1.00  0.00     0.132 A 
ATOM     11  C   UNL     1       0.541   4.428   2.153  1.00  0.00    -0.015 A 
ATOM     12  C   UNL     1      -0.438   3.429   2.044  1.00  0.00     0.012 A 
ATOM     13  C   UNL     1       1.794   4.235   1.546  1.00  0.00     0.132 A 
ATOM     14  C   UNL     1      -0.180   2.264   1.317  1.00  0.00     0.068 A 
ATOM     15  C   UNL     1       2.051   3.069   0.819  1.00  0.00     0.107 A 
ATOM     16  C   UNL     1       0.273   5.666   2.959  1.00  0.00     0.047 C 
ATOM     17  F   UNL     1       2.765   5.177   1.657  1.00  0.00    -0.206 F 
ENDBRANCH   7  10
ENDBRANCH   1   7
BRANCH   6  18
ATOM     18  O   UNL     1       1.833  -1.087  -2.196  1.00  0.00    -0.378 OA
ATOM     19  H   UNL     1       2.190  -1.297  -1.294  1.00  0.00     0.212 HD
ENDBRANCH   6  18
BRANCH   6  20
ATOM     20  C   UNL     1      -0.337  -1.390  -1.198  1.00  0.00    -0.042 A 
ATOM     21  N   UNL     1      -1.526  -0.966  -0.686  1.00  0.00    -0.437 NA
ATOM     22  N   UNL     1      -0.051  -2.695  -0.940  1.00  0.00    -0.437 NA
ATOM     23  C   UNL     1      -1.984  -2.060  -0.064  1.00  0.00    -0.038 A 
ATOM     24  C   UNL     1      -1.107  -3.089  -0.215  1.00  0.00    -0.038 A 
ATOM     25  C   UNL     1      -3.175  -2.203   0.643  1.00  0.00     0.004 A 
ATOM     26  C   UNL     1      -1.345  -4.349   0.330  1.00  0.00     0.004 A 
ATOM     27  C   UNL     1      -3.450  -3.462   1.210  1.00  0.00     0.000 A 
ATOM     28  C   UNL     1      -2.538  -4.531   1.055  1.00  0.00     0.000 A 
ENDBRANCH   6  20
BRANCH   5  29
ATOM     29  N   UNL     1      -0.206  -1.719  -4.073  1.00  0.00    -0.254 NA
ATOM     30  H   UNL     1       0.726  -2.036  -4.435  1.00  0.00     0.141 HD
BRANCH  29  31
ATOM     31  N   UNL     1      -1.129  -1.663  -5.136  1.00  0.00    -0.271 NA
ATOM     32  H   UNL     1      -1.580  -2.604  -5.194  1.00  0.00     0.137 HD
ATOM     33  H   UNL     1      -0.609  -1.522  -6.033  1.00  0.00     0.137 HD
ENDBRANCH  29  31
ENDBRANCH   5  29
TORSDOF 6


