MODEL 1
REMARK VINA RESULT:      -6.3      0.000      0.000
REMARK SMILES O=C1[N-]C[C@H](C(=O)[N@@H+]2CCC[C@@H](c3ccc4cc(F)ccc4n3)[C@H]2F)[N-]1
REMARK SMILES IDX 8 1 9 2 10 3 11 4 12 5 24 6 25 7 6 9 7 10 5 11 2 12 3 13
REMARK SMILES IDX 26 14 4 15 1 16 13 17 14 18 23 19 15 20 22 21 16 22 21 23
REMARK SMILES IDX 17 24 20 25 18 26 19 27
REMARK H PARENT 8 8
ROOT
ATOM      1  N   UNL     1      44.017 129.462  23.341  1.00  0.00    -0.244 N 
ATOM      2  C   UNL     1      44.472 130.160  24.571  1.00  0.00     0.272 C 
ATOM      3  C   UNL     1      44.125 131.668  24.580  1.00  0.00     0.063 C 
ATOM      4  C   UNL     1      43.928 132.212  23.164  1.00  0.00     0.025 C 
ATOM      5  C   UNL     1      42.801 131.451  22.426  1.00  0.00     0.132 C 
ATOM      6  C   UNL     1      42.700 129.968  22.889  1.00  0.00     0.383 C 
ATOM      7  F   UNL     1      42.183 129.174  21.872  1.00  0.00    -0.184 F 
ATOM      8  H   UNL     1      44.718 129.649  22.586  1.00  0.00     0.359 HD
ENDROOT
BRANCH   1   9
ATOM      9  C   UNL     1      43.976 128.028  23.577  1.00  0.00     0.298 C 
ATOM     10  O   UNL     1      43.440 127.587  24.584  1.00  0.00    -0.232 OA
BRANCH   9  11
ATOM     11  C   UNL     1      44.602 127.059  22.598  1.00  0.00     0.008 C 
ATOM     12  C   UNL     1      44.626 124.769  22.817  1.00  0.00    -0.039 C 
ATOM     13  N   UNL     1      45.948 125.138  23.138  1.00  0.00    -0.670 NA
ATOM     14  N   UNL     1      43.787 125.855  22.499  1.00  0.00    -0.657 NA
ATOM     15  C   UNL     1      46.016 126.589  23.040  1.00  0.00    -0.121 C 
ATOM     16  O   UNL     1      44.229 123.575  22.822  1.00  0.00    -0.341 OA
ENDBRANCH   9  11
ENDBRANCH   1   9
BRANCH   5  17
ATOM     17  C   UNL     1      43.002 131.566  20.930  1.00  0.00     0.053 A 
ATOM     18  C   UNL     1      42.021 132.155  20.115  1.00  0.00     0.025 A 
ATOM     19  N   UNL     1      44.157 131.113  20.367  1.00  0.00    -0.252 NA
ATOM     20  C   UNL     1      42.234 132.256  18.740  1.00  0.00     0.012 A 
ATOM     21  C   UNL     1      44.393 131.199  19.031  1.00  0.00     0.071 A 
ATOM     22  C   UNL     1      43.424 131.776  18.180  1.00  0.00     0.003 A 
ATOM     23  C   UNL     1      45.593 130.716  18.497  1.00  0.00     0.032 A 
ATOM     24  C   UNL     1      43.671 131.861  16.802  1.00  0.00     0.049 A 
ATOM     25  C   UNL     1      45.831 130.804  17.122  1.00  0.00     0.041 A 
ATOM     26  C   UNL     1      44.873 131.374  16.277  1.00  0.00     0.123 A 
ATOM     27  F   UNL     1      45.110 131.456  14.944  1.00  0.00    -0.207 F 
ENDBRANCH   5  17
TORSDOF 3
ENDMDL
MODEL 2
REMARK VINA RESULT:      -5.9      3.588      7.037
REMARK SMILES O=C1[N-]C[C@H](C(=O)[N@@H+]2CCC[C@@H](c3ccc4cc(F)ccc4n3)[C@H]2F)[N-]1
REMARK SMILES IDX 8 1 9 2 10 3 11 4 12 5 24 6 25 7 6 9 7 10 5 11 2 12 3 13
REMARK SMILES IDX 26 14 4 15 1 16 13 17 14 18 23 19 15 20 22 21 16 22 21 23
REMARK SMILES IDX 17 24 20 25 18 26 19 27
REMARK H PARENT 8 8
ROOT
ATOM      1  N   UNL     1      44.364 131.046  19.169  1.00  0.00    -0.244 N 
ATOM      2  C   UNL     1      43.314 132.031  18.802  1.00  0.00     0.272 C 
ATOM      3  C   UNL     1      42.632 132.680  20.030  1.00  0.00     0.063 C 
ATOM      4  C   UNL     1      42.755 131.801  21.276  1.00  0.00     0.025 C 
ATOM      5  C   UNL     1      44.238 131.529  21.623  1.00  0.00     0.132 C 
ATOM      6  C   UNL     1      45.136 131.493  20.351  1.00  0.00     0.383 C 
ATOM      7  F   UNL     1      46.244 130.681  20.559  1.00  0.00    -0.184 F 
ATOM      8  H   UNL     1      43.890 130.143  19.407  1.00  0.00     0.359 HD
ENDROOT
BRANCH   1   9
ATOM      9  C   UNL     1      45.236 130.812  18.030  1.00  0.00     0.298 C 
ATOM     10  O   UNL     1      46.423 131.104  18.095  1.00  0.00    -0.232 OA
BRANCH   9  11
ATOM     11  C   UNL     1      44.700 130.220  16.744  1.00  0.00     0.008 C 
ATOM     12  C   UNL     1      45.914 129.885  14.820  1.00  0.00    -0.039 C 
ATOM     13  N   UNL     1      45.124 131.010  14.511  1.00  0.00    -0.670 NA
ATOM     14  N   UNL     1      45.715 129.381  16.121  1.00  0.00    -0.657 NA
ATOM     15  C   UNL     1      44.328 131.303  15.694  1.00  0.00    -0.121 C 
ATOM     16  O   UNL     1      46.731 129.379  14.008  1.00  0.00    -0.341 OA
ENDBRANCH   9  11
ENDBRANCH   1   9
BRANCH   5  17
ATOM     17  C   UNL     1      44.348 130.254  22.431  1.00  0.00     0.053 A 
ATOM     18  C   UNL     1      43.853 130.189  23.743  1.00  0.00     0.025 A 
ATOM     19  N   UNL     1      44.915 129.147  21.873  1.00  0.00    -0.252 NA
ATOM     20  C   UNL     1      43.960 128.999  24.465  1.00  0.00     0.012 A 
ATOM     21  C   UNL     1      45.032 127.974  22.550  1.00  0.00     0.071 A 
ATOM     22  C   UNL     1      44.554 127.876  23.876  1.00  0.00     0.003 A 
ATOM     23  C   UNL     1      45.625 126.865  21.937  1.00  0.00     0.032 A 
ATOM     24  C   UNL     1      44.678 126.665  24.571  1.00  0.00     0.049 A 
ATOM     25  C   UNL     1      45.746 125.661  22.638  1.00  0.00     0.041 A 
ATOM     26  C   UNL     1      45.274 125.561  23.951  1.00  0.00     0.123 A 
ATOM     27  F   UNL     1      45.394 124.390  24.625  1.00  0.00    -0.207 F 
ENDBRANCH   5  17
TORSDOF 3
ENDMDL
MODEL 3
REMARK VINA RESULT:      -5.9      3.307      6.816
REMARK SMILES O=C1[N-]C[C@H](C(=O)[N@@H+]2CCC[C@@H](c3ccc4cc(F)ccc4n3)[C@H]2F)[N-]1
REMARK SMILES IDX 8 1 9 2 10 3 11 4 12 5 24 6 25 7 6 9 7 10 5 11 2 12 3 13
REMARK SMILES IDX 26 14 4 15 1 16 13 17 14 18 23 19 15 20 22 21 16 22 21 23
REMARK SMILES IDX 17 24 20 25 18 26 19 27
REMARK H PARENT 8 8
ROOT
ATOM      1  N   UNL     1      43.822 131.074  20.899  1.00  0.00    -0.244 N 
ATOM      2  C   UNL     1      42.842 132.094  21.351  1.00  0.00     0.272 C 
ATOM      3  C   UNL     1      42.410 131.914  22.826  1.00  0.00     0.063 C 
ATOM      4  C   UNL     1      42.612 130.474  23.302  1.00  0.00     0.025 C 
ATOM      5  C   UNL     1      44.092 130.044  23.166  1.00  0.00     0.132 C 
ATOM      6  C   UNL     1      44.794 130.748  21.968  1.00  0.00     0.383 C 
ATOM      7  F   UNL     1      45.829 129.960  21.478  1.00  0.00    -0.184 F 
ATOM      8  H   UNL     1      43.293 130.203  20.658  1.00  0.00     0.359 HD
ENDROOT
BRANCH   1   9
ATOM      9  C   UNL     1      44.498 131.539  19.699  1.00  0.00     0.298 C 
ATOM     10  O   UNL     1      45.191 132.548  19.737  1.00  0.00    -0.232 OA
BRANCH   9  11
ATOM     11  C   UNL     1      44.350 130.804  18.385  1.00  0.00     0.008 C 
ATOM     12  C   UNL     1      45.536 131.248  16.465  1.00  0.00    -0.039 C 
ATOM     13  N   UNL     1      44.262 131.784  16.189  1.00  0.00    -0.670 NA
ATOM     14  N   UNL     1      45.651 130.665  17.743  1.00  0.00    -0.657 NA
ATOM     15  C   UNL     1      43.445 131.558  17.372  1.00  0.00    -0.121 C 
ATOM     16  O   UNL     1      46.489 131.292  15.644  1.00  0.00    -0.341 OA
ENDBRANCH   9  11
ENDBRANCH   1   9
BRANCH   5  17
ATOM     17  C   UNL     1      44.178 128.536  23.067  1.00  0.00     0.053 A 
ATOM     18  C   UNL     1      43.078 127.729  23.401  1.00  0.00     0.025 A 
ATOM     19  N   UNL     1      45.328 127.952  22.629  1.00  0.00    -0.252 NA
ATOM     20  C   UNL     1      43.180 126.341  23.295  1.00  0.00     0.012 A 
ATOM     21  C   UNL     1      45.458 126.603  22.514  1.00  0.00     0.071 A 
ATOM     22  C   UNL     1      44.375 125.761  22.851  1.00  0.00     0.003 A 
ATOM     23  C   UNL     1      46.660 126.049  22.064  1.00  0.00     0.032 A 
ATOM     24  C   UNL     1      44.513 124.371  22.733  1.00  0.00     0.049 A 
ATOM     25  C   UNL     1      46.790 124.661  21.949  1.00  0.00     0.041 A 
ATOM     26  C   UNL     1      45.720 123.824  22.283  1.00  0.00     0.123 A 
ATOM     27  F   UNL     1      45.853 122.480  22.169  1.00  0.00    -0.207 F 
ENDBRANCH   5  17
TORSDOF 3
ENDMDL
MODEL 4
REMARK VINA RESULT:      -5.9      3.504      6.795
REMARK SMILES O=C1[N-]C[C@H](C(=O)[N@@H+]2CCC[C@@H](c3ccc4cc(F)ccc4n3)[C@H]2F)[N-]1
REMARK SMILES IDX 8 1 9 2 10 3 11 4 12 5 24 6 25 7 6 9 7 10 5 11 2 12 3 13
REMARK SMILES IDX 26 14 4 15 1 16 13 17 14 18 23 19 15 20 22 21 16 22 21 23
REMARK SMILES IDX 17 24 20 25 18 26 19 27
REMARK H PARENT 8 8
ROOT
ATOM      1  N   UNL     1      43.129 131.596  19.334  1.00  0.00    -0.244 N 
ATOM      2  C   UNL     1      42.157 132.719  19.391  1.00  0.00     0.272 C 
ATOM      3  C   UNL     1      41.859 133.193  20.834  1.00  0.00     0.063 C 
ATOM      4  C   UNL     1      42.147 132.096  21.860  1.00  0.00     0.025 C 
ATOM      5  C   UNL     1      43.623 131.638  21.788  1.00  0.00     0.132 C 
ATOM      6  C   UNL     1      44.198 131.754  20.346  1.00  0.00     0.383 C 
ATOM      7  F   UNL     1      45.212 130.824  20.149  1.00  0.00    -0.184 F 
ATOM      8  H   UNL     1      42.609 130.710  19.538  1.00  0.00     0.359 HD
ENDROOT
BRANCH   1   9
ATOM      9  C   UNL     1      43.684 131.496  17.994  1.00  0.00     0.298 C 
ATOM     10  O   UNL     1      42.941 131.460  17.022  1.00  0.00    -0.232 OA
BRANCH   9  11
ATOM     11  C   UNL     1      45.179 131.419  17.772  1.00  0.00     0.008 C 
ATOM     12  C   UNL     1      46.225 131.363  15.725  1.00  0.00    -0.039 C 
ATOM     13  N   UNL     1      46.327 130.032  16.176  1.00  0.00    -0.670 NA
ATOM     14  N   UNL     1      45.553 132.223  16.616  1.00  0.00    -0.657 NA
ATOM     15  C   UNL     1      45.668 129.974  17.472  1.00  0.00    -0.121 C 
ATOM     16  O   UNL     1      46.686 131.747  14.619  1.00  0.00    -0.341 OA
ENDBRANCH   9  11
ENDBRANCH   1   9
BRANCH   5  17
ATOM     17  C   UNL     1      43.749 130.234  22.338  1.00  0.00     0.053 A 
ATOM     18  C   UNL     1      42.802 129.727  23.243  1.00  0.00     0.025 A 
ATOM     19  N   UNL     1      44.782 129.441  21.936  1.00  0.00    -0.252 NA
ATOM     20  C   UNL     1      42.936 128.426  23.730  1.00  0.00     0.012 A 
ATOM     21  C   UNL     1      44.939 128.170  22.392  1.00  0.00     0.071 A 
ATOM     22  C   UNL     1      44.010 127.631  23.310  1.00  0.00     0.003 A 
ATOM     23  C   UNL     1      46.018 127.394  21.954  1.00  0.00     0.032 A 
ATOM     24  C   UNL     1      44.177 126.320  23.779  1.00  0.00     0.049 A 
ATOM     25  C   UNL     1      46.178 126.088  22.427  1.00  0.00     0.041 A 
ATOM     26  C   UNL     1      45.261 125.553  23.337  1.00  0.00     0.123 A 
ATOM     27  F   UNL     1      45.421 124.285  23.792  1.00  0.00    -0.207 F 
ENDBRANCH   5  17
TORSDOF 3
ENDMDL
MODEL 5
REMARK VINA RESULT:      -5.1      3.234      6.787
REMARK SMILES O=C1[N-]C[C@H](C(=O)[N@@H+]2CCC[C@@H](c3ccc4cc(F)ccc4n3)[C@H]2F)[N-]1
REMARK SMILES IDX 8 1 9 2 10 3 11 4 12 5 24 6 25 7 6 9 7 10 5 11 2 12 3 13
REMARK SMILES IDX 26 14 4 15 1 16 13 17 14 18 23 19 15 20 22 21 16 22 21 23
REMARK SMILES IDX 17 24 20 25 18 26 19 27
REMARK H PARENT 8 8
ROOT
ATOM      1  N   UNL     1      44.119 130.929  22.161  1.00  0.00    -0.244 N 
ATOM      2  C   UNL     1      43.990 132.210  22.902  1.00  0.00     0.272 C 
ATOM      3  C   UNL     1      43.607 132.018  24.389  1.00  0.00     0.063 C 
ATOM      4  C   UNL     1      42.909 130.678  24.625  1.00  0.00     0.025 C 
ATOM      5  C   UNL     1      43.808 129.496  24.191  1.00  0.00     0.132 C 
ATOM      6  C   UNL     1      44.738 129.878  23.002  1.00  0.00     0.383 C 
ATOM      7  F   UNL     1      45.050 128.754  22.247  1.00  0.00    -0.184 F 
ATOM      8  H   UNL     1      43.157 130.612  21.893  1.00  0.00     0.359 HD
ENDROOT
BRANCH   1   9
ATOM      9  C   UNL     1      44.881 131.141  20.941  1.00  0.00     0.298 C 
ATOM     10  O   UNL     1      45.949 131.738  20.981  1.00  0.00    -0.232 OA
BRANCH   9  11
ATOM     11  C   UNL     1      44.370 130.648  19.605  1.00  0.00     0.008 C 
ATOM     12  C   UNL     1      45.347 131.063  17.565  1.00  0.00    -0.039 C 
ATOM     13  N   UNL     1      44.224 131.914  17.564  1.00  0.00    -0.670 NA
ATOM     14  N   UNL     1      45.490 130.300  18.741  1.00  0.00    -0.657 NA
ATOM     15  C   UNL     1      43.550 131.725  18.841  1.00  0.00    -0.121 C 
ATOM     16  O   UNL     1      46.155 130.996  16.603  1.00  0.00    -0.341 OA
ENDBRANCH   9  11
ENDBRANCH   1   9
BRANCH   5  17
ATOM     17  C   UNL     1      42.950 128.290  23.875  1.00  0.00     0.053 A 
ATOM     18  C   UNL     1      41.550 128.394  23.832  1.00  0.00     0.025 A 
ATOM     19  N   UNL     1      43.540 127.091  23.608  1.00  0.00    -0.252 NA
ATOM     20  C   UNL     1      40.780 127.269  23.531  1.00  0.00     0.012 A 
ATOM     21  C   UNL     1      42.818 125.979  23.312  1.00  0.00     0.071 A 
ATOM     22  C   UNL     1      41.408 126.045  23.269  1.00  0.00     0.003 A 
ATOM     23  C   UNL     1      43.468 124.768  23.049  1.00  0.00     0.032 A 
ATOM     24  C   UNL     1      40.666 124.895  22.964  1.00  0.00     0.049 A 
ATOM     25  C   UNL     1      42.722 123.625  22.746  1.00  0.00     0.041 A 
ATOM     26  C   UNL     1      41.325 123.688  22.704  1.00  0.00     0.123 A 
ATOM     27  F   UNL     1      40.607 122.576  22.410  1.00  0.00    -0.207 F 
ENDBRANCH   5  17
TORSDOF 3
ENDMDL
MODEL 6
REMARK VINA RESULT:      -4.9      3.263      7.102
REMARK SMILES O=C1[N-]C[C@H](C(=O)[N@@H+]2CCC[C@@H](c3ccc4cc(F)ccc4n3)[C@H]2F)[N-]1
REMARK SMILES IDX 8 1 9 2 10 3 11 4 12 5 24 6 25 7 6 9 7 10 5 11 2 12 3 13
REMARK SMILES IDX 26 14 4 15 1 16 13 17 14 18 23 19 15 20 22 21 16 22 21 23
REMARK SMILES IDX 17 24 20 25 18 26 19 27
REMARK H PARENT 8 8
ROOT
ATOM      1  N   UNL     1      43.235 130.921  21.756  1.00  0.00    -0.244 N 
ATOM      2  C   UNL     1      42.805 132.108  22.539  1.00  0.00     0.272 C 
ATOM      3  C   UNL     1      43.036 131.951  24.060  1.00  0.00     0.063 C 
ATOM      4  C   UNL     1      43.102 130.480  24.473  1.00  0.00     0.025 C 
ATOM      5  C   UNL     1      44.237 129.740  23.724  1.00  0.00     0.132 C 
ATOM      6  C   UNL     1      44.479 130.333  22.305  1.00  0.00     0.383 C 
ATOM      7  F   UNL     1      44.991 129.363  21.452  1.00  0.00    -0.184 F 
ATOM      8  H   UNL     1      42.476 130.202  21.817  1.00  0.00     0.359 HD
ENDROOT
BRANCH   1   9
ATOM      9  C   UNL     1      43.400 131.287  20.359  1.00  0.00     0.298 C 
ATOM     10  O   UNL     1      42.425 131.347  19.621  1.00  0.00    -0.232 OA
BRANCH   9  11
ATOM     11  C   UNL     1      44.768 131.586  19.786  1.00  0.00     0.008 C 
ATOM     12  C   UNL     1      45.282 131.704  17.547  1.00  0.00    -0.039 C 
ATOM     13  N   UNL     1      45.831 130.467  17.940  1.00  0.00    -0.670 NA
ATOM     14  N   UNL     1      44.638 132.404  18.586  1.00  0.00    -0.657 NA
ATOM     15  C   UNL     1      45.533 130.304  19.355  1.00  0.00    -0.121 C 
ATOM     16  O   UNL     1      45.355 132.141  16.370  1.00  0.00    -0.341 OA
ENDBRANCH   9  11
ENDBRANCH   1   9
BRANCH   5  17
ATOM     17  C   UNL     1      43.935 128.258  23.676  1.00  0.00     0.053 A 
ATOM     18  C   UNL     1      44.973 127.314  23.619  1.00  0.00     0.025 A 
ATOM     19  N   UNL     1      42.642 127.830  23.710  1.00  0.00    -0.252 NA
ATOM     20  C   UNL     1      44.669 125.952  23.583  1.00  0.00     0.012 A 
ATOM     21  C   UNL     1      42.315 126.511  23.677  1.00  0.00     0.071 A 
ATOM     22  C   UNL     1      43.333 125.535  23.610  1.00  0.00     0.003 A 
ATOM     23  C   UNL     1      40.972 126.119  23.709  1.00  0.00     0.032 A 
ATOM     24  C   UNL     1      42.991 124.175  23.574  1.00  0.00     0.049 A 
ATOM     25  C   UNL     1      40.639 124.761  23.673  1.00  0.00     0.041 A 
ATOM     26  C   UNL     1      41.645 123.792  23.606  1.00  0.00     0.123 A 
ATOM     27  F   UNL     1      41.316 122.477  23.571  1.00  0.00    -0.207 F 
ENDBRANCH   5  17
TORSDOF 3
ENDMDL
MODEL 7
REMARK VINA RESULT:      -4.4      2.509      4.728
REMARK SMILES O=C1[N-]C[C@H](C(=O)[N@@H+]2CCC[C@@H](c3ccc4cc(F)ccc4n3)[C@H]2F)[N-]1
REMARK SMILES IDX 8 1 9 2 10 3 11 4 12 5 24 6 25 7 6 9 7 10 5 11 2 12 3 13
REMARK SMILES IDX 26 14 4 15 1 16 13 17 14 18 23 19 15 20 22 21 16 22 21 23
REMARK SMILES IDX 17 24 20 25 18 26 19 27
REMARK H PARENT 8 8
ROOT
ATOM      1  N   UNL     1      44.477 125.110  23.135  1.00  0.00    -0.244 N 
ATOM      2  C   UNL     1      45.767 124.435  22.839  1.00  0.00     0.272 C 
ATOM      3  C   UNL     1      46.981 125.393  22.890  1.00  0.00     0.063 C 
ATOM      4  C   UNL     1      46.565 126.847  22.663  1.00  0.00     0.025 C 
ATOM      5  C   UNL     1      45.534 127.303  23.723  1.00  0.00     0.132 C 
ATOM      6  C   UNL     1      44.632 126.128  24.200  1.00  0.00     0.383 C 
ATOM      7  F   UNL     1      43.395 126.602  24.621  1.00  0.00    -0.184 F 
ATOM      8  H   UNL     1      44.158 125.593  22.263  1.00  0.00     0.359 HD
ENDROOT
BRANCH   1   9
ATOM      9  C   UNL     1      43.476 124.120  23.496  1.00  0.00     0.298 C 
ATOM     10  O   UNL     1      43.787 122.940  23.593  1.00  0.00    -0.232 OA
BRANCH   9  11
ATOM     11  C   UNL     1      42.038 124.519  23.744  1.00  0.00     0.008 C 
ATOM     12  C   UNL     1      40.189 123.278  23.167  1.00  0.00    -0.039 C 
ATOM     13  N   UNL     1      40.200 124.308  22.205  1.00  0.00    -0.670 NA
ATOM     14  N   UNL     1      41.248 123.345  24.093  1.00  0.00    -0.657 NA
ATOM     15  C   UNL     1      41.361 125.139  22.490  1.00  0.00    -0.121 C 
ATOM     16  O   UNL     1      39.314 122.375  23.191  1.00  0.00    -0.341 OA
ENDBRANCH   9  11
ENDBRANCH   1   9
BRANCH   5  17
ATOM     17  C   UNL     1      44.721 128.458  23.179  1.00  0.00     0.053 A 
ATOM     18  C   UNL     1      43.517 128.843  23.792  1.00  0.00     0.025 A 
ATOM     19  N   UNL     1      45.170 129.149  22.094  1.00  0.00    -0.252 NA
ATOM     20  C   UNL     1      42.789 129.916  23.276  1.00  0.00     0.012 A 
ATOM     21  C   UNL     1      44.484 130.199  21.569  1.00  0.00     0.071 A 
ATOM     22  C   UNL     1      43.265 130.607  22.155  1.00  0.00     0.003 A 
ATOM     23  C   UNL     1      44.983 130.875  20.451  1.00  0.00     0.032 A 
ATOM     24  C   UNL     1      42.560 131.689  21.609  1.00  0.00     0.049 A 
ATOM     25  C   UNL     1      44.273 131.954  19.912  1.00  0.00     0.041 A 
ATOM     26  C   UNL     1      43.065 132.359  20.489  1.00  0.00     0.123 A 
ATOM     27  F   UNL     1      42.382 133.405  19.962  1.00  0.00    -0.207 F 
ENDBRANCH   5  17
TORSDOF 3
ENDMDL
MODEL 8
REMARK VINA RESULT:      -4.2      3.873      7.117
REMARK SMILES O=C1[N-]C[C@H](C(=O)[N@@H+]2CCC[C@@H](c3ccc4cc(F)ccc4n3)[C@H]2F)[N-]1
REMARK SMILES IDX 8 1 9 2 10 3 11 4 12 5 24 6 25 7 6 9 7 10 5 11 2 12 3 13
REMARK SMILES IDX 26 14 4 15 1 16 13 17 14 18 23 19 15 20 22 21 16 22 21 23
REMARK SMILES IDX 17 24 20 25 18 26 19 27
REMARK H PARENT 8 8
ROOT
ATOM      1  N   UNL     1      43.812 130.998  18.116  1.00  0.00    -0.244 N 
ATOM      2  C   UNL     1      42.719 131.924  17.725  1.00  0.00     0.272 C 
ATOM      3  C   UNL     1      42.246 132.834  18.884  1.00  0.00     0.063 C 
ATOM      4  C   UNL     1      42.569 132.224  20.248  1.00  0.00     0.025 C 
ATOM      5  C   UNL     1      44.088 131.976  20.405  1.00  0.00     0.132 C 
ATOM      6  C   UNL     1      44.767 131.650  19.042  1.00  0.00     0.383 C 
ATOM      7  F   UNL     1      45.893 130.859  19.236  1.00  0.00    -0.184 F 
ATOM      8  H   UNL     1      43.382 130.180  18.609  1.00  0.00     0.359 HD
ENDROOT
BRANCH   1   9
ATOM      9  C   UNL     1      44.488 130.505  16.927  1.00  0.00     0.298 C 
ATOM     10  O   UNL     1      43.899 129.767  16.148  1.00  0.00    -0.232 OA
BRANCH   9  11
ATOM     11  C   UNL     1      45.925 130.876  16.635  1.00  0.00     0.008 C 
ATOM     12  C   UNL     1      46.852 131.087  14.541  1.00  0.00    -0.039 C 
ATOM     13  N   UNL     1      47.370 129.860  15.001  1.00  0.00    -0.670 NA
ATOM     14  N   UNL     1      45.991 131.727  15.454  1.00  0.00    -0.657 NA
ATOM     15  C   UNL     1      46.815 129.639  16.328  1.00  0.00    -0.121 C 
ATOM     16  O   UNL     1      47.128 131.565  13.410  1.00  0.00    -0.341 OA
ENDBRANCH   9  11
ENDBRANCH   1   9
BRANCH   5  17
ATOM     17  C   UNL     1      44.326 130.891  21.432  1.00  0.00     0.053 A 
ATOM     18  C   UNL     1      43.928 131.064  22.768  1.00  0.00     0.025 A 
ATOM     19  N   UNL     1      44.913 129.720  21.055  1.00  0.00    -0.252 NA
ATOM     20  C   UNL     1      44.152 130.045  23.694  1.00  0.00     0.012 A 
ATOM     21  C   UNL     1      45.143 128.709  21.934  1.00  0.00     0.071 A 
ATOM     22  C   UNL     1      44.765 128.854  23.287  1.00  0.00     0.003 A 
ATOM     23  C   UNL     1      45.753 127.527  21.501  1.00  0.00     0.032 A 
ATOM     24  C   UNL     1      45.006 127.809  24.191  1.00  0.00     0.049 A 
ATOM     25  C   UNL     1      45.990 126.490  22.409  1.00  0.00     0.041 A 
ATOM     26  C   UNL     1      45.618 126.630  23.750  1.00  0.00     0.123 A 
ATOM     27  F   UNL     1      45.851 125.621  24.625  1.00  0.00    -0.207 F 
ENDBRANCH   5  17
TORSDOF 3
ENDMDL
MODEL 9
REMARK VINA RESULT:      -3.8      2.608      4.659
REMARK SMILES O=C1[N-]C[C@H](C(=O)[N@@H+]2CCC[C@@H](c3ccc4cc(F)ccc4n3)[C@H]2F)[N-]1
REMARK SMILES IDX 8 1 9 2 10 3 11 4 12 5 24 6 25 7 6 9 7 10 5 11 2 12 3 13
REMARK SMILES IDX 26 14 4 15 1 16 13 17 14 18 23 19 15 20 22 21 16 22 21 23
REMARK SMILES IDX 17 24 20 25 18 26 19 27
REMARK H PARENT 8 8
ROOT
ATOM      1  N   UNL     1      44.148 132.197  19.968  1.00  0.00    -0.244 N 
ATOM      2  C   UNL     1      42.905 132.850  20.455  1.00  0.00     0.272 C 
ATOM      3  C   UNL     1      41.691 132.620  19.523  1.00  0.00     0.063 C 
ATOM      4  C   UNL     1      42.129 132.295  18.094  1.00  0.00     0.025 C 
ATOM      5  C   UNL     1      43.023 131.032  18.059  1.00  0.00     0.132 C 
ATOM      6  C   UNL     1      43.863 130.877  19.360  1.00  0.00     0.383 C 
ATOM      7  F   UNL     1      45.038 130.182  19.103  1.00  0.00    -0.184 F 
ATOM      8  H   UNL     1      44.570 132.814  19.235  1.00  0.00     0.359 HD
ENDROOT
BRANCH   1   9
ATOM      9  C   UNL     1      45.100 132.078  21.061  1.00  0.00     0.298 C 
ATOM     10  O   UNL     1      46.265 132.414  20.899  1.00  0.00    -0.232 OA
BRANCH   9  11
ATOM     11  C   UNL     1      44.679 131.527  22.406  1.00  0.00     0.008 C 
ATOM     12  C   UNL     1      43.869 129.409  22.788  1.00  0.00    -0.039 C 
ATOM     13  N   UNL     1      42.716 130.216  22.874  1.00  0.00    -0.670 NA
ATOM     14  N   UNL     1      45.051 130.122  22.507  1.00  0.00    -0.657 NA
ATOM     15  C   UNL     1      43.142 131.586  22.626  1.00  0.00    -0.121 C 
ATOM     16  O   UNL     1      43.842 128.161  22.941  1.00  0.00    -0.341 OA
ENDBRANCH   9  11
ENDBRANCH   1   9
BRANCH   5  17
ATOM     17  C   UNL     1      43.894 131.058  16.821  1.00  0.00     0.053 A 
ATOM     18  C   UNL     1      43.541 131.838  15.708  1.00  0.00     0.025 A 
ATOM     19  N   UNL     1      45.048 130.333  16.792  1.00  0.00    -0.252 NA
ATOM     20  C   UNL     1      44.365 131.850  14.582  1.00  0.00     0.012 A 
ATOM     21  C   UNL     1      45.871 130.325  15.710  1.00  0.00     0.071 A 
ATOM     22  C   UNL     1      45.541 131.091  14.569  1.00  0.00     0.003 A 
ATOM     23  C   UNL     1      47.043 129.561  15.724  1.00  0.00     0.032 A 
ATOM     24  C   UNL     1      46.392 131.079  13.455  1.00  0.00     0.049 A 
ATOM     25  C   UNL     1      47.886 129.555  14.608  1.00  0.00     0.041 A 
ATOM     26  C   UNL     1      47.562 130.311  13.477  1.00  0.00     0.123 A 
ATOM     27  F   UNL     1      48.383 130.300  12.398  1.00  0.00    -0.207 F 
ENDBRANCH   5  17
TORSDOF 3
ENDMDL


