REMARK SMILES Cc1ccc(Nc2cc(F)c(C)cc2N)c(F)n1
REMARK SMILES IDX 7 1 8 2 9 3 10 4 11 5 12 6 13 7 14 8 6 9 5 11 2 12 3 13
REMARK SMILES IDX 18 14 4 15 16 16 1 17 17 18 15 19
REMARK H PARENT 6 10 15 20 15 21
ROOT
ATOM      1  C   UNL     1       0.755   0.682   0.371  1.00  0.00     0.065 A 
ATOM      2  C   UNL     1       2.127   0.964   0.338  1.00  0.00     0.067 A 
ATOM      3  C   UNL     1       3.045   0.103   0.942  1.00  0.00     0.128 A 
ATOM      4  F   UNL     1       4.369   0.400   0.890  1.00  0.00    -0.207 F 
ATOM      5  C   UNL     1       2.601  -1.059   1.591  1.00  0.00    -0.013 A 
ATOM      6  C   UNL     1       3.584  -1.973   2.264  1.00  0.00     0.047 C 
ATOM      7  C   UNL     1       1.225  -1.323   1.665  1.00  0.00     0.034 A 
ATOM      8  C   UNL     1       0.295  -0.458   1.069  1.00  0.00     0.056 A 
ENDROOT
BRANCH   1   9
ATOM      9  N   UNL     1      -0.152   1.580  -0.286  1.00  0.00    -0.350 N 
ATOM     10  H   UNL     1      -0.055   2.598  -0.073  1.00  0.00     0.167 HD
BRANCH   9  11
ATOM     11  C   UNL     1      -1.039   1.183  -1.350  1.00  0.00     0.095 A 
ATOM     12  C   UNL     1      -2.780   0.487  -3.415  1.00  0.00     0.041 A 
ATOM     13  C   UNL     1      -1.767  -0.402  -3.039  1.00  0.00     0.026 A 
ATOM     14  N   UNL     1      -2.896   1.685  -2.779  1.00  0.00    -0.223 NA
ATOM     15  C   UNL     1      -0.896  -0.052  -2.007  1.00  0.00     0.033 A 
ATOM     16  C   UNL     1      -2.060   2.050  -1.771  1.00  0.00     0.236 A 
ATOM     17  C   UNL     1      -3.717   0.140  -4.527  1.00  0.00     0.067 C 
ATOM     18  F   UNL     1      -2.232   3.254  -1.171  1.00  0.00    -0.183 F 
ENDBRANCH   9  11
ENDBRANCH   1   9
BRANCH   8  19
ATOM     19  N   UNL     1      -1.105  -0.726   1.217  1.00  0.00    -0.397 N 
ATOM     20  H   UNL     1      -1.831  -0.039   0.918  1.00  0.00     0.156 HD
ATOM     21  H   UNL     1      -1.431  -1.598   1.690  1.00  0.00     0.156 HD
ENDBRANCH   8  19
TORSDOF 3


