MODEL 1
REMARK VINA RESULT:      -6.7      0.000      0.000
REMARK SMILES C#Cc1cncc([NH2+]c2cc(C)cc(-n3nc4ccccc4[nH+]3)c2N=[N+]=[N-])c1
REMARK SMILES IDX 9 1 10 2 11 3 12 4 13 5 14 6 24 7 8 8 7 11 3 12 4 13 28 14
REMARK SMILES IDX 5 15 6 16 2 17 1 18 25 19 26 20 27 21 15 22 16 23 23 24
REMARK SMILES IDX 17 25 22 26 18 27 21 28 19 29 20 30
REMARK H PARENT 8 9 8 10 23 31
ROOT
ATOM      1  C   UNL     1      44.243 131.617  21.067  1.00  0.00     0.147 A 
ATOM      2  C   UNL     1      42.890 131.971  20.922  1.00  0.00     0.072 A 
ATOM      3  C   UNL     1      42.331 132.173  19.656  1.00  0.00    -0.043 A 
ATOM      4  C   UNL     1      40.878 132.521  19.520  1.00  0.00     0.044 C 
ATOM      5  C   UNL     1      43.112 131.955  18.517  1.00  0.00     0.038 A 
ATOM      6  C   UNL     1      44.456 131.577  18.628  1.00  0.00     0.144 A 
ATOM      7  C   UNL     1      45.046 131.449  19.913  1.00  0.00     0.130 A 
ENDROOT
BRANCH   1   8
ATOM      8  N   UNL     1      44.785 131.412  22.391  1.00  0.00    -0.280 N 
ATOM      9  H   UNL     1      45.831 131.371  22.360  1.00  0.00     0.358 HD
ATOM     10  H   UNL     1      44.546 132.220  23.011  1.00  0.00     0.358 HD
BRANCH   8  11
ATOM     11  C   UNL     1      44.244 130.200  22.958  1.00  0.00     0.154 A 
ATOM     12  C   UNL     1      44.209 127.779  23.143  1.00  0.00     0.048 A 
ATOM     13  C   UNL     1      43.135 127.881  24.032  1.00  0.00     0.128 A 
ATOM     14  C   UNL     1      44.765 128.944  22.605  1.00  0.00     0.088 A 
ATOM     15  N   UNL     1      42.643 129.103  24.365  1.00  0.00    -0.257 NA
ATOM     16  C   UNL     1      43.163 130.249  23.855  1.00  0.00     0.179 A 
BRANCH  12  17
ATOM     17  C   UNL     1      44.737 126.488  22.784  1.00  0.00    -0.069 C 
ATOM     18  C   UNL     1      45.178 125.407  22.482  1.00  0.00     0.010 C 
ENDBRANCH  12  17
ENDBRANCH   8  11
ENDBRANCH   1   8
BRANCH   7  19
ATOM     19  N   UNL     1      46.448 131.185  20.081  1.00  0.00    -0.052 NA
BRANCH  19  20
ATOM     20  N   UNL     1      47.183 131.907  20.755  1.00  0.00     0.006 N 
ATOM     21  N   UNL     1      47.917 132.632  21.425  1.00  0.00    -0.003 NA
ENDBRANCH  19  20
ENDBRANCH   7  19
BRANCH   6  22
ATOM     22  N   UNL     1      45.177 131.238  17.433  1.00  0.00    -0.012 N 
ATOM     23  N   UNL     1      45.420 132.102  16.448  1.00  0.00     0.054 NA
ATOM     24  N   UNL     1      45.749 130.056  17.220  1.00  0.00    -0.161 N 
ATOM     25  C   UNL     1      46.167 131.418  15.565  1.00  0.00     0.249 A 
ATOM     26  C   UNL     1      46.371 130.157  16.038  1.00  0.00     0.198 A 
ATOM     27  C   UNL     1      46.692 131.843  14.349  1.00  0.00     0.064 A 
ATOM     28  C   UNL     1      47.115 129.209  15.344  1.00  0.00     0.058 A 
ATOM     29  C   UNL     1      47.453 130.913  13.611  1.00  0.00     0.005 A 
ATOM     30  C   UNL     1      47.663 129.602  14.106  1.00  0.00     0.005 A 
ATOM     31  H   UNL     1      45.708 129.226  17.853  1.00  0.00     0.340 HD
ENDBRANCH   6  22
TORSDOF 6
ENDMDL
MODEL 2
REMARK VINA RESULT:      -6.7      0.266      1.128
REMARK SMILES C#Cc1cncc([NH2+]c2cc(C)cc(-n3nc4ccccc4[nH+]3)c2N=[N+]=[N-])c1
REMARK SMILES IDX 9 1 10 2 11 3 12 4 13 5 14 6 24 7 8 8 7 11 3 12 4 13 28 14
REMARK SMILES IDX 5 15 6 16 2 17 1 18 25 19 26 20 27 21 15 22 16 23 23 24
REMARK SMILES IDX 17 25 22 26 18 27 21 28 19 29 20 30
REMARK H PARENT 8 9 8 10 23 31
ROOT
ATOM      1  C   UNL     1      44.208 131.590  21.331  1.00  0.00     0.147 A 
ATOM      2  C   UNL     1      42.859 131.960  21.183  1.00  0.00     0.072 A 
ATOM      3  C   UNL     1      42.319 132.218  19.920  1.00  0.00    -0.043 A 
ATOM      4  C   UNL     1      40.870 132.581  19.779  1.00  0.00     0.044 C 
ATOM      5  C   UNL     1      43.113 132.040  18.783  1.00  0.00     0.038 A 
ATOM      6  C   UNL     1      44.453 131.647  18.896  1.00  0.00     0.144 A 
ATOM      7  C   UNL     1      45.024 131.463  20.181  1.00  0.00     0.130 A 
ENDROOT
BRANCH   1   8
ATOM      8  N   UNL     1      44.732 131.328  22.653  1.00  0.00    -0.280 N 
ATOM      9  H   UNL     1      45.777 131.283  22.634  1.00  0.00     0.358 HD
ATOM     10  H   UNL     1      44.487 132.111  23.302  1.00  0.00     0.358 HD
BRANCH   8  11
ATOM     11  C   UNL     1      44.177 130.097  23.162  1.00  0.00     0.154 A 
ATOM     12  C   UNL     1      44.204 127.675  23.341  1.00  0.00     0.048 A 
ATOM     13  C   UNL     1      43.044 127.739  24.119  1.00  0.00     0.128 A 
ATOM     14  C   UNL     1      44.772 128.860  22.862  1.00  0.00     0.088 A 
ATOM     15  N   UNL     1      42.480 128.942  24.402  1.00  0.00    -0.257 NA
ATOM     16  C   UNL     1      43.011 130.107  23.947  1.00  0.00     0.179 A 
BRANCH  12  17
ATOM     17  C   UNL     1      44.807 126.404  23.036  1.00  0.00    -0.069 C 
ATOM     18  C   UNL     1      45.311 125.339  22.779  1.00  0.00     0.010 C 
ENDBRANCH  12  17
ENDBRANCH   8  11
ENDBRANCH   1   8
BRANCH   7  19
ATOM     19  N   UNL     1      46.423 131.182  20.357  1.00  0.00    -0.052 NA
BRANCH  19  20
ATOM     20  N   UNL     1      47.190 131.960  20.925  1.00  0.00     0.006 N 
ATOM     21  N   UNL     1      47.953 132.741  21.491  1.00  0.00    -0.003 NA
ENDBRANCH  19  20
ENDBRANCH   7  19
BRANCH   6  22
ATOM     22  N   UNL     1      45.187 131.352  17.698  1.00  0.00    -0.012 N 
ATOM     23  N   UNL     1      45.654 130.140  17.398  1.00  0.00     0.054 NA
ATOM     24  N   UNL     1      45.405 132.232  16.723  1.00  0.00    -0.161 N 
ATOM     25  C   UNL     1      46.211 130.275  16.182  1.00  0.00     0.249 A 
ATOM     26  C   UNL     1      46.058 131.563  15.764  1.00  0.00     0.198 A 
ATOM     27  C   UNL     1      46.852 129.318  15.402  1.00  0.00     0.064 A 
ATOM     28  C   UNL     1      46.529 132.011  14.534  1.00  0.00     0.058 A 
ATOM     29  C   UNL     1      47.346 129.729  14.148  1.00  0.00     0.005 A 
ATOM     30  C   UNL     1      47.186 131.069  13.716  1.00  0.00     0.005 A 
ATOM     31  H   UNL     1      45.122 133.237  16.723  1.00  0.00     0.340 HD
ENDBRANCH   6  22
TORSDOF 6
ENDMDL
MODEL 3
REMARK VINA RESULT:      -6.1      0.947      1.706
REMARK SMILES C#Cc1cncc([NH2+]c2cc(C)cc(-n3nc4ccccc4[nH+]3)c2N=[N+]=[N-])c1
REMARK SMILES IDX 9 1 10 2 11 3 12 4 13 5 14 6 24 7 8 8 7 11 3 12 4 13 28 14
REMARK SMILES IDX 5 15 6 16 2 17 1 18 25 19 26 20 27 21 15 22 16 23 23 24
REMARK SMILES IDX 17 25 22 26 18 27 21 28 19 29 20 30
REMARK H PARENT 8 9 8 10 23 31
ROOT
ATOM      1  C   UNL     1      44.032 131.592  21.099  1.00  0.00     0.147 A 
ATOM      2  C   UNL     1      42.703 132.020  20.932  1.00  0.00     0.072 A 
ATOM      3  C   UNL     1      42.193 132.301  19.661  1.00  0.00    -0.043 A 
ATOM      4  C   UNL     1      40.763 132.728  19.500  1.00  0.00     0.044 C 
ATOM      5  C   UNL     1      42.994 132.088  18.536  1.00  0.00     0.038 A 
ATOM      6  C   UNL     1      44.314 131.636  18.667  1.00  0.00     0.144 A 
ATOM      7  C   UNL     1      44.858 131.428  19.961  1.00  0.00     0.130 A 
ENDROOT
BRANCH   1   8
ATOM      8  N   UNL     1      44.525 131.308  22.428  1.00  0.00    -0.280 N 
ATOM      9  H   UNL     1      45.568 131.384  22.460  1.00  0.00     0.358 HD
ATOM     10  H   UNL     1      44.162 132.015  23.109  1.00  0.00     0.358 HD
BRANCH   8  11
ATOM     11  C   UNL     1      44.097 129.991  22.836  1.00  0.00     0.154 A 
ATOM     12  C   UNL     1      42.405 128.494  23.727  1.00  0.00     0.048 A 
ATOM     13  C   UNL     1      43.328 127.445  23.666  1.00  0.00     0.128 A 
ATOM     14  C   UNL     1      42.793 129.772  23.310  1.00  0.00     0.088 A 
ATOM     15  N   UNL     1      44.586 127.673  23.206  1.00  0.00    -0.257 NA
ATOM     16  C   UNL     1      44.988 128.904  22.796  1.00  0.00     0.179 A 
BRANCH  12  17
ATOM     17  C   UNL     1      41.070 128.262  24.215  1.00  0.00    -0.069 C 
ATOM     18  C   UNL     1      39.952 128.068  24.623  1.00  0.00     0.010 C 
ENDBRANCH  12  17
ENDBRANCH   8  11
ENDBRANCH   1   8
BRANCH   7  19
ATOM     19  N   UNL     1      46.240 131.086  20.157  1.00  0.00    -0.052 NA
BRANCH  19  20
ATOM     20  N   UNL     1      47.039 131.841  20.711  1.00  0.00     0.006 N 
ATOM     21  N   UNL     1      47.839 132.598  21.261  1.00  0.00    -0.003 NA
ENDBRANCH  19  20
ENDBRANCH   7  19
BRANCH   6  22
ATOM     22  N   UNL     1      45.051 131.308  17.480  1.00  0.00    -0.012 N 
ATOM     23  N   UNL     1      45.433 132.210  16.576  1.00  0.00     0.054 NA
ATOM     24  N   UNL     1      45.503 130.088  17.198  1.00  0.00    -0.161 N 
ATOM     25  C   UNL     1      46.144 131.513  15.672  1.00  0.00     0.249 A 
ATOM     26  C   UNL     1      46.188 130.207  16.054  1.00  0.00     0.198 A 
ATOM     27  C   UNL     1      46.770 131.965  14.515  1.00  0.00     0.064 A 
ATOM     28  C   UNL     1      46.860 129.235  15.318  1.00  0.00     0.058 A 
ATOM     29  C   UNL     1      47.461 131.013  13.739  1.00  0.00     0.005 A 
ATOM     30  C   UNL     1      47.506 129.654  14.138  1.00  0.00     0.005 A 
ATOM     31  H   UNL     1      45.343 129.224  17.763  1.00  0.00     0.340 HD
ENDBRANCH   6  22
TORSDOF 6
ENDMDL
MODEL 4
REMARK VINA RESULT:      -6.1      1.142      2.129
REMARK SMILES C#Cc1cncc([NH2+]c2cc(C)cc(-n3nc4ccccc4[nH+]3)c2N=[N+]=[N-])c1
REMARK SMILES IDX 9 1 10 2 11 3 12 4 13 5 14 6 24 7 8 8 7 11 3 12 4 13 28 14
REMARK SMILES IDX 5 15 6 16 2 17 1 18 25 19 26 20 27 21 15 22 16 23 23 24
REMARK SMILES IDX 17 25 22 26 18 27 21 28 19 29 20 30
REMARK H PARENT 8 9 8 10 23 31
ROOT
ATOM      1  C   UNL     1      43.997 131.537  21.682  1.00  0.00     0.147 A 
ATOM      2  C   UNL     1      42.700 132.065  21.563  1.00  0.00     0.072 A 
ATOM      3  C   UNL     1      42.204 132.479  20.323  1.00  0.00    -0.043 A 
ATOM      4  C   UNL     1      40.805 133.013  20.210  1.00  0.00     0.044 C 
ATOM      5  C   UNL     1      42.984 132.303  19.176  1.00  0.00     0.038 A 
ATOM      6  C   UNL     1      44.271 131.756  19.259  1.00  0.00     0.144 A 
ATOM      7  C   UNL     1      44.806 131.409  20.527  1.00  0.00     0.130 A 
ENDROOT
BRANCH   1   8
ATOM      8  N   UNL     1      44.476 131.115  22.980  1.00  0.00    -0.280 N 
ATOM      9  H   UNL     1      45.521 131.148  23.016  1.00  0.00     0.358 HD
ATOM     10  H   UNL     1      44.140 131.772  23.722  1.00  0.00     0.358 HD
BRANCH   8  11
ATOM     11  C   UNL     1      43.996 129.785  23.269  1.00  0.00     0.154 A 
ATOM     12  C   UNL     1      42.212 128.271  23.919  1.00  0.00     0.048 A 
ATOM     13  C   UNL     1      43.122 127.211  23.874  1.00  0.00     0.128 A 
ATOM     14  C   UNL     1      42.653 129.564  23.615  1.00  0.00     0.088 A 
ATOM     15  N   UNL     1      44.418 127.440  23.537  1.00  0.00    -0.257 NA
ATOM     16  C   UNL     1      44.871 128.686  23.239  1.00  0.00     0.179 A 
BRANCH  12  17
ATOM     17  C   UNL     1      40.837 128.037  24.276  1.00  0.00    -0.069 C 
ATOM     18  C   UNL     1      39.685 127.839  24.575  1.00  0.00     0.010 C 
ENDBRANCH  12  17
ENDBRANCH   8  11
ENDBRANCH   1   8
BRANCH   7  19
ATOM     19  N   UNL     1      46.163 130.961  20.681  1.00  0.00    -0.052 NA
BRANCH  19  20
ATOM     20  N   UNL     1      47.089 131.728  20.946  1.00  0.00     0.006 N 
ATOM     21  N   UNL     1      48.016 132.493  21.206  1.00  0.00    -0.003 NA
ENDBRANCH  19  20
ENDBRANCH   7  19
BRANCH   6  22
ATOM     22  N   UNL     1      44.979 131.474  18.042  1.00  0.00    -0.012 N 
ATOM     23  N   UNL     1      45.610 130.325  17.804  1.00  0.00     0.054 NA
ATOM     24  N   UNL     1      45.010 132.293  16.993  1.00  0.00    -0.161 N 
ATOM     25  C   UNL     1      46.076 130.440  16.549  1.00  0.00     0.249 A 
ATOM     26  C   UNL     1      45.707 131.651  16.047  1.00  0.00     0.198 A 
ATOM     27  C   UNL     1      46.815 129.527  15.803  1.00  0.00     0.064 A 
ATOM     28  C   UNL     1      46.040 132.061  14.760  1.00  0.00     0.058 A 
ATOM     29  C   UNL     1      47.175 129.902  14.493  1.00  0.00     0.005 A 
ATOM     30  C   UNL     1      46.790 131.163  13.974  1.00  0.00     0.005 A 
ATOM     31  H   UNL     1      44.577 133.242  16.937  1.00  0.00     0.340 HD
ENDBRANCH   6  22
TORSDOF 6
ENDMDL
MODEL 5
REMARK VINA RESULT:      -6.0      1.323      1.943
REMARK SMILES C#Cc1cncc([NH2+]c2cc(C)cc(-n3nc4ccccc4[nH+]3)c2N=[N+]=[N-])c1
REMARK SMILES IDX 9 1 10 2 11 3 12 4 13 5 14 6 24 7 8 8 7 11 3 12 4 13 28 14
REMARK SMILES IDX 5 15 6 16 2 17 1 18 25 19 26 20 27 21 15 22 16 23 23 24
REMARK SMILES IDX 17 25 22 26 18 27 21 28 19 29 20 30
REMARK H PARENT 8 9 8 10 23 31
ROOT
ATOM      1  C   UNL     1      44.004 131.249  21.680  1.00  0.00     0.147 A 
ATOM      2  C   UNL     1      42.808 131.985  21.614  1.00  0.00     0.072 A 
ATOM      3  C   UNL     1      42.393 132.577  20.417  1.00  0.00    -0.043 A 
ATOM      4  C   UNL     1      41.098 133.333  20.358  1.00  0.00     0.044 C 
ATOM      5  C   UNL     1      43.144 132.377  19.255  1.00  0.00     0.038 A 
ATOM      6  C   UNL     1      44.327 131.626  19.283  1.00  0.00     0.144 A 
ATOM      7  C   UNL     1      44.791 131.093  20.513  1.00  0.00     0.130 A 
ENDROOT
BRANCH   1   8
ATOM      8  N   UNL     1      44.400 130.649  22.935  1.00  0.00    -0.280 N 
ATOM      9  H   UNL     1      45.286 130.103  22.820  1.00  0.00     0.358 HD
ATOM     10  H   UNL     1      44.607 131.391  23.643  1.00  0.00     0.358 HD
BRANCH   8  11
ATOM     11  C   UNL     1      43.340 129.803  23.427  1.00  0.00     0.154 A 
ATOM     12  C   UNL     1      42.299 127.619  23.642  1.00  0.00     0.048 A 
ATOM     13  C   UNL     1      41.246 128.212  24.347  1.00  0.00     0.128 A 
ATOM     14  C   UNL     1      43.349 128.420  23.181  1.00  0.00     0.088 A 
ATOM     15  N   UNL     1      41.251 129.551  24.577  1.00  0.00    -0.257 NA
ATOM     16  C   UNL     1      42.259 130.350  24.139  1.00  0.00     0.179 A 
BRANCH  12  17
ATOM     17  C   UNL     1      42.300 126.201  23.392  1.00  0.00    -0.069 C 
ATOM     18  C   UNL     1      42.302 125.013  23.184  1.00  0.00     0.010 C 
ENDBRANCH  12  17
ENDBRANCH   8  11
ENDBRANCH   1   8
BRANCH   7  19
ATOM     19  N   UNL     1      46.058 130.424  20.620  1.00  0.00    -0.052 NA
BRANCH  19  20
ATOM     20  N   UNL     1      46.164 129.265  21.025  1.00  0.00     0.006 N 
ATOM     21  N   UNL     1      46.267 128.106  21.424  1.00  0.00    -0.003 NA
ENDBRANCH  19  20
ENDBRANCH   7  19
BRANCH   6  22
ATOM     22  N   UNL     1      44.990 131.340  18.042  1.00  0.00    -0.012 N 
ATOM     23  N   UNL     1      45.695 130.231  17.820  1.00  0.00     0.054 NA
ATOM     24  N   UNL     1      44.903 132.108  16.958  1.00  0.00    -0.161 N 
ATOM     25  C   UNL     1      46.085 130.320  16.537  1.00  0.00     0.249 A 
ATOM     26  C   UNL     1      45.598 131.475  16.004  1.00  0.00     0.198 A 
ATOM     27  C   UNL     1      46.852 129.429  15.792  1.00  0.00     0.064 A 
ATOM     28  C   UNL     1      45.831 131.846  14.683  1.00  0.00     0.058 A 
ATOM     29  C   UNL     1      47.113 129.767  14.449  1.00  0.00     0.005 A 
ATOM     30  C   UNL     1      46.606 130.969  13.897  1.00  0.00     0.005 A 
ATOM     31  H   UNL     1      44.396 133.018  16.884  1.00  0.00     0.340 HD
ENDBRANCH   6  22
TORSDOF 6
ENDMDL
MODEL 6
REMARK VINA RESULT:      -4.4      1.532      2.095
REMARK SMILES C#Cc1cncc([NH2+]c2cc(C)cc(-n3nc4ccccc4[nH+]3)c2N=[N+]=[N-])c1
REMARK SMILES IDX 9 1 10 2 11 3 12 4 13 5 14 6 24 7 8 8 7 11 3 12 4 13 28 14
REMARK SMILES IDX 5 15 6 16 2 17 1 18 25 19 26 20 27 21 15 22 16 23 23 24
REMARK SMILES IDX 17 25 22 26 18 27 21 28 19 29 20 30
REMARK H PARENT 8 9 8 10 23 31
ROOT
ATOM      1  C   UNL     1      43.819 131.411  22.329  1.00  0.00     0.147 A 
ATOM      2  C   UNL     1      42.595 132.058  22.576  1.00  0.00     0.072 A 
ATOM      3  C   UNL     1      41.897 132.693  21.544  1.00  0.00    -0.043 A 
ATOM      4  C   UNL     1      40.577 133.352  21.820  1.00  0.00     0.044 C 
ATOM      5  C   UNL     1      42.389 132.624  20.237  1.00  0.00     0.038 A 
ATOM      6  C   UNL     1      43.592 131.965  19.955  1.00  0.00     0.144 A 
ATOM      7  C   UNL     1      44.342 131.390  21.014  1.00  0.00     0.130 A 
ENDROOT
BRANCH   1   8
ATOM      8  N   UNL     1      44.511 130.762  23.420  1.00  0.00    -0.280 N 
ATOM      9  H   UNL     1      45.548 130.827  23.290  1.00  0.00     0.358 HD
ATOM     10  H   UNL     1      44.302 131.248  24.323  1.00  0.00     0.358 HD
BRANCH   8  11
ATOM     11  C   UNL     1      44.094 129.384  23.512  1.00  0.00     0.154 A 
ATOM     12  C   UNL     1      44.543 127.012  23.249  1.00  0.00     0.048 A 
ATOM     13  C   UNL     1      43.233 126.738  23.651  1.00  0.00     0.128 A 
ATOM     14  C   UNL     1      44.974 128.341  23.179  1.00  0.00     0.088 A 
ATOM     15  N   UNL     1      42.393 127.757  23.970  1.00  0.00    -0.257 NA
ATOM     16  C   UNL     1      42.786 129.056  23.910  1.00  0.00     0.179 A 
BRANCH  12  17
ATOM     17  C   UNL     1      45.440 125.938  22.907  1.00  0.00    -0.069 C 
ATOM     18  C   UNL     1      46.189 125.038  22.620  1.00  0.00     0.010 C 
ENDBRANCH  12  17
ENDBRANCH   8  11
ENDBRANCH   1   8
BRANCH   7  19
ATOM     19  N   UNL     1      45.639 130.811  20.797  1.00  0.00    -0.052 NA
BRANCH  19  20
ATOM     20  N   UNL     1      45.865 130.006  19.892  1.00  0.00     0.006 N 
ATOM     21  N   UNL     1      46.095 129.204  18.989  1.00  0.00    -0.003 NA
ENDBRANCH  19  20
ENDBRANCH   7  19
BRANCH   6  22
ATOM     22  N   UNL     1      43.987 131.809  18.583  1.00  0.00    -0.012 N 
ATOM     23  N   UNL     1      43.124 131.649  17.581  1.00  0.00     0.054 NA
ATOM     24  N   UNL     1      45.245 131.893  18.158  1.00  0.00    -0.161 N 
ATOM     25  C   UNL     1      43.885 131.611  16.473  1.00  0.00     0.249 A 
ATOM     26  C   UNL     1      45.191 131.761  16.827  1.00  0.00     0.198 A 
ATOM     27  C   UNL     1      43.492 131.453  15.147  1.00  0.00     0.064 A 
ATOM     28  C   UNL     1      46.223 131.769  15.893  1.00  0.00     0.058 A 
ATOM     29  C   UNL     1      44.506 131.454  14.168  1.00  0.00     0.005 A 
ATOM     30  C   UNL     1      45.865 131.611  14.538  1.00  0.00     0.005 A 
ATOM     31  H   UNL     1      46.092 132.030  18.755  1.00  0.00     0.340 HD
ENDBRANCH   6  22
TORSDOF 6
ENDMDL
MODEL 7
REMARK VINA RESULT:      -3.8      2.586      7.135
REMARK SMILES C#Cc1cncc([NH2+]c2cc(C)cc(-n3nc4ccccc4[nH+]3)c2N=[N+]=[N-])c1
REMARK SMILES IDX 9 1 10 2 11 3 12 4 13 5 14 6 24 7 8 8 7 11 3 12 4 13 28 14
REMARK SMILES IDX 5 15 6 16 2 17 1 18 25 19 26 20 27 21 15 22 16 23 23 24
REMARK SMILES IDX 17 25 22 26 18 27 21 28 19 29 20 30
REMARK H PARENT 8 9 8 10 23 31
ROOT
ATOM      1  C   UNL     1      43.350 129.763  23.150  1.00  0.00     0.147 A 
ATOM      2  C   UNL     1      42.037 129.528  23.593  1.00  0.00     0.072 A 
ATOM      3  C   UNL     1      41.575 128.227  23.813  1.00  0.00    -0.043 A 
ATOM      4  C   UNL     1      40.180 127.997  24.315  1.00  0.00     0.044 C 
ATOM      5  C   UNL     1      42.452 127.150  23.655  1.00  0.00     0.038 A 
ATOM      6  C   UNL     1      43.774 127.354  23.240  1.00  0.00     0.144 A 
ATOM      7  C   UNL     1      44.221 128.667  22.939  1.00  0.00     0.130 A 
ENDROOT
BRANCH   1   8
ATOM      8  N   UNL     1      43.795 131.123  22.935  1.00  0.00    -0.280 N 
ATOM      9  H   UNL     1      43.621 131.707  23.786  1.00  0.00     0.358 HD
ATOM     10  H   UNL     1      44.828 131.146  22.774  1.00  0.00     0.358 HD
BRANCH   8  11
ATOM     11  C   UNL     1      43.121 131.681  21.787  1.00  0.00     0.154 A 
ATOM     12  C   UNL     1      42.928 131.988  19.386  1.00  0.00     0.048 A 
ATOM     13  C   UNL     1      41.827 132.822  19.600  1.00  0.00     0.128 A 
ATOM     14  C   UNL     1      43.577 131.416  20.485  1.00  0.00     0.088 A 
ATOM     15  N   UNL     1      41.397 133.069  20.865  1.00  0.00    -0.257 NA
ATOM     16  C   UNL     1      42.011 132.527  21.949  1.00  0.00     0.179 A 
BRANCH  12  17
ATOM     17  C   UNL     1      43.391 131.722  18.048  1.00  0.00    -0.069 C 
ATOM     18  C   UNL     1      43.780 131.499  16.929  1.00  0.00     0.010 C 
ENDBRANCH  12  17
ENDBRANCH   8  11
ENDBRANCH   1   8
BRANCH   7  19
ATOM     19  N   UNL     1      45.526 128.918  22.392  1.00  0.00    -0.052 NA
BRANCH  19  20
ATOM     20  N   UNL     1      45.697 129.311  21.237  1.00  0.00     0.006 N 
ATOM     21  N   UNL     1      45.862 129.705  20.084  1.00  0.00    -0.003 NA
ENDBRANCH  19  20
ENDBRANCH   7  19
BRANCH   6  22
ATOM     22  N   UNL     1      44.671 126.232  23.219  1.00  0.00    -0.012 N 
ATOM     23  N   UNL     1      44.716 125.306  24.176  1.00  0.00     0.054 NA
ATOM     24  N   UNL     1      45.489 125.953  22.207  1.00  0.00    -0.161 N 
ATOM     25  C   UNL     1      45.624 124.412  23.749  1.00  0.00     0.249 A 
ATOM     26  C   UNL     1      46.101 124.808  22.536  1.00  0.00     0.198 A 
ATOM     27  C   UNL     1      46.062 123.246  24.369  1.00  0.00     0.064 A 
ATOM     28  C   UNL     1      47.056 124.080  21.834  1.00  0.00     0.058 A 
ATOM     29  C   UNL     1      47.031 122.478  23.692  1.00  0.00     0.005 A 
ATOM     30  C   UNL     1      47.526 122.892  22.431  1.00  0.00     0.005 A 
ATOM     31  H   UNL     1      45.619 126.523  21.342  1.00  0.00     0.340 HD
ENDBRANCH   6  22
TORSDOF 6
ENDMDL


