REMARK SMILES NCC[C@H]1CC[C@@]([S-])(c2cnc3ccnn3c2)CC1
REMARK SMILES IDX 2 1 1 2 3 5 4 6 19 7 5 8 18 9 6 10 7 11 8 12 9 13 10 14
REMARK SMILES IDX 17 15 11 16 16 17 12 18 15 19 13 20 14 21
REMARK H PARENT 1 3 1 4
ROOT
ATOM      1  C   UNL     1      -3.480   1.474   0.230  1.00  0.00     0.078 C 
ENDROOT
BRANCH   1   2
ATOM      2  N   UNL     1      -4.067   2.290   1.288  1.00  0.00    -0.330 NA
ATOM      3  H   UNL     1      -5.107   2.204   1.216  1.00  0.00     0.118 HD
ATOM      4  H   UNL     1      -3.798   1.874   2.209  1.00  0.00     0.118 HD
ENDBRANCH   1   2
BRANCH   1   5
ATOM      5  C   UNL     1      -1.954   1.641   0.223  1.00  0.00     0.018 C 
BRANCH   5   6
ATOM      6  C   UNL     1      -1.279   0.967  -0.993  1.00  0.00    -0.010 C 
ATOM      7  C   UNL     1      -1.367  -0.573  -0.916  1.00  0.00     0.002 C 
ATOM      8  C   UNL     1       0.195   1.409  -1.083  1.00  0.00     0.002 C 
ATOM      9  C   UNL     1      -0.645  -1.224  -2.103  1.00  0.00    -0.014 C 
ATOM     10  C   UNL     1       0.927   0.714  -2.245  1.00  0.00    -0.014 C 
ATOM     11  C   UNL     1       0.858  -0.837  -2.152  1.00  0.00    -0.123 C 
ATOM     12  S   UNL     1       1.557  -1.499  -3.660  1.00  0.00    -0.781 S 
BRANCH  11  13
ATOM     13  C   UNL     1       1.653  -1.445  -0.978  1.00  0.00    -0.029 A 
ATOM     14  C   UNL     1       1.515  -2.828  -0.658  1.00  0.00     0.117 A 
ATOM     15  C   UNL     1       2.625  -0.716  -0.245  1.00  0.00     0.119 A 
ATOM     16  N   UNL     1       2.236  -3.397   0.351  1.00  0.00    -0.237 NA
ATOM     17  N   UNL     1       3.297  -1.347   0.745  1.00  0.00    -0.222 N 
ATOM     18  C   UNL     1       3.108  -2.632   1.041  1.00  0.00     0.154 A 
ATOM     19  N   UNL     1       4.219  -0.829   1.537  1.00  0.00    -0.175 NA
ATOM     20  C   UNL     1       3.932  -3.003   2.075  1.00  0.00     0.071 A 
ATOM     21  C   UNL     1       4.621  -1.827   2.363  1.00  0.00     0.138 A 
ENDBRANCH  11  13
ENDBRANCH   5   6
ENDBRANCH   1   5
TORSDOF 4


