REMARK SMILES Cc1ccc(NCCC[Si](C)(C)C)c(-c2ccc3c(c2)[N-]C(=O)C3)c1
REMARK SMILES IDX 7 1 6 2 5 4 2 5 3 6 25 7 4 8 14 9 1 10 15 11 16 12 20 13
REMARK SMILES IDX 17 14 19 15 18 16 21 17 24 18 22 19 23 20 8 21 9 22 10 23
REMARK SMILES IDX 11 24 12 25 13 26
REMARK H PARENT 6 3
ROOT
ATOM      1  C   UNL     1       1.737   0.818  -1.438  1.00  0.00     0.112 C 
ENDROOT
BRANCH   1   2
ATOM      2  N   UNL     1       1.364  -0.459  -0.824  1.00  0.00    -0.385 N 
ATOM      3  H   UNL     1       1.769  -0.659   0.119  1.00  0.00     0.160 HD
BRANCH   2   4
ATOM      4  C   UNL     1       0.491  -1.437  -1.433  1.00  0.00     0.042 A 
ATOM      5  C   UNL     1      -1.078  -3.453  -2.640  1.00  0.00    -0.050 A 
ATOM      6  C   UNL     1      -0.493  -2.450  -3.421  1.00  0.00     0.005 A 
ATOM      7  C   UNL     1      -0.911  -3.428  -1.250  1.00  0.00     0.014 A 
ATOM      8  C   UNL     1       0.290  -1.458  -2.827  1.00  0.00     0.026 A 
ATOM      9  C   UNL     1      -0.139  -2.427  -0.639  1.00  0.00     0.005 A 
ATOM     10  C   UNL     1      -1.946  -4.497  -3.278  1.00  0.00     0.044 C 
BRANCH   9  11
ATOM     11  C   UNL     1      -0.055  -2.403   0.834  1.00  0.00    -0.018 A 
ATOM     12  C   UNL     1       0.573  -3.460   1.530  1.00  0.00     0.009 A 
ATOM     13  C   UNL     1      -0.624  -1.331   1.551  1.00  0.00    -0.007 A 
ATOM     14  C   UNL     1       0.656  -3.439   2.932  1.00  0.00     0.003 A 
ATOM     15  C   UNL     1      -0.526  -1.332   2.940  1.00  0.00    -0.130 A 
ATOM     16  C   UNL     1       0.099  -2.357   3.615  1.00  0.00    -0.057 A 
ATOM     17  N   UNL     1      -1.037  -0.332   3.806  1.00  0.00    -0.626 NA
ATOM     18  C   UNL     1       0.060  -2.116   5.084  1.00  0.00     0.089 C 
ATOM     19  C   UNL     1      -0.678  -0.812   5.101  1.00  0.00     0.059 C 
ATOM     20  O   UNL     1      -0.962  -0.186   6.155  1.00  0.00    -0.320 OA
ENDBRANCH   9  11
ENDBRANCH   2   4
ENDBRANCH   1   2
BRANCH   1  21
ATOM     21  C   UNL     1       0.530   1.759  -1.520  1.00  0.00     0.018 C 
BRANCH  21  22
ATOM     22  C   UNL     1       0.138   2.285  -0.134  1.00  0.00    -0.009 C 
BRANCH  22  23
ATOM     23  Si  UNL     1      -1.507   3.184  -0.169  1.00  0.00     0.044 Si
ATOM     24  C   UNL     1      -1.451   4.587  -1.400  1.00  0.00    -0.010 C 
ATOM     25  C   UNL     1      -2.878   2.001  -0.629  1.00  0.00    -0.010 C 
ATOM     26  C   UNL     1      -1.849   3.871   1.532  1.00  0.00    -0.010 C 
ENDBRANCH  22  23
ENDBRANCH  21  22
ENDBRANCH   1  21
TORSDOF 6


