REMARK SMILES CC(=O)[C@H]1CC[C@@H](c2cc3ccccc3[nH]2)C/[N+]1=C(\O)c1nc[nH+][nH]1
REMARK SMILES IDX 18 1 17 2 7 3 6 4 5 5 4 6 19 7 20 8 21 10 22 11 25 12 23 13
REMARK SMILES IDX 24 14 2 17 3 18 1 19 8 20 9 21 16 22 10 23 15 24 11 25 14 26
REMARK SMILES IDX 12 27 13 28
REMARK H PARENT 20 9 25 15 24 16 16 29
ROOT
ATOM      1  N   UNL     1      -1.479   0.188   0.313  1.00  0.00    -0.182 N 
ATOM      2  C   UNL     1      -0.092   0.630   0.034  1.00  0.00     0.365 C 
ATOM      3  C   UNL     1       0.937  -0.196   0.816  1.00  0.00     0.102 C 
ATOM      4  C   UNL     1       0.743  -1.688   0.543  1.00  0.00     0.024 C 
ATOM      5  C   UNL     1      -0.663  -2.111   0.963  1.00  0.00     0.086 C 
ATOM      6  C   UNL     1      -1.773  -1.270   0.296  1.00  0.00     0.330 C 
ENDROOT
BRANCH   1   7
ATOM      7  C   UNL     1      -2.450   1.083   0.274  1.00  0.00     0.435 C 
BRANCH   7   8
ATOM      8  O   UNL     1      -2.160   2.423   0.004  1.00  0.00    -0.456 OA
ATOM      9  H   UNL     1      -2.886   3.129  -0.028  1.00  0.00     0.300 HD
ENDBRANCH   7   8
BRANCH   7  10
ATOM     10  C   UNL     1      -3.875   0.738   0.478  1.00  0.00     0.387 A 
ATOM     11  N   UNL     1      -4.359   0.114   1.575  1.00  0.00    -0.014 NA
ATOM     12  N   UNL     1      -4.858   1.117  -0.355  1.00  0.00    -0.181 N 
ATOM     13  C   UNL     1      -5.689   0.108   1.342  1.00  0.00     0.472 A 
ATOM     14  N   UNL     1      -5.992   0.713   0.180  1.00  0.00    -0.172 N 
ATOM     15  H   UNL     1      -4.767   1.636  -1.258  1.00  0.00     0.217 HD
ATOM     16  H   UNL     1      -6.940   0.856  -0.232  1.00  0.00     0.339 HD
ENDBRANCH   7  10
ENDBRANCH   1   7
BRANCH   6  17
ATOM     17  C   UNL     1      -2.054  -1.730  -1.122  1.00  0.00     0.197 C 
ATOM     18  O   UNL     1      -1.192  -1.626  -1.981  1.00  0.00    -0.293 OA
ATOM     19  C   UNL     1      -3.391  -2.295  -1.507  1.00  0.00     0.095 C 
ENDBRANCH   6  17
BRANCH   3  20
ATOM     20  C   UNL     1       2.339   0.228   0.461  1.00  0.00     0.025 A 
ATOM     21  C   UNL     1       3.253   0.782   1.355  1.00  0.00     0.032 A 
ATOM     22  N   UNL     1       2.874   0.126  -0.780  1.00  0.00    -0.358 N 
ATOM     23  C   UNL     1       4.385   1.017   0.605  1.00  0.00    -0.000 A 
ATOM     24  C   UNL     1       4.122   0.611  -0.677  1.00  0.00     0.046 A 
ATOM     25  C   UNL     1       5.616   1.560   0.968  1.00  0.00     0.010 A 
ATOM     26  C   UNL     1       5.075   0.719  -1.689  1.00  0.00     0.026 A 
ATOM     27  C   UNL     1       6.598   1.681  -0.033  1.00  0.00     0.001 A 
ATOM     28  C   UNL     1       6.329   1.263  -1.355  1.00  0.00     0.002 A 
ATOM     29  H   UNL     1       2.415  -0.248  -1.641  1.00  0.00     0.166 HD
ENDBRANCH   3  20
TORSDOF 5


