REMARK SMILES CCC[C@H](C)NC(=O)N(c1ccc(C)cc1)c1ccc2cc[nH]c2c1[O-]
REMARK SMILES IDX 6 1 7 2 8 3 4 5 5 6 3 7 2 8 1 9 9 10 10 11 11 12 16 13 12 14
REMARK SMILES IDX 15 15 13 16 14 17 17 18 18 19 25 20 19 21 24 22 20 23 23 24
REMARK SMILES IDX 21 25 22 26 26 27
REMARK H PARENT 6 4 23 28
ROOT
ATOM      1  N   UNL     1       1.576  -0.662  -0.060  1.00  0.00    -0.335 N 
ATOM      2  C   UNL     1       0.615   0.178   0.600  1.00  0.00     0.326 C 
ATOM      3  O   UNL     1       1.002   1.042   1.435  1.00  0.00    -0.248 OA
ATOM      4  H   UNL     1       1.268  -1.221  -0.888  1.00  0.00     0.165 HD
ENDROOT
BRANCH   1   5
ATOM      5  C   UNL     1       3.002  -0.660   0.276  1.00  0.00     0.080 C 
ATOM      6  C   UNL     1       3.478  -2.110   0.431  1.00  0.00     0.031 C 
BRANCH   5   7
ATOM      7  C   UNL     1       3.774   0.096  -0.827  1.00  0.00     0.024 C 
BRANCH   7   8
ATOM      8  C   UNL     1       5.274   0.297  -0.543  1.00  0.00    -0.001 C 
ATOM      9  C   UNL     1       5.538   1.219   0.647  1.00  0.00     0.004 C 
ENDBRANCH   7   8
ENDBRANCH   5   7
ENDBRANCH   1   5
BRANCH   2  10
ATOM     10  N   UNL     1      -0.792   0.055   0.302  1.00  0.00    -0.264 N 
BRANCH  10  11
ATOM     11  C   UNL     1      -1.343  -1.199  -0.152  1.00  0.00     0.051 A 
ATOM     12  C   UNL     1      -0.937  -2.413   0.429  1.00  0.00     0.027 A 
ATOM     13  C   UNL     1      -2.310  -1.220  -1.171  1.00  0.00     0.027 A 
ATOM     14  C   UNL     1      -1.475  -3.625  -0.014  1.00  0.00     0.005 A 
ATOM     15  C   UNL     1      -2.850  -2.431  -1.611  1.00  0.00     0.005 A 
ATOM     16  C   UNL     1      -2.428  -3.642  -1.044  1.00  0.00    -0.051 A 
ATOM     17  C   UNL     1      -3.027  -4.934  -1.514  1.00  0.00     0.044 C 
ENDBRANCH  10  11
BRANCH  10  18
ATOM     18  C   UNL     1      -1.671   1.173   0.537  1.00  0.00     0.045 A 
ATOM     19  C   UNL     1      -2.841   0.998   1.324  1.00  0.00     0.027 A 
ATOM     20  C   UNL     1      -1.385   2.446  -0.014  1.00  0.00    -0.059 A 
ATOM     21  C   UNL     1      -3.708   2.076   1.574  1.00  0.00     0.012 A 
ATOM     22  C   UNL     1      -2.266   3.494   0.257  1.00  0.00     0.039 A 
ATOM     23  C   UNL     1      -3.385   3.312   1.022  1.00  0.00    -0.001 A 
ATOM     24  N   UNL     1      -2.174   4.770  -0.155  1.00  0.00    -0.362 N 
ATOM     25  C   UNL     1      -4.034   4.525   1.102  1.00  0.00     0.028 A 
ATOM     26  C   UNL     1      -3.252   5.404   0.360  1.00  0.00     0.083 A 
ATOM     27  O   UNL     1      -0.268   2.653  -0.817  1.00  0.00    -0.870 OA
ATOM     28  H   UNL     1      -1.423   5.192  -0.745  1.00  0.00     0.166 HD
ENDBRANCH  10  18
ENDBRANCH   2  10
TORSDOF 6


