REMARK SMILES O=C([N-][C@H]1CC12CCC2)c1ccc(C(=O)N[C@@H]2C=CCC2)c(F)c1O
REMARK SMILES IDX 10 1 11 2 12 3 13 4 22 5 23 6 24 7 2 8 1 9 3 10 4 11 5 12
REMARK SMILES IDX 6 13 7 14 9 15 8 16 25 17 14 19 16 20 15 21 17 23 18 24
REMARK SMILES IDX 21 25 19 26 20 27
REMARK H PARENT 25 18 16 22
ROOT
ATOM      1  C   UNL     1       0.989   0.046   2.000  1.00  0.00     0.044 A 
ATOM      2  C   UNL     1       0.385   0.877   2.962  1.00  0.00     0.015 A 
ATOM      3  C   UNL     1      -0.878   1.425   2.743  1.00  0.00     0.018 A 
ATOM      4  C   UNL     1      -1.582   1.149   1.563  1.00  0.00     0.079 A 
ATOM      5  C   UNL     1      -0.985   0.332   0.586  1.00  0.00     0.178 A 
ATOM      6  F   UNL     1      -1.615   0.109  -0.597  1.00  0.00    -0.202 F 
ATOM      7  C   UNL     1       0.289  -0.225   0.800  1.00  0.00     0.161 A 
ENDROOT
BRANCH   1   8
ATOM      8  C   UNL     1       2.338  -0.518   2.274  1.00  0.00     0.086 C 
ATOM      9  O   UNL     1       2.841  -0.414   3.426  1.00  0.00    -0.315 OA
BRANCH   8  10
ATOM     10  N   UNL     1       3.082  -1.173   1.243  1.00  0.00    -0.646 NA
BRANCH  10  11
ATOM     11  C   UNL     1       4.390  -1.768   1.476  1.00  0.00    -0.100 C 
ATOM     12  C   UNL     1       4.333  -3.247   1.879  1.00  0.00    -0.010 C 
ATOM     13  C   UNL     1       4.725  -2.836   0.465  1.00  0.00    -0.044 C 
ATOM     14  C   UNL     1       3.930  -3.417  -0.669  1.00  0.00     0.006 C 
ATOM     15  C   UNL     1       6.056  -3.304  -0.044  1.00  0.00     0.006 C 
ATOM     16  C   UNL     1       5.279  -3.918  -1.228  1.00  0.00     0.001 C 
ENDBRANCH  10  11
ENDBRANCH   8  10
ENDBRANCH   1   8
BRANCH   7  17
ATOM     17  O   UNL     1       0.853  -1.048  -0.177  1.00  0.00    -0.504 OA
ATOM     18  H   UNL     1       0.376  -1.265  -1.044  1.00  0.00     0.293 HD
ENDBRANCH   7  17
BRANCH   4  19
ATOM     19  C   UNL     1      -2.924   1.740   1.359  1.00  0.00     0.254 C 
ATOM     20  N   UNL     1      -3.954   1.012   0.673  1.00  0.00    -0.346 N 
ATOM     21  O   UNL     1      -3.171   2.888   1.821  1.00  0.00    -0.269 OA
ATOM     22  H   UNL     1      -3.818  -0.010   0.499  1.00  0.00     0.164 HD
BRANCH  20  23
ATOM     23  C   UNL     1      -5.220   1.644   0.291  1.00  0.00     0.105 C 
ATOM     24  C   UNL     1      -6.184   0.635  -0.230  1.00  0.00    -0.007 C 
ATOM     25  C   UNL     1      -5.026   2.622  -0.881  1.00  0.00     0.033 C 
ATOM     26  C   UNL     1      -6.597   0.918  -1.452  1.00  0.00    -0.029 C 
ATOM     27  C   UNL     1      -5.988   2.165  -1.982  1.00  0.00     0.029 C 
ENDBRANCH  20  23
ENDBRANCH   4  19
TORSDOF 6


