MODEL 1
REMARK VINA RESULT:      -6.5      0.000      0.000
REMARK SMILES Cc1cc(F)[nH+]cc1-c1ccc2cc[nH]c2c1/N=C(\O)c1cc(F)c[nH]1
REMARK SMILES IDX 18 1 19 2 20 3 21 5 22 6 26 7 23 8 25 9 24 11 17 12 9 13
REMARK SMILES IDX 16 14 10 15 15 16 12 17 11 18 14 19 13 20 8 22 2 23 7 24
REMARK SMILES IDX 3 25 6 26 4 27 1 28 5 30
REMARK H PARENT 20 4 26 10 15 21 6 29
ROOT
ATOM      1  N   UNL     1      45.581 130.688  19.207  1.00  0.00    -0.210 NA
ENDROOT
BRANCH   1   2
ATOM      2  C   UNL     1      45.935 130.699  20.459  1.00  0.00     0.235 C 
BRANCH   2   3
ATOM      3  O   UNL     1      46.666 131.755  21.009  1.00  0.00    -0.492 OA
ATOM      4  H   UNL     1      46.310 132.350  21.745  1.00  0.00     0.295 HD
ENDBRANCH   2   3
BRANCH   2   5
ATOM      5  C   UNL     1      45.528 129.586  21.330  1.00  0.00     0.104 A 
ATOM      6  C   UNL     1      45.858 128.257  21.135  1.00  0.00     0.072 A 
ATOM      7  N   UNL     1      44.781 129.727  22.445  1.00  0.00    -0.355 N 
ATOM      8  C   UNL     1      45.277 127.575  22.182  1.00  0.00     0.141 A 
ATOM      9  C   UNL     1      44.624 128.497  22.969  1.00  0.00     0.122 A 
ATOM     10  H   UNL     1      44.393 130.615  22.835  1.00  0.00     0.166 HD
ATOM     11  F   UNL     1      45.339 126.239  22.399  1.00  0.00    -0.205 F 
ENDBRANCH   2   5
ENDBRANCH   1   2
BRANCH   1  12
ATOM     12  C   UNL     1      44.354 131.213  18.681  1.00  0.00     0.099 A 
ATOM     13  C   UNL     1      44.123 131.243  17.283  1.00  0.00     0.016 A 
ATOM     14  C   UNL     1      43.390 131.799  19.514  1.00  0.00     0.072 A 
ATOM     15  C   UNL     1      42.923 131.804  16.777  1.00  0.00     0.012 A 
ATOM     16  N   UNL     1      43.432 131.948  20.851  1.00  0.00    -0.359 N 
ATOM     17  C   UNL     1      42.240 132.346  19.007  1.00  0.00     0.002 A 
ATOM     18  C   UNL     1      41.969 132.362  17.644  1.00  0.00     0.011 A 
ATOM     19  C   UNL     1      42.289 132.584  21.192  1.00  0.00     0.083 A 
ATOM     20  C   UNL     1      41.517 132.848  20.066  1.00  0.00     0.028 A 
ATOM     21  H   UNL     1      44.192 131.649  21.501  1.00  0.00     0.166 HD
BRANCH  13  22
ATOM     22  C   UNL     1      45.107 130.657  16.346  1.00  0.00     0.051 A 
ATOM     23  C   UNL     1      45.987 131.459  15.583  1.00  0.00    -0.028 A 
ATOM     24  C   UNL     1      45.175 129.260  16.211  1.00  0.00     0.318 A 
ATOM     25  C   UNL     1      46.872 130.838  14.690  1.00  0.00     0.118 A 
ATOM     26  N   UNL     1      46.058 128.692  15.349  1.00  0.00    -0.186 N 
ATOM     27  C   UNL     1      46.896 129.447  14.590  1.00  0.00     0.358 A 
ATOM     28  C   UNL     1      45.983 132.961  15.690  1.00  0.00     0.045 C 
ATOM     29  H   UNL     1      46.088 127.651  15.264  1.00  0.00     0.456 HD
ATOM     30  F   UNL     1      47.760 128.847  13.734  1.00  0.00    -0.136 F 
ENDBRANCH  13  22
ENDBRANCH   1  12
TORSDOF 5
ENDMDL
MODEL 2
REMARK VINA RESULT:      -6.2      1.037      1.205
REMARK SMILES Cc1cc(F)[nH+]cc1-c1ccc2cc[nH]c2c1/N=C(\O)c1cc(F)c[nH]1
REMARK SMILES IDX 18 1 19 2 20 3 21 5 22 6 26 7 23 8 25 9 24 11 17 12 9 13
REMARK SMILES IDX 16 14 10 15 15 16 12 17 11 18 14 19 13 20 8 22 2 23 7 24
REMARK SMILES IDX 3 25 6 26 4 27 1 28 5 30
REMARK H PARENT 20 4 26 10 15 21 6 29
ROOT
ATOM      1  N   UNL     1      45.509 130.826  19.328  1.00  0.00    -0.210 NA
ENDROOT
BRANCH   1   2
ATOM      2  C   UNL     1      45.813 130.803  20.593  1.00  0.00     0.235 C 
BRANCH   2   3
ATOM      3  O   UNL     1      46.448 131.879  21.218  1.00  0.00    -0.492 OA
ATOM      4  H   UNL     1      46.689 132.734  20.734  1.00  0.00     0.295 HD
ENDBRANCH   2   3
BRANCH   2   5
ATOM      5  C   UNL     1      45.451 129.626  21.398  1.00  0.00     0.104 A 
ATOM      6  C   UNL     1      44.688 129.650  22.552  1.00  0.00     0.072 A 
ATOM      7  N   UNL     1      45.816 128.361  21.102  1.00  0.00    -0.355 N 
ATOM      8  C   UNL     1      44.598 128.338  22.962  1.00  0.00     0.141 A 
ATOM      9  C   UNL     1      45.296 127.569  22.058  1.00  0.00     0.122 A 
ATOM     10  H   UNL     1      46.392 128.046  20.288  1.00  0.00     0.166 HD
ATOM     11  F   UNL     1      43.940 127.886  24.056  1.00  0.00    -0.205 F 
ENDBRANCH   2   5
ENDBRANCH   1   2
BRANCH   1  12
ATOM     12  C   UNL     1      44.285 131.327  18.773  1.00  0.00     0.099 A 
ATOM     13  C   UNL     1      44.093 131.365  17.369  1.00  0.00     0.016 A 
ATOM     14  C   UNL     1      43.284 131.882  19.583  1.00  0.00     0.072 A 
ATOM     15  C   UNL     1      42.895 131.903  16.833  1.00  0.00     0.012 A 
ATOM     16  N   UNL     1      43.285 132.019  20.921  1.00  0.00    -0.359 N 
ATOM     17  C   UNL     1      42.137 132.407  19.048  1.00  0.00     0.002 A 
ATOM     18  C   UNL     1      41.904 132.430  17.678  1.00  0.00     0.011 A 
ATOM     19  C   UNL     1      42.118 132.624  21.235  1.00  0.00     0.083 A 
ATOM     20  C   UNL     1      41.372 132.882  20.091  1.00  0.00     0.028 A 
ATOM     21  H   UNL     1      44.033 131.731  21.591  1.00  0.00     0.166 HD
BRANCH  13  22
ATOM     22  C   UNL     1      45.118 130.812  16.455  1.00  0.00     0.051 A 
ATOM     23  C   UNL     1      45.023 130.949  15.051  1.00  0.00    -0.028 A 
ATOM     24  C   UNL     1      46.221 130.133  16.997  1.00  0.00     0.318 A 
ATOM     25  C   UNL     1      46.013 130.371  14.243  1.00  0.00     0.118 A 
ATOM     26  N   UNL     1      47.172 129.601  16.183  1.00  0.00    -0.186 N 
ATOM     27  C   UNL     1      47.087 129.702  14.831  1.00  0.00     0.358 A 
ATOM     28  C   UNL     1      43.878 131.680  14.402  1.00  0.00     0.045 C 
ATOM     29  H   UNL     1      47.982 129.098  16.610  1.00  0.00     0.456 HD
ATOM     30  F   UNL     1      48.050 129.153  14.049  1.00  0.00    -0.136 F 
ENDBRANCH  13  22
ENDBRANCH   1  12
TORSDOF 5
ENDMDL
MODEL 3
REMARK VINA RESULT:      -6.1      2.353      6.409
REMARK SMILES Cc1cc(F)[nH+]cc1-c1ccc2cc[nH]c2c1/N=C(\O)c1cc(F)c[nH]1
REMARK SMILES IDX 18 1 19 2 20 3 21 5 22 6 26 7 23 8 25 9 24 11 17 12 9 13
REMARK SMILES IDX 16 14 10 15 15 16 12 17 11 18 14 19 13 20 8 22 2 23 7 24
REMARK SMILES IDX 3 25 6 26 4 27 1 28 5 30
REMARK H PARENT 20 4 26 10 15 21 6 29
ROOT
ATOM      1  N   UNL     1      45.342 129.286  20.970  1.00  0.00    -0.210 NA
ENDROOT
BRANCH   1   2
ATOM      2  C   UNL     1      45.772 130.365  20.381  1.00  0.00     0.235 C 
BRANCH   2   3
ATOM      3  O   UNL     1      46.524 131.326  21.063  1.00  0.00    -0.492 OA
ATOM      4  H   UNL     1      46.635 132.276  20.734  1.00  0.00     0.295 HD
ENDBRANCH   2   3
BRANCH   2   5
ATOM      5  C   UNL     1      45.486 130.567  18.953  1.00  0.00     0.104 A 
ATOM      6  C   UNL     1      44.493 131.386  18.445  1.00  0.00     0.072 A 
ATOM      7  N   UNL     1      46.169 129.976  17.950  1.00  0.00    -0.355 N 
ATOM      8  C   UNL     1      44.590 131.275  17.075  1.00  0.00     0.141 A 
ATOM      9  C   UNL     1      45.623 130.407  16.797  1.00  0.00     0.122 A 
ATOM     10  H   UNL     1      46.970 129.311  18.040  1.00  0.00     0.166 HD
ATOM     11  F   UNL     1      43.811 131.907  16.164  1.00  0.00    -0.205 F 
ENDBRANCH   2   5
ENDBRANCH   1   2
BRANCH   1  12
ATOM     12  C   UNL     1      44.632 129.242  22.215  1.00  0.00     0.099 A 
ATOM     13  C   UNL     1      44.633 128.064  23.003  1.00  0.00     0.016 A 
ATOM     14  C   UNL     1      43.839 130.315  22.647  1.00  0.00     0.072 A 
ATOM     15  C   UNL     1      43.891 128.021  24.211  1.00  0.00     0.012 A 
ATOM     16  N   UNL     1      43.632 131.492  22.029  1.00  0.00    -0.359 N 
ATOM     17  C   UNL     1      43.121 130.253  23.812  1.00  0.00     0.002 A 
ATOM     18  C   UNL     1      43.126 129.124  24.624  1.00  0.00     0.011 A 
ATOM     19  C   UNL     1      42.784 132.185  22.820  1.00  0.00     0.083 A 
ATOM     20  C   UNL     1      42.442 131.444  23.946  1.00  0.00     0.028 A 
ATOM     21  H   UNL     1      44.030 131.811  21.117  1.00  0.00     0.166 HD
BRANCH  13  22
ATOM     22  C   UNL     1      45.434 126.887  22.596  1.00  0.00     0.051 A 
ATOM     23  C   UNL     1      44.854 125.611  22.413  1.00  0.00    -0.028 A 
ATOM     24  C   UNL     1      46.813 127.042  22.379  1.00  0.00     0.318 A 
ATOM     25  C   UNL     1      45.679 124.534  22.059  1.00  0.00     0.118 A 
ATOM     26  N   UNL     1      47.579 125.979  22.019  1.00  0.00    -0.186 N 
ATOM     27  C   UNL     1      47.044 124.739  21.861  1.00  0.00     0.358 A 
ATOM     28  C   UNL     1      43.380 125.376  22.610  1.00  0.00     0.045 C 
ATOM     29  H   UNL     1      48.603 126.118  21.866  1.00  0.00     0.456 HD
ATOM     30  F   UNL     1      47.839 123.699  21.507  1.00  0.00    -0.136 F 
ENDBRANCH  13  22
ENDBRANCH   1  12
TORSDOF 5
ENDMDL
MODEL 4
REMARK VINA RESULT:      -5.4      4.748      7.989
REMARK SMILES Cc1cc(F)[nH+]cc1-c1ccc2cc[nH]c2c1/N=C(\O)c1cc(F)c[nH]1
REMARK SMILES IDX 18 1 19 2 20 3 21 5 22 6 26 7 23 8 25 9 24 11 17 12 9 13
REMARK SMILES IDX 16 14 10 15 15 16 12 17 11 18 14 19 13 20 8 22 2 23 7 24
REMARK SMILES IDX 3 25 6 26 4 27 1 28 5 30
REMARK H PARENT 20 4 26 10 15 21 6 29
ROOT
ATOM      1  N   UNL     1      44.657 126.932  22.767  1.00  0.00    -0.210 NA
ENDROOT
BRANCH   1   2
ATOM      2  C   UNL     1      44.908 128.068  23.351  1.00  0.00     0.235 C 
BRANCH   2   3
ATOM      3  O   UNL     1      45.635 128.139  24.542  1.00  0.00    -0.492 OA
ATOM      4  H   UNL     1      45.424 128.800  25.279  1.00  0.00     0.295 HD
ENDBRANCH   2   3
BRANCH   2   5
ATOM      5  C   UNL     1      44.443 129.315  22.725  1.00  0.00     0.104 A 
ATOM      6  C   UNL     1      43.206 129.899  22.931  1.00  0.00     0.072 A 
ATOM      7  N   UNL     1      45.177 130.056  21.869  1.00  0.00    -0.355 N 
ATOM      8  C   UNL     1      43.204 131.040  22.158  1.00  0.00     0.141 A 
ATOM      9  C   UNL     1      44.422 131.114  21.519  1.00  0.00     0.122 A 
ATOM     10  H   UNL     1      46.147 129.857  21.536  1.00  0.00     0.166 HD
ATOM     11  F   UNL     1      42.189 131.931  22.049  1.00  0.00    -0.205 F 
ENDBRANCH   2   5
ENDBRANCH   1   2
BRANCH   1  12
ATOM     12  C   UNL     1      44.204 125.740  23.423  1.00  0.00     0.099 A 
ATOM     13  C   UNL     1      45.105 124.682  23.697  1.00  0.00     0.016 A 
ATOM     14  C   UNL     1      42.850 125.538  23.726  1.00  0.00     0.072 A 
ATOM     15  C   UNL     1      44.634 123.492  24.308  1.00  0.00     0.012 A 
ATOM     16  N   UNL     1      41.817 126.367  23.490  1.00  0.00    -0.359 N 
ATOM     17  C   UNL     1      42.409 124.378  24.307  1.00  0.00     0.002 A 
ATOM     18  C   UNL     1      43.273 123.334  24.618  1.00  0.00     0.011 A 
ATOM     19  C   UNL     1      40.714 125.728  23.939  1.00  0.00     0.083 A 
ATOM     20  C   UNL     1      41.044 124.481  24.459  1.00  0.00     0.028 A 
ATOM     21  H   UNL     1      41.846 127.309  23.040  1.00  0.00     0.166 HD
BRANCH  13  22
ATOM     22  C   UNL     1      46.546 124.821  23.387  1.00  0.00     0.051 A 
ATOM     23  C   UNL     1      47.117 124.279  22.213  1.00  0.00    -0.028 A 
ATOM     24  C   UNL     1      47.373 125.518  24.283  1.00  0.00     0.318 A 
ATOM     25  C   UNL     1      48.495 124.421  21.998  1.00  0.00     0.118 A 
ATOM     26  N   UNL     1      48.702 125.652  24.034  1.00  0.00    -0.186 N 
ATOM     27  C   UNL     1      49.274 125.118  22.922  1.00  0.00     0.358 A 
ATOM     28  C   UNL     1      46.287 123.535  21.199  1.00  0.00     0.045 C 
ATOM     29  H   UNL     1      49.298 126.173  24.716  1.00  0.00     0.456 HD
ATOM     30  F   UNL     1      50.606 125.264  22.709  1.00  0.00    -0.136 F 
ENDBRANCH  13  22
ENDBRANCH   1  12
TORSDOF 5
ENDMDL
MODEL 5
REMARK VINA RESULT:      -4.7      0.814      1.408
REMARK SMILES Cc1cc(F)[nH+]cc1-c1ccc2cc[nH]c2c1/N=C(\O)c1cc(F)c[nH]1
REMARK SMILES IDX 18 1 19 2 20 3 21 5 22 6 26 7 23 8 25 9 24 11 17 12 9 13
REMARK SMILES IDX 16 14 10 15 15 16 12 17 11 18 14 19 13 20 8 22 2 23 7 24
REMARK SMILES IDX 3 25 6 26 4 27 1 28 5 30
REMARK H PARENT 20 4 26 10 15 21 6 29
ROOT
ATOM      1  N   UNL     1      45.695 130.951  19.019  1.00  0.00    -0.210 NA
ENDROOT
BRANCH   1   2
ATOM      2  C   UNL     1      46.070 130.915  20.265  1.00  0.00     0.235 C 
BRANCH   2   3
ATOM      3  O   UNL     1      46.859 131.923  20.826  1.00  0.00    -0.492 OA
ATOM      4  H   UNL     1      47.600 131.740  21.490  1.00  0.00     0.295 HD
ENDBRANCH   2   3
BRANCH   2   5
ATOM      5  C   UNL     1      45.630 129.800  21.116  1.00  0.00     0.104 A 
ATOM      6  C   UNL     1      45.878 128.461  20.872  1.00  0.00     0.072 A 
ATOM      7  N   UNL     1      44.926 129.947  22.258  1.00  0.00    -0.355 N 
ATOM      8  C   UNL     1      45.293 127.781  21.917  1.00  0.00     0.141 A 
ATOM      9  C   UNL     1      44.717 128.713  22.752  1.00  0.00     0.122 A 
ATOM     10  H   UNL     1      44.602 130.843  22.687  1.00  0.00     0.166 HD
ATOM     11  F   UNL     1      45.286 126.438  22.093  1.00  0.00    -0.205 F 
ENDBRANCH   2   5
ENDBRANCH   1   2
BRANCH   1  12
ATOM     12  C   UNL     1      44.418 131.402  18.546  1.00  0.00     0.099 A 
ATOM     13  C   UNL     1      44.174 131.545  17.157  1.00  0.00     0.016 A 
ATOM     14  C   UNL     1      43.408 131.808  19.431  1.00  0.00     0.072 A 
ATOM     15  C   UNL     1      42.921 132.033  16.706  1.00  0.00     0.012 A 
ATOM     16  N   UNL     1      43.446 131.829  20.775  1.00  0.00    -0.359 N 
ATOM     17  C   UNL     1      42.207 132.286  18.978  1.00  0.00     0.002 A 
ATOM     18  C   UNL     1      41.924 132.408  17.622  1.00  0.00     0.011 A 
ATOM     19  C   UNL     1      42.250 132.314  21.175  1.00  0.00     0.083 A 
ATOM     20  C   UNL     1      41.446 132.610  20.080  1.00  0.00     0.028 A 
ATOM     21  H   UNL     1      44.237 131.544  21.395  1.00  0.00     0.166 HD
BRANCH  13  22
ATOM     22  C   UNL     1      45.203 131.152  16.169  1.00  0.00     0.051 A 
ATOM     23  C   UNL     1      45.438 129.801  15.826  1.00  0.00    -0.028 A 
ATOM     24  C   UNL     1      45.969 132.152  15.547  1.00  0.00     0.318 A 
ATOM     25  C   UNL     1      46.451 129.499  14.905  1.00  0.00     0.118 A 
ATOM     26  N   UNL     1      46.932 131.823  14.645  1.00  0.00    -0.186 N 
ATOM     27  C   UNL     1      47.188 130.529  14.319  1.00  0.00     0.358 A 
ATOM     28  C   UNL     1      44.642 128.679  16.439  1.00  0.00     0.045 C 
ATOM     29  H   UNL     1      47.490 132.584  14.197  1.00  0.00     0.456 HD
ATOM     30  F   UNL     1      48.161 130.236  13.421  1.00  0.00    -0.136 F 
ENDBRANCH  13  22
ENDBRANCH   1  12
TORSDOF 5
ENDMDL
MODEL 6
REMARK VINA RESULT:      -3.8      1.524      1.684
REMARK SMILES Cc1cc(F)[nH+]cc1-c1ccc2cc[nH]c2c1/N=C(\O)c1cc(F)c[nH]1
REMARK SMILES IDX 18 1 19 2 20 3 21 5 22 6 26 7 23 8 25 9 24 11 17 12 9 13
REMARK SMILES IDX 16 14 10 15 15 16 12 17 11 18 14 19 13 20 8 22 2 23 7 24
REMARK SMILES IDX 3 25 6 26 4 27 1 28 5 30
REMARK H PARENT 20 4 26 10 15 21 6 29
ROOT
ATOM      1  N   UNL     1      45.415 131.150  19.540  1.00  0.00    -0.210 NA
ENDROOT
BRANCH   1   2
ATOM      2  C   UNL     1      45.584 130.205  20.418  1.00  0.00     0.235 C 
BRANCH   2   3
ATOM      3  O   UNL     1      46.340 129.064  20.136  1.00  0.00    -0.492 OA
ATOM      4  H   UNL     1      47.327 128.991  20.342  1.00  0.00     0.295 HD
ENDBRANCH   2   3
BRANCH   2   5
ATOM      5  C   UNL     1      44.989 130.352  21.755  1.00  0.00     0.104 A 
ATOM      6  C   UNL     1      44.290 129.368  22.431  1.00  0.00     0.072 A 
ATOM      7  N   UNL     1      45.060 131.476  22.499  1.00  0.00    -0.355 N 
ATOM      8  C   UNL     1      43.926 129.935  23.633  1.00  0.00     0.141 A 
ATOM      9  C   UNL     1      44.409 131.225  23.650  1.00  0.00     0.122 A 
ATOM     10  H   UNL     1      45.528 132.373  22.240  1.00  0.00     0.166 HD
ATOM     11  F   UNL     1      43.222 129.332  24.621  1.00  0.00    -0.205 F 
ENDBRANCH   2   5
ENDBRANCH   1   2
BRANCH   1  12
ATOM     12  C   UNL     1      44.163 131.528  18.950  1.00  0.00     0.099 A 
ATOM     13  C   UNL     1      43.975 131.449  17.548  1.00  0.00     0.016 A 
ATOM     14  C   UNL     1      43.125 132.074  19.718  1.00  0.00     0.072 A 
ATOM     15  C   UNL     1      42.746 131.866  16.975  1.00  0.00     0.012 A 
ATOM     16  N   UNL     1      43.111 132.309  21.043  1.00  0.00    -0.359 N 
ATOM     17  C   UNL     1      41.947 132.481  19.147  1.00  0.00     0.002 A 
ATOM     18  C   UNL     1      41.718 132.387  17.779  1.00  0.00     0.011 A 
ATOM     19  C   UNL     1      41.906 132.858  21.312  1.00  0.00     0.083 A 
ATOM     20  C   UNL     1      41.149 132.981  20.152  1.00  0.00     0.028 A 
ATOM     21  H   UNL     1      43.874 132.122  21.731  1.00  0.00     0.166 HD
BRANCH  13  22
ATOM     22  C   UNL     1      45.037 130.898  16.676  1.00  0.00     0.051 A 
ATOM     23  C   UNL     1      44.986 131.013  15.268  1.00  0.00    -0.028 A 
ATOM     24  C   UNL     1      46.132 130.245  17.264  1.00  0.00     0.318 A 
ATOM     25  C   UNL     1      46.010 130.439  14.501  1.00  0.00     0.118 A 
ATOM     26  N   UNL     1      47.117 129.717  16.490  1.00  0.00    -0.186 N 
ATOM     27  C   UNL     1      47.075 129.796  15.134  1.00  0.00     0.358 A 
ATOM     28  C   UNL     1      43.851 131.716  14.571  1.00  0.00     0.045 C 
ATOM     29  H   UNL     1      47.921 129.233  16.950  1.00  0.00     0.456 HD
ATOM     30  F   UNL     1      48.071 129.251  14.393  1.00  0.00    -0.136 F 
ENDBRANCH  13  22
ENDBRANCH   1  12
TORSDOF 5
ENDMDL
MODEL 7
REMARK VINA RESULT:      -3.7      2.598      3.214
REMARK SMILES Cc1cc(F)[nH+]cc1-c1ccc2cc[nH]c2c1/N=C(\O)c1cc(F)c[nH]1
REMARK SMILES IDX 18 1 19 2 20 3 21 5 22 6 26 7 23 8 25 9 24 11 17 12 9 13
REMARK SMILES IDX 16 14 10 15 15 16 12 17 11 18 14 19 13 20 8 22 2 23 7 24
REMARK SMILES IDX 3 25 6 26 4 27 1 28 5 30
REMARK H PARENT 20 4 26 10 15 21 6 29
ROOT
ATOM      1  N   UNL     1      45.657 131.136  19.371  1.00  0.00    -0.210 NA
ENDROOT
BRANCH   1   2
ATOM      2  C   UNL     1      46.006 131.239  20.621  1.00  0.00     0.235 C 
BRANCH   2   3
ATOM      3  O   UNL     1      45.673 130.260  21.561  1.00  0.00    -0.492 OA
ATOM      4  H   UNL     1      44.791 130.247  22.056  1.00  0.00     0.295 HD
ENDBRANCH   2   3
BRANCH   2   5
ATOM      5  C   UNL     1      46.797 132.401  21.052  1.00  0.00     0.104 A 
ATOM      6  C   UNL     1      46.339 133.705  21.106  1.00  0.00     0.072 A 
ATOM      7  N   UNL     1      48.082 132.336  21.461  1.00  0.00    -0.355 N 
ATOM      8  C   UNL     1      47.403 134.451  21.566  1.00  0.00     0.141 A 
ATOM      9  C   UNL     1      48.457 133.589  21.776  1.00  0.00     0.122 A 
ATOM     10  H   UNL     1      48.680 131.481  21.524  1.00  0.00     0.166 HD
ATOM     11  F   UNL     1      47.409 135.789  21.776  1.00  0.00    -0.205 F 
ENDBRANCH   2   5
ENDBRANCH   1   2
BRANCH   1  12
ATOM     12  C   UNL     1      44.369 131.466  18.834  1.00  0.00     0.099 A 
ATOM     13  C   UNL     1      44.126 131.381  17.440  1.00  0.00     0.016 A 
ATOM     14  C   UNL     1      43.343 131.973  19.645  1.00  0.00     0.072 A 
ATOM     15  C   UNL     1      42.860 131.751  16.919  1.00  0.00     0.012 A 
ATOM     16  N   UNL     1      43.376 132.207  20.969  1.00  0.00    -0.359 N 
ATOM     17  C   UNL     1      42.129 132.336  19.124  1.00  0.00     0.002 A 
ATOM     18  C   UNL     1      41.848 132.234  17.766  1.00  0.00     0.011 A 
ATOM     19  C   UNL     1      42.163 132.711  21.289  1.00  0.00     0.083 A 
ATOM     20  C   UNL     1      41.355 132.805  20.162  1.00  0.00     0.028 A 
ATOM     21  H   UNL     1      44.173 132.049  21.625  1.00  0.00     0.166 HD
BRANCH  13  22
ATOM     22  C   UNL     1      45.171 130.870  16.525  1.00  0.00     0.051 A 
ATOM     23  C   UNL     1      45.102 131.062  15.126  1.00  0.00    -0.028 A 
ATOM     24  C   UNL     1      46.269 130.177  17.060  1.00  0.00     0.318 A 
ATOM     25  C   UNL     1      46.111 130.523  14.314  1.00  0.00     0.118 A 
ATOM     26  N   UNL     1      47.238 129.684  16.245  1.00  0.00    -0.186 N 
ATOM     27  C   UNL     1      47.178 129.838  14.896  1.00  0.00     0.358 A 
ATOM     28  C   UNL     1      43.964 131.811  14.484  1.00  0.00     0.045 C 
ATOM     29  H   UNL     1      48.044 129.169  16.666  1.00  0.00     0.456 HD
ATOM     30  F   UNL     1      48.159 129.326  14.111  1.00  0.00    -0.136 F 
ENDBRANCH  13  22
ENDBRANCH   1  12
TORSDOF 5
ENDMDL


