REMARK SMILES Nc1cc(F)c[nH]/c1=N\c1ccc2nc(Nc3cc4cccc(F)c4[nH]3)cn2c1
REMARK SMILES IDX 10 1 11 2 12 3 13 4 14 5 15 6 27 7 28 8 29 9 9 10 8 11 3 12
REMARK SMILES IDX 4 13 2 14 6 15 7 16 5 17 1 19 16 22 17 24 18 25 26 26 19 27
REMARK SMILES IDX 25 28 20 29 23 30 21 31 22 32 24 34
REMARK H PARENT 7 18 1 20 1 21 16 23 26 33
ROOT
ATOM      1  C   UNL     1      -2.121  -0.894  -1.515  1.00  0.00     0.082 A 
ATOM      2  C   UNL     1      -1.511  -1.690  -2.506  1.00  0.00     0.034 A 
ATOM      3  C   UNL     1      -0.219  -2.207  -2.313  1.00  0.00     0.050 A 
ATOM      4  C   UNL     1       0.418  -1.922  -1.108  1.00  0.00     0.139 A 
ATOM      5  N   UNL     1       1.643  -2.352  -0.742  1.00  0.00    -0.211 NA
ATOM      6  C   UNL     1       1.790  -1.825   0.498  1.00  0.00     0.150 A 
ATOM      7  C   UNL     1       0.656  -1.117   0.871  1.00  0.00     0.140 A 
ATOM      8  N   UNL     1      -0.191  -1.185  -0.164  1.00  0.00    -0.303 N 
ATOM      9  C   UNL     1      -1.438  -0.670  -0.302  1.00  0.00     0.121 A 
ENDROOT
BRANCH   1  10
ATOM     10  N   UNL     1      -3.466  -0.434  -1.710  1.00  0.00    -0.228 NA
BRANCH  10  11
ATOM     11  C   UNL     1      -3.932   0.769  -1.508  1.00  0.00     0.154 A 
ATOM     12  C   UNL     1      -5.815   2.292  -1.434  1.00  0.00     0.070 A 
ATOM     13  C   UNL     1      -4.949   3.330  -1.100  1.00  0.00     0.141 A 
ATOM     14  C   UNL     1      -5.317   1.002  -1.649  1.00  0.00     0.078 A 
ATOM     15  C   UNL     1      -3.584   3.074  -0.993  1.00  0.00     0.123 A 
ATOM     16  N   UNL     1      -3.102   1.818  -1.203  1.00  0.00    -0.342 N 
ATOM     17  F   UNL     1      -5.428   4.582  -0.895  1.00  0.00    -0.205 F 
ATOM     18  H   UNL     1      -2.067   1.698  -1.158  1.00  0.00     0.168 HD
BRANCH  14  19
ATOM     19  N   UNL     1      -6.221  -0.057  -1.992  1.00  0.00    -0.396 N 
ATOM     20  H   UNL     1      -7.245   0.130  -2.088  1.00  0.00     0.156 HD
ATOM     21  H   UNL     1      -5.887  -1.032  -2.154  1.00  0.00     0.156 HD
ENDBRANCH  14  19
ENDBRANCH  10  11
ENDBRANCH   1  10
BRANCH   6  22
ATOM     22  N   UNL     1       2.937  -2.081   1.319  1.00  0.00    -0.325 N 
ATOM     23  H   UNL     1       3.520  -2.918   1.095  1.00  0.00     0.170 HD
BRANCH  22  24
ATOM     24  C   UNL     1       3.336  -1.263   2.428  1.00  0.00     0.110 A 
ATOM     25  C   UNL     1       3.041   0.091   2.591  1.00  0.00     0.055 A 
ATOM     26  N   UNL     1       4.144  -1.714   3.415  1.00  0.00    -0.339 N 
ATOM     27  C   UNL     1       3.694   0.451   3.750  1.00  0.00     0.005 A 
ATOM     28  C   UNL     1       4.348  -0.659   4.221  1.00  0.00     0.083 A 
ATOM     29  C   UNL     1       3.768   1.681   4.402  1.00  0.00     0.010 A 
ATOM     30  C   UNL     1       5.120  -0.614   5.382  1.00  0.00     0.147 A 
ATOM     31  C   UNL     1       4.537   1.755   5.578  1.00  0.00     0.004 A 
ATOM     32  C   UNL     1       5.209   0.613   6.067  1.00  0.00     0.041 A 
ATOM     33  H   UNL     1       4.532  -2.677   3.521  1.00  0.00     0.168 HD
ATOM     34  F   UNL     1       5.766  -1.715   5.839  1.00  0.00    -0.205 F 
ENDBRANCH  22  24
ENDBRANCH   6  22
TORSDOF 5


