MODEL 1
REMARK VINA RESULT:      -9.3      0.000      0.000
REMARK SMILES CC1=N[C@@]2(F)C[C@@H]([C@H]3O[C@@H]3C(=O)c3ccc(F)cc3)CC[C@H]2C1
REMARK SMILES IDX 8 1 9 2 10 3 7 4 2 5 23 6 3 7 22 8 4 9 21 10 6 11 20 12 1 13
REMARK SMILES IDX 5 14 11 15 12 16 13 17 14 18 19 19 15 20 18 21 16 22 17 23
REMARK H PARENT
ROOT
ATOM      1  C   UNL     1      44.028 131.081  17.175  1.00  0.00     0.159 C 
ATOM      2  O   UNL     1      43.113 131.926  16.519  1.00  0.00    -0.361 OA
ATOM      3  C   UNL     1      44.451 131.982  16.074  1.00  0.00     0.219 C 
ENDROOT
BRANCH   1   4
ATOM      4  C   UNL     1      44.299 131.556  18.612  1.00  0.00     0.026 C 
ATOM      5  C   UNL     1      44.555 129.747  22.795  1.00  0.00     0.014 C 
ATOM      6  C   UNL     1      43.709 130.967  22.879  1.00  0.00     0.059 C 
ATOM      7  N   UNL     1      45.283 129.690  21.749  1.00  0.00    -0.255 NA
ATOM      8  C   UNL     1      43.970 131.657  21.530  1.00  0.00     0.055 C 
ATOM      9  C   UNL     1      45.124 130.834  20.895  1.00  0.00     0.203 C 
ATOM     10  C   UNL     1      42.703 131.680  20.651  1.00  0.00     0.010 C 
ATOM     11  C   UNL     1      44.844 130.385  19.449  1.00  0.00     0.072 C 
ATOM     12  C   UNL     1      43.013 132.176  19.230  1.00  0.00     0.007 C 
ATOM     13  C   UNL     1      44.580 128.676  23.838  1.00  0.00     0.061 C 
ATOM     14  F   UNL     1      46.293 131.580  20.924  1.00  0.00    -0.218 F 
ENDBRANCH   1   4
BRANCH   3  15
ATOM     15  C   UNL     1      44.608 131.331  14.732  1.00  0.00     0.194 C 
ATOM     16  O   UNL     1      43.619 131.311  13.949  1.00  0.00    -0.291 OA
BRANCH  15  17
ATOM     17  C   UNL     1      45.900 130.736  14.306  1.00  0.00     0.021 A 
ATOM     18  C   UNL     1      46.682 131.371  13.323  1.00  0.00     0.015 A 
ATOM     19  C   UNL     1      46.369 129.535  14.874  1.00  0.00     0.015 A 
ATOM     20  C   UNL     1      47.897 130.813  12.912  1.00  0.00     0.040 A 
ATOM     21  C   UNL     1      47.584 128.981  14.461  1.00  0.00     0.040 A 
ATOM     22  C   UNL     1      48.347 129.619  13.480  1.00  0.00     0.123 A 
ATOM     23  F   UNL     1      49.527 129.081  13.083  1.00  0.00    -0.207 F 
ENDBRANCH  15  17
ENDBRANCH   3  15
TORSDOF 3
ENDMDL
MODEL 2
REMARK VINA RESULT:      -9.2      0.074      1.012
REMARK SMILES CC1=N[C@@]2(F)C[C@@H]([C@H]3O[C@@H]3C(=O)c3ccc(F)cc3)CC[C@H]2C1
REMARK SMILES IDX 8 1 9 2 10 3 7 4 2 5 23 6 3 7 22 8 4 9 21 10 6 11 20 12 1 13
REMARK SMILES IDX 5 14 11 15 12 16 13 17 14 18 19 19 15 20 18 21 16 22 17 23
REMARK H PARENT
ROOT
ATOM      1  C   UNL     1      43.981 131.132  17.221  1.00  0.00     0.159 C 
ATOM      2  O   UNL     1      43.194 132.077  16.533  1.00  0.00    -0.361 OA
ATOM      3  C   UNL     1      44.542 131.967  16.128  1.00  0.00     0.219 C 
ENDROOT
BRANCH   1   4
ATOM      4  C   UNL     1      44.265 131.584  18.663  1.00  0.00     0.026 C 
ATOM      5  C   UNL     1      44.534 129.710  22.816  1.00  0.00     0.014 C 
ATOM      6  C   UNL     1      43.699 130.936  22.925  1.00  0.00     0.059 C 
ATOM      7  N   UNL     1      45.255 129.663  21.765  1.00  0.00    -0.255 NA
ATOM      8  C   UNL     1      43.956 131.644  21.584  1.00  0.00     0.055 C 
ATOM      9  C   UNL     1      45.100 130.821  20.929  1.00  0.00     0.203 C 
ATOM     10  C   UNL     1      42.684 131.690  20.714  1.00  0.00     0.010 C 
ATOM     11  C   UNL     1      44.806 130.396  19.478  1.00  0.00     0.072 C 
ATOM     12  C   UNL     1      42.988 132.205  19.299  1.00  0.00     0.007 C 
ATOM     13  C   UNL     1      44.559 128.623  23.843  1.00  0.00     0.061 C 
ATOM     14  F   UNL     1      46.274 131.557  20.962  1.00  0.00    -0.218 F 
ENDBRANCH   1   4
BRANCH   3  15
ATOM     15  C   UNL     1      44.658 131.290  14.795  1.00  0.00     0.194 C 
ATOM     16  O   UNL     1      43.640 131.238  14.051  1.00  0.00    -0.291 OA
BRANCH  15  17
ATOM     17  C   UNL     1      45.942 130.707  14.332  1.00  0.00     0.021 A 
ATOM     18  C   UNL     1      46.413 129.502  14.887  1.00  0.00     0.015 A 
ATOM     19  C   UNL     1      46.709 131.338  13.333  1.00  0.00     0.015 A 
ATOM     20  C   UNL     1      47.625 128.949  14.459  1.00  0.00     0.040 A 
ATOM     21  C   UNL     1      47.919 130.782  12.909  1.00  0.00     0.040 A 
ATOM     22  C   UNL     1      48.377 129.589  13.472  1.00  0.00     0.123 A 
ATOM     23  F   UNL     1      49.550 129.049  13.057  1.00  0.00    -0.207 F 
ENDBRANCH  15  17
ENDBRANCH   3  15
TORSDOF 3
ENDMDL
MODEL 3
REMARK VINA RESULT:      -8.7      3.028      7.840
REMARK SMILES CC1=N[C@@]2(F)C[C@@H]([C@H]3O[C@@H]3C(=O)c3ccc(F)cc3)CC[C@H]2C1
REMARK SMILES IDX 8 1 9 2 10 3 7 4 2 5 23 6 3 7 22 8 4 9 21 10 6 11 20 12 1 13
REMARK SMILES IDX 5 14 11 15 12 16 13 17 14 18 19 19 15 20 18 21 16 22 17 23
REMARK H PARENT
ROOT
ATOM      1  C   UNL     1      45.415 130.991  19.329  1.00  0.00     0.159 C 
ATOM      2  O   UNL     1      44.765 132.140  19.818  1.00  0.00    -0.361 OA
ATOM      3  C   UNL     1      44.266 130.897  20.263  1.00  0.00     0.219 C 
ENDROOT
BRANCH   1   4
ATOM      4  C   UNL     1      45.122 130.776  17.834  1.00  0.00     0.026 C 
ATOM      5  C   UNL     1      47.449 129.852  14.018  1.00  0.00     0.014 C 
ATOM      6  C   UNL     1      46.519 130.974  13.722  1.00  0.00     0.059 C 
ATOM      7  N   UNL     1      47.147 129.188  15.065  1.00  0.00    -0.255 NA
ATOM      8  C   UNL     1      45.579 130.968  14.938  1.00  0.00     0.055 C 
ATOM      9  C   UNL     1      45.962 129.677  15.713  1.00  0.00     0.203 C 
ATOM     10  C   UNL     1      45.744 132.243  15.789  1.00  0.00     0.010 C 
ATOM     11  C   UNL     1      46.231 129.908  17.211  1.00  0.00     0.072 C 
ATOM     12  C   UNL     1      44.964 132.143  17.110  1.00  0.00     0.007 C 
ATOM     13  C   UNL     1      48.630 129.501  13.170  1.00  0.00     0.061 C 
ATOM     14  F   UNL     1      44.954 128.736  15.569  1.00  0.00    -0.218 F 
ENDBRANCH   1   4
BRANCH   3  15
ATOM     15  C   UNL     1      44.621 130.648  21.699  1.00  0.00     0.194 C 
ATOM     16  O   UNL     1      44.943 131.630  22.422  1.00  0.00    -0.291 OA
BRANCH  15  17
ATOM     17  C   UNL     1      44.579 129.284  22.282  1.00  0.00     0.021 A 
ATOM     18  C   UNL     1      43.689 128.990  23.333  1.00  0.00     0.015 A 
ATOM     19  C   UNL     1      45.417 128.260  21.799  1.00  0.00     0.015 A 
ATOM     20  C   UNL     1      43.647 127.708  23.891  1.00  0.00     0.040 A 
ATOM     21  C   UNL     1      45.372 126.981  22.360  1.00  0.00     0.040 A 
ATOM     22  C   UNL     1      44.489 126.705  23.406  1.00  0.00     0.123 A 
ATOM     23  F   UNL     1      44.445 125.462  23.946  1.00  0.00    -0.207 F 
ENDBRANCH  15  17
ENDBRANCH   3  15
TORSDOF 3
ENDMDL
MODEL 4
REMARK VINA RESULT:      -7.0      1.405      1.651
REMARK SMILES CC1=N[C@@]2(F)C[C@@H]([C@H]3O[C@@H]3C(=O)c3ccc(F)cc3)CC[C@H]2C1
REMARK SMILES IDX 8 1 9 2 10 3 7 4 2 5 23 6 3 7 22 8 4 9 21 10 6 11 20 12 1 13
REMARK SMILES IDX 5 14 11 15 12 16 13 17 14 18 19 19 15 20 18 21 16 22 17 23
REMARK H PARENT
ROOT
ATOM      1  C   UNL     1      44.633 131.304  17.688  1.00  0.00     0.159 C 
ATOM      2  O   UNL     1      45.900 131.685  17.206  1.00  0.00    -0.361 OA
ATOM      3  C   UNL     1      45.706 130.307  17.441  1.00  0.00     0.219 C 
ENDROOT
BRANCH   1   4
ATOM      4  C   UNL     1      44.425 131.765  19.140  1.00  0.00     0.026 C 
ATOM      5  C   UNL     1      43.779 129.871  23.242  1.00  0.00     0.014 C 
ATOM      6  C   UNL     1      42.776 130.956  23.081  1.00  0.00     0.059 C 
ATOM      7  N   UNL     1      44.768 129.951  22.440  1.00  0.00    -0.255 NA
ATOM      8  C   UNL     1      43.295 131.720  21.851  1.00  0.00     0.055 C 
ATOM      9  C   UNL     1      44.686 131.090  21.568  1.00  0.00     0.203 C 
ATOM     10  C   UNL     1      42.330 131.594  20.656  1.00  0.00     0.010 C 
ATOM     11  C   UNL     1      44.883 130.654  20.103  1.00  0.00     0.072 C 
ATOM     12  C   UNL     1      42.944 132.176  19.373  1.00  0.00     0.007 C 
ATOM     13  C   UNL     1      43.671 128.779  24.259  1.00  0.00     0.061 C 
ATOM     14  F   UNL     1      45.680 131.991  21.915  1.00  0.00    -0.218 F 
ENDBRANCH   1   4
BRANCH   3  15
ATOM     15  C   UNL     1      45.593 129.544  16.156  1.00  0.00     0.194 C 
ATOM     16  O   UNL     1      44.848 128.526  16.119  1.00  0.00    -0.291 OA
BRANCH  15  17
ATOM     17  C   UNL     1      46.317 129.973  14.934  1.00  0.00     0.021 A 
ATOM     18  C   UNL     1      45.760 130.949  14.086  1.00  0.00     0.015 A 
ATOM     19  C   UNL     1      47.569 129.420  14.599  1.00  0.00     0.015 A 
ATOM     20  C   UNL     1      46.434 131.354  12.929  1.00  0.00     0.040 A 
ATOM     21  C   UNL     1      48.239 129.828  13.442  1.00  0.00     0.040 A 
ATOM     22  C   UNL     1      47.672 130.794  12.607  1.00  0.00     0.123 A 
ATOM     23  F   UNL     1      48.326 131.190  11.487  1.00  0.00    -0.207 F 
ENDBRANCH  15  17
ENDBRANCH   3  15
TORSDOF 3
ENDMDL
MODEL 5
REMARK VINA RESULT:      -6.8      2.491      7.624
REMARK SMILES CC1=N[C@@]2(F)C[C@@H]([C@H]3O[C@@H]3C(=O)c3ccc(F)cc3)CC[C@H]2C1
REMARK SMILES IDX 8 1 9 2 10 3 7 4 2 5 23 6 3 7 22 8 4 9 21 10 6 11 20 12 1 13
REMARK SMILES IDX 5 14 11 15 12 16 13 17 14 18 19 19 15 20 18 21 16 22 17 23
REMARK H PARENT
ROOT
ATOM      1  C   UNL     1      43.674 131.845  18.344  1.00  0.00     0.159 C 
ATOM      2  O   UNL     1      42.417 132.481  18.374  1.00  0.00    -0.361 OA
ATOM      3  C   UNL     1      42.583 131.375  19.235  1.00  0.00     0.219 C 
ENDROOT
BRANCH   1   4
ATOM      4  C   UNL     1      43.882 131.079  17.027  1.00  0.00     0.026 C 
ATOM      5  C   UNL     1      47.342 129.919  14.286  1.00  0.00     0.014 C 
ATOM      6  C   UNL     1      46.253 130.469  13.435  1.00  0.00     0.059 C 
ATOM      7  N   UNL     1      46.961 129.557  15.448  1.00  0.00    -0.255 NA
ATOM      8  C   UNL     1      45.053 130.502  14.395  1.00  0.00     0.055 C 
ATOM      9  C   UNL     1      45.554 129.756  15.662  1.00  0.00     0.203 C 
ATOM     10  C   UNL     1      44.607 131.947  14.695  1.00  0.00     0.010 C 
ATOM     11  C   UNL     1      45.318 130.529  16.973  1.00  0.00     0.072 C 
ATOM     12  C   UNL     1      43.551 131.990  15.811  1.00  0.00     0.007 C 
ATOM     13  C   UNL     1      48.761 129.777  13.836  1.00  0.00     0.061 C 
ATOM     14  F   UNL     1      44.936 128.518  15.743  1.00  0.00    -0.218 F 
ENDBRANCH   1   4
BRANCH   3  15
ATOM     15  C   UNL     1      42.688 131.807  20.667  1.00  0.00     0.194 C 
ATOM     16  O   UNL     1      42.285 132.960  20.983  1.00  0.00    -0.291 OA
BRANCH  15  17
ATOM     17  C   UNL     1      43.232 130.903  21.711  1.00  0.00     0.021 A 
ATOM     18  C   UNL     1      44.393 130.147  21.458  1.00  0.00     0.015 A 
ATOM     19  C   UNL     1      42.609 130.786  22.969  1.00  0.00     0.015 A 
ATOM     20  C   UNL     1      44.908 129.289  22.435  1.00  0.00     0.040 A 
ATOM     21  C   UNL     1      43.128 129.928  23.942  1.00  0.00     0.040 A 
ATOM     22  C   UNL     1      44.276 129.179  23.675  1.00  0.00     0.123 A 
ATOM     23  F   UNL     1      44.779 128.349  24.623  1.00  0.00    -0.207 F 
ENDBRANCH  15  17
ENDBRANCH   3  15
TORSDOF 3
ENDMDL
MODEL 6
REMARK VINA RESULT:      -6.8      2.841      7.880
REMARK SMILES CC1=N[C@@]2(F)C[C@@H]([C@H]3O[C@@H]3C(=O)c3ccc(F)cc3)CC[C@H]2C1
REMARK SMILES IDX 8 1 9 2 10 3 7 4 2 5 23 6 3 7 22 8 4 9 21 10 6 11 20 12 1 13
REMARK SMILES IDX 5 14 11 15 12 16 13 17 14 18 19 19 15 20 18 21 16 22 17 23
REMARK H PARENT
ROOT
ATOM      1  C   UNL     1      44.675 130.842  18.604  1.00  0.00     0.159 C 
ATOM      2  O   UNL     1      45.635 129.960  19.135  1.00  0.00    -0.361 OA
ATOM      3  C   UNL     1      45.860 131.337  19.349  1.00  0.00     0.219 C 
ENDROOT
BRANCH   1   4
ATOM      4  C   UNL     1      44.745 130.886  17.068  1.00  0.00     0.026 C 
ATOM      5  C   UNL     1      47.704 129.784  13.772  1.00  0.00     0.014 C 
ATOM      6  C   UNL     1      47.185 131.146  13.479  1.00  0.00     0.059 C 
ATOM      7  N   UNL     1      46.985 129.117  14.589  1.00  0.00    -0.255 NA
ATOM      8  C   UNL     1      45.983 131.266  14.431  1.00  0.00     0.055 C 
ATOM      9  C   UNL     1      45.825 129.841  15.029  1.00  0.00     0.203 C 
ATOM     10  C   UNL     1      46.220 132.340  15.510  1.00  0.00     0.010 C 
ATOM     11  C   UNL     1      45.735 129.819  16.567  1.00  0.00     0.072 C 
ATOM     12  C   UNL     1      45.119 132.315  16.582  1.00  0.00     0.007 C 
ATOM     13  C   UNL     1      48.946 129.215  13.164  1.00  0.00     0.061 C 
ATOM     14  F   UNL     1      44.695 129.240  14.497  1.00  0.00    -0.218 F 
ENDBRANCH   1   4
BRANCH   3  15
ATOM     15  C   UNL     1      45.611 131.716  20.778  1.00  0.00     0.194 C 
ATOM     16  O   UNL     1      46.139 132.771  21.226  1.00  0.00    -0.291 OA
BRANCH  15  17
ATOM     17  C   UNL     1      44.746 130.892  21.659  1.00  0.00     0.021 A 
ATOM     18  C   UNL     1      45.128 129.581  22.001  1.00  0.00     0.015 A 
ATOM     19  C   UNL     1      43.536 131.400  22.171  1.00  0.00     0.015 A 
ATOM     20  C   UNL     1      44.315 128.797  22.826  1.00  0.00     0.040 A 
ATOM     21  C   UNL     1      42.727 130.613  22.995  1.00  0.00     0.040 A 
ATOM     22  C   UNL     1      43.115 129.312  23.321  1.00  0.00     0.123 A 
ATOM     23  F   UNL     1      42.330 128.551  24.124  1.00  0.00    -0.207 F 
ENDBRANCH  15  17
ENDBRANCH   3  15
TORSDOF 3
ENDMDL
MODEL 7
REMARK VINA RESULT:      -6.7      2.096      3.305
REMARK SMILES CC1=N[C@@]2(F)C[C@@H]([C@H]3O[C@@H]3C(=O)c3ccc(F)cc3)CC[C@H]2C1
REMARK SMILES IDX 8 1 9 2 10 3 7 4 2 5 23 6 3 7 22 8 4 9 21 10 6 11 20 12 1 13
REMARK SMILES IDX 5 14 11 15 12 16 13 17 14 18 19 19 15 20 18 21 16 22 17 23
REMARK H PARENT
ROOT
ATOM      1  C   UNL     1      44.584 131.465  20.641  1.00  0.00     0.159 C 
ATOM      2  O   UNL     1      45.889 131.601  20.130  1.00  0.00    -0.361 OA
ATOM      3  C   UNL     1      45.037 130.706  19.448  1.00  0.00     0.219 C 
ENDROOT
BRANCH   1   4
ATOM      4  C   UNL     1      44.584 130.721  21.987  1.00  0.00     0.026 C 
ATOM      5  C   UNL     1      43.094 126.749  23.670  1.00  0.00     0.014 C 
ATOM      6  C   UNL     1      42.689 127.822  24.615  1.00  0.00     0.059 C 
ATOM      7  N   UNL     1      44.025 127.087  22.865  1.00  0.00    -0.255 NA
ATOM      8  C   UNL     1      43.515 129.028  24.136  1.00  0.00     0.055 C 
ATOM      9  C   UNL     1      44.477 128.435  23.071  1.00  0.00     0.203 C 
ATOM     10  C   UNL     1      42.614 130.142  23.569  1.00  0.00     0.010 C 
ATOM     11  C   UNL     1      44.479 129.206  21.738  1.00  0.00     0.072 C 
ATOM     12  C   UNL     1      43.443 131.251  22.901  1.00  0.00     0.007 C 
ATOM     13  C   UNL     1      42.492 125.380  23.653  1.00  0.00     0.061 C 
ATOM     14  F   UNL     1      45.766 128.401  23.582  1.00  0.00    -0.218 F 
ENDBRANCH   1   4
BRANCH   3  15
ATOM     15  C   UNL     1      44.603 131.264  18.126  1.00  0.00     0.194 C 
ATOM     16  O   UNL     1      43.550 131.957  18.076  1.00  0.00    -0.291 OA
BRANCH  15  17
ATOM     17  C   UNL     1      45.395 131.037  16.892  1.00  0.00     0.021 A 
ATOM     18  C   UNL     1      45.741 132.121  16.063  1.00  0.00     0.015 A 
ATOM     19  C   UNL     1      45.819 129.743  16.527  1.00  0.00     0.015 A 
ATOM     20  C   UNL     1      46.483 131.913  14.894  1.00  0.00     0.040 A 
ATOM     21  C   UNL     1      46.560 129.541  15.360  1.00  0.00     0.040 A 
ATOM     22  C   UNL     1      46.891 130.625  14.543  1.00  0.00     0.123 A 
ATOM     23  F   UNL     1      47.613 130.426  13.412  1.00  0.00    -0.207 F 
ENDBRANCH  15  17
ENDBRANCH   3  15
TORSDOF 3
ENDMDL
MODEL 8
REMARK VINA RESULT:      -6.6      1.508      1.911
REMARK SMILES CC1=N[C@@]2(F)C[C@@H]([C@H]3O[C@@H]3C(=O)c3ccc(F)cc3)CC[C@H]2C1
REMARK SMILES IDX 8 1 9 2 10 3 7 4 2 5 23 6 3 7 22 8 4 9 21 10 6 11 20 12 1 13
REMARK SMILES IDX 5 14 11 15 12 16 13 17 14 18 19 19 15 20 18 21 16 22 17 23
REMARK H PARENT
ROOT
ATOM      1  C   UNL     1      45.359 131.089  17.374  1.00  0.00     0.159 C 
ATOM      2  O   UNL     1      46.575 130.385  17.465  1.00  0.00    -0.361 OA
ATOM      3  C   UNL     1      45.421 129.615  17.209  1.00  0.00     0.219 C 
ENDROOT
BRANCH   1   4
ATOM      4  C   UNL     1      44.916 131.621  18.748  1.00  0.00     0.026 C 
ATOM      5  C   UNL     1      43.775 129.938  22.834  1.00  0.00     0.014 C 
ATOM      6  C   UNL     1      42.751 130.948  22.457  1.00  0.00     0.059 C 
ATOM      7  N   UNL     1      44.865 130.032  22.178  1.00  0.00    -0.255 NA
ATOM      8  C   UNL     1      43.404 131.668  21.266  1.00  0.00     0.055 C 
ATOM      9  C   UNL     1      44.853 131.109  21.227  1.00  0.00     0.203 C 
ATOM     10  C   UNL     1      42.633 131.412  19.956  1.00  0.00     0.010 C 
ATOM     11  C   UNL     1      45.285 130.600  19.839  1.00  0.00     0.072 C 
ATOM     12  C   UNL     1      43.397 131.953  18.738  1.00  0.00     0.007 C 
ATOM     13  C   UNL     1      43.577 128.904  23.896  1.00  0.00     0.061 C 
ATOM     14  F   UNL     1      45.737 132.089  21.651  1.00  0.00    -0.218 F 
ENDBRANCH   1   4
BRANCH   3  15
ATOM     15  C   UNL     1      45.395 129.124  15.792  1.00  0.00     0.194 C 
ATOM     16  O   UNL     1      44.633 128.162  15.498  1.00  0.00    -0.291 OA
BRANCH  15  17
ATOM     17  C   UNL     1      46.226 129.757  14.738  1.00  0.00     0.021 A 
ATOM     18  C   UNL     1      47.511 129.256  14.452  1.00  0.00     0.015 A 
ATOM     19  C   UNL     1      45.751 130.860  14.002  1.00  0.00     0.015 A 
ATOM     20  C   UNL     1      48.302 129.851  13.464  1.00  0.00     0.040 A 
ATOM     21  C   UNL     1      46.545 131.451  13.015  1.00  0.00     0.040 A 
ATOM     22  C   UNL     1      47.820 130.948  12.747  1.00  0.00     0.123 A 
ATOM     23  F   UNL     1      48.586 131.521  11.786  1.00  0.00    -0.207 F 
ENDBRANCH  15  17
ENDBRANCH   3  15
TORSDOF 3
ENDMDL
MODEL 9
REMARK VINA RESULT:      -6.6      2.940      7.896
REMARK SMILES CC1=N[C@@]2(F)C[C@@H]([C@H]3O[C@@H]3C(=O)c3ccc(F)cc3)CC[C@H]2C1
REMARK SMILES IDX 8 1 9 2 10 3 7 4 2 5 23 6 3 7 22 8 4 9 21 10 6 11 20 12 1 13
REMARK SMILES IDX 5 14 11 15 12 16 13 17 14 18 19 19 15 20 18 21 16 22 17 23
REMARK H PARENT
ROOT
ATOM      1  C   UNL     1      44.998 130.564  19.007  1.00  0.00     0.159 C 
ATOM      2  O   UNL     1      46.322 130.305  19.410  1.00  0.00    -0.361 OA
ATOM      3  C   UNL     1      45.845 131.616  19.624  1.00  0.00     0.219 C 
ENDROOT
BRANCH   1   4
ATOM      4  C   UNL     1      44.871 130.575  17.475  1.00  0.00     0.026 C 
ATOM      5  C   UNL     1      47.541 129.863  13.842  1.00  0.00     0.014 C 
ATOM      6  C   UNL     1      46.778 131.117  13.606  1.00  0.00     0.059 C 
ATOM      7  N   UNL     1      47.044 129.114  14.748  1.00  0.00    -0.255 NA
ATOM      8  C   UNL     1      45.699 131.072  14.700  1.00  0.00     0.055 C 
ATOM      9  C   UNL     1      45.845 129.658  15.325  1.00  0.00     0.203 C 
ATOM     10  C   UNL     1      45.892 132.201  15.733  1.00  0.00     0.010 C 
ATOM     11  C   UNL     1      45.950 129.665  16.861  1.00  0.00     0.072 C 
ATOM     12  C   UNL     1      44.948 132.031  16.934  1.00  0.00     0.007 C 
ATOM     13  C   UNL     1      48.773 129.481  13.087  1.00  0.00     0.061 C 
ATOM     14  F   UNL     1      44.769 128.871  14.943  1.00  0.00    -0.218 F 
ENDBRANCH   1   4
BRANCH   3  15
ATOM     15  C   UNL     1      45.594 131.875  21.079  1.00  0.00     0.194 C 
ATOM     16  O   UNL     1      46.254 132.783  21.655  1.00  0.00    -0.291 OA
BRANCH  15  17
ATOM     17  C   UNL     1      44.578 131.105  21.839  1.00  0.00     0.021 A 
ATOM     18  C   UNL     1      43.324 131.679  22.127  1.00  0.00     0.015 A 
ATOM     19  C   UNL     1      44.840 129.794  22.282  1.00  0.00     0.015 A 
ATOM     20  C   UNL     1      42.363 130.961  22.848  1.00  0.00     0.040 A 
ATOM     21  C   UNL     1      43.877 129.081  23.002  1.00  0.00     0.040 A 
ATOM     22  C   UNL     1      42.640 129.665  23.286  1.00  0.00     0.123 A 
ATOM     23  F   UNL     1      41.707 128.970  23.981  1.00  0.00    -0.207 F 
ENDBRANCH  15  17
ENDBRANCH   3  15
TORSDOF 3
ENDMDL


