REMARK SMILES Nc1cc(F)c(Nc2ccc3cc[nH]c3c2)cc1C=O
REMARK SMILES IDX 2 1 3 2 4 3 5 4 6 5 17 6 18 7 1 8 19 11 20 12 7 13 8 15 9 16
REMARK SMILES IDX 16 17 10 18 15 19 11 20 14 21 12 22 13 23
REMARK H PARENT 1 9 1 10 7 14 14 24
ROOT
ATOM      1  C   UNL     1      -1.259   3.222   0.105  1.00  0.00     0.045 A 
ATOM      2  C   UNL     1      -1.645   3.388   1.444  1.00  0.00     0.067 A 
ATOM      3  C   UNL     1      -1.085   2.604   2.453  1.00  0.00     0.148 A 
ATOM      4  F   UNL     1      -1.475   2.797   3.739  1.00  0.00    -0.205 F 
ATOM      5  C   UNL     1      -0.133   1.626   2.142  1.00  0.00     0.076 A 
ATOM      6  C   UNL     1       0.265   1.456   0.806  1.00  0.00     0.042 A 
ATOM      7  C   UNL     1      -0.309   2.221  -0.224  1.00  0.00     0.039 A 
ENDROOT
BRANCH   1   8
ATOM      8  N   UNL     1      -1.795   4.119  -0.877  1.00  0.00    -0.398 N 
ATOM      9  H   UNL     1      -1.319   4.290  -1.788  1.00  0.00     0.156 HD
ATOM     10  H   UNL     1      -2.595   4.746  -0.636  1.00  0.00     0.156 HD
ENDBRANCH   1   8
BRANCH   7  11
ATOM     11  C   UNL     1       0.097   1.909  -1.612  1.00  0.00     0.262 C 
ATOM     12  O   UNL     1      -0.659   2.142  -2.592  1.00  0.00    -0.298 OA
ENDBRANCH   7  11
BRANCH   5  13
ATOM     13  N   UNL     1       0.463   0.850   3.197  1.00  0.00    -0.353 N 
ATOM     14  H   UNL     1       0.610   1.314   4.122  1.00  0.00     0.167 HD
BRANCH  13  15
ATOM     15  C   UNL     1       0.869  -0.523   3.062  1.00  0.00     0.041 A 
ATOM     16  C   UNL     1       1.925  -1.015   3.869  1.00  0.00     0.027 A 
ATOM     17  C   UNL     1       0.194  -1.403   2.182  1.00  0.00     0.052 A 
ATOM     18  C   UNL     1       2.333  -2.358   3.782  1.00  0.00     0.012 A 
ATOM     19  C   UNL     1       0.624  -2.727   2.120  1.00  0.00     0.047 A 
ATOM     20  C   UNL     1       1.658  -3.186   2.890  1.00  0.00    -0.001 A 
ATOM     21  N   UNL     1       0.127  -3.711   1.354  1.00  0.00    -0.361 N 
ATOM     22  C   UNL     1       1.827  -4.522   2.600  1.00  0.00     0.028 A 
ATOM     23  C   UNL     1       0.859  -4.811   1.643  1.00  0.00     0.083 A 
ATOM     24  H   UNL     1      -0.664  -3.646   0.674  1.00  0.00     0.166 HD
ENDBRANCH  13  15
ENDBRANCH   5  13
TORSDOF 4


