MODEL 1
REMARK VINA RESULT:      -9.0      0.000      0.000
REMARK SMILES N#Cc1[nH+]c2cnc(/N=C3/[CH]C=CC3)cc2cc1-c1ccc([O-])cc1
REMARK SMILES IDX 8 1 7 2 6 3 5 4 16 5 15 6 17 7 18 8 3 9 4 10 9 12 10 13
REMARK SMILES IDX 11 14 12 15 13 16 14 17 19 18 20 19 25 20 21 21 24 22 22 23
REMARK SMILES IDX 23 24 2 25 1 26
REMARK H PARENT 4 11
ROOT
ATOM      1  C   UNL     1      43.845 131.506  20.886  1.00  0.00     0.152 A 
ATOM      2  N   UNL     1      42.649 132.003  20.464  1.00  0.00    -0.230 NA
ATOM      3  C   UNL     1      42.346 132.145  19.147  1.00  0.00     0.193 A 
ATOM      4  C   UNL     1      43.278 131.774  18.168  1.00  0.00     0.230 A 
ATOM      5  C   UNL     1      44.522 131.256  18.576  1.00  0.00     0.052 A 
ATOM      6  C   UNL     1      44.804 131.123  19.942  1.00  0.00     0.064 A 
ATOM      7  C   UNL     1      45.455 130.886  17.604  1.00  0.00     0.031 A 
ATOM      8  C   UNL     1      45.155 131.035  16.242  1.00  0.00     0.066 A 
ATOM      9  C   UNL     1      43.889 131.549  15.877  1.00  0.00     0.290 A 
ATOM     10  N   UNL     1      42.992 131.904  16.842  1.00  0.00    -0.194 N 
ATOM     11  H   UNL     1      42.059 132.281  16.553  1.00  0.00     0.455 HD
ENDROOT
BRANCH   1  12
ATOM     12  N   UNL     1      44.150 131.362  22.283  1.00  0.00    -0.237 NA
BRANCH  12  13
ATOM     13  C   UNL     1      44.152 130.271  22.993  1.00  0.00     0.032 C 
ATOM     14  C   UNL     1      44.805 129.024  22.512  1.00  0.00     0.069 C 
ATOM     15  C   UNL     1      44.540 128.090  23.643  1.00  0.00    -0.020 C 
ATOM     16  C   UNL     1      43.849 128.662  24.624  1.00  0.00    -0.025 C 
ATOM     17  C   UNL     1      43.524 130.087  24.336  1.00  0.00     0.079 C 
ENDBRANCH  12  13
ENDBRANCH   1  12
BRANCH   8  18
ATOM     18  C   UNL     1      46.172 130.645  15.233  1.00  0.00    -0.011 A 
ATOM     19  C   UNL     1      46.667 129.330  15.201  1.00  0.00     0.008 A 
ATOM     20  C   UNL     1      46.676 131.591  14.324  1.00  0.00     0.008 A 
ATOM     21  C   UNL     1      47.634 128.964  14.261  1.00  0.00    -0.008 A 
ATOM     22  C   UNL     1      47.644 131.220  13.385  1.00  0.00    -0.008 A 
ATOM     23  C   UNL     1      48.123 129.906  13.352  1.00  0.00    -0.109 A 
ATOM     24  O   UNL     1      49.084 129.540  12.419  1.00  0.00    -0.872 OA
ENDBRANCH   8  18
BRANCH   9  25
ATOM     25  C   UNL     1      43.500 131.664  14.490  1.00  0.00     0.170 C 
ATOM     26  N   UNL     1      43.189 131.757  13.379  1.00  0.00    -0.186 NA
ENDBRANCH   9  25
TORSDOF 4
ENDMDL
MODEL 2
REMARK VINA RESULT:      -8.2      0.689      1.096
REMARK SMILES N#Cc1[nH+]c2cnc(/N=C3/[CH]C=CC3)cc2cc1-c1ccc([O-])cc1
REMARK SMILES IDX 8 1 7 2 6 3 5 4 16 5 15 6 17 7 18 8 3 9 4 10 9 12 10 13
REMARK SMILES IDX 11 14 12 15 13 16 14 17 19 18 20 19 25 20 21 21 24 22 22 23
REMARK SMILES IDX 23 24 2 25 1 26
REMARK H PARENT 4 11
ROOT
ATOM      1  C   UNL     1      43.192 131.983  20.712  1.00  0.00     0.152 A 
ATOM      2  N   UNL     1      42.033 132.454  20.171  1.00  0.00    -0.230 NA
ATOM      3  C   UNL     1      41.825 132.502  18.830  1.00  0.00     0.193 A 
ATOM      4  C   UNL     1      42.821 132.057  17.949  1.00  0.00     0.230 A 
ATOM      5  C   UNL     1      44.027 131.564  18.480  1.00  0.00     0.052 A 
ATOM      6  C   UNL     1      44.211 131.529  19.868  1.00  0.00     0.064 A 
ATOM      7  C   UNL     1      45.023 131.120  17.606  1.00  0.00     0.031 A 
ATOM      8  C   UNL     1      44.822 131.171  16.219  1.00  0.00     0.066 A 
ATOM      9  C   UNL     1      43.589 131.663  15.728  1.00  0.00     0.290 A 
ATOM     10  N   UNL     1      42.630 132.092  16.599  1.00  0.00    -0.194 N 
ATOM     11  H   UNL     1      41.723 132.450  16.219  1.00  0.00     0.455 HD
ENDROOT
BRANCH   1  12
ATOM     12  N   UNL     1      43.396 131.940  22.134  1.00  0.00    -0.237 NA
BRANCH  12  13
ATOM     13  C   UNL     1      43.242 130.924  22.933  1.00  0.00     0.032 C 
ATOM     14  C   UNL     1      42.207 130.917  24.002  1.00  0.00     0.069 C 
ATOM     15  C   UNL     1      42.426 129.581  24.624  1.00  0.00    -0.020 C 
ATOM     16  C   UNL     1      43.414 128.905  24.045  1.00  0.00    -0.025 C 
ATOM     17  C   UNL     1      44.040 129.661  22.925  1.00  0.00     0.079 C 
ENDBRANCH  12  13
ENDBRANCH   1  12
BRANCH   8  18
ATOM     18  C   UNL     1      45.903 130.705  15.316  1.00  0.00    -0.011 A 
ATOM     19  C   UNL     1      46.387 129.389  15.413  1.00  0.00     0.008 A 
ATOM     20  C   UNL     1      46.479 131.580  14.378  1.00  0.00     0.008 A 
ATOM     21  C   UNL     1      47.415 128.951  14.573  1.00  0.00    -0.008 A 
ATOM     22  C   UNL     1      47.508 131.137  13.540  1.00  0.00    -0.008 A 
ATOM     23  C   UNL     1      47.975 129.823  13.636  1.00  0.00    -0.109 A 
ATOM     24  O   UNL     1      48.996 129.386  12.802  1.00  0.00    -0.872 OA
ENDBRANCH   8  18
BRANCH   9  25
ATOM     25  C   UNL     1      43.301 131.680  14.313  1.00  0.00     0.170 C 
ATOM     26  N   UNL     1      43.070 131.692  13.179  1.00  0.00    -0.186 NA
ENDBRANCH   9  25
TORSDOF 4
ENDMDL
MODEL 3
REMARK VINA RESULT:      -7.6      0.592      1.133
REMARK SMILES N#Cc1[nH+]c2cnc(/N=C3/[CH]C=CC3)cc2cc1-c1ccc([O-])cc1
REMARK SMILES IDX 8 1 7 2 6 3 5 4 16 5 15 6 17 7 18 8 3 9 4 10 9 12 10 13
REMARK SMILES IDX 11 14 12 15 13 16 14 17 19 18 20 19 25 20 21 21 24 22 22 23
REMARK SMILES IDX 23 24 2 25 1 26
REMARK H PARENT 4 11
ROOT
ATOM      1  C   UNL     1      44.271 131.091  21.116  1.00  0.00     0.152 A 
ATOM      2  N   UNL     1      43.095 131.684  20.767  1.00  0.00    -0.230 NA
ATOM      3  C   UNL     1      42.766 131.941  19.474  1.00  0.00     0.193 A 
ATOM      4  C   UNL     1      43.650 131.593  18.443  1.00  0.00     0.230 A 
ATOM      5  C   UNL     1      44.871 130.977  18.774  1.00  0.00     0.052 A 
ATOM      6  C   UNL     1      45.181 130.727  20.117  1.00  0.00     0.064 A 
ATOM      7  C   UNL     1      45.756 130.628  17.750  1.00  0.00     0.031 A 
ATOM      8  C   UNL     1      45.430 130.895  16.412  1.00  0.00     0.066 A 
ATOM      9  C   UNL     1      44.187 131.505  16.124  1.00  0.00     0.290 A 
ATOM     10  N   UNL     1      43.338 131.837  17.139  1.00  0.00    -0.194 N 
ATOM     11  H   UNL     1      42.420 132.285  16.907  1.00  0.00     0.455 HD
ENDROOT
BRANCH   1  12
ATOM     12  N   UNL     1      44.603 130.827  22.489  1.00  0.00    -0.237 NA
BRANCH  12  13
ATOM     13  C   UNL     1      44.145 129.879  23.254  1.00  0.00     0.032 C 
ATOM     14  C   UNL     1      45.033 128.824  23.813  1.00  0.00     0.069 C 
ATOM     15  C   UNL     1      44.067 128.001  24.593  1.00  0.00    -0.020 C 
ATOM     16  C   UNL     1      42.823 128.465  24.517  1.00  0.00    -0.025 C 
ATOM     17  C   UNL     1      42.724 129.689  23.674  1.00  0.00     0.079 C 
ENDBRANCH  12  13
ENDBRANCH   1  12
BRANCH   8  18
ATOM     18  C   UNL     1      46.396 130.525  15.347  1.00  0.00    -0.011 A 
ATOM     19  C   UNL     1      46.546 131.344  14.215  1.00  0.00     0.008 A 
ATOM     20  C   UNL     1      47.145 129.339  15.441  1.00  0.00     0.008 A 
ATOM     21  C   UNL     1      47.445 130.991  13.204  1.00  0.00    -0.008 A 
ATOM     22  C   UNL     1      48.043 128.991  14.427  1.00  0.00    -0.008 A 
ATOM     23  C   UNL     1      48.195 129.816  13.309  1.00  0.00    -0.109 A 
ATOM     24  O   UNL     1      49.087 129.468  12.304  1.00  0.00    -0.872 OA
ENDBRANCH   8  18
BRANCH   9  25
ATOM     25  C   UNL     1      43.770 131.744  14.761  1.00  0.00     0.170 C 
ATOM     26  N   UNL     1      43.435 131.936  13.670  1.00  0.00    -0.186 NA
ENDBRANCH   9  25
TORSDOF 4
ENDMDL


