REMARK SMILES C=Cc1cccc([C@H]2C=C[C@@H]3C(=C2)C(=O)NC[C@@H]3/N=c2\[n-]cc(F)cc2N)c1
REMARK SMILES IDX 8 1 9 2 10 3 11 4 12 5 13 6 14 7 15 8 16 9 17 11 18 12 7 13
REMARK SMILES IDX 3 14 4 15 28 16 5 17 6 18 2 19 1 20 19 21 20 22 21 23 26 24
REMARK SMILES IDX 22 25 25 26 23 27 24 28 27 29
REMARK H PARENT 16 10 27 30 27 31
ROOT
ATOM      1  C   UNL     1      -1.625   2.152  -0.110  1.00  0.00     0.065 C 
ATOM      2  C   UNL     1      -2.223   0.854  -0.604  1.00  0.00    -0.018 C 
ATOM      3  C   UNL     1      -2.205  -0.260   0.137  1.00  0.00    -0.022 C 
ATOM      4  C   UNL     1      -1.610  -0.282   1.528  1.00  0.00     0.051 C 
ATOM      5  C   UNL     1      -0.593   0.826   1.744  1.00  0.00     0.021 C 
ATOM      6  C   UNL     1      -0.622   1.945   1.001  1.00  0.00    -0.005 C 
ATOM      7  C   UNL     1       0.405   0.655   2.826  1.00  0.00     0.247 C 
ATOM      8  O   UNL     1       1.181   1.596   3.145  1.00  0.00    -0.270 OA
ATOM      9  N   UNL     1       0.516  -0.606   3.496  1.00  0.00    -0.352 N 
ATOM     10  H   UNL     1       1.238  -0.725   4.241  1.00  0.00     0.163 HD
ATOM     11  C   UNL     1      -0.444  -1.687   3.270  1.00  0.00     0.119 C 
ATOM     12  C   UNL     1      -0.983  -1.661   1.827  1.00  0.00     0.021 C 
ENDROOT
BRANCH   1  13
ATOM     13  C   UNL     1      -0.969   2.880  -1.262  1.00  0.00    -0.037 A 
ATOM     14  C   UNL     1       0.730   2.964  -3.022  1.00  0.00    -0.026 A 
ATOM     15  C   UNL     1       0.254   4.236  -3.397  1.00  0.00     0.008 A 
ATOM     16  C   UNL     1       0.117   2.301  -1.947  1.00  0.00     0.012 A 
ATOM     17  C   UNL     1      -0.823   4.815  -2.720  1.00  0.00     0.001 A 
ATOM     18  C   UNL     1      -1.435   4.142  -1.661  1.00  0.00     0.005 A 
BRANCH  14  19
ATOM     19  C   UNL     1       1.875   2.306  -3.699  1.00  0.00     0.000 C 
ATOM     20  C   UNL     1       2.342   2.656  -4.898  1.00  0.00     0.009 C 
ENDBRANCH  14  19
ENDBRANCH   1  13
BRANCH  12  21
ATOM     21  N   UNL     1       0.097  -1.930   0.870  1.00  0.00    -0.458 NA
BRANCH  21  22
ATOM     22  C   UNL     1       0.617  -3.096   0.621  1.00  0.00    -0.038 A 
ATOM     23  N   UNL     1       0.158  -4.210   1.260  1.00  0.00    -0.439 NA
ATOM     24  C   UNL     1       1.658  -3.215  -0.321  1.00  0.00     0.033 A 
ATOM     25  C   UNL     1       0.676  -5.444   1.024  1.00  0.00     0.018 A 
ATOM     26  C   UNL     1       2.200  -4.482  -0.573  1.00  0.00     0.064 A 
ATOM     27  C   UNL     1       1.709  -5.601   0.101  1.00  0.00     0.121 A 
ATOM     28  F   UNL     1       2.231  -6.829  -0.141  1.00  0.00    -0.207 F 
BRANCH  24  29
ATOM     29  N   UNL     1       2.166  -2.071  -1.021  1.00  0.00    -0.399 N 
ATOM     30  H   UNL     1       2.938  -2.173  -1.717  1.00  0.00     0.156 HD
ATOM     31  H   UNL     1       1.780  -1.114  -0.857  1.00  0.00     0.156 HD
ENDBRANCH  24  29
ENDBRANCH  21  22
ENDBRANCH  12  21
TORSDOF 5


