REMARK SMILES NNc1cc(C(=O)[C@H]2O[C@@H]2c2ccc(Cl)c(F)c2)ccc1F
REMARK SMILES IDX 3 1 4 2 5 3 19 4 20 5 21 6 22 7 2 8 1 10 6 13 7 14 8 15 9 16
REMARK SMILES IDX 10 17 11 18 12 19 18 20 13 21 16 22 14 23 17 24 15 25
REMARK H PARENT 2 9 1 11 1 12
ROOT
ATOM      1  C   UNL     1       1.633  -3.571   1.863  1.00  0.00     0.085 A 
ATOM      2  C   UNL     1       0.642  -2.771   1.263  1.00  0.00     0.042 A 
ATOM      3  C   UNL     1      -0.692  -2.814   1.712  1.00  0.00     0.023 A 
ATOM      4  C   UNL     1      -1.025  -3.682   2.767  1.00  0.00     0.015 A 
ATOM      5  C   UNL     1      -0.047  -4.479   3.364  1.00  0.00     0.042 A 
ATOM      6  C   UNL     1       1.275  -4.426   2.918  1.00  0.00     0.147 A 
ATOM      7  F   UNL     1       2.207  -5.210   3.517  1.00  0.00    -0.205 F 
ENDROOT
BRANCH   1   8
ATOM      8  N   UNL     1       2.998  -3.519   1.412  1.00  0.00    -0.321 N 
ATOM      9  H   UNL     1       3.725  -4.084   1.909  1.00  0.00     0.181 HD
BRANCH   8  10
ATOM     10  N   UNL     1       3.393  -2.685   0.352  1.00  0.00    -0.250 NA
ATOM     11  H   UNL     1       4.436  -2.727   0.285  1.00  0.00     0.143 HD
ATOM     12  H   UNL     1       3.022  -3.109  -0.528  1.00  0.00     0.143 HD
ENDBRANCH   8  10
ENDBRANCH   1   8
BRANCH   3  13
ATOM     13  C   UNL     1      -1.738  -1.964   1.087  1.00  0.00     0.194 C 
ATOM     14  O   UNL     1      -2.954  -2.177   1.342  1.00  0.00    -0.291 OA
BRANCH  13  15
ATOM     15  C   UNL     1      -1.383  -0.864   0.131  1.00  0.00     0.224 C 
ATOM     16  O   UNL     1      -2.255   0.236   0.261  1.00  0.00    -0.356 OA
ATOM     17  C   UNL     1      -0.946   0.408   0.758  1.00  0.00     0.186 C 
BRANCH  17  18
ATOM     18  C   UNL     1      -0.132   1.318  -0.115  1.00  0.00    -0.013 A 
ATOM     19  C   UNL     1      -0.675   2.519  -0.599  1.00  0.00     0.008 A 
ATOM     20  C   UNL     1       1.205   1.002  -0.399  1.00  0.00     0.047 A 
ATOM     21  C   UNL     1       0.102   3.376  -1.386  1.00  0.00     0.024 A 
ATOM     22  C   UNL     1       1.981   1.859  -1.186  1.00  0.00     0.142 A 
ATOM     23  C   UNL     1       1.429   3.046  -1.683  1.00  0.00     0.076 A 
ATOM     24  F   UNL     1       3.272   1.539  -1.452  1.00  0.00    -0.205 F 
ATOM     25  Cl  UNL     1       2.396   4.132  -2.667  1.00  0.00    -0.081 Cl
ENDBRANCH  17  18
ENDBRANCH  13  15
ENDBRANCH   3  13
TORSDOF 5


