REMARK SMILES Nc1cc(F)c(-c2cnc3c(c2)C(=O)NC3)cc1C=O
REMARK SMILES IDX 2 1 3 2 4 3 5 4 6 5 17 6 18 7 1 8 19 11 20 12 7 13 8 14
REMARK SMILES IDX 12 15 9 16 11 17 10 18 13 19 16 20 15 21 14 22
REMARK H PARENT 1 9 1 10 15 23
ROOT
ATOM      1  C   UNL     1       2.740  -1.841   0.823  1.00  0.00     0.045 A 
ATOM      2  C   UNL     1       2.782  -1.031  -0.321  1.00  0.00     0.066 A 
ATOM      3  C   UNL     1       1.663  -0.303  -0.727  1.00  0.00     0.133 A 
ATOM      4  F   UNL     1       1.735   0.427  -1.869  1.00  0.00    -0.206 F 
ATOM      5  C   UNL     1       0.469  -0.371   0.010  1.00  0.00     0.020 A 
ATOM      6  C   UNL     1       0.425  -1.170   1.165  1.00  0.00     0.025 A 
ATOM      7  C   UNL     1       1.552  -1.888   1.597  1.00  0.00     0.038 A 
ENDROOT
BRANCH   1   8
ATOM      8  N   UNL     1       3.887  -2.642   1.137  1.00  0.00    -0.398 N 
ATOM      9  H   UNL     1       4.793  -2.482   0.641  1.00  0.00     0.156 HD
ATOM     10  H   UNL     1       3.821  -3.494   1.733  1.00  0.00     0.156 HD
ENDBRANCH   1   8
BRANCH   7  11
ATOM     11  C   UNL     1       1.442  -2.628   2.873  1.00  0.00     0.262 C 
ATOM     12  O   UNL     1       2.450  -2.871   3.587  1.00  0.00    -0.298 OA
ENDBRANCH   7  11
BRANCH   5  13
ATOM     13  C   UNL     1      -0.733   0.390  -0.409  1.00  0.00     0.004 A 
ATOM     14  C   UNL     1      -2.007  -0.234  -0.432  1.00  0.00     0.120 A 
ATOM     15  C   UNL     1      -0.633   1.749  -0.775  1.00  0.00     0.026 A 
ATOM     16  N   UNL     1      -3.119   0.464  -0.809  1.00  0.00    -0.258 NA
ATOM     17  C   UNL     1      -1.797   2.409  -1.151  1.00  0.00     0.063 A 
ATOM     18  C   UNL     1      -3.009   1.768  -1.164  1.00  0.00     0.072 A 
ATOM     19  C   UNL     1      -2.035   3.768  -1.565  1.00  0.00     0.253 C 
ATOM     20  C   UNL     1      -4.115   2.684  -1.595  1.00  0.00     0.173 C 
ATOM     21  N   UNL     1      -3.420   3.952  -1.836  1.00  0.00    -0.346 N 
ATOM     22  O   UNL     1      -1.166   4.672  -1.676  1.00  0.00    -0.269 OA
ATOM     23  H   UNL     1      -3.865   4.841  -2.152  1.00  0.00     0.164 HD
ENDBRANCH   5  13
TORSDOF 3


