MODEL 1
REMARK VINA RESULT:      -6.3      0.000      0.000
REMARK SMILES N[NH2+][C@H]1CCC[C@H]2OC=C[C@@]12c1[nH]c2ccccc2[nH+]1
REMARK SMILES IDX 3 1 4 2 5 3 6 4 7 5 8 6 9 7 10 8 11 9 2 10 1 13 12 16 13 17
REMARK SMILES IDX 20 18 14 19 19 20 15 21 18 22 16 23 17 24
REMARK H PARENT 2 11 2 12 1 14 1 15 13 25 20 26
ROOT
ATOM      1  C   UNL     1      46.218 129.953  15.916  1.00  0.00     0.227 C 
ATOM      2  C   UNL     1      46.776 129.884  14.473  1.00  0.00     0.069 C 
ATOM      3  C   UNL     1      47.209 131.255  13.909  1.00  0.00     0.010 C 
ATOM      4  C   UNL     1      46.825 132.446  14.797  1.00  0.00     0.047 C 
ATOM      5  C   UNL     1      45.381 132.346  15.306  1.00  0.00     0.201 C 
ATOM      6  O   UNL     1      44.468 132.416  14.219  1.00  0.00    -0.496 OA
ATOM      7  C   UNL     1      43.583 131.359  14.245  1.00  0.00     0.184 C 
ATOM      8  C   UNL     1      43.844 130.533  15.236  1.00  0.00     0.041 C 
ATOM      9  C   UNL     1      45.047 130.991  16.019  1.00  0.00     0.182 C 
ENDROOT
BRANCH   1  10
ATOM     10  N   UNL     1      45.803 128.610  16.381  1.00  0.00    -0.268 N 
ATOM     11  H   UNL     1      46.633 128.036  16.660  1.00  0.00     0.370 HD
ATOM     12  H   UNL     1      45.154 128.691  17.199  1.00  0.00     0.370 HD
BRANCH  10  13
ATOM     13  N   UNL     1      45.125 127.938  15.341  1.00  0.00    -0.183 NA
ATOM     14  H   UNL     1      45.697 128.031  14.470  1.00  0.00     0.183 HD
ATOM     15  H   UNL     1      44.224 128.439  15.154  1.00  0.00     0.183 HD
ENDBRANCH  10  13
ENDBRANCH   1  10
BRANCH   9  16
ATOM     16  C   UNL     1      44.700 131.243  17.477  1.00  0.00     0.273 A 
ATOM     17  N   UNL     1      45.528 130.903  18.500  1.00  0.00    -0.240 N 
ATOM     18  N   UNL     1      43.516 131.750  17.917  1.00  0.00    -0.240 N 
ATOM     19  C   UNL     1      44.839 131.222  19.606  1.00  0.00     0.171 A 
ATOM     20  C   UNL     1      43.626 131.734  19.255  1.00  0.00     0.171 A 
ATOM     21  C   UNL     1      45.221 131.073  20.938  1.00  0.00     0.056 A 
ATOM     22  C   UNL     1      42.691 132.138  20.204  1.00  0.00     0.056 A 
ATOM     23  C   UNL     1      44.303 131.476  21.927  1.00  0.00     0.005 A 
ATOM     24  C   UNL     1      43.043 132.006  21.561  1.00  0.00     0.005 A 
ATOM     25  H   UNL     1      46.480 130.475  18.443  1.00  0.00     0.312 HD
ATOM     26  H   UNL     1      42.694 132.068  17.357  1.00  0.00     0.312 HD
ENDBRANCH   9  16
TORSDOF 3
ENDMDL
MODEL 2
REMARK VINA RESULT:      -5.9      0.091      1.309
REMARK SMILES N[NH2+][C@H]1CCC[C@H]2OC=C[C@@]12c1[nH]c2ccccc2[nH+]1
REMARK SMILES IDX 3 1 4 2 5 3 6 4 7 5 8 6 9 7 10 8 11 9 2 10 1 13 12 16 13 17
REMARK SMILES IDX 20 18 14 19 19 20 15 21 18 22 16 23 17 24
REMARK H PARENT 2 11 2 12 1 14 1 15 13 25 20 26
ROOT
ATOM      1  C   UNL     1      46.247 129.908  15.852  1.00  0.00     0.227 C 
ATOM      2  C   UNL     1      46.808 129.912  14.408  1.00  0.00     0.069 C 
ATOM      3  C   UNL     1      47.220 131.313  13.905  1.00  0.00     0.010 C 
ATOM      4  C   UNL     1      46.816 132.457  14.845  1.00  0.00     0.047 C 
ATOM      5  C   UNL     1      45.373 132.312  15.345  1.00  0.00     0.201 C 
ATOM      6  O   UNL     1      44.460 132.415  14.261  1.00  0.00    -0.496 OA
ATOM      7  C   UNL     1      43.592 131.344  14.239  1.00  0.00     0.184 C 
ATOM      8  C   UNL     1      43.865 130.480  15.193  1.00  0.00     0.041 C 
ATOM      9  C   UNL     1      45.060 130.923  15.998  1.00  0.00     0.182 C 
ENDROOT
BRANCH   1  10
ATOM     10  N   UNL     1      45.853 128.540  16.257  1.00  0.00    -0.268 N 
ATOM     11  H   UNL     1      46.694 127.925  16.373  1.00  0.00     0.370 HD
ATOM     12  H   UNL     1      45.322 128.564  17.158  1.00  0.00     0.370 HD
BRANCH  10  13
ATOM     13  N   UNL     1      45.021 127.975  15.266  1.00  0.00    -0.183 NA
ATOM     14  H   UNL     1      44.080 127.807  15.692  1.00  0.00     0.183 HD
ATOM     15  H   UNL     1      45.400 127.032  15.012  1.00  0.00     0.183 HD
ENDBRANCH  10  13
ENDBRANCH   1  10
BRANCH   9  16
ATOM     16  C   UNL     1      44.708 131.104  17.466  1.00  0.00     0.273 A 
ATOM     17  N   UNL     1      43.540 131.665  17.878  1.00  0.00    -0.240 N 
ATOM     18  N   UNL     1      45.536 130.808  18.505  1.00  0.00    -0.240 N 
ATOM     19  C   UNL     1      43.644 131.704  19.215  1.00  0.00     0.171 A 
ATOM     20  C   UNL     1      44.847 131.187  19.593  1.00  0.00     0.171 A 
ATOM     21  C   UNL     1      42.725 132.192  20.141  1.00  0.00     0.056 A 
ATOM     22  C   UNL     1      45.234 131.117  20.929  1.00  0.00     0.056 A 
ATOM     23  C   UNL     1      43.080 132.133  21.503  1.00  0.00     0.005 A 
ATOM     24  C   UNL     1      44.329 131.598  21.895  1.00  0.00     0.005 A 
ATOM     25  H   UNL     1      42.746 132.003  17.290  1.00  0.00     0.312 HD
ATOM     26  H   UNL     1      46.495 130.398  18.479  1.00  0.00     0.312 HD
ENDBRANCH   9  16
TORSDOF 3
ENDMDL
MODEL 3
REMARK VINA RESULT:      -5.3      8.789     10.194
REMARK SMILES N[NH2+][C@H]1CCC[C@H]2OC=C[C@@]12c1[nH]c2ccccc2[nH+]1
REMARK SMILES IDX 3 1 4 2 5 3 6 4 7 5 8 6 9 7 10 8 11 9 2 10 1 13 12 16 13 17
REMARK SMILES IDX 20 18 14 19 19 20 15 21 18 22 16 23 17 24
REMARK H PARENT 2 11 2 12 1 14 1 15 13 25 20 26
ROOT
ATOM      1  C   UNL     1      51.308 124.026  20.508  1.00  0.00     0.227 C 
ATOM      2  C   UNL     1      52.812 123.674  20.386  1.00  0.00     0.069 C 
ATOM      3  C   UNL     1      53.306 122.676  21.456  1.00  0.00     0.010 C 
ATOM      4  C   UNL     1      52.274 122.375  22.552  1.00  0.00     0.047 C 
ATOM      5  C   UNL     1      51.595 123.649  23.072  1.00  0.00     0.201 C 
ATOM      6  O   UNL     1      52.545 124.490  23.712  1.00  0.00    -0.496 OA
ATOM      7  C   UNL     1      52.498 125.770  23.202  1.00  0.00     0.184 C 
ATOM      8  C   UNL     1      51.625 125.869  22.222  1.00  0.00     0.041 C 
ATOM      9  C   UNL     1      50.965 124.541  21.949  1.00  0.00     0.182 C 
ENDROOT
BRANCH   1  10
ATOM     10  N   UNL     1      50.913 125.001  19.467  1.00  0.00    -0.268 N 
ATOM     11  H   UNL     1      49.952 125.377  19.650  1.00  0.00     0.370 HD
ATOM     12  H   UNL     1      51.590 125.799  19.438  1.00  0.00     0.370 HD
BRANCH  10  13
ATOM     13  N   UNL     1      50.914 124.372  18.204  1.00  0.00    -0.183 NA
ATOM     14  H   UNL     1      51.326 125.039  17.511  1.00  0.00     0.183 HD
ATOM     15  H   UNL     1      49.921 124.219  17.908  1.00  0.00     0.183 HD
ENDBRANCH  10  13
ENDBRANCH   1  10
BRANCH   9  16
ATOM     16  C   UNL     1      49.458 124.619  22.130  1.00  0.00     0.273 A 
ATOM     17  N   UNL     1      48.666 123.516  22.191  1.00  0.00    -0.240 N 
ATOM     18  N   UNL     1      48.741 125.776  22.168  1.00  0.00    -0.240 N 
ATOM     19  C   UNL     1      47.421 124.006  22.283  1.00  0.00     0.171 A 
ATOM     20  C   UNL     1      47.465 125.369  22.270  1.00  0.00     0.171 A 
ATOM     21  C   UNL     1      46.219 123.306  22.367  1.00  0.00     0.056 A 
ATOM     22  C   UNL     1      46.312 126.146  22.337  1.00  0.00     0.056 A 
ATOM     23  C   UNL     1      45.032 124.060  22.442  1.00  0.00     0.005 A 
ATOM     24  C   UNL     1      45.078 125.474  22.427  1.00  0.00     0.005 A 
ATOM     25  H   UNL     1      48.956 122.513  22.158  1.00  0.00     0.312 HD
ATOM     26  H   UNL     1      49.084 126.759  22.114  1.00  0.00     0.312 HD
ENDBRANCH   9  16
TORSDOF 3
ENDMDL
MODEL 4
REMARK VINA RESULT:      -4.9      2.265      6.234
REMARK SMILES N[NH2+][C@H]1CCC[C@H]2OC=C[C@@]12c1[nH]c2ccccc2[nH+]1
REMARK SMILES IDX 3 1 4 2 5 3 6 4 7 5 8 6 9 7 10 8 11 9 2 10 1 13 12 16 13 17
REMARK SMILES IDX 20 18 14 19 19 20 15 21 18 22 16 23 17 24
REMARK H PARENT 2 11 2 12 1 14 1 15 13 25 20 26
ROOT
ATOM      1  C   UNL     1      45.684 131.939  21.115  1.00  0.00     0.227 C 
ATOM      2  C   UNL     1      45.195 131.978  22.584  1.00  0.00     0.069 C 
ATOM      3  C   UNL     1      44.372 130.739  22.998  1.00  0.00     0.010 C 
ATOM      4  C   UNL     1      44.025 129.802  21.833  1.00  0.00     0.047 C 
ATOM      5  C   UNL     1      43.525 130.571  20.603  1.00  0.00     0.201 C 
ATOM      6  O   UNL     1      42.300 131.229  20.895  1.00  0.00    -0.496 OA
ATOM      7  C   UNL     1      42.364 132.567  20.569  1.00  0.00     0.184 C 
ATOM      8  C   UNL     1      43.556 132.899  20.121  1.00  0.00     0.041 C 
ATOM      9  C   UNL     1      44.487 131.712  20.128  1.00  0.00     0.182 C 
ENDROOT
BRANCH   1  10
ATOM     10  N   UNL     1      46.444 133.166  20.784  1.00  0.00    -0.268 N 
ATOM     11  H   UNL     1      46.887 133.089  19.837  1.00  0.00     0.370 HD
ATOM     12  H   UNL     1      45.813 134.001  20.797  1.00  0.00     0.370 HD
BRANCH  10  13
ATOM     13  N   UNL     1      47.463 133.364  21.740  1.00  0.00    -0.183 NA
ATOM     14  H   UNL     1      47.141 134.103  22.408  1.00  0.00     0.183 HD
ATOM     15  H   UNL     1      48.304 133.756  21.253  1.00  0.00     0.183 HD
ENDBRANCH  10  13
ENDBRANCH   1  10
BRANCH   9  16
ATOM     16  C   UNL     1      45.010 131.407  18.735  1.00  0.00     0.273 A 
ATOM     17  N   UNL     1      44.665 132.138  17.642  1.00  0.00    -0.240 N 
ATOM     18  N   UNL     1      45.799 130.343  18.418  1.00  0.00    -0.240 N 
ATOM     19  C   UNL     1      45.271 131.514  16.620  1.00  0.00     0.171 A 
ATOM     20  C   UNL     1      45.955 130.432  17.088  1.00  0.00     0.171 A 
ATOM     21  C   UNL     1      45.244 131.844  15.267  1.00  0.00     0.056 A 
ATOM     22  C   UNL     1      46.668 129.587  16.242  1.00  0.00     0.056 A 
ATOM     23  C   UNL     1      45.959 131.014  14.381  1.00  0.00     0.005 A 
ATOM     24  C   UNL     1      46.667 129.889  14.867  1.00  0.00     0.005 A 
ATOM     25  H   UNL     1      44.055 132.985  17.601  1.00  0.00     0.312 HD
ATOM     26  H   UNL     1      46.187 129.607  19.049  1.00  0.00     0.312 HD
ENDBRANCH   9  16
TORSDOF 3
ENDMDL
MODEL 5
REMARK VINA RESULT:      -4.9      2.262      6.113
REMARK SMILES N[NH2+][C@H]1CCC[C@H]2OC=C[C@@]12c1[nH]c2ccccc2[nH+]1
REMARK SMILES IDX 3 1 4 2 5 3 6 4 7 5 8 6 9 7 10 8 11 9 2 10 1 13 12 16 13 17
REMARK SMILES IDX 20 18 14 19 19 20 15 21 18 22 16 23 17 24
REMARK H PARENT 2 11 2 12 1 14 1 15 13 25 20 26
ROOT
ATOM      1  C   UNL     1      45.456 131.839  21.088  1.00  0.00     0.227 C 
ATOM      2  C   UNL     1      45.063 131.948  22.583  1.00  0.00     0.069 C 
ATOM      3  C   UNL     1      44.138 130.810  23.066  1.00  0.00     0.010 C 
ATOM      4  C   UNL     1      43.622 129.903  21.940  1.00  0.00     0.047 C 
ATOM      5  C   UNL     1      43.135 130.708  20.728  1.00  0.00     0.201 C 
ATOM      6  O   UNL     1      42.008 131.499  21.079  1.00  0.00    -0.496 OA
ATOM      7  C   UNL     1      42.197 132.817  20.726  1.00  0.00     0.184 C 
ATOM      8  C   UNL     1      43.388 133.013  20.203  1.00  0.00     0.041 C 
ATOM      9  C   UNL     1      44.184 131.733  20.177  1.00  0.00     0.182 C 
ENDROOT
BRANCH   1  10
ATOM     10  N   UNL     1      46.323 132.972  20.691  1.00  0.00    -0.268 N 
ATOM     11  H   UNL     1      46.830 132.762  19.798  1.00  0.00     0.370 HD
ATOM     12  H   UNL     1      45.752 133.840  20.563  1.00  0.00     0.370 HD
BRANCH  10  13
ATOM     13  N   UNL     1      47.278 133.213  21.701  1.00  0.00    -0.183 NA
ATOM     14  H   UNL     1      47.434 132.317  22.219  1.00  0.00     0.183 HD
ATOM     15  H   UNL     1      46.868 133.883  22.394  1.00  0.00     0.183 HD
ENDBRANCH  10  13
ENDBRANCH   1  10
BRANCH   9  16
ATOM     16  C   UNL     1      44.587 131.355  18.761  1.00  0.00     0.273 A 
ATOM     17  N   UNL     1      45.637 130.537  18.488  1.00  0.00    -0.240 N 
ATOM     18  N   UNL     1      44.007 131.848  17.632  1.00  0.00    -0.240 N 
ATOM     19  C   UNL     1      45.700 130.512  17.148  1.00  0.00     0.171 A 
ATOM     20  C   UNL     1      44.716 131.302  16.632  1.00  0.00     0.171 A 
ATOM     21  C   UNL     1      46.602 129.828  16.336  1.00  0.00     0.056 A 
ATOM     22  C   UNL     1      44.553 131.477  15.260  1.00  0.00     0.056 A 
ATOM     23  C   UNL     1      46.464 129.977  14.942  1.00  0.00     0.005 A 
ATOM     24  C   UNL     1      45.444 130.799  14.406  1.00  0.00     0.005 A 
ATOM     25  H   UNL     1      46.265 130.048  19.165  1.00  0.00     0.312 HD
ATOM     26  H   UNL     1      43.206 132.512  17.546  1.00  0.00     0.312 HD
ENDBRANCH   9  16
TORSDOF 3
ENDMDL
MODEL 6
REMARK VINA RESULT:      -4.7      2.278      5.905
REMARK SMILES N[NH2+][C@H]1CCC[C@H]2OC=C[C@@]12c1[nH]c2ccccc2[nH+]1
REMARK SMILES IDX 3 1 4 2 5 3 6 4 7 5 8 6 9 7 10 8 11 9 2 10 1 13 12 16 13 17
REMARK SMILES IDX 20 18 14 19 19 20 15 21 18 22 16 23 17 24
REMARK H PARENT 2 11 2 12 1 14 1 15 13 25 20 26
ROOT
ATOM      1  C   UNL     1      44.847 129.713  20.786  1.00  0.00     0.227 C 
ATOM      2  C   UNL     1      44.486 129.913  22.279  1.00  0.00     0.069 C 
ATOM      3  C   UNL     1      43.380 130.965  22.515  1.00  0.00     0.010 C 
ATOM      4  C   UNL     1      42.989 131.753  21.257  1.00  0.00     0.047 C 
ATOM      5  C   UNL     1      44.215 132.222  20.464  1.00  0.00     0.201 C 
ATOM      6  O   UNL     1      44.975 133.147  21.230  1.00  0.00    -0.496 OA
ATOM      7  C   UNL     1      46.300 132.770  21.293  1.00  0.00     0.184 C 
ATOM      8  C   UNL     1      46.508 131.628  20.675  1.00  0.00     0.041 C 
ATOM      9  C   UNL     1      45.224 131.077  20.109  1.00  0.00     0.182 C 
ENDROOT
BRANCH   1  10
ATOM     10  N   UNL     1      45.927 128.711  20.639  1.00  0.00    -0.268 N 
ATOM     11  H   UNL     1      45.896 128.262  19.692  1.00  0.00     0.370 HD
ATOM     12  H   UNL     1      46.863 129.159  20.773  1.00  0.00     0.370 HD
BRANCH  10  13
ATOM     13  N   UNL     1      45.773 127.703  21.615  1.00  0.00    -0.183 NA
ATOM     14  H   UNL     1      46.615 127.084  21.576  1.00  0.00     0.183 HD
ATOM     15  H   UNL     1      44.957 127.103  21.347  1.00  0.00     0.183 HD
ENDBRANCH  10  13
ENDBRANCH   1  10
BRANCH   9  16
ATOM     16  C   UNL     1      45.307 130.905  18.601  1.00  0.00     0.273 A 
ATOM     17  N   UNL     1      46.255 130.140  17.999  1.00  0.00    -0.240 N 
ATOM     18  N   UNL     1      44.512 131.548  17.702  1.00  0.00    -0.240 N 
ATOM     19  C   UNL     1      46.031 130.304  16.686  1.00  0.00     0.171 A 
ATOM     20  C   UNL     1      44.979 131.152  16.507  1.00  0.00     0.171 A 
ATOM     21  C   UNL     1      46.723 129.747  15.614  1.00  0.00     0.056 A 
ATOM     22  C   UNL     1      44.532 131.517  15.240  1.00  0.00     0.056 A 
ATOM     23  C   UNL     1      46.295 130.090  14.316  1.00  0.00     0.005 A 
ATOM     24  C   UNL     1      45.205 130.971  14.130  1.00  0.00     0.005 A 
ATOM     25  H   UNL     1      47.001 129.565  18.452  1.00  0.00     0.312 HD
ATOM     26  H   UNL     1      43.727 132.211  17.882  1.00  0.00     0.312 HD
ENDBRANCH   9  16
TORSDOF 3
ENDMDL
MODEL 7
REMARK VINA RESULT:      -4.6      8.748     10.053
REMARK SMILES N[NH2+][C@H]1CCC[C@H]2OC=C[C@@]12c1[nH]c2ccccc2[nH+]1
REMARK SMILES IDX 3 1 4 2 5 3 6 4 7 5 8 6 9 7 10 8 11 9 2 10 1 13 12 16 13 17
REMARK SMILES IDX 20 18 14 19 19 20 15 21 18 22 16 23 17 24
REMARK H PARENT 2 11 2 12 1 14 1 15 13 25 20 26
ROOT
ATOM      1  C   UNL     1      50.656 123.648  20.629  1.00  0.00     0.227 C 
ATOM      2  C   UNL     1      52.160 123.284  20.558  1.00  0.00     0.069 C 
ATOM      3  C   UNL     1      52.665 122.486  21.779  1.00  0.00     0.010 C 
ATOM      4  C   UNL     1      51.642 122.375  22.919  1.00  0.00     0.047 C 
ATOM      5  C   UNL     1      50.962 123.718  23.218  1.00  0.00     0.201 C 
ATOM      6  O   UNL     1      51.913 124.659  23.696  1.00  0.00    -0.496 OA
ATOM      7  C   UNL     1      51.858 125.832  22.974  1.00  0.00     0.184 C 
ATOM      8  C   UNL     1      50.978 125.759  21.999  1.00  0.00     0.041 C 
ATOM      9  C   UNL     1      50.321 124.402  21.963  1.00  0.00     0.182 C 
ENDROOT
BRANCH   1  10
ATOM     10  N   UNL     1      50.250 124.430  19.439  1.00  0.00    -0.268 N 
ATOM     11  H   UNL     1      49.613 123.871  18.822  1.00  0.00     0.370 HD
ATOM     12  H   UNL     1      49.760 125.308  19.729  1.00  0.00     0.370 HD
BRANCH  10  13
ATOM     13  N   UNL     1      51.394 124.785  18.694  1.00  0.00    -0.183 NA
ATOM     14  H   UNL     1      52.235 124.634  19.299  1.00  0.00     0.183 HD
ATOM     15  H   UNL     1      51.357 125.814  18.498  1.00  0.00     0.183 HD
ENDBRANCH  10  13
ENDBRANCH   1  10
BRANCH   9  16
ATOM     16  C   UNL     1      48.815 124.507  22.139  1.00  0.00     0.273 A 
ATOM     17  N   UNL     1      48.213 125.590  22.696  1.00  0.00    -0.240 N 
ATOM     18  N   UNL     1      47.929 123.517  21.840  1.00  0.00    -0.240 N 
ATOM     19  C   UNL     1      46.912 125.266  22.731  1.00  0.00     0.171 A 
ATOM     20  C   UNL     1      46.740 124.016  22.214  1.00  0.00     0.171 A 
ATOM     21  C   UNL     1      45.845 126.019  23.215  1.00  0.00     0.056 A 
ATOM     22  C   UNL     1      45.487 123.413  22.140  1.00  0.00     0.056 A 
ATOM     23  C   UNL     1      44.560 125.443  23.151  1.00  0.00     0.005 A 
ATOM     24  C   UNL     1      44.383 124.146  22.616  1.00  0.00     0.005 A 
ATOM     25  H   UNL     1      48.660 126.471  23.036  1.00  0.00     0.312 HD
ATOM     26  H   UNL     1      48.115 122.576  21.431  1.00  0.00     0.312 HD
ENDBRANCH   9  16
TORSDOF 3
ENDMDL
MODEL 8
REMARK VINA RESULT:      -4.3      2.279      6.029
REMARK SMILES N[NH2+][C@H]1CCC[C@H]2OC=C[C@@]12c1[nH]c2ccccc2[nH+]1
REMARK SMILES IDX 3 1 4 2 5 3 6 4 7 5 8 6 9 7 10 8 11 9 2 10 1 13 12 16 13 17
REMARK SMILES IDX 20 18 14 19 19 20 15 21 18 22 16 23 17 24
REMARK H PARENT 2 11 2 12 1 14 1 15 13 25 20 26
ROOT
ATOM      1  C   UNL     1      44.881 129.749  20.723  1.00  0.00     0.227 C 
ATOM      2  C   UNL     1      44.410 129.927  22.188  1.00  0.00     0.069 C 
ATOM      3  C   UNL     1      43.263 130.948  22.352  1.00  0.00     0.010 C 
ATOM      4  C   UNL     1      42.941 131.736  21.075  1.00  0.00     0.047 C 
ATOM      5  C   UNL     1      44.208 132.244  20.375  1.00  0.00     0.201 C 
ATOM      6  O   UNL     1      44.887 133.181  21.198  1.00  0.00    -0.496 OA
ATOM      7  C   UNL     1      46.213 132.838  21.353  1.00  0.00     0.184 C 
ATOM      8  C   UNL     1      46.495 131.706  20.743  1.00  0.00     0.041 C 
ATOM      9  C   UNL     1      45.268 131.127  20.084  1.00  0.00     0.182 C 
ENDROOT
BRANCH   1  10
ATOM     10  N   UNL     1      45.994 128.776  20.646  1.00  0.00    -0.268 N 
ATOM     11  H   UNL     1      46.029 128.319  19.703  1.00  0.00     0.370 HD
ATOM     12  H   UNL     1      46.908 129.251  20.828  1.00  0.00     0.370 HD
BRANCH  10  13
ATOM     13  N   UNL     1      45.813 127.772  21.622  1.00  0.00    -0.183 NA
ATOM     14  H   UNL     1      46.691 127.204  21.668  1.00  0.00     0.183 HD
ATOM     15  H   UNL     1      45.061 127.121  21.293  1.00  0.00     0.183 HD
ENDBRANCH  10  13
ENDBRANCH   1  10
BRANCH   9  16
ATOM     16  C   UNL     1      45.462 130.971  18.585  1.00  0.00     0.273 A 
ATOM     17  N   UNL     1      44.800 131.731  17.674  1.00  0.00    -0.240 N 
ATOM     18  N   UNL     1      46.241 130.021  17.998  1.00  0.00    -0.240 N 
ATOM     19  C   UNL     1      45.191 131.244  16.486  1.00  0.00     0.171 A 
ATOM     20  C   UNL     1      46.061 130.213  16.682  1.00  0.00     0.171 A 
ATOM     21  C   UNL     1      44.807 131.657  15.213  1.00  0.00     0.056 A 
ATOM     22  C   UNL     1      46.619 129.506  15.620  1.00  0.00     0.056 A 
ATOM     23  C   UNL     1      45.356 130.968  14.113  1.00  0.00     0.005 A 
ATOM     24  C   UNL     1      46.257 129.897  14.316  1.00  0.00     0.005 A 
ATOM     25  H   UNL     1      44.125 132.509  17.853  1.00  0.00     0.312 HD
ATOM     26  H   UNL     1      46.834 129.292  18.452  1.00  0.00     0.312 HD
ENDBRANCH   9  16
TORSDOF 3
ENDMDL
MODEL 9
REMARK VINA RESULT:      -4.2      8.509      9.955
REMARK SMILES N[NH2+][C@H]1CCC[C@H]2OC=C[C@@]12c1[nH]c2ccccc2[nH+]1
REMARK SMILES IDX 3 1 4 2 5 3 6 4 7 5 8 6 9 7 10 8 11 9 2 10 1 13 12 16 13 17
REMARK SMILES IDX 20 18 14 19 19 20 15 21 18 22 16 23 17 24
REMARK H PARENT 2 11 2 12 1 14 1 15 13 25 20 26
ROOT
ATOM      1  C   UNL     1      50.810 125.778  22.518  1.00  0.00     0.227 C 
ATOM      2  C   UNL     1      52.299 125.646  22.110  1.00  0.00     0.069 C 
ATOM      3  C   UNL     1      52.504 125.082  20.687  1.00  0.00     0.010 C 
ATOM      4  C   UNL     1      51.217 124.575  20.024  1.00  0.00     0.047 C 
ATOM      5  C   UNL     1      50.373 123.720  20.978  1.00  0.00     0.201 C 
ATOM      6  O   UNL     1      51.072 122.534  21.329  1.00  0.00    -0.496 OA
ATOM      7  C   UNL     1      51.125 122.375  22.698  1.00  0.00     0.184 C 
ATOM      8  C   UNL     1      50.562 123.386  23.324  1.00  0.00     0.041 C 
ATOM      9  C   UNL     1      50.055 124.415  22.346  1.00  0.00     0.182 C 
ENDROOT
BRANCH   1  10
ATOM     10  N   UNL     1      50.690 126.302  23.898  1.00  0.00    -0.268 N 
ATOM     11  H   UNL     1      50.275 127.264  23.900  1.00  0.00     0.370 HD
ATOM     12  H   UNL     1      50.090 125.670  24.477  1.00  0.00     0.370 HD
BRANCH  10  13
ATOM     13  N   UNL     1      51.969 126.366  24.491  1.00  0.00    -0.183 NA
ATOM     14  H   UNL     1      52.104 125.501  25.064  1.00  0.00     0.183 HD
ATOM     15  H   UNL     1      51.983 127.168  25.166  1.00  0.00     0.183 HD
ENDBRANCH  10  13
ENDBRANCH   1  10
BRANCH   9  16
ATOM     16  C   UNL     1      48.557 124.626  22.487  1.00  0.00     0.273 A 
ATOM     17  N   UNL     1      47.714 123.656  22.929  1.00  0.00    -0.240 N 
ATOM     18  N   UNL     1      47.895 125.758  22.117  1.00  0.00    -0.240 N 
ATOM     19  C   UNL     1      46.495 124.209  22.843  1.00  0.00     0.171 A 
ATOM     20  C   UNL     1      46.604 125.477  22.354  1.00  0.00     0.171 A 
ATOM     21  C   UNL     1      45.263 123.643  23.165  1.00  0.00     0.056 A 
ATOM     22  C   UNL     1      45.490 126.285  22.144  1.00  0.00     0.056 A 
ATOM     23  C   UNL     1      44.114 124.435  22.970  1.00  0.00     0.005 A 
ATOM     24  C   UNL     1      44.227 125.750  22.461  1.00  0.00     0.005 A 
ATOM     25  H   UNL     1      47.956 122.691  23.250  1.00  0.00     0.312 HD
ATOM     26  H   UNL     1      48.284 126.642  21.723  1.00  0.00     0.312 HD
ENDBRANCH   9  16
TORSDOF 3
ENDMDL


