REMARK SMILES O/C(=N/CCc1ccc(-c2c[nH+]c3ccnn3c2)cc1)[N-][C@H]1C[C@H]1c1ccccc1
REMARK SMILES IDX 3 1 2 2 1 3 21 5 22 6 23 7 24 8 25 9 26 10 30 11 27 12 29 13
REMARK SMILES IDX 28 14 4 15 5 16 6 17 7 18 20 19 8 20 19 21 9 22 10 23 18 24
REMARK SMILES IDX 11 25 17 26 12 27 16 28 13 29 15 30 14 31
REMARK H PARENT 1 4 12 32
ROOT
ATOM      1  N   UNL     1      -2.734  -1.974  -2.696  1.00  0.00    -0.435 NA
ENDROOT
BRANCH   1   2
ATOM      2  C   UNL     1      -2.325  -0.744  -2.591  1.00  0.00     0.090 C 
BRANCH   2   3
ATOM      3  O   UNL     1      -2.947   0.251  -3.342  1.00  0.00    -0.516 OA
ATOM      4  H   UNL     1      -3.714   0.032  -3.967  1.00  0.00     0.292 HD
ENDBRANCH   2   3
BRANCH   2   5
ATOM      5  N   UNL     1      -1.243  -0.403  -1.721  1.00  0.00    -0.431 NA
BRANCH   5   6
ATOM      6  C   UNL     1      -0.749   0.961  -1.589  1.00  0.00     0.002 C 
ATOM      7  C   UNL     1       0.437   1.040  -0.645  1.00  0.00     0.012 C 
ATOM      8  C   UNL     1       0.651   1.219  -2.147  1.00  0.00     0.022 C 
BRANCH   8   9
ATOM      9  C   UNL     1       1.323   0.067  -2.851  1.00  0.00    -0.045 A 
ATOM     10  C   UNL     1       2.519  -0.479  -2.354  1.00  0.00     0.004 A 
ATOM     11  C   UNL     1       0.801  -0.412  -4.063  1.00  0.00     0.004 A 
ATOM     12  C   UNL     1       3.150  -1.526  -3.033  1.00  0.00     0.000 A 
ATOM     13  C   UNL     1       1.433  -1.460  -4.739  1.00  0.00     0.000 A 
ATOM     14  C   UNL     1       2.605  -2.020  -4.221  1.00  0.00     0.000 A 
ENDBRANCH   8   9
ENDBRANCH   5   6
ENDBRANCH   2   5
ENDBRANCH   1   2
BRANCH   1  15
ATOM     15  C   UNL     1      -2.176  -3.114  -1.966  1.00  0.00     0.008 C 
BRANCH  15  16
ATOM     16  C   UNL     1      -2.867  -3.303  -0.609  1.00  0.00     0.034 C 
BRANCH  16  17
ATOM     17  C   UNL     1      -2.465  -2.244   0.384  1.00  0.00    -0.048 A 
ATOM     18  C   UNL     1      -3.293  -1.136   0.618  1.00  0.00     0.004 A 
ATOM     19  C   UNL     1      -1.226  -2.325   1.036  1.00  0.00     0.004 A 
ATOM     20  C   UNL     1      -2.883  -0.118   1.484  1.00  0.00     0.009 A 
ATOM     21  C   UNL     1      -0.818  -1.312   1.908  1.00  0.00     0.009 A 
ATOM     22  C   UNL     1      -1.639  -0.192   2.135  1.00  0.00    -0.011 A 
BRANCH  22  23
ATOM     23  C   UNL     1      -1.193   0.900   3.038  1.00  0.00     0.063 A 
ATOM     24  C   UNL     1      -2.106   1.558   3.888  1.00  0.00     0.245 A 
ATOM     25  C   UNL     1       0.162   1.319   3.068  1.00  0.00     0.210 A 
ATOM     26  N   UNL     1      -1.639   2.549   4.683  1.00  0.00    -0.104 N 
ATOM     27  N   UNL     1       0.563   2.328   3.896  1.00  0.00    -0.245 N 
ATOM     28  N   UNL     1      -2.332   3.274   5.543  1.00  0.00    -0.086 NA
ATOM     29  C   UNL     1      -0.358   2.924   4.691  1.00  0.00     0.306 A 
ATOM     30  C   UNL     1      -1.455   4.138   6.111  1.00  0.00     0.167 A 
ATOM     31  C   UNL     1      -0.177   3.946   5.592  1.00  0.00     0.125 A 
ATOM     32  H   UNL     1       1.561   2.635   3.911  1.00  0.00     0.312 HD
ENDBRANCH  22  23
ENDBRANCH  16  17
ENDBRANCH  15  16
ENDBRANCH   1  15
TORSDOF 9


