MODEL 1
REMARK VINA RESULT:     -10.2      0.000      0.000
REMARK SMILES Nc1cc(F)c[nH]/c1=N\c1c[nH]c2nccc-2c1
REMARK SMILES IDX 8 1 2 2 3 3 4 4 5 5 6 6 7 7 9 9 10 10 15 11 14 12 16 13
REMARK SMILES IDX 13 14 17 15 12 16 18 17 11 18 1 20
REMARK H PARENT 7 8 12 19 1 21 1 22
ROOT
ATOM      1  C   UNL     1      44.009 131.671  18.539  1.00  0.00     0.154 A 
ATOM      2  C   UNL     1      42.812 132.108  19.147  1.00  0.00     0.078 A 
ATOM      3  C   UNL     1      42.693 132.044  20.541  1.00  0.00     0.070 A 
ATOM      4  C   UNL     1      43.751 131.566  21.311  1.00  0.00     0.141 A 
ATOM      5  F   UNL     1      43.640 131.504  22.661  1.00  0.00    -0.205 F 
ATOM      6  C   UNL     1      44.927 131.164  20.683  1.00  0.00     0.123 A 
ATOM      7  N   UNL     1      45.040 131.228  19.329  1.00  0.00    -0.342 N 
ATOM      8  H   UNL     1      45.961 130.959  18.919  1.00  0.00     0.168 HD
ENDROOT
BRANCH   1   9
ATOM      9  N   UNL     1      44.121 131.734  17.239  1.00  0.00    -0.228 NA
BRANCH   9  10
ATOM     10  C   UNL     1      45.076 131.053  16.413  1.00  0.00     0.082 A 
ATOM     11  C   UNL     1      48.080 130.280  13.153  1.00  0.00     0.114 A 
ATOM     12  N   UNL     1      47.678 129.190  13.859  1.00  0.00    -0.239 NA
ATOM     13  C   UNL     1      47.469 131.460  13.584  1.00  0.00     0.032 A 
ATOM     14  C   UNL     1      46.804 129.680  14.753  1.00  0.00     0.137 A 
ATOM     15  C   UNL     1      46.645 131.087  14.614  1.00  0.00     0.021 A 
ATOM     16  N   UNL     1      46.108 128.974  15.673  1.00  0.00    -0.344 N 
ATOM     17  C   UNL     1      45.773 131.786  15.433  1.00  0.00     0.042 A 
ATOM     18  C   UNL     1      45.239 129.639  16.497  1.00  0.00     0.112 A 
ATOM     19  H   UNL     1      46.221 127.938  15.748  1.00  0.00     0.168 HD
ENDBRANCH   9  10
ENDBRANCH   1   9
BRANCH   2  20
ATOM     20  N   UNL     1      41.716 132.603  18.367  1.00  0.00    -0.396 N 
ATOM     21  H   UNL     1      40.736 132.591  18.728  1.00  0.00     0.156 HD
ATOM     22  H   UNL     1      41.876 132.990  17.411  1.00  0.00     0.156 HD
ENDBRANCH   2  20
TORSDOF 3
ENDMDL
MODEL 2
REMARK VINA RESULT:     -10.0      1.573      2.444
REMARK SMILES Nc1cc(F)c[nH]/c1=N\c1c[nH]c2nccc-2c1
REMARK SMILES IDX 8 1 2 2 3 3 4 4 5 5 6 6 7 7 9 9 10 10 15 11 14 12 16 13
REMARK SMILES IDX 13 14 17 15 12 16 18 17 11 18 1 20
REMARK H PARENT 7 8 12 19 1 21 1 22
ROOT
ATOM      1  C   UNL     1      44.217 131.399  18.905  1.00  0.00     0.154 A 
ATOM      2  C   UNL     1      44.229 131.617  20.300  1.00  0.00     0.078 A 
ATOM      3  C   UNL     1      43.144 132.272  20.896  1.00  0.00     0.070 A 
ATOM      4  C   UNL     1      42.066 132.688  20.118  1.00  0.00     0.141 A 
ATOM      5  F   UNL     1      41.013 133.320  20.692  1.00  0.00    -0.205 F 
ATOM      6  C   UNL     1      42.075 132.438  18.748  1.00  0.00     0.123 A 
ATOM      7  N   UNL     1      43.130 131.801  18.172  1.00  0.00    -0.342 N 
ATOM      8  H   UNL     1      43.059 131.598  17.151  1.00  0.00     0.168 HD
ENDROOT
BRANCH   1   9
ATOM      9  N   UNL     1      45.229 130.786  18.350  1.00  0.00    -0.228 NA
BRANCH   9  10
ATOM     10  C   UNL     1      45.716 130.947  17.011  1.00  0.00     0.082 A 
ATOM     11  C   UNL     1      47.862 130.105  13.145  1.00  0.00     0.114 A 
ATOM     12  N   UNL     1      47.332 131.350  13.270  1.00  0.00    -0.239 NA
ATOM     13  C   UNL     1      47.635 129.305  14.268  1.00  0.00     0.032 A 
ATOM     14  C   UNL     1      46.756 131.344  14.483  1.00  0.00     0.137 A 
ATOM     15  C   UNL     1      46.923 130.092  15.137  1.00  0.00     0.021 A 
ATOM     16  N   UNL     1      46.112 132.375  15.077  1.00  0.00    -0.344 N 
ATOM     17  C   UNL     1      46.416 129.883  16.410  1.00  0.00     0.042 A 
ATOM     18  C   UNL     1      45.600 132.197  16.334  1.00  0.00     0.112 A 
ATOM     19  H   UNL     1      46.016 133.295  14.592  1.00  0.00     0.168 HD
ENDBRANCH   9  10
ENDBRANCH   1   9
BRANCH   2  20
ATOM     20  N   UNL     1      45.331 131.194  21.114  1.00  0.00    -0.396 N 
ATOM     21  H   UNL     1      46.102 130.604  20.729  1.00  0.00     0.156 HD
ATOM     22  H   UNL     1      45.386 131.469  22.119  1.00  0.00     0.156 HD
ENDBRANCH   2  20
TORSDOF 3
ENDMDL
MODEL 3
REMARK VINA RESULT:      -9.2      2.963      6.436
REMARK SMILES Nc1cc(F)c[nH]/c1=N\c1c[nH]c2nccc-2c1
REMARK SMILES IDX 8 1 2 2 3 3 4 4 5 5 6 6 7 7 9 9 10 10 15 11 14 12 16 13
REMARK SMILES IDX 13 14 17 15 12 16 18 17 11 18 1 20
REMARK H PARENT 7 8 12 19 1 21 1 22
ROOT
ATOM      1  C   UNL     1      45.473 130.945  15.020  1.00  0.00     0.154 A 
ATOM      2  C   UNL     1      45.830 129.579  15.024  1.00  0.00     0.078 A 
ATOM      3  C   UNL     1      46.994 129.177  14.356  1.00  0.00     0.070 A 
ATOM      4  C   UNL     1      47.790 130.120  13.711  1.00  0.00     0.141 A 
ATOM      5  F   UNL     1      48.919 129.735  13.066  1.00  0.00    -0.205 F 
ATOM      6  C   UNL     1      47.422 131.463  13.745  1.00  0.00     0.123 A 
ATOM      7  N   UNL     1      46.292 131.851  14.394  1.00  0.00    -0.342 N 
ATOM      8  H   UNL     1      46.093 132.875  14.427  1.00  0.00     0.168 HD
ENDROOT
BRANCH   1   9
ATOM      9  N   UNL     1      44.389 131.319  15.644  1.00  0.00    -0.228 NA
BRANCH   9  10
ATOM     10  C   UNL     1      44.208 131.473  17.059  1.00  0.00     0.082 A 
ATOM     11  C   UNL     1      45.015 131.309  21.484  1.00  0.00     0.114 A 
ATOM     12  N   UNL     1      43.756 131.675  21.124  1.00  0.00    -0.239 NA
ATOM     13  C   UNL     1      45.837 131.046  20.385  1.00  0.00     0.032 A 
ATOM     14  C   UNL     1      43.776 131.651  19.782  1.00  0.00     0.137 A 
ATOM     15  C   UNL     1      45.051 131.263  19.283  1.00  0.00     0.021 A 
ATOM     16  N   UNL     1      42.741 131.919  18.952  1.00  0.00    -0.344 N 
ATOM     17  C   UNL     1      45.278 131.158  17.920  1.00  0.00     0.042 A 
ATOM     18  C   UNL     1      42.936 131.825  17.600  1.00  0.00     0.112 A 
ATOM     19  H   UNL     1      41.806 132.182  19.335  1.00  0.00     0.168 HD
ENDBRANCH   9  10
ENDBRANCH   1   9
BRANCH   2  20
ATOM     20  N   UNL     1      45.021 128.597  15.684  1.00  0.00    -0.396 N 
ATOM     21  H   UNL     1      44.211 128.868  16.285  1.00  0.00     0.156 HD
ATOM     22  H   UNL     1      45.227 127.579  15.577  1.00  0.00     0.156 HD
ENDBRANCH   2  20
TORSDOF 3
ENDMDL
MODEL 4
REMARK VINA RESULT:      -8.7      3.034      6.626
REMARK SMILES Nc1cc(F)c[nH]/c1=N\c1c[nH]c2nccc-2c1
REMARK SMILES IDX 8 1 2 2 3 3 4 4 5 5 6 6 7 7 9 9 10 10 15 11 14 12 16 13
REMARK SMILES IDX 13 14 17 15 12 16 18 17 11 18 1 20
REMARK H PARENT 7 8 12 19 1 21 1 22
ROOT
ATOM      1  C   UNL     1      45.711 130.847  14.834  1.00  0.00     0.154 A 
ATOM      2  C   UNL     1      46.036 129.475  14.910  1.00  0.00     0.078 A 
ATOM      3  C   UNL     1      47.183 129.010  14.254  1.00  0.00     0.070 A 
ATOM      4  C   UNL     1      47.994 129.896  13.551  1.00  0.00     0.141 A 
ATOM      5  F   UNL     1      49.106 129.449  12.917  1.00  0.00    -0.205 F 
ATOM      6  C   UNL     1      47.658 131.247  13.514  1.00  0.00     0.123 A 
ATOM      7  N   UNL     1      46.544 131.697  14.152  1.00  0.00    -0.342 N 
ATOM      8  H   UNL     1      46.370 132.726  14.130  1.00  0.00     0.168 HD
ENDROOT
BRANCH   1   9
ATOM      9  N   UNL     1      44.643 131.281  15.448  1.00  0.00    -0.228 NA
BRANCH   9  10
ATOM     10  C   UNL     1      44.428 131.373  16.863  1.00  0.00     0.082 A 
ATOM     11  C   UNL     1      42.438 132.234  20.807  1.00  0.00     0.114 A 
ATOM     12  N   UNL     1      43.746 131.869  20.870  1.00  0.00    -0.239 NA
ATOM     13  C   UNL     1      41.950 132.274  19.499  1.00  0.00     0.032 A 
ATOM     14  C   UNL     1      44.095 131.669  19.589  1.00  0.00     0.137 A 
ATOM     15  C   UNL     1      43.007 131.912  18.704  1.00  0.00     0.021 A 
ATOM     16  N   UNL     1      45.317 131.313  19.130  1.00  0.00    -0.344 N 
ATOM     17  C   UNL     1      43.164 131.778  17.334  1.00  0.00     0.042 A 
ATOM     18  C   UNL     1      45.501 131.172  17.781  1.00  0.00     0.112 A 
ATOM     19  H   UNL     1      46.111 131.158  19.791  1.00  0.00     0.168 HD
ENDBRANCH   9  10
ENDBRANCH   1   9
BRANCH   2  20
ATOM     20  N   UNL     1      45.211 128.551  15.631  1.00  0.00    -0.396 N 
ATOM     21  H   UNL     1      44.593 128.862  16.413  1.00  0.00     0.156 HD
ATOM     22  H   UNL     1      45.212 127.536  15.387  1.00  0.00     0.156 HD
ENDBRANCH   2  20
TORSDOF 3
ENDMDL
MODEL 5
REMARK VINA RESULT:      -8.6      2.955      6.593
REMARK SMILES Nc1cc(F)c[nH]/c1=N\c1c[nH]c2nccc-2c1
REMARK SMILES IDX 8 1 2 2 3 3 4 4 5 5 6 6 7 7 9 9 10 10 15 11 14 12 16 13
REMARK SMILES IDX 13 14 17 15 12 16 18 17 11 18 1 20
REMARK H PARENT 7 8 12 19 1 21 1 22
ROOT
ATOM      1  C   UNL     1      45.451 131.118  15.549  1.00  0.00     0.154 A 
ATOM      2  C   UNL     1      45.724 129.761  15.271  1.00  0.00     0.078 A 
ATOM      3  C   UNL     1      46.734 129.444  14.354  1.00  0.00     0.070 A 
ATOM      4  C   UNL     1      47.464 130.459  13.740  1.00  0.00     0.141 A 
ATOM      5  F   UNL     1      48.444 130.155  12.854  1.00  0.00    -0.205 F 
ATOM      6  C   UNL     1      47.185 131.787  14.052  1.00  0.00     0.123 A 
ATOM      7  N   UNL     1      46.203 132.092  14.943  1.00  0.00    -0.342 N 
ATOM      8  H   UNL     1      46.073 133.101  15.174  1.00  0.00     0.168 HD
ENDROOT
BRANCH   1   9
ATOM      9  N   UNL     1      44.510 131.414  16.405  1.00  0.00    -0.228 NA
BRANCH   9  10
ATOM     10  C   UNL     1      44.561 131.285  17.833  1.00  0.00     0.082 A 
ATOM     11  C   UNL     1      43.429 131.670  22.173  1.00  0.00     0.114 A 
ATOM     12  N   UNL     1      44.665 131.161  21.925  1.00  0.00    -0.239 NA
ATOM     13  C   UNL     1      42.730 131.985  21.005  1.00  0.00     0.032 A 
ATOM     14  C   UNL     1      44.754 131.146  20.586  1.00  0.00     0.137 A 
ATOM     15  C   UNL     1      43.572 131.652  19.975  1.00  0.00     0.021 A 
ATOM     16  N   UNL     1      45.816 130.744  19.850  1.00  0.00    -0.344 N 
ATOM     17  C   UNL     1      43.467 131.738  18.596  1.00  0.00     0.042 A 
ATOM     18  C   UNL     1      45.739 130.816  18.485  1.00  0.00     0.112 A 
ATOM     19  H   UNL     1      46.684 130.394  20.313  1.00  0.00     0.168 HD
ENDBRANCH   9  10
ENDBRANCH   1   9
BRANCH   2  20
ATOM     20  N   UNL     1      44.982 128.706  15.897  1.00  0.00    -0.396 N 
ATOM     21  H   UNL     1      43.953 128.781  16.059  1.00  0.00     0.156 HD
ATOM     22  H   UNL     1      45.460 127.832  16.207  1.00  0.00     0.156 HD
ENDBRANCH   2  20
TORSDOF 3
ENDMDL
MODEL 6
REMARK VINA RESULT:      -8.6      2.781      6.438
REMARK SMILES Nc1cc(F)c[nH]/c1=N\c1c[nH]c2nccc-2c1
REMARK SMILES IDX 8 1 2 2 3 3 4 4 5 5 6 6 7 7 9 9 10 10 15 11 14 12 16 13
REMARK SMILES IDX 13 14 17 15 12 16 18 17 11 18 1 20
REMARK H PARENT 7 8 12 19 1 21 1 22
ROOT
ATOM      1  C   UNL     1      44.908 130.927  15.797  1.00  0.00     0.154 A 
ATOM      2  C   UNL     1      45.995 131.654  15.266  1.00  0.00     0.078 A 
ATOM      3  C   UNL     1      47.024 130.962  14.614  1.00  0.00     0.070 A 
ATOM      4  C   UNL     1      46.961 129.577  14.484  1.00  0.00     0.141 A 
ATOM      5  F   UNL     1      47.953 128.904  13.851  1.00  0.00    -0.205 F 
ATOM      6  C   UNL     1      45.863 128.891  14.999  1.00  0.00     0.123 A 
ATOM      7  N   UNL     1      44.865 129.566  15.631  1.00  0.00    -0.342 N 
ATOM      8  H   UNL     1      44.046 129.005  15.953  1.00  0.00     0.168 HD
ENDROOT
BRANCH   1   9
ATOM      9  N   UNL     1      43.948 131.573  16.403  1.00  0.00    -0.228 NA
BRANCH   9  10
ATOM     10  C   UNL     1      43.714 131.663  17.815  1.00  0.00     0.082 A 
ATOM     11  C   UNL     1      44.389 131.369  22.256  1.00  0.00     0.114 A 
ATOM     12  N   UNL     1      43.124 131.684  21.867  1.00  0.00    -0.239 NA
ATOM     13  C   UNL     1      45.258 131.192  21.176  1.00  0.00     0.032 A 
ATOM     14  C   UNL     1      43.188 131.713  20.527  1.00  0.00     0.137 A 
ATOM     15  C   UNL     1      44.497 131.410  20.057  1.00  0.00     0.021 A 
ATOM     16  N   UNL     1      42.167 131.960  19.673  1.00  0.00    -0.344 N 
ATOM     17  C   UNL     1      44.772 131.370  18.699  1.00  0.00     0.042 A 
ATOM     18  C   UNL     1      42.410 131.928  18.326  1.00  0.00     0.112 A 
ATOM     19  H   UNL     1      41.208 132.160  20.034  1.00  0.00     0.168 HD
ENDBRANCH   9  10
ENDBRANCH   1   9
BRANCH   2  20
ATOM     20  N   UNL     1      46.074 133.080  15.392  1.00  0.00    -0.396 N 
ATOM     21  H   UNL     1      46.502 133.674  14.647  1.00  0.00     0.156 HD
ATOM     22  H   UNL     1      45.700 133.560  16.240  1.00  0.00     0.156 HD
ENDBRANCH   2  20
TORSDOF 3
ENDMDL
MODEL 7
REMARK VINA RESULT:      -8.5      0.820      1.752
REMARK SMILES Nc1cc(F)c[nH]/c1=N\c1c[nH]c2nccc-2c1
REMARK SMILES IDX 8 1 2 2 3 3 4 4 5 5 6 6 7 7 9 9 10 10 15 11 14 12 16 13
REMARK SMILES IDX 13 14 17 15 12 16 18 17 11 18 1 20
REMARK H PARENT 7 8 12 19 1 21 1 22
ROOT
ATOM      1  C   UNL     1      43.415 131.779  17.645  1.00  0.00     0.154 A 
ATOM      2  C   UNL     1      44.456 131.537  18.568  1.00  0.00     0.078 A 
ATOM      3  C   UNL     1      44.206 131.704  19.936  1.00  0.00     0.070 A 
ATOM      4  C   UNL     1      42.942 132.092  20.373  1.00  0.00     0.141 A 
ATOM      5  F   UNL     1      42.696 132.253  21.696  1.00  0.00    -0.205 F 
ATOM      6  C   UNL     1      41.931 132.301  19.439  1.00  0.00     0.123 A 
ATOM      7  N   UNL     1      42.175 132.137  18.111  1.00  0.00    -0.342 N 
ATOM      8  H   UNL     1      41.367 132.261  17.463  1.00  0.00     0.168 HD
ENDROOT
BRANCH   1   9
ATOM      9  N   UNL     1      43.648 131.620  16.370  1.00  0.00    -0.228 NA
BRANCH   9  10
ATOM     10  C   UNL     1      44.753 130.933  15.765  1.00  0.00     0.082 A 
ATOM     11  C   UNL     1      48.319 130.111  13.145  1.00  0.00     0.114 A 
ATOM     12  N   UNL     1      47.819 129.041  13.819  1.00  0.00    -0.239 NA
ATOM     13  C   UNL     1      47.613 131.289  13.401  1.00  0.00     0.032 A 
ATOM     14  C   UNL     1      46.786 129.543  14.515  1.00  0.00     0.137 A 
ATOM     15  C   UNL     1      46.623 130.937  14.281  1.00  0.00     0.021 A 
ATOM     16  N   UNL     1      45.949 128.857  15.327  1.00  0.00    -0.344 N 
ATOM     17  C   UNL     1      45.600 131.644  14.893  1.00  0.00     0.042 A 
ATOM     18  C   UNL     1      44.930 129.530  15.946  1.00  0.00     0.112 A 
ATOM     19  H   UNL     1      46.069 127.830  15.472  1.00  0.00     0.168 HD
ENDBRANCH   9  10
ENDBRANCH   1   9
BRANCH   2  20
ATOM     20  N   UNL     1      45.762 131.136  18.133  1.00  0.00    -0.396 N 
ATOM     21  H   UNL     1      46.494 131.836  17.879  1.00  0.00     0.156 HD
ATOM     22  H   UNL     1      46.011 130.125  18.061  1.00  0.00     0.156 HD
ENDBRANCH   2  20
TORSDOF 3
ENDMDL
MODEL 8
REMARK VINA RESULT:      -8.3      1.066      1.525
REMARK SMILES Nc1cc(F)c[nH]/c1=N\c1c[nH]c2nccc-2c1
REMARK SMILES IDX 8 1 2 2 3 3 4 4 5 5 6 6 7 7 9 9 10 10 15 11 14 12 16 13
REMARK SMILES IDX 13 14 17 15 12 16 18 17 11 18 1 20
REMARK H PARENT 7 8 12 19 1 21 1 22
ROOT
ATOM      1  C   UNL     1      43.996 131.435  18.580  1.00  0.00     0.154 A 
ATOM      2  C   UNL     1      42.929 131.893  19.383  1.00  0.00     0.078 A 
ATOM      3  C   UNL     1      43.101 131.957  20.771  1.00  0.00     0.070 A 
ATOM      4  C   UNL     1      44.315 131.585  21.344  1.00  0.00     0.141 A 
ATOM      5  F   UNL     1      44.485 131.648  22.687  1.00  0.00    -0.205 F 
ATOM      6  C   UNL     1      45.355 131.158  20.522  1.00  0.00     0.123 A 
ATOM      7  N   UNL     1      45.186 131.098  19.174  1.00  0.00    -0.342 N 
ATOM      8  H   UNL     1      46.016 130.817  18.606  1.00  0.00     0.168 HD
ENDROOT
BRANCH   1   9
ATOM      9  N   UNL     1      43.837 131.377  17.285  1.00  0.00    -0.228 NA
BRANCH   9  10
ATOM     10  C   UNL     1      44.861 131.295  16.284  1.00  0.00     0.082 A 
ATOM     11  C   UNL     1      48.025 129.581  13.580  1.00  0.00     0.114 A 
ATOM     12  N   UNL     1      47.924 130.937  13.591  1.00  0.00    -0.239 NA
ATOM     13  C   UNL     1      47.106 128.964  14.432  1.00  0.00     0.032 A 
ATOM     14  C   UNL     1      46.928 131.188  14.454  1.00  0.00     0.137 A 
ATOM     15  C   UNL     1      46.392 129.988  15.001  1.00  0.00     0.021 A 
ATOM     16  N   UNL     1      46.465 132.404  14.824  1.00  0.00    -0.344 N 
ATOM     17  C   UNL     1      45.364 130.028  15.929  1.00  0.00     0.042 A 
ATOM     18  C   UNL     1      45.448 132.474  15.738  1.00  0.00     0.112 A 
ATOM     19  H   UNL     1      46.882 133.276  14.429  1.00  0.00     0.168 HD
ENDBRANCH   9  10
ENDBRANCH   1   9
BRANCH   2  20
ATOM     20  N   UNL     1      41.674 132.281  18.808  1.00  0.00    -0.396 N 
ATOM     21  H   UNL     1      40.939 132.763  19.371  1.00  0.00     0.156 HD
ATOM     22  H   UNL     1      41.468 132.087  17.804  1.00  0.00     0.156 HD
ENDBRANCH   2  20
TORSDOF 3
ENDMDL
MODEL 9
REMARK VINA RESULT:      -8.2      2.788      6.637
REMARK SMILES Nc1cc(F)c[nH]/c1=N\c1c[nH]c2nccc-2c1
REMARK SMILES IDX 8 1 2 2 3 3 4 4 5 5 6 6 7 7 9 9 10 10 15 11 14 12 16 13
REMARK SMILES IDX 13 14 17 15 12 16 18 17 11 18 1 20
REMARK H PARENT 7 8 12 19 1 21 1 22
ROOT
ATOM      1  C   UNL     1      45.235 130.952  16.234  1.00  0.00     0.154 A 
ATOM      2  C   UNL     1      46.079 131.747  15.429  1.00  0.00     0.078 A 
ATOM      3  C   UNL     1      46.935 131.121  14.514  1.00  0.00     0.070 A 
ATOM      4  C   UNL     1      46.939 129.733  14.397  1.00  0.00     0.141 A 
ATOM      5  F   UNL     1      47.765 129.125  13.512  1.00  0.00    -0.205 F 
ATOM      6  C   UNL     1      46.078 128.979  15.191  1.00  0.00     0.123 A 
ATOM      7  N   UNL     1      45.247 129.589  16.078  1.00  0.00    -0.342 N 
ATOM      8  H   UNL     1      44.591 128.976  16.609  1.00  0.00     0.168 HD
ENDROOT
BRANCH   1   9
ATOM      9  N   UNL     1      44.435 131.536  17.085  1.00  0.00    -0.228 NA
BRANCH   9  10
ATOM     10  C   UNL     1      44.422 131.387  18.512  1.00  0.00     0.082 A 
ATOM     11  C   UNL     1      43.111 131.732  22.804  1.00  0.00     0.114 A 
ATOM     12  N   UNL     1      44.347 131.204  22.602  1.00  0.00    -0.239 NA
ATOM     13  C   UNL     1      42.468 132.076  21.612  1.00  0.00     0.032 A 
ATOM     14  C   UNL     1      44.493 131.206  21.268  1.00  0.00     0.137 A 
ATOM     15  C   UNL     1      43.348 131.742  20.615  1.00  0.00     0.021 A 
ATOM     16  N   UNL     1      45.579 130.795  20.572  1.00  0.00    -0.344 N 
ATOM     17  C   UNL     1      43.304 131.849  19.234  1.00  0.00     0.042 A 
ATOM     18  C   UNL     1      45.563 130.888  19.206  1.00  0.00     0.112 A 
ATOM     19  H   UNL     1      46.420 130.423  21.068  1.00  0.00     0.168 HD
ENDBRANCH   9  10
ENDBRANCH   1   9
BRANCH   2  20
ATOM     20  N   UNL     1      46.085 133.177  15.537  1.00  0.00    -0.396 N 
ATOM     21  H   UNL     1      46.157 133.790  14.695  1.00  0.00     0.156 HD
ATOM     22  H   UNL     1      46.018 133.639  16.471  1.00  0.00     0.156 HD
ENDBRANCH   2  20
TORSDOF 3
ENDMDL


