MODEL 1
REMARK VINA RESULT:      -8.9      0.000      0.000
REMARK SMILES c1nc2cc(-c3ncc([C@H]4CO4)c[nH+]3)c[nH+]c2o1
REMARK SMILES IDX 1 1 2 2 3 3 4 4 5 5 15 6 16 7 17 8 18 9 6 11 7 12 14 13 8 14
REMARK SMILES IDX 13 15 9 16 10 18 11 19 12 20
REMARK H PARENT 16 10 14 17
ROOT
ATOM      1  C   UNL     1      47.777 129.805  13.380  1.00  0.00     0.316 A 
ATOM      2  N   UNL     1      47.637 129.190  14.586  1.00  0.00    -0.209 NA
ATOM      3  C   UNL     1      46.924 130.092  15.279  1.00  0.00     0.180 A 
ATOM      4  C   UNL     1      46.471 130.021  16.591  1.00  0.00     0.062 A 
ATOM      5  C   UNL     1      45.724 131.116  17.087  1.00  0.00     0.134 A 
ATOM      6  C   UNL     1      45.492 132.232  16.233  1.00  0.00     0.326 A 
ATOM      7  N   UNL     1      45.967 132.241  14.949  1.00  0.00    -0.177 N 
ATOM      8  C   UNL     1      46.668 131.171  14.505  1.00  0.00     0.399 A 
ATOM      9  O   UNL     1      47.197 130.996  13.327  1.00  0.00    -0.391 OA
ATOM     10  H   UNL     1      45.798 133.062  14.325  1.00  0.00     0.457 HD
ENDROOT
BRANCH   5  11
ATOM     11  C   UNL     1      45.223 131.095  18.484  1.00  0.00     0.334 A 
ATOM     12  N   UNL     1      44.078 131.764  18.791  1.00  0.00    -0.049 NA
ATOM     13  N   UNL     1      45.899 130.436  19.472  1.00  0.00    -0.243 N 
ATOM     14  C   UNL     1      43.579 131.773  20.053  1.00  0.00     0.264 A 
ATOM     15  C   UNL     1      45.430 130.421  20.749  1.00  0.00     0.208 A 
ATOM     16  C   UNL     1      44.240 131.080  21.068  1.00  0.00     0.066 A 
ATOM     17  H   UNL     1      46.804 129.956  19.276  1.00  0.00     0.312 HD
BRANCH  16  18
ATOM     18  C   UNL     1      43.726 131.109  22.477  1.00  0.00     0.181 C 
ATOM     19  C   UNL     1      42.955 129.921  22.913  1.00  0.00     0.198 C 
ATOM     20  O   UNL     1      44.308 130.095  23.264  1.00  0.00    -0.368 OA
ENDBRANCH  16  18
ENDBRANCH   5  11
TORSDOF 2
ENDMDL
MODEL 2
REMARK VINA RESULT:      -8.7      0.188      1.130
REMARK SMILES c1nc2cc(-c3ncc([C@H]4CO4)c[nH+]3)c[nH+]c2o1
REMARK SMILES IDX 1 1 2 2 3 3 4 4 5 5 15 6 16 7 17 8 18 9 6 11 7 12 14 13 8 14
REMARK SMILES IDX 13 15 9 16 10 18 11 19 12 20
REMARK H PARENT 16 10 14 17
ROOT
ATOM      1  C   UNL     1      47.660 129.893  13.459  1.00  0.00     0.316 A 
ATOM      2  N   UNL     1      47.460 129.262  14.649  1.00  0.00    -0.209 NA
ATOM      3  C   UNL     1      46.781 130.187  15.345  1.00  0.00     0.180 A 
ATOM      4  C   UNL     1      46.296 130.113  16.645  1.00  0.00     0.062 A 
ATOM      5  C   UNL     1      45.598 131.237  17.149  1.00  0.00     0.134 A 
ATOM      6  C   UNL     1      45.446 132.382  16.315  1.00  0.00     0.326 A 
ATOM      7  N   UNL     1      45.949 132.391  15.042  1.00  0.00    -0.177 N 
ATOM      8  C   UNL     1      46.602 131.294  14.590  1.00  0.00     0.399 A 
ATOM      9  O   UNL     1      47.147 131.115  13.420  1.00  0.00    -0.391 OA
ATOM     10  H   UNL     1      45.839 133.233  14.432  1.00  0.00     0.457 HD
ENDROOT
BRANCH   5  11
ATOM     11  C   UNL     1      45.064 131.215  18.534  1.00  0.00     0.334 A 
ATOM     12  N   UNL     1      45.815 130.668  19.529  1.00  0.00    -0.049 NA
ATOM     13  N   UNL     1      43.827 131.715  18.827  1.00  0.00    -0.243 N 
ATOM     14  C   UNL     1      45.371 130.626  20.811  1.00  0.00     0.264 A 
ATOM     15  C   UNL     1      43.347 131.692  20.099  1.00  0.00     0.208 A 
ATOM     16  C   UNL     1      44.122 131.159  21.133  1.00  0.00     0.066 A 
ATOM     17  H   UNL     1      43.210 132.096  18.077  1.00  0.00     0.312 HD
BRANCH  16  18
ATOM     18  C   UNL     1      43.597 131.089  22.537  1.00  0.00     0.181 C 
ATOM     19  C   UNL     1      42.930 129.823  22.920  1.00  0.00     0.198 C 
ATOM     20  O   UNL     1      44.259 130.101  23.292  1.00  0.00    -0.368 OA
ENDBRANCH  16  18
ENDBRANCH   5  11
TORSDOF 2
ENDMDL
MODEL 3
REMARK VINA RESULT:      -8.7      1.474      7.187
REMARK SMILES c1nc2cc(-c3ncc([C@H]4CO4)c[nH+]3)c[nH+]c2o1
REMARK SMILES IDX 1 1 2 2 3 3 4 4 5 5 15 6 16 7 17 8 18 9 6 11 7 12 14 13 8 14
REMARK SMILES IDX 13 15 9 16 10 18 11 19 12 20
REMARK H PARENT 16 10 14 17
ROOT
ATOM      1  C   UNL     1      42.659 131.992  22.672  1.00  0.00     0.316 A 
ATOM      2  N   UNL     1      42.388 132.210  21.355  1.00  0.00    -0.209 NA
ATOM      3  C   UNL     1      43.489 131.724  20.759  1.00  0.00     0.180 A 
ATOM      4  C   UNL     1      43.793 131.670  19.405  1.00  0.00     0.062 A 
ATOM      5  C   UNL     1      45.031 131.094  19.033  1.00  0.00     0.134 A 
ATOM      6  C   UNL     1      45.902 130.618  20.055  1.00  0.00     0.326 A 
ATOM      7  N   UNL     1      45.544 130.702  21.373  1.00  0.00    -0.177 N 
ATOM      8  C   UNL     1      44.347 131.250  21.691  1.00  0.00     0.399 A 
ATOM      9  O   UNL     1      43.834 131.416  22.878  1.00  0.00    -0.391 OA
ATOM     10  H   UNL     1      46.185 130.355  22.122  1.00  0.00     0.457 HD
ENDROOT
BRANCH   5  11
ATOM     11  C   UNL     1      45.409 131.018  17.599  1.00  0.00     0.334 A 
ATOM     12  N   UNL     1      46.003 129.889  17.126  1.00  0.00    -0.049 NA
ATOM     13  N   UNL     1      45.192 132.067  16.751  1.00  0.00    -0.243 N 
ATOM     14  C   UNL     1      46.366 129.771  15.823  1.00  0.00     0.264 A 
ATOM     15  C   UNL     1      45.540 131.987  15.438  1.00  0.00     0.208 A 
ATOM     16  C   UNL     1      46.124 130.821  14.936  1.00  0.00     0.066 A 
ATOM     17  H   UNL     1      44.783 132.962  17.096  1.00  0.00     0.312 HD
BRANCH  16  18
ATOM     18  C   UNL     1      46.551 130.727  13.500  1.00  0.00     0.181 C 
ATOM     19  C   UNL     1      47.870 131.316  13.174  1.00  0.00     0.198 C 
ATOM     20  O   UNL     1      47.702 129.929  13.351  1.00  0.00    -0.368 OA
ENDBRANCH  16  18
ENDBRANCH   5  11
TORSDOF 2
ENDMDL
MODEL 4
REMARK VINA RESULT:      -8.6      1.472      7.124
REMARK SMILES c1nc2cc(-c3ncc([C@H]4CO4)c[nH+]3)c[nH+]c2o1
REMARK SMILES IDX 1 1 2 2 3 3 4 4 5 5 15 6 16 7 17 8 18 9 6 11 7 12 14 13 8 14
REMARK SMILES IDX 13 15 9 16 10 18 11 19 12 20
REMARK H PARENT 16 10 14 17
ROOT
ATOM      1  C   UNL     1      42.670 131.894  22.880  1.00  0.00     0.316 A 
ATOM      2  N   UNL     1      42.388 132.105  21.565  1.00  0.00    -0.209 NA
ATOM      3  C   UNL     1      43.493 131.636  20.964  1.00  0.00     0.180 A 
ATOM      4  C   UNL     1      43.789 131.585  19.607  1.00  0.00     0.062 A 
ATOM      5  C   UNL     1      45.034 131.028  19.228  1.00  0.00     0.134 A 
ATOM      6  C   UNL     1      45.920 130.569  20.246  1.00  0.00     0.326 A 
ATOM      7  N   UNL     1      45.568 130.648  21.567  1.00  0.00    -0.177 N 
ATOM      8  C   UNL     1      44.364 131.178  21.891  1.00  0.00     0.399 A 
ATOM      9  O   UNL     1      43.856 131.337  23.081  1.00  0.00    -0.391 OA
ATOM     10  H   UNL     1      46.219 130.314  22.312  1.00  0.00     0.457 HD
ENDROOT
BRANCH   5  11
ATOM     11  C   UNL     1      45.405 130.956  17.793  1.00  0.00     0.334 A 
ATOM     12  N   UNL     1      44.947 131.910  16.937  1.00  0.00    -0.049 NA
ATOM     13  N   UNL     1      46.180 129.940  17.310  1.00  0.00    -0.243 N 
ATOM     14  C   UNL     1      45.260 131.888  15.617  1.00  0.00     0.264 A 
ATOM     15  C   UNL     1      46.517 129.883  15.993  1.00  0.00     0.208 A 
ATOM     16  C   UNL     1      46.075 130.874  15.112  1.00  0.00     0.066 A 
ATOM     17  H   UNL     1      46.505 129.168  17.932  1.00  0.00     0.312 HD
BRANCH  16  18
ATOM     18  C   UNL     1      46.403 130.809  13.649  1.00  0.00     0.181 C 
ATOM     19  C   UNL     1      47.752 131.283  13.263  1.00  0.00     0.198 C 
ATOM     20  O   UNL     1      47.458 129.912  13.391  1.00  0.00    -0.368 OA
ENDBRANCH  16  18
ENDBRANCH   5  11
TORSDOF 2
ENDMDL
MODEL 5
REMARK VINA RESULT:      -8.5      1.804      7.096
REMARK SMILES c1nc2cc(-c3ncc([C@H]4CO4)c[nH+]3)c[nH+]c2o1
REMARK SMILES IDX 1 1 2 2 3 3 4 4 5 5 15 6 16 7 17 8 18 9 6 11 7 12 14 13 8 14
REMARK SMILES IDX 13 15 9 16 10 18 11 19 12 20
REMARK H PARENT 16 10 14 17
ROOT
ATOM      1  C   UNL     1      43.320 131.796  22.987  1.00  0.00     0.316 A 
ATOM      2  N   UNL     1      44.383 131.370  22.252  1.00  0.00    -0.209 NA
ATOM      3  C   UNL     1      43.945 131.551  20.996  1.00  0.00     0.180 A 
ATOM      4  C   UNL     1      44.602 131.289  19.800  1.00  0.00     0.062 A 
ATOM      5  C   UNL     1      43.914 131.581  18.597  1.00  0.00     0.134 A 
ATOM      6  C   UNL     1      42.591 132.104  18.671  1.00  0.00     0.326 A 
ATOM      7  N   UNL     1      42.000 132.338  19.883  1.00  0.00    -0.177 N 
ATOM      8  C   UNL     1      42.692 132.058  21.013  1.00  0.00     0.399 A 
ATOM      9  O   UNL     1      42.301 132.210  22.247  1.00  0.00    -0.391 OA
ATOM     10  H   UNL     1      41.028 132.720  19.936  1.00  0.00     0.457 HD
ENDROOT
BRANCH   5  11
ATOM     11  C   UNL     1      44.567 131.314  17.290  1.00  0.00     0.334 A 
ATOM     12  N   UNL     1      45.666 130.513  17.245  1.00  0.00    -0.049 NA
ATOM     13  N   UNL     1      44.097 131.872  16.135  1.00  0.00    -0.243 N 
ATOM     14  C   UNL     1      46.296 130.238  16.075  1.00  0.00     0.264 A 
ATOM     15  C   UNL     1      44.700 131.620  14.942  1.00  0.00     0.208 A 
ATOM     16  C   UNL     1      45.812 130.776  14.881  1.00  0.00     0.066 A 
ATOM     17  H   UNL     1      43.287 132.529  16.146  1.00  0.00     0.312 HD
BRANCH  16  18
ATOM     18  C   UNL     1      46.515 130.515  13.582  1.00  0.00     0.181 C 
ATOM     19  C   UNL     1      47.746 131.303  13.338  1.00  0.00     0.198 C 
ATOM     20  O   UNL     1      47.798 129.968  13.784  1.00  0.00    -0.368 OA
ENDBRANCH  16  18
ENDBRANCH   5  11
TORSDOF 2
ENDMDL
MODEL 6
REMARK VINA RESULT:      -8.4      1.661      6.995
REMARK SMILES c1nc2cc(-c3ncc([C@H]4CO4)c[nH+]3)c[nH+]c2o1
REMARK SMILES IDX 1 1 2 2 3 3 4 4 5 5 15 6 16 7 17 8 18 9 6 11 7 12 14 13 8 14
REMARK SMILES IDX 13 15 9 16 10 18 11 19 12 20
REMARK H PARENT 16 10 14 17
ROOT
ATOM      1  C   UNL     1      43.546 131.579  22.887  1.00  0.00     0.316 A 
ATOM      2  N   UNL     1      44.615 131.171  22.150  1.00  0.00    -0.209 NA
ATOM      3  C   UNL     1      44.182 131.371  20.895  1.00  0.00     0.180 A 
ATOM      4  C   UNL     1      44.846 131.134  19.698  1.00  0.00     0.062 A 
ATOM      5  C   UNL     1      44.162 131.441  18.497  1.00  0.00     0.134 A 
ATOM      6  C   UNL     1      42.836 131.956  18.574  1.00  0.00     0.326 A 
ATOM      7  N   UNL     1      42.237 132.166  19.787  1.00  0.00    -0.177 N 
ATOM      8  C   UNL     1      42.925 131.870  20.915  1.00  0.00     0.399 A 
ATOM      9  O   UNL     1      42.528 131.999  22.149  1.00  0.00    -0.391 OA
ATOM     10  H   UNL     1      41.263 132.540  19.842  1.00  0.00     0.457 HD
ENDROOT
BRANCH   5  11
ATOM     11  C   UNL     1      44.822 131.200  17.189  1.00  0.00     0.334 A 
ATOM     12  N   UNL     1      44.300 131.764  16.065  1.00  0.00    -0.049 NA
ATOM     13  N   UNL     1      45.929 130.406  17.087  1.00  0.00    -0.243 N 
ATOM     14  C   UNL     1      44.869 131.575  14.847  1.00  0.00     0.264 A 
ATOM     15  C   UNL     1      46.528 130.193  15.885  1.00  0.00     0.208 A 
ATOM     16  C   UNL     1      46.018 130.792  14.730  1.00  0.00     0.066 A 
ATOM     17  H   UNL     1      46.321 129.922  17.924  1.00  0.00     0.312 HD
BRANCH  16  18
ATOM     18  C   UNL     1      46.640 130.539  13.388  1.00  0.00     0.181 C 
ATOM     19  C   UNL     1      47.899 131.267  13.107  1.00  0.00     0.198 C 
ATOM     20  O   UNL     1      47.899 129.917  13.507  1.00  0.00    -0.368 OA
ENDBRANCH  16  18
ENDBRANCH   5  11
TORSDOF 2
ENDMDL
MODEL 7
REMARK VINA RESULT:      -8.0      1.166      1.193
REMARK SMILES c1nc2cc(-c3ncc([C@H]4CO4)c[nH+]3)c[nH+]c2o1
REMARK SMILES IDX 1 1 2 2 3 3 4 4 5 5 15 6 16 7 17 8 18 9 6 11 7 12 14 13 8 14
REMARK SMILES IDX 13 15 9 16 10 18 11 19 12 20
REMARK H PARENT 16 10 14 17
ROOT
ATOM      1  C   UNL     1      46.895 130.364  13.682  1.00  0.00     0.316 A 
ATOM      2  N   UNL     1      47.210 130.155  14.990  1.00  0.00    -0.209 NA
ATOM      3  C   UNL     1      46.128 130.640  15.619  1.00  0.00     0.180 A 
ATOM      4  C   UNL     1      45.870 130.702  16.983  1.00  0.00     0.062 A 
ATOM      5  C   UNL     1      44.635 131.261  17.392  1.00  0.00     0.134 A 
ATOM      6  C   UNL     1      43.736 131.743  16.397  1.00  0.00     0.326 A 
ATOM      7  N   UNL     1      44.051 131.654  15.068  1.00  0.00    -0.177 N 
ATOM      8  C   UNL     1      45.237 131.104  14.714  1.00  0.00     0.399 A 
ATOM      9  O   UNL     1      45.710 130.934  13.511  1.00  0.00    -0.391 OA
ATOM     10  H   UNL     1      43.392 132.010  14.340  1.00  0.00     0.457 HD
ENDROOT
BRANCH   5  11
ATOM     11  C   UNL     1      44.311 131.358  18.837  1.00  0.00     0.334 A 
ATOM     12  N   UNL     1      43.132 131.920  19.220  1.00  0.00    -0.049 NA
ATOM     13  N   UNL     1      45.182 130.914  19.792  1.00  0.00    -0.243 N 
ATOM     14  C   UNL     1      42.791 132.030  20.529  1.00  0.00     0.264 A 
ATOM     15  C   UNL     1      44.876 131.006  21.114  1.00  0.00     0.208 A 
ATOM     16  C   UNL     1      43.655 131.555  21.516  1.00  0.00     0.066 A 
ATOM     17  H   UNL     1      46.114 130.524  19.530  1.00  0.00     0.312 HD
BRANCH  16  18
ATOM     18  C   UNL     1      43.314 131.700  22.970  1.00  0.00     0.181 C 
ATOM     19  C   UNL     1      42.886 130.464  23.665  1.00  0.00     0.198 C 
ATOM     20  O   UNL     1      44.196 130.966  23.787  1.00  0.00    -0.368 OA
ENDBRANCH  16  18
ENDBRANCH   5  11
TORSDOF 2
ENDMDL
MODEL 8
REMARK VINA RESULT:      -7.8      1.294      1.782
REMARK SMILES c1nc2cc(-c3ncc([C@H]4CO4)c[nH+]3)c[nH+]c2o1
REMARK SMILES IDX 1 1 2 2 3 3 4 4 5 5 15 6 16 7 17 8 18 9 6 11 7 12 14 13 8 14
REMARK SMILES IDX 13 15 9 16 10 18 11 19 12 20
REMARK H PARENT 16 10 14 17
ROOT
ATOM      1  C   UNL     1      46.790 130.436  13.641  1.00  0.00     0.316 A 
ATOM      2  N   UNL     1      47.160 130.107  14.909  1.00  0.00    -0.209 NA
ATOM      3  C   UNL     1      46.145 130.602  15.634  1.00  0.00     0.180 A 
ATOM      4  C   UNL     1      45.963 130.571  17.011  1.00  0.00     0.062 A 
ATOM      5  C   UNL     1      44.788 131.166  17.532  1.00  0.00     0.134 A 
ATOM      6  C   UNL     1      43.870 131.777  16.629  1.00  0.00     0.326 A 
ATOM      7  N   UNL     1      44.109 131.775  15.282  1.00  0.00    -0.177 N 
ATOM      8  C   UNL     1      45.238 131.187  14.819  1.00  0.00     0.399 A 
ATOM      9  O   UNL     1      45.636 131.086  13.582  1.00  0.00    -0.391 OA
ATOM     10  H   UNL     1      43.436 132.226  14.621  1.00  0.00     0.457 HD
ENDROOT
BRANCH   5  11
ATOM     11  C   UNL     1      44.547 131.167  18.996  1.00  0.00     0.334 A 
ATOM     12  N   UNL     1      45.489 130.642  19.827  1.00  0.00    -0.049 NA
ATOM     13  N   UNL     1      43.390 131.665  19.526  1.00  0.00    -0.243 N 
ATOM     14  C   UNL     1      45.315 130.621  21.173  1.00  0.00     0.264 A 
ATOM     15  C   UNL     1      43.179 131.664  20.869  1.00  0.00     0.208 A 
ATOM     16  C   UNL     1      44.153 131.153  21.733  1.00  0.00     0.066 A 
ATOM     17  H   UNL     1      42.630 132.028  18.910  1.00  0.00     0.312 HD
BRANCH  16  18
ATOM     18  C   UNL     1      43.924 131.107  23.215  1.00  0.00     0.181 C 
ATOM     19  C   UNL     1      44.160 132.371  23.950  1.00  0.00     0.198 C 
ATOM     20  O   UNL     1      42.863 131.948  23.604  1.00  0.00    -0.368 OA
ENDBRANCH  16  18
ENDBRANCH   5  11
TORSDOF 2
ENDMDL
MODEL 9
REMARK VINA RESULT:      -7.7      1.074      1.954
REMARK SMILES c1nc2cc(-c3ncc([C@H]4CO4)c[nH+]3)c[nH+]c2o1
REMARK SMILES IDX 1 1 2 2 3 3 4 4 5 5 15 6 16 7 17 8 18 9 6 11 7 12 14 13 8 14
REMARK SMILES IDX 13 15 9 16 10 18 11 19 12 20
REMARK H PARENT 16 10 14 17
ROOT
ATOM      1  C   UNL     1      47.711 130.959  12.945  1.00  0.00     0.316 A 
ATOM      2  N   UNL     1      47.360 131.898  13.865  1.00  0.00    -0.209 NA
ATOM      3  C   UNL     1      46.744 131.158  14.800  1.00  0.00     0.180 A 
ATOM      4  C   UNL     1      46.164 131.570  15.994  1.00  0.00     0.062 A 
ATOM      5  C   UNL     1      45.580 130.577  16.816  1.00  0.00     0.134 A 
ATOM      6  C   UNL     1      45.598 129.222  16.376  1.00  0.00     0.326 A 
ATOM      7  N   UNL     1      46.185 128.881  15.188  1.00  0.00    -0.177 N 
ATOM      8  C   UNL     1      46.744 129.857  14.432  1.00  0.00     0.399 A 
ATOM      9  O   UNL     1      47.343 129.731  13.281  1.00  0.00    -0.391 OA
ATOM     10  H   UNL     1      46.196 127.888  14.865  1.00  0.00     0.457 HD
ENDROOT
BRANCH   5  11
ATOM     11  C   UNL     1      44.940 130.964  18.099  1.00  0.00     0.334 A 
ATOM     12  N   UNL     1      45.571 130.681  19.271  1.00  0.00    -0.049 NA
ATOM     13  N   UNL     1      43.720 131.578  18.127  1.00  0.00    -0.243 N 
ATOM     14  C   UNL     1      45.028 131.016  20.468  1.00  0.00     0.264 A 
ATOM     15  C   UNL     1      43.142 131.930  19.307  1.00  0.00     0.208 A 
ATOM     16  C   UNL     1      43.796 131.671  20.515  1.00  0.00     0.066 A 
ATOM     17  H   UNL     1      43.190 131.763  17.248  1.00  0.00     0.312 HD
BRANCH  16  18
ATOM     18  C   UNL     1      43.159 132.016  21.828  1.00  0.00     0.181 C 
ATOM     19  C   UNL     1      43.008 130.901  22.791  1.00  0.00     0.198 C 
ATOM     20  O   UNL     1      44.053 131.838  22.903  1.00  0.00    -0.368 OA
ENDBRANCH  16  18
ENDBRANCH   5  11
TORSDOF 2
ENDMDL


