REMARK SMILES C=Cc1cc(-c2ccc(C)c3[nH+][nH]cc23)ccc1[O-]
REMARK SMILES IDX 3 1 4 2 5 3 16 4 17 5 18 6 19 7 2 8 1 9 6 10 7 11 15 12 8 13
REMARK SMILES IDX 14 14 11 15 9 16 13 17 12 18 10 19
REMARK H PARENT 13 20 12 21
ROOT
ATOM      1  C   UNL     1       2.142   1.931  -1.691  1.00  0.00    -0.034 A 
ATOM      2  C   UNL     1       1.202   0.945  -1.326  1.00  0.00     0.016 A 
ATOM      3  C   UNL     1       0.926   0.679   0.026  1.00  0.00    -0.017 A 
ATOM      4  C   UNL     1       1.621   1.385   1.020  1.00  0.00     0.008 A 
ATOM      5  C   UNL     1       2.566   2.349   0.669  1.00  0.00    -0.007 A 
ATOM      6  C   UNL     1       2.830   2.624  -0.676  1.00  0.00    -0.102 A 
ATOM      7  O   UNL     1       3.774   3.595  -0.993  1.00  0.00    -0.872 OA
ENDROOT
BRANCH   1   8
ATOM      8  C   UNL     1       2.448   2.225  -3.114  1.00  0.00    -0.001 C 
ATOM      9  C   UNL     1       1.601   1.992  -4.118  1.00  0.00     0.009 C 
ENDBRANCH   1   8
BRANCH   3  10
ATOM     10  C   UNL     1      -0.063  -0.358   0.403  1.00  0.00    -0.003 A 
ATOM     11  C   UNL     1       0.246  -1.335   1.377  1.00  0.00     0.010 A 
ATOM     12  C   UNL     1      -1.338  -0.422  -0.177  1.00  0.00     0.078 A 
ATOM     13  C   UNL     1      -0.692  -2.330   1.731  1.00  0.00     0.011 A 
ATOM     14  C   UNL     1      -1.988   0.380  -1.097  1.00  0.00     0.163 A 
ATOM     15  C   UNL     1      -2.250  -1.388   0.170  1.00  0.00     0.239 A 
ATOM     16  C   UNL     1      -1.964  -2.371   1.122  1.00  0.00     0.024 A 
ATOM     17  N   UNL     1      -3.230  -0.122  -1.278  1.00  0.00    -0.174 N 
ATOM     18  N   UNL     1      -3.392  -1.192  -0.512  1.00  0.00    -0.126 N 
ATOM     19  C   UNL     1      -2.978  -3.410   1.500  1.00  0.00     0.052 C 
ATOM     20  H   UNL     1      -3.964   0.269  -1.909  1.00  0.00     0.238 HD
ATOM     21  H   UNL     1      -4.269  -1.757  -0.456  1.00  0.00     0.488 HD
ENDBRANCH   3  10
TORSDOF 2


