REMARK SMILES C=C1[C@H]2N=C(c3ncncc3F)C[C@H]2[C@H](Nc2cccc(N)c2[O-])C[C@@H]1F
REMARK SMILES IDX 16 1 15 3 2 4 26 5 3 6 25 7 4 8 14 9 5 10 13 11 1 12 27 13
REMARK SMILES IDX 6 14 7 15 11 16 8 17 10 18 9 19 12 20 17 21 18 22 23 23
REMARK SMILES IDX 19 24 21 25 20 26 24 27 22 28
REMARK H PARENT 16 2 22 29 22 30
ROOT
ATOM      1  N   UNL     1       1.410   1.272   1.498  1.00  0.00    -0.382 N 
ATOM      2  H   UNL     1       1.349   1.097   2.528  1.00  0.00     0.160 HD
ENDROOT
BRANCH   1   3
ATOM      3  C   UNL     1       0.268   1.917   0.842  1.00  0.00     0.088 C 
ATOM      4  C   UNL     1      -2.187   3.364   0.363  1.00  0.00    -0.019 C 
ATOM      5  C   UNL     1      -0.885   4.128   0.499  1.00  0.00     0.196 C 
ATOM      6  C   UNL     1      -2.308   1.881   0.685  1.00  0.00     0.139 C 
ATOM      7  C   UNL     1       0.174   3.370   1.300  1.00  0.00     0.067 C 
ATOM      8  N   UNL     1      -2.687   1.133  -0.501  1.00  0.00    -0.279 NA
ATOM      9  C   UNL     1      -1.034   1.173   1.205  1.00  0.00     0.046 C 
ATOM     10  C   UNL     1      -2.058   0.012  -0.581  1.00  0.00     0.065 C 
ATOM     11  C   UNL     1      -1.089  -0.205   0.525  1.00  0.00     0.066 C 
ATOM     12  C   UNL     1      -3.269   4.010  -0.100  1.00  0.00     0.013 C 
ATOM     13  F   UNL     1      -1.114   5.346   1.119  1.00  0.00    -0.243 F 
BRANCH  10  14
ATOM     14  C   UNL     1      -2.263  -0.944  -1.691  1.00  0.00     0.123 A 
ATOM     15  N   UNL     1      -1.489  -2.062  -1.749  1.00  0.00    -0.232 NA
ATOM     16  C   UNL     1      -3.214  -0.721  -2.703  1.00  0.00     0.168 A 
ATOM     17  C   UNL     1      -1.616  -2.962  -2.760  1.00  0.00     0.222 A 
ATOM     18  C   UNL     1      -3.329  -1.660  -3.730  1.00  0.00     0.154 A 
ATOM     19  N   UNL     1      -2.535  -2.761  -3.738  1.00  0.00    -0.242 NA
ATOM     20  F   UNL     1      -4.024   0.367  -2.698  1.00  0.00    -0.203 F 
ENDBRANCH  10  14
ENDBRANCH   1   3
BRANCH   1  21
ATOM     21  C   UNL     1       2.550   0.769   0.782  1.00  0.00     0.028 A 
ATOM     22  C   UNL     1       3.052   1.446  -0.344  1.00  0.00     0.025 A 
ATOM     23  C   UNL     1       3.197  -0.399   1.228  1.00  0.00    -0.061 A 
ATOM     24  C   UNL     1       4.164   0.950  -1.027  1.00  0.00     0.004 A 
ATOM     25  C   UNL     1       4.315  -0.901   0.535  1.00  0.00     0.025 A 
ATOM     26  C   UNL     1       4.791  -0.220  -0.593  1.00  0.00     0.025 A 
ATOM     27  O   UNL     1       2.718  -1.066   2.351  1.00  0.00    -0.870 OA
BRANCH  25  28
ATOM     28  N   UNL     1       4.969  -2.098   0.970  1.00  0.00    -0.399 N 
ATOM     29  H   UNL     1       4.641  -2.621   1.811  1.00  0.00     0.156 HD
ATOM     30  H   UNL     1       5.798  -2.470   0.457  1.00  0.00     0.156 HD
ENDBRANCH  25  28
ENDBRANCH   1  21
TORSDOF 4


