REMARK SMILES Cc1ccc(NCCC[Si](C)(C)C)c(-c2ccc3c(c2)[N-]C(=O)C3)c1
REMARK SMILES IDX 7 1 6 2 5 4 2 5 3 6 25 7 4 8 14 9 1 10 15 11 16 12 20 13
REMARK SMILES IDX 17 14 19 15 18 16 21 17 24 18 22 19 23 20 8 21 9 22 10 23
REMARK SMILES IDX 11 24 12 25 13 26
REMARK H PARENT 6 3
ROOT
ATOM      1  C   UNL     1       1.768   0.956  -1.432  1.00  0.00     0.112 C 
ENDROOT
BRANCH   1   2
ATOM      2  N   UNL     1       1.266  -0.196  -0.678  1.00  0.00    -0.385 N 
ATOM      3  H   UNL     1       1.527  -0.240   0.333  1.00  0.00     0.160 HD
BRANCH   2   4
ATOM      4  C   UNL     1       0.460  -1.257  -1.241  1.00  0.00     0.042 A 
ATOM      5  C   UNL     1      -0.984  -3.430  -2.327  1.00  0.00    -0.050 A 
ATOM      6  C   UNL     1      -0.281  -2.558  -3.166  1.00  0.00     0.005 A 
ATOM      7  C   UNL     1      -0.995  -3.195  -0.946  1.00  0.00     0.014 A 
ATOM      8  C   UNL     1       0.440  -1.490  -2.631  1.00  0.00     0.026 A 
ATOM      9  C   UNL     1      -0.286  -2.115  -0.396  1.00  0.00     0.005 A 
ATOM     10  C   UNL     1      -1.785  -4.557  -2.908  1.00  0.00     0.044 C 
BRANCH   9  11
ATOM     11  C   UNL     1      -0.384  -1.877   1.057  1.00  0.00    -0.018 A 
ATOM     12  C   UNL     1      -1.006  -0.703   1.542  1.00  0.00     0.009 A 
ATOM     13  C   UNL     1       0.120  -2.829   1.966  1.00  0.00    -0.007 A 
ATOM     14  C   UNL     1      -1.106  -0.467   2.921  1.00  0.00     0.003 A 
ATOM     15  C   UNL     1       0.007  -2.571   3.331  1.00  0.00    -0.130 A 
ATOM     16  C   UNL     1      -0.587  -1.418   3.798  1.00  0.00    -0.057 A 
ATOM     17  N   UNL     1       0.466  -3.415   4.374  1.00  0.00    -0.626 NA
ATOM     18  C   UNL     1      -0.577  -1.391   5.286  1.00  0.00     0.089 C 
ATOM     19  C   UNL     1       0.110  -2.696   5.554  1.00  0.00     0.059 C 
ATOM     20  O   UNL     1       0.357  -3.130   6.709  1.00  0.00    -0.320 OA
ENDBRANCH   9  11
ENDBRANCH   2   4
ENDBRANCH   1   2
BRANCH   1  21
ATOM     21  C   UNL     1       0.618   1.877  -1.857  1.00  0.00     0.018 C 
BRANCH  21  22
ATOM     22  C   UNL     1       0.030   2.627  -0.656  1.00  0.00    -0.009 C 
BRANCH  22  23
ATOM     23  Si  UNL     1      -1.560   3.516  -1.104  1.00  0.00     0.044 Si
ATOM     24  C   UNL     1      -1.276   4.664  -2.550  1.00  0.00    -0.010 C 
ATOM     25  C   UNL     1      -2.885   2.273  -1.540  1.00  0.00    -0.010 C 
ATOM     26  C   UNL     1      -2.126   4.512   0.369  1.00  0.00    -0.010 C 
ENDBRANCH  22  23
ENDBRANCH  21  22
ENDBRANCH   1  21
TORSDOF 6


