REMARK SMILES C/C=C(C)/C(O)=[N+]1\C[C@@H](c2ccc3c(C)[nH]nc3c2)[C@H](C)C[C@H]1F
REMARK SMILES IDX 5 1 6 2 3 4 4 5 2 6 1 7 7 8 8 9 23 10 9 11 22 12 20 13 24 14
REMARK SMILES IDX 21 15 10 16 11 17 19 18 12 19 18 20 13 21 17 22 14 23 16 24
REMARK SMILES IDX 15 25
REMARK H PARENT 6 3 16 26
ROOT
ATOM      1  C   UNL     1      -1.180   1.328  -3.395  1.00  0.00     0.365 C 
ENDROOT
BRANCH   1   2
ATOM      2  O   UNL     1      -1.965   2.208  -4.145  1.00  0.00    -0.460 OA
ATOM      3  H   UNL     1      -2.323   1.951  -5.057  1.00  0.00     0.300 HD
ENDBRANCH   1   2
BRANCH   1   4
ATOM      4  C   UNL     1      -0.879   0.006  -3.994  1.00  0.00     0.056 C 
ATOM      5  C   UNL     1      -1.476  -1.230  -3.373  1.00  0.00     0.055 C 
BRANCH   4   6
ATOM      6  C   UNL     1      -0.159  -0.046  -5.126  1.00  0.00    -0.017 C 
ATOM      7  C   UNL     1       0.165  -1.326  -5.836  1.00  0.00     0.036 C 
ENDBRANCH   4   6
ENDBRANCH   1   4
BRANCH   1   8
ATOM      8  N   UNL     1      -0.743   1.681  -2.203  1.00  0.00    -0.166 N 
ATOM      9  C   UNL     1       0.224   0.880  -1.426  1.00  0.00     0.366 C 
ATOM     10  C   UNL     1      -1.137   2.966  -1.592  1.00  0.00     0.445 C 
ATOM     11  C   UNL     1      -0.345   0.585  -0.027  1.00  0.00     0.088 C 
ATOM     12  C   UNL     1      -1.705   2.724  -0.187  1.00  0.00     0.119 C 
ATOM     13  C   UNL     1      -0.735   1.906   0.690  1.00  0.00     0.009 C 
ATOM     14  F   UNL     1      -0.037   3.803  -1.519  1.00  0.00    -0.175 F 
ATOM     15  C   UNL     1      -1.379   1.635   2.059  1.00  0.00     0.009 C 
BRANCH  11  16
ATOM     16  C   UNL     1       0.640  -0.245   0.778  1.00  0.00    -0.036 A 
ATOM     17  C   UNL     1       0.293  -1.568   1.169  1.00  0.00     0.005 A 
ATOM     18  C   UNL     1       1.908   0.277   1.140  1.00  0.00     0.035 A 
ATOM     19  C   UNL     1       1.186  -2.360   1.913  1.00  0.00     0.012 A 
ATOM     20  C   UNL     1       2.765  -0.533   1.878  1.00  0.00     0.093 A 
ATOM     21  C   UNL     1       2.414  -1.800   2.252  1.00  0.00     0.023 A 
ATOM     22  N   UNL     1       4.006  -0.240   2.309  1.00  0.00    -0.175 NA
ATOM     23  C   UNL     1       3.499  -2.280   2.949  1.00  0.00     0.040 A 
ATOM     24  N   UNL     1       4.446  -1.314   2.957  1.00  0.00    -0.282 N 
ATOM     25  C   UNL     1       3.667  -3.647   3.528  1.00  0.00     0.067 C 
ATOM     26  H   UNL     1       5.392  -1.384   3.394  1.00  0.00     0.190 HD
ENDBRANCH  11  16
ENDBRANCH   1   8
TORSDOF 5


