MODEL 1
REMARK VINA RESULT:      -9.2      0.000      0.000
REMARK SMILES Cc1[nH][nH+]c2c1ccc1c(NN)cccc12
REMARK SMILES IDX 11 1 10 3 2 4 3 5 6 6 4 7 5 8 7 9 16 10 8 11 15 12 9 13
REMARK SMILES IDX 14 14 13 15 1 16 12 19
REMARK H PARENT 11 2 3 17 4 18 12 20 12 21
ROOT
ATOM      1  N   UNL     1      47.471 129.796  15.392  1.00  0.00    -0.324 N 
ATOM      2  H   UNL     1      48.176 130.011  16.132  1.00  0.00     0.181 HD
ENDROOT
BRANCH   1   3
ATOM      3  C   UNL     1      46.166 130.405  15.431  1.00  0.00     0.057 A 
ATOM      4  C   UNL     1      43.353 131.762  20.031  1.00  0.00     0.084 A 
ATOM      5  N   UNL     1      42.308 132.360  19.419  1.00  0.00    -0.171 N 
ATOM      6  C   UNL     1      44.224 131.323  19.056  1.00  0.00     0.074 A 
ATOM      7  N   UNL     1      42.479 132.300  18.104  1.00  0.00    -0.125 N 
ATOM      8  C   UNL     1      43.646 131.670  17.864  1.00  0.00     0.243 A 
ATOM      9  C   UNL     1      45.441 130.658  19.126  1.00  0.00     0.018 A 
ATOM     10  C   UNL     1      44.256 131.374  16.636  1.00  0.00     0.058 A 
ATOM     11  C   UNL     1      46.089 130.343  17.920  1.00  0.00     0.012 A 
ATOM     12  C   UNL     1      43.656 131.701  15.413  1.00  0.00     0.016 A 
ATOM     13  C   UNL     1      45.522 130.707  16.661  1.00  0.00     0.013 A 
ATOM     14  C   UNL     1      44.288 131.373  14.216  1.00  0.00     0.003 A 
ATOM     15  C   UNL     1      45.526 130.732  14.222  1.00  0.00     0.028 A 
ATOM     16  C   UNL     1      43.539 131.672  21.512  1.00  0.00     0.071 C 
ATOM     17  H   UNL     1      41.488 132.809  19.887  1.00  0.00     0.238 HD
ATOM     18  H   UNL     1      41.809 132.693  17.407  1.00  0.00     0.488 HD
ENDBRANCH   1   3
BRANCH   1  19
ATOM     19  N   UNL     1      47.891 129.058  14.275  1.00  0.00    -0.250 NA
ATOM     20  H   UNL     1      48.903 128.838  14.414  1.00  0.00     0.143 HD
ATOM     21  H   UNL     1      47.374 128.150  14.293  1.00  0.00     0.143 HD
ENDBRANCH   1  19
TORSDOF 2
ENDMDL
MODEL 2
REMARK VINA RESULT:      -9.0      0.977      5.723
REMARK SMILES Cc1[nH][nH+]c2c1ccc1c(NN)cccc12
REMARK SMILES IDX 11 1 10 3 2 4 3 5 6 6 4 7 5 8 7 9 16 10 8 11 15 12 9 13
REMARK SMILES IDX 14 14 13 15 1 16 12 19
REMARK H PARENT 11 2 3 17 4 18 12 20 12 21
ROOT
ATOM      1  N   UNL     1      41.991 132.826  19.361  1.00  0.00    -0.324 N 
ATOM      2  H   UNL     1      41.702 133.250  18.451  1.00  0.00     0.181 HD
ENDROOT
BRANCH   1   3
ATOM      3  C   UNL     1      43.187 132.029  19.446  1.00  0.00     0.057 A 
ATOM      4  C   UNL     1      46.294 130.367  15.144  1.00  0.00     0.084 A 
ATOM      5  N   UNL     1      47.277 129.781  15.863  1.00  0.00    -0.171 N 
ATOM      6  C   UNL     1      45.364 130.874  16.028  1.00  0.00     0.074 A 
ATOM      7  N   UNL     1      46.996 129.887  17.156  1.00  0.00    -0.125 N 
ATOM      8  C   UNL     1      45.829 130.554  17.275  1.00  0.00     0.243 A 
ATOM      9  C   UNL     1      44.177 131.568  15.833  1.00  0.00     0.018 A 
ATOM     10  C   UNL     1      45.130 130.912  18.437  1.00  0.00     0.058 A 
ATOM     11  C   UNL     1      43.444 131.948  16.970  1.00  0.00     0.012 A 
ATOM     12  C   UNL     1      45.586 130.561  19.715  1.00  0.00     0.016 A 
ATOM     13  C   UNL     1      43.911 131.646  18.284  1.00  0.00     0.013 A 
ATOM     14  C   UNL     1      44.851 130.922  20.841  1.00  0.00     0.003 A 
ATOM     15  C   UNL     1      43.667 131.645  20.711  1.00  0.00     0.028 A 
ATOM     16  C   UNL     1      46.281 130.488  13.654  1.00  0.00     0.071 C 
ATOM     17  H   UNL     1      48.133 129.318  15.482  1.00  0.00     0.238 HD
ATOM     18  H   UNL     1      47.601 129.515  17.920  1.00  0.00     0.488 HD
ENDBRANCH   1   3
BRANCH   1  19
ATOM     19  N   UNL     1      41.292 133.206  20.516  1.00  0.00    -0.250 NA
ATOM     20  H   UNL     1      40.461 133.759  20.206  1.00  0.00     0.143 HD
ATOM     21  H   UNL     1      40.931 132.332  20.960  1.00  0.00     0.143 HD
ENDBRANCH   1  19
TORSDOF 2
ENDMDL
MODEL 3
REMARK VINA RESULT:      -8.3      0.916      1.374
REMARK SMILES Cc1[nH][nH+]c2c1ccc1c(NN)cccc12
REMARK SMILES IDX 11 1 10 3 2 4 3 5 6 6 4 7 5 8 7 9 16 10 8 11 15 12 9 13
REMARK SMILES IDX 14 14 13 15 1 16 12 19
REMARK H PARENT 11 2 3 17 4 18 12 20 12 21
ROOT
ATOM      1  N   UNL     1      47.107 129.825  16.482  1.00  0.00    -0.324 N 
ATOM      2  H   UNL     1      47.713 129.640  17.312  1.00  0.00     0.181 HD
ENDROOT
BRANCH   1   3
ATOM      3  C   UNL     1      45.825 130.462  16.644  1.00  0.00     0.057 A 
ATOM      4  C   UNL     1      43.427 131.745  21.494  1.00  0.00     0.084 A 
ATOM      5  N   UNL     1      42.351 132.385  20.985  1.00  0.00    -0.171 N 
ATOM      6  C   UNL     1      44.205 131.315  20.439  1.00  0.00     0.074 A 
ATOM      7  N   UNL     1      42.414 132.361  19.660  1.00  0.00    -0.125 N 
ATOM      8  C   UNL     1      43.542 131.711  19.308  1.00  0.00     0.243 A 
ATOM      9  C   UNL     1      45.407 130.621  20.391  1.00  0.00     0.018 A 
ATOM     10  C   UNL     1      44.044 131.438  18.027  1.00  0.00     0.058 A 
ATOM     11  C   UNL     1      45.947 130.327  19.128  1.00  0.00     0.012 A 
ATOM     12  C   UNL     1      43.355 131.816  16.866  1.00  0.00     0.016 A 
ATOM     13  C   UNL     1      45.290 130.742  17.931  1.00  0.00     0.013 A 
ATOM     14  C   UNL     1      43.880 131.509  15.613  1.00  0.00     0.003 A 
ATOM     15  C   UNL     1      45.099 130.841  15.501  1.00  0.00     0.028 A 
ATOM     16  C   UNL     1      43.729 131.606  22.952  1.00  0.00     0.071 C 
ATOM     17  H   UNL     1      41.583 132.838  21.531  1.00  0.00     0.238 HD
ATOM     18  H   UNL     1      41.700 132.790  19.031  1.00  0.00     0.488 HD
ENDBRANCH   1   3
BRANCH   1  19
ATOM     19  N   UNL     1      47.651 129.611  15.207  1.00  0.00    -0.250 NA
ATOM     20  H   UNL     1      47.502 128.603  14.974  1.00  0.00     0.143 HD
ATOM     21  H   UNL     1      47.082 130.169  14.531  1.00  0.00     0.143 HD
ENDBRANCH   1  19
TORSDOF 2
ENDMDL
MODEL 4
REMARK VINA RESULT:      -8.1      2.017      5.027
REMARK SMILES Cc1[nH][nH+]c2c1ccc1c(NN)cccc12
REMARK SMILES IDX 11 1 10 3 2 4 3 5 6 6 4 7 5 8 7 9 16 10 8 11 15 12 9 13
REMARK SMILES IDX 14 14 13 15 1 16 12 19
REMARK H PARENT 11 2 3 17 4 18 12 20 12 21
ROOT
ATOM      1  N   UNL     1      45.079 130.964  21.463  1.00  0.00    -0.324 N 
ATOM      2  H   UNL     1      46.110 131.122  21.410  1.00  0.00     0.181 HD
ENDROOT
BRANCH   1   3
ATOM      3  C   UNL     1      44.218 131.417  20.402  1.00  0.00     0.057 A 
ATOM      4  C   UNL     1      45.234 130.916  14.958  1.00  0.00     0.084 A 
ATOM      5  N   UNL     1      44.055 131.412  14.521  1.00  0.00    -0.171 N 
ATOM      6  C   UNL     1      45.221 130.941  16.337  1.00  0.00     0.074 A 
ATOM      7  N   UNL     1      43.313 131.759  15.564  1.00  0.00    -0.125 N 
ATOM      8  C   UNL     1      44.009 131.477  16.684  1.00  0.00     0.243 A 
ATOM      9  C   UNL     1      46.158 130.548  17.284  1.00  0.00     0.018 A 
ATOM     10  C   UNL     1      43.642 131.660  18.025  1.00  0.00     0.058 A 
ATOM     11  C   UNL     1      45.831 130.712  18.641  1.00  0.00     0.012 A 
ATOM     12  C   UNL     1      42.416 132.235  18.385  1.00  0.00     0.016 A 
ATOM     13  C   UNL     1      44.570 131.251  19.035  1.00  0.00     0.013 A 
ATOM     14  C   UNL     1      42.098 132.415  19.729  1.00  0.00     0.003 A 
ATOM     15  C   UNL     1      42.986 132.014  20.726  1.00  0.00     0.028 A 
ATOM     16  C   UNL     1      46.315 130.377  14.076  1.00  0.00     0.071 C 
ATOM     17  H   UNL     1      43.754 131.510  13.525  1.00  0.00     0.238 HD
ATOM     18  H   UNL     1      42.355 132.167  15.493  1.00  0.00     0.488 HD
ENDBRANCH   1   3
BRANCH   1  19
ATOM     19  N   UNL     1      44.589 130.144  22.491  1.00  0.00    -0.250 NA
ATOM     20  H   UNL     1      43.662 130.531  22.778  1.00  0.00     0.143 HD
ATOM     21  H   UNL     1      44.413 129.201  22.075  1.00  0.00     0.143 HD
ENDBRANCH   1  19
TORSDOF 2
ENDMDL
MODEL 5
REMARK VINA RESULT:      -8.1      1.494      2.449
REMARK SMILES Cc1[nH][nH+]c2c1ccc1c(NN)cccc12
REMARK SMILES IDX 11 1 10 3 2 4 3 5 6 6 4 7 5 8 7 9 16 10 8 11 15 12 9 13
REMARK SMILES IDX 14 14 13 15 1 16 12 19
REMARK H PARENT 11 2 3 17 4 18 12 20 12 21
ROOT
ATOM      1  N   UNL     1      46.721 130.285  17.206  1.00  0.00    -0.324 N 
ATOM      2  H   UNL     1      47.517 130.435  17.865  1.00  0.00     0.181 HD
ENDROOT
BRANCH   1   3
ATOM      3  C   UNL     1      45.416 130.812  17.510  1.00  0.00     0.057 A 
ATOM      4  C   UNL     1      43.357 131.649  22.607  1.00  0.00     0.084 A 
ATOM      5  N   UNL     1      42.198 132.231  22.226  1.00  0.00    -0.171 N 
ATOM      6  C   UNL     1      44.070 131.336  21.468  1.00  0.00     0.074 A 
ATOM      7  N   UNL     1      42.149 132.282  20.901  1.00  0.00    -0.125 N 
ATOM      8  C   UNL     1      43.286 131.740  20.420  1.00  0.00     0.243 A 
ATOM      9  C   UNL     1      45.310 130.739  21.281  1.00  0.00     0.018 A 
ATOM     10  C   UNL     1      43.694 131.575  19.089  1.00  0.00     0.058 A 
ATOM     11  C   UNL     1      45.759 130.556  19.963  1.00  0.00     0.012 A 
ATOM     12  C   UNL     1      42.883 131.960  18.013  1.00  0.00     0.016 A 
ATOM     13  C   UNL     1      44.974 130.982  18.850  1.00  0.00     0.013 A 
ATOM     14  C   UNL     1      43.319 131.761  16.705  1.00  0.00     0.003 A 
ATOM     15  C   UNL     1      44.568 131.195  16.454  1.00  0.00     0.028 A 
ATOM     16  C   UNL     1      43.791 131.456  24.024  1.00  0.00     0.071 C 
ATOM     17  H   UNL     1      41.449 132.594  22.858  1.00  0.00     0.238 HD
ATOM     18  H   UNL     1      41.355 132.688  20.359  1.00  0.00     0.488 HD
ENDBRANCH   1   3
BRANCH   1  19
ATOM     19  N   UNL     1      47.001 129.728  15.949  1.00  0.00    -0.250 NA
ATOM     20  H   UNL     1      46.539 128.791  15.918  1.00  0.00     0.143 HD
ATOM     21  H   UNL     1      46.528 130.327  15.235  1.00  0.00     0.143 HD
ENDBRANCH   1  19
TORSDOF 2
ENDMDL
MODEL 6
REMARK VINA RESULT:      -7.7      1.395      5.858
REMARK SMILES Cc1[nH][nH+]c2c1ccc1c(NN)cccc12
REMARK SMILES IDX 11 1 10 3 2 4 3 5 6 6 4 7 5 8 7 9 16 10 8 11 15 12 9 13
REMARK SMILES IDX 14 14 13 15 1 16 12 19
REMARK H PARENT 11 2 3 17 4 18 12 20 12 21
ROOT
ATOM      1  N   UNL     1      42.369 132.347  21.195  1.00  0.00    -0.324 N 
ATOM      2  H   UNL     1      41.912 133.002  20.521  1.00  0.00     0.181 HD
ENDROOT
BRANCH   1   3
ATOM      3  C   UNL     1      43.561 131.632  20.819  1.00  0.00     0.057 A 
ATOM      4  C   UNL     1      45.372 130.837  15.623  1.00  0.00     0.084 A 
ATOM      5  N   UNL     1      46.532 130.222  15.941  1.00  0.00    -0.171 N 
ATOM      6  C   UNL     1      44.716 131.143  16.797  1.00  0.00     0.074 A 
ATOM      7  N   UNL     1      46.624 130.119  17.261  1.00  0.00    -0.125 N 
ATOM      8  C   UNL     1      45.522 130.678  17.801  1.00  0.00     0.243 A 
ATOM      9  C   UNL     1      43.505 131.773  17.049  1.00  0.00     0.018 A 
ATOM     10  C   UNL     1      45.169 130.813  19.151  1.00  0.00     0.058 A 
ATOM     11  C   UNL     1      43.111 131.932  18.389  1.00  0.00     0.012 A 
ATOM     12  C   UNL     1      45.976 130.312  20.182  1.00  0.00     0.016 A 
ATOM     13  C   UNL     1      43.938 131.474  19.458  1.00  0.00     0.013 A 
ATOM     14  C   UNL     1      45.580 130.452  21.509  1.00  0.00     0.003 A 
ATOM     15  C   UNL     1      44.388 131.102  21.827  1.00  0.00     0.028 A 
ATOM     16  C   UNL     1      44.936 131.173  14.232  1.00  0.00     0.071 C 
ATOM     17  H   UNL     1      47.258 129.881  15.271  1.00  0.00     0.238 HD
ATOM     18  H   UNL     1      47.430 129.682  17.761  1.00  0.00     0.488 HD
ENDBRANCH   1   3
BRANCH   1  19
ATOM     19  N   UNL     1      41.902 132.330  22.517  1.00  0.00    -0.250 NA
ATOM     20  H   UNL     1      41.498 133.274  22.714  1.00  0.00     0.143 HD
ATOM     21  H   UNL     1      41.114 131.645  22.557  1.00  0.00     0.143 HD
ENDBRANCH   1  19
TORSDOF 2
ENDMDL
MODEL 7
REMARK VINA RESULT:      -7.5      2.374      3.065
REMARK SMILES Cc1[nH][nH+]c2c1ccc1c(NN)cccc12
REMARK SMILES IDX 11 1 10 3 2 4 3 5 6 6 4 7 5 8 7 9 16 10 8 11 15 12 9 13
REMARK SMILES IDX 14 14 13 15 1 16 12 19
REMARK H PARENT 11 2 3 17 4 18 12 20 12 21
ROOT
ATOM      1  N   UNL     1      43.087 131.926  14.738  1.00  0.00    -0.324 N 
ATOM      2  H   UNL     1      42.310 132.432  15.219  1.00  0.00     0.181 HD
ENDROOT
BRANCH   1   3
ATOM      3  C   UNL     1      44.210 131.432  15.492  1.00  0.00     0.057 A 
ATOM      4  C   UNL     1      44.533 131.158  21.036  1.00  0.00     0.084 A 
ATOM      5  N   UNL     1      45.731 130.536  21.105  1.00  0.00    -0.171 N 
ATOM      6  C   UNL     1      44.225 131.345  19.705  1.00  0.00     0.074 A 
ATOM      7  N   UNL     1      46.192 130.340  19.876  1.00  0.00    -0.125 N 
ATOM      8  C   UNL     1      45.283 130.827  19.007  1.00  0.00     0.243 A 
ATOM      9  C   UNL     1      43.129 131.920  19.075  1.00  0.00     0.018 A 
ATOM     10  C   UNL     1      45.320 130.846  17.605  1.00  0.00     0.058 A 
ATOM     11  C   UNL     1      43.123 131.958  17.670  1.00  0.00     0.012 A 
ATOM     12  C   UNL     1      46.413 130.343  16.886  1.00  0.00     0.016 A 
ATOM     13  C   UNL     1      44.202 131.411  16.913  1.00  0.00     0.013 A 
ATOM     14  C   UNL     1      46.418 130.397  15.494  1.00  0.00     0.003 A 
ATOM     15  C   UNL     1      45.332 130.935  14.804  1.00  0.00     0.028 A 
ATOM     16  C   UNL     1      43.682 131.507  22.216  1.00  0.00     0.071 C 
ATOM     17  H   UNL     1      46.229 130.243  21.975  1.00  0.00     0.238 HD
ATOM     18  H   UNL     1      47.101 129.875  19.657  1.00  0.00     0.488 HD
ENDBRANCH   1   3
BRANCH   1  19
ATOM     19  N   UNL     1      42.914 131.580  13.390  1.00  0.00    -0.250 NA
ATOM     20  H   UNL     1      42.805 132.471  12.855  1.00  0.00     0.143 HD
ATOM     21  H   UNL     1      43.803 131.136  13.069  1.00  0.00     0.143 HD
ENDBRANCH   1  19
TORSDOF 2
ENDMDL
MODEL 8
REMARK VINA RESULT:      -7.4      2.157      5.539
REMARK SMILES Cc1[nH][nH+]c2c1ccc1c(NN)cccc12
REMARK SMILES IDX 11 1 10 3 2 4 3 5 6 6 4 7 5 8 7 9 16 10 8 11 15 12 9 13
REMARK SMILES IDX 14 14 13 15 1 16 12 19
REMARK H PARENT 11 2 3 17 4 18 12 20 12 21
ROOT
ATOM      1  N   UNL     1      44.651 130.799  23.191  1.00  0.00    -0.324 N 
ATOM      2  H   UNL     1      45.584 131.182  23.462  1.00  0.00     0.181 HD
ENDROOT
BRANCH   1   3
ATOM      3  C   UNL     1      43.928 131.362  22.080  1.00  0.00     0.057 A 
ATOM      4  C   UNL     1      45.364 130.945  16.724  1.00  0.00     0.084 A 
ATOM      5  N   UNL     1      44.276 131.560  16.210  1.00  0.00    -0.171 N 
ATOM      6  C   UNL     1      45.233 130.927  18.098  1.00  0.00     0.074 A 
ATOM      7  N   UNL     1      43.479 131.939  17.201  1.00  0.00    -0.125 N 
ATOM      8  C   UNL     1      44.048 131.559  18.363  1.00  0.00     0.243 A 
ATOM      9  C   UNL     1      46.047 130.421  19.103  1.00  0.00     0.018 A 
ATOM     10  C   UNL     1      43.584 131.732  19.675  1.00  0.00     0.058 A 
ATOM     11  C   UNL     1      45.619 130.570  20.433  1.00  0.00     0.012 A 
ATOM     12  C   UNL     1      42.386 132.405  19.954  1.00  0.00     0.016 A 
ATOM     13  C   UNL     1      44.381 131.209  20.742  1.00  0.00     0.013 A 
ATOM     14  C   UNL     1      41.970 132.570  21.273  1.00  0.00     0.003 A 
ATOM     15  C   UNL     1      42.729 132.058  22.324  1.00  0.00     0.028 A 
ATOM     16  C   UNL     1      46.465 130.339  15.915  1.00  0.00     0.071 C 
ATOM     17  H   UNL     1      44.072 131.717  15.197  1.00  0.00     0.238 HD
ATOM     18  H   UNL     1      42.570 132.436  17.067  1.00  0.00     0.488 HD
ENDBRANCH   1   3
BRANCH   1  19
ATOM     19  N   UNL     1      44.217 129.617  23.810  1.00  0.00    -0.250 NA
ATOM     20  H   UNL     1      43.242 129.436  23.480  1.00  0.00     0.143 HD
ATOM     21  H   UNL     1      44.814 128.841  23.446  1.00  0.00     0.143 HD
ENDBRANCH   1  19
TORSDOF 2
ENDMDL


