REMARK SMILES CCCOC(=O)N1C[C@H](c2ccc3cc[nH]c3c2)[C@H](C)C[C@H]1F
REMARK SMILES IDX 4 1 3 2 2 3 1 4 5 5 6 6 7 7 8 8 22 9 9 10 21 11 19 12 23 13
REMARK SMILES IDX 20 14 10 15 11 16 18 17 12 18 17 19 13 20 16 21 14 22 15 23
REMARK H PARENT 16 24
ROOT
ATOM      1  O   UNL     1       0.557  -2.493  -1.426  1.00  0.00    -0.449 OA
ENDROOT
BRANCH   1   2
ATOM      2  C   UNL     1       0.124  -3.535  -2.295  1.00  0.00     0.234 C 
BRANCH   2   3
ATOM      3  C   UNL     1      -1.403  -3.595  -2.318  1.00  0.00     0.038 C 
ATOM      4  C   UNL     1      -1.976  -3.963  -0.951  1.00  0.00     0.007 C 
ENDBRANCH   2   3
ENDBRANCH   1   2
BRANCH   1   5
ATOM      5  C   UNL     1       1.907  -2.196  -1.210  1.00  0.00     0.412 C 
ATOM      6  O   UNL     1       2.797  -2.857  -1.815  1.00  0.00    -0.224 OA
BRANCH   5   7
ATOM      7  N   UNL     1       2.273  -1.130  -0.307  1.00  0.00    -0.277 N 
ATOM      8  C   UNL     1       1.296  -0.055  -0.069  1.00  0.00     0.134 C 
ATOM      9  C   UNL     1       3.692  -0.865   0.007  1.00  0.00     0.268 C 
ATOM     10  C   UNL     1       1.452   0.519   1.352  1.00  0.00     0.042 C 
ATOM     11  C   UNL     1       3.848  -0.256   1.409  1.00  0.00     0.065 C 
ATOM     12  C   UNL     1       2.912   0.943   1.646  1.00  0.00    -0.000 C 
ATOM     13  F   UNL     1       4.434  -2.035  -0.025  1.00  0.00    -0.223 F 
ATOM     14  C   UNL     1       3.377   2.183   0.860  1.00  0.00     0.008 C 
BRANCH  10  15
ATOM     15  C   UNL     1       0.446   1.614   1.681  1.00  0.00    -0.041 A 
ATOM     16  C   UNL     1       0.114   2.641   0.750  1.00  0.00     0.005 A 
ATOM     17  C   UNL     1      -0.136   1.642   2.971  1.00  0.00     0.030 A 
ATOM     18  C   UNL     1      -0.797   3.656   1.090  1.00  0.00     0.010 A 
ATOM     19  C   UNL     1      -1.035   2.662   3.272  1.00  0.00     0.046 A 
ATOM     20  C   UNL     1      -1.355   3.631   2.363  1.00  0.00    -0.001 A 
ATOM     21  N   UNL     1      -1.690   2.857   4.428  1.00  0.00    -0.361 N 
ATOM     22  C   UNL     1      -2.254   4.484   2.966  1.00  0.00     0.028 A 
ATOM     23  C   UNL     1      -2.438   3.970   4.246  1.00  0.00     0.083 A 
ATOM     24  H   UNL     1      -1.636   2.274   5.293  1.00  0.00     0.166 HD
ENDBRANCH  10  15
ENDBRANCH   5   7
ENDBRANCH   1   5
TORSDOF 5


