REMARK SMILES C=c1cc/c(=C(/O)CC([O-])=C2CCC2)c(F)c1
REMARK SMILES IDX 6 1 7 2 5 4 4 5 15 6 3 7 17 8 2 9 16 10 1 11 8 12 9 13 10 14
REMARK SMILES IDX 11 15 12 16 14 17 13 18
REMARK H PARENT 7 3
ROOT
ATOM      1  C   UNL     1       1.676   0.359   1.746  1.00  0.00     0.106 C 
ENDROOT
BRANCH   1   2
ATOM      2  O   UNL     1       2.615   0.379   2.781  1.00  0.00    -0.511 OA
ATOM      3  H   UNL     1       2.445   0.869   3.651  1.00  0.00     0.293 HD
ENDBRANCH   1   2
BRANCH   1   4
ATOM      4  C   UNL     1       1.937  -0.341   0.605  1.00  0.00     0.048 A 
ATOM      5  C   UNL     1       0.992  -0.418  -0.448  1.00  0.00     0.015 A 
ATOM      6  C   UNL     1       3.169  -1.026   0.431  1.00  0.00     0.134 A 
ATOM      7  C   UNL     1       1.262  -1.139  -1.613  1.00  0.00     0.008 A 
ATOM      8  C   UNL     1       3.430  -1.745  -0.740  1.00  0.00     0.047 A 
ATOM      9  C   UNL     1       2.482  -1.808  -1.770  1.00  0.00    -0.030 A 
ATOM     10  F   UNL     1       4.140  -1.010   1.381  1.00  0.00    -0.206 F 
ATOM     11  C   UNL     1       2.739  -2.497  -2.886  1.00  0.00     0.017 C 
ENDBRANCH   1   4
BRANCH   1  12
ATOM     12  C   UNL     1       0.385   1.119   1.976  1.00  0.00     0.093 C 
BRANCH  12  13
ATOM     13  C   UNL     1      -0.738   0.182   2.324  1.00  0.00    -0.126 C 
ATOM     14  O   UNL     1      -0.521  -0.846   3.235  1.00  0.00    -0.875 OA
BRANCH  13  15
ATOM     15  C   UNL     1      -1.952   0.343   1.805  1.00  0.00    -0.082 C 
ATOM     16  C   UNL     1      -3.300  -0.345   1.908  1.00  0.00     0.030 C 
ATOM     17  C   UNL     1      -2.650   1.288   0.844  1.00  0.00     0.030 C 
ATOM     18  C   UNL     1      -3.970   0.596   0.960  1.00  0.00     0.009 C 
ENDBRANCH  13  15
ENDBRANCH  12  13
ENDBRANCH   1  12
TORSDOF 5


