REMARK SMILES Cc1ccc([NH2+][C@H]2CCC[C@@H](NN)[C@]2(O)c2nc3ccccc3[n-]2)cc1F
REMARK SMILES IDX 7 1 8 2 9 3 10 4 11 5 14 6 6 7 5 10 2 11 3 12 26 13 4 14
REMARK SMILES IDX 25 15 1 16 27 17 15 18 16 20 17 21 24 22 18 23 23 24 19 25
REMARK SMILES IDX 22 26 20 27 21 28 12 29 13 31
REMARK H PARENT 6 8 6 9 15 19 12 30 13 32 13 33
ROOT
ATOM      1  C   UNL     1       0.503   1.659  -2.562  1.00  0.00     0.225 C 
ATOM      2  C   UNL     1       0.922   2.199  -3.953  1.00  0.00     0.069 C 
ATOM      3  C   UNL     1       0.140   1.548  -5.093  1.00  0.00     0.008 C 
ATOM      4  C   UNL     1       0.334   0.034  -5.085  1.00  0.00     0.024 C 
ATOM      5  C   UNL     1      -0.137  -0.563  -3.746  1.00  0.00     0.111 C 
ATOM      6  C   UNL     1       0.581   0.078  -2.499  1.00  0.00     0.150 C 
ENDROOT
BRANCH   1   7
ATOM      7  N   UNL     1       1.332   2.331  -1.524  1.00  0.00    -0.309 N 
ATOM      8  H   UNL     1       1.372   3.359  -1.722  1.00  0.00     0.352 HD
ATOM      9  H   UNL     1       2.318   1.984  -1.572  1.00  0.00     0.352 HD
BRANCH   7  10
ATOM     10  C   UNL     1       0.805   2.189  -0.185  1.00  0.00     0.132 A 
ATOM     11  C   UNL     1      -0.266   1.839   2.399  1.00  0.00    -0.015 A 
ATOM     12  C   UNL     1      -0.933   2.638   1.458  1.00  0.00     0.012 A 
ATOM     13  C   UNL     1       0.968   1.261   2.060  1.00  0.00     0.132 A 
ATOM     14  C   UNL     1      -0.400   2.816   0.178  1.00  0.00     0.068 A 
ATOM     15  C   UNL     1       1.499   1.437   0.779  1.00  0.00     0.107 A 
ATOM     16  C   UNL     1      -0.845   1.637   3.769  1.00  0.00     0.047 C 
ATOM     17  F   UNL     1       1.646   0.508   2.963  1.00  0.00    -0.206 F 
ENDBRANCH   7  10
ENDBRANCH   1   7
BRANCH   6  18
ATOM     18  O   UNL     1       1.926  -0.338  -2.416  1.00  0.00    -0.378 OA
ATOM     19  H   UNL     1       2.409  -0.017  -3.219  1.00  0.00     0.212 HD
ENDBRANCH   6  18
BRANCH   6  20
ATOM     20  C   UNL     1      -0.138  -0.421  -1.262  1.00  0.00    -0.042 A 
ATOM     21  N   UNL     1      -1.409  -0.050  -0.945  1.00  0.00    -0.437 NA
ATOM     22  N   UNL     1       0.428  -1.288  -0.378  1.00  0.00    -0.437 NA
ATOM     23  C   UNL     1      -1.629  -0.704   0.203  1.00  0.00    -0.038 A 
ATOM     24  C   UNL     1      -0.537  -1.442   0.540  1.00  0.00    -0.038 A 
ATOM     25  C   UNL     1      -2.762  -0.651   1.010  1.00  0.00     0.004 A 
ATOM     26  C   UNL     1      -0.486  -2.191   1.713  1.00  0.00     0.004 A 
ATOM     27  C   UNL     1      -2.748  -1.395   2.204  1.00  0.00     0.000 A 
ATOM     28  C   UNL     1      -1.614  -2.163   2.555  1.00  0.00     0.000 A 
ENDBRANCH   6  20
BRANCH   5  29
ATOM     29  N   UNL     1      -0.082  -2.040  -3.784  1.00  0.00    -0.254 NA
ATOM     30  H   UNL     1      -0.498  -2.422  -2.902  1.00  0.00     0.141 HD
BRANCH  29  31
ATOM     31  N   UNL     1       1.250  -2.484  -3.890  1.00  0.00    -0.271 NA
ATOM     32  H   UNL     1       1.453  -2.601  -4.909  1.00  0.00     0.137 HD
ATOM     33  H   UNL     1       1.307  -3.446  -3.482  1.00  0.00     0.137 HD
ENDBRANCH  29  31
ENDBRANCH   5  29
TORSDOF 6


