MODEL 1
REMARK VINA RESULT:      -4.0      0.000      0.000
REMARK SMILES CC1=CCC=C[C@H]1C(=O)Oc1ccc(N(C(=O)Oc2ccccc2)c2ccc3cc[nH]c3c2)c(F)c1
REMARK SMILES IDX 11 1 12 2 13 3 14 4 34 5 35 6 36 7 10 8 8 9 9 10 7 11 2 12
REMARK SMILES IDX 3 13 4 14 6 15 5 16 1 17 15 18 16 19 17 20 18 21 19 22 20 23
REMARK SMILES IDX 24 24 21 25 23 26 22 27 25 28 26 29 33 30 27 31 32 32 28 33
REMARK SMILES IDX 31 34 29 35 30 36
REMARK H PARENT 31 37
ROOT
ATOM      1  C   UNL     1      50.178 125.672  23.438  1.00  0.00     0.133 A 
ATOM      2  C   UNL     1      49.425 126.449  24.325  1.00  0.00     0.049 A 
ATOM      3  C   UNL     1      48.065 126.673  24.095  1.00  0.00     0.034 A 
ATOM      4  C   UNL     1      47.432 126.110  22.976  1.00  0.00     0.088 A 
ATOM      5  C   UNL     1      48.182 125.315  22.092  1.00  0.00     0.151 A 
ATOM      6  F   UNL     1      47.588 124.729  21.022  1.00  0.00    -0.205 F 
ATOM      7  C   UNL     1      49.542 125.090  22.326  1.00  0.00     0.088 A 
ENDROOT
BRANCH   1   8
ATOM      8  O   UNL     1      51.537 125.465  23.718  1.00  0.00    -0.426 OA
BRANCH   8   9
ATOM      9  C   UNL     1      52.593 125.714  22.832  1.00  0.00     0.322 C 
ATOM     10  O   UNL     1      52.849 126.888  22.443  1.00  0.00    -0.251 OA
BRANCH   9  11
ATOM     11  C   UNL     1      53.427 124.564  22.351  1.00  0.00     0.147 C 
ATOM     12  C   UNL     1      53.056 123.305  23.116  1.00  0.00    -0.059 C 
ATOM     13  C   UNL     1      52.222 122.394  22.579  1.00  0.00    -0.023 C 
ATOM     14  C   UNL     1      51.604 122.595  21.218  1.00  0.00     0.054 C 
ATOM     15  C   UNL     1      53.281 124.388  20.856  1.00  0.00    -0.012 C 
ATOM     16  C   UNL     1      52.451 123.472  20.336  1.00  0.00    -0.026 C 
ATOM     17  C   UNL     1      53.585 123.095  24.509  1.00  0.00     0.040 C 
ENDBRANCH   9  11
ENDBRANCH   8   9
ENDBRANCH   1   8
BRANCH   4  18
ATOM     18  N   UNL     1      46.034 126.358  22.730  1.00  0.00    -0.243 N 
BRANCH  18  19
ATOM     19  C   UNL     1      45.086 125.273  22.778  1.00  0.00     0.424 C 
ATOM     20  O   UNL     1      45.438 124.148  23.229  1.00  0.00    -0.223 OA
BRANCH  19  21
ATOM     21  O   UNL     1      43.760 125.493  22.375  1.00  0.00    -0.410 OA
BRANCH  21  22
ATOM     22  C   UNL     1      42.685 124.619  22.596  1.00  0.00     0.132 A 
ATOM     23  C   UNL     1      42.848 123.221  22.652  1.00  0.00     0.047 A 
ATOM     24  C   UNL     1      41.400 125.162  22.717  1.00  0.00     0.047 A 
ATOM     25  C   UNL     1      41.740 122.392  22.857  1.00  0.00     0.004 A 
ATOM     26  C   UNL     1      40.295 124.331  22.920  1.00  0.00     0.004 A 
ATOM     27  C   UNL     1      40.466 122.946  22.993  1.00  0.00     0.000 A 
ENDBRANCH  21  22
ENDBRANCH  19  21
ENDBRANCH  18  19
BRANCH  18  28
ATOM     28  C   UNL     1      45.583 127.700  22.459  1.00  0.00     0.055 A 
ATOM     29  C   UNL     1      44.712 128.364  23.365  1.00  0.00     0.027 A 
ATOM     30  C   UNL     1      45.990 128.359  21.275  1.00  0.00     0.053 A 
ATOM     31  C   UNL     1      44.261 129.670  23.103  1.00  0.00     0.012 A 
ATOM     32  C   UNL     1      45.524 129.652  21.048  1.00  0.00     0.047 A 
ATOM     33  C   UNL     1      44.691 130.283  21.931  1.00  0.00    -0.000 A 
ATOM     34  N   UNL     1      45.798 130.445  19.999  1.00  0.00    -0.361 N 
ATOM     35  C   UNL     1      44.422 131.534  21.420  1.00  0.00     0.028 A 
ATOM     36  C   UNL     1      45.127 131.597  20.222  1.00  0.00     0.083 A 
ATOM     37  H   UNL     1      46.412 130.226  19.184  1.00  0.00     0.166 HD
ENDBRANCH  18  28
ENDBRANCH   4  18
TORSDOF 8
ENDMDL
MODEL 2
REMARK VINA RESULT:      -1.8      5.221      8.294
REMARK SMILES CC1=CCC=C[C@H]1C(=O)Oc1ccc(N(C(=O)Oc2ccccc2)c2ccc3cc[nH]c3c2)c(F)c1
REMARK SMILES IDX 11 1 12 2 13 3 14 4 34 5 35 6 36 7 10 8 8 9 9 10 7 11 2 12
REMARK SMILES IDX 3 13 4 14 6 15 5 16 1 17 15 18 16 19 17 20 18 21 19 22 20 23
REMARK SMILES IDX 24 24 21 25 23 26 22 27 25 28 26 29 33 30 27 31 32 32 28 33
REMARK SMILES IDX 31 34 29 35 30 36
REMARK H PARENT 31 37
ROOT
ATOM      1  C   UNL     1      43.909 131.480  17.491  1.00  0.00     0.133 A 
ATOM      2  C   UNL     1      42.976 132.084  18.340  1.00  0.00     0.049 A 
ATOM      3  C   UNL     1      43.197 132.130  19.719  1.00  0.00     0.034 A 
ATOM      4  C   UNL     1      44.366 131.581  20.270  1.00  0.00     0.088 A 
ATOM      5  C   UNL     1      45.313 130.990  19.417  1.00  0.00     0.151 A 
ATOM      6  F   UNL     1      46.468 130.483  19.918  1.00  0.00    -0.205 F 
ATOM      7  C   UNL     1      45.092 130.947  18.038  1.00  0.00     0.088 A 
ENDROOT
BRANCH   1   8
ATOM      8  O   UNL     1      43.650 131.470  16.112  1.00  0.00    -0.426 OA
BRANCH   8   9
ATOM      9  C   UNL     1      44.619 131.569  15.105  1.00  0.00     0.322 C 
ATOM     10  O   UNL     1      45.087 132.690  14.764  1.00  0.00    -0.251 OA
BRANCH   9  11
ATOM     11  C   UNL     1      45.101 130.317  14.433  1.00  0.00     0.147 C 
ATOM     12  C   UNL     1      46.545 130.492  13.996  1.00  0.00    -0.059 C 
ATOM     13  C   UNL     1      47.554 129.995  14.737  1.00  0.00    -0.023 C 
ATOM     14  C   UNL     1      47.299 129.273  16.036  1.00  0.00     0.054 C 
ATOM     15  C   UNL     1      44.921 129.120  15.341  1.00  0.00    -0.012 C 
ATOM     16  C   UNL     1      45.937 128.633  16.068  1.00  0.00    -0.026 C 
ATOM     17  C   UNL     1      46.858 131.272  12.748  1.00  0.00     0.040 C 
ENDBRANCH   9  11
ENDBRANCH   8   9
ENDBRANCH   1   8
BRANCH   4  18
ATOM     18  N   UNL     1      44.583 131.613  21.695  1.00  0.00    -0.243 N 
BRANCH  18  19
ATOM     19  C   UNL     1      43.775 130.801  22.570  1.00  0.00     0.424 C 
ATOM     20  O   UNL     1      42.524 130.967  22.607  1.00  0.00    -0.223 OA
BRANCH  19  21
ATOM     21  O   UNL     1      44.380 129.792  23.334  1.00  0.00    -0.410 OA
BRANCH  21  22
ATOM     22  C   UNL     1      44.340 128.419  23.050  1.00  0.00     0.132 A 
ATOM     23  C   UNL     1      45.366 127.764  22.341  1.00  0.00     0.047 A 
ATOM     24  C   UNL     1      43.213 127.689  23.450  1.00  0.00     0.047 A 
ATOM     25  C   UNL     1      45.270 126.396  22.069  1.00  0.00     0.004 A 
ATOM     26  C   UNL     1      43.119 126.322  23.174  1.00  0.00     0.004 A 
ATOM     27  C   UNL     1      44.149 125.675  22.487  1.00  0.00     0.000 A 
ENDBRANCH  21  22
ENDBRANCH  19  21
ENDBRANCH  18  19
BRANCH  18  28
ATOM     28  C   UNL     1      45.629 132.442  22.240  1.00  0.00     0.055 A 
ATOM     29  C   UNL     1      45.764 132.599  23.645  1.00  0.00     0.027 A 
ATOM     30  C   UNL     1      46.517 133.121  21.374  1.00  0.00     0.053 A 
ATOM     31  C   UNL     1      46.776 133.413  24.185  1.00  0.00     0.012 A 
ATOM     32  C   UNL     1      47.509 133.919  21.943  1.00  0.00     0.047 A 
ATOM     33  C   UNL     1      47.632 134.058  23.298  1.00  0.00    -0.000 A 
ATOM     34  N   UNL     1      48.448 134.634  21.301  1.00  0.00    -0.361 N 
ATOM     35  C   UNL     1      48.698 134.900  23.530  1.00  0.00     0.028 A 
ATOM     36  C   UNL     1      49.178 135.235  22.268  1.00  0.00     0.083 A 
ATOM     37  H   UNL     1      48.594 134.704  20.270  1.00  0.00     0.166 HD
ENDBRANCH  18  28
ENDBRANCH   4  18
TORSDOF 8
ENDMDL


