REMARK SMILES NC(=O)c1ccc(-c2cc(F)cc(F)c2OCc2n[n-]c3c2CCC3)cc1
REMARK SMILES IDX 8 1 9 2 10 3 11 4 12 5 13 6 14 7 15 8 7 9 4 10 5 11 27 12
REMARK SMILES IDX 6 13 26 14 2 15 1 16 3 19 16 20 17 21 18 22 19 23 22 24
REMARK SMILES IDX 20 25 21 26 23 27 25 28 24 29
REMARK H PARENT 1 17 1 18
ROOT
ATOM      1  C   UNL     1      -0.773   1.152   1.843  1.00  0.00     0.030 A 
ATOM      2  C   UNL     1      -0.390   1.868   2.990  1.00  0.00     0.052 A 
ATOM      3  C   UNL     1      -1.321   2.158   3.989  1.00  0.00     0.127 A 
ATOM      4  F   UNL     1      -0.942   2.857   5.087  1.00  0.00    -0.207 F 
ATOM      5  C   UNL     1      -2.645   1.737   3.854  1.00  0.00     0.082 A 
ATOM      6  C   UNL     1      -3.040   1.016   2.725  1.00  0.00     0.168 A 
ATOM      7  F   UNL     1      -4.338   0.642   2.599  1.00  0.00    -0.203 F 
ATOM      8  C   UNL     1      -2.107   0.707   1.721  1.00  0.00     0.163 A 
ENDROOT
BRANCH   1   9
ATOM      9  C   UNL     1       0.235   0.840   0.802  1.00  0.00    -0.014 A 
ATOM     10  C   UNL     1       2.160   0.240  -1.174  1.00  0.00     0.039 A 
ATOM     11  C   UNL     1       0.931   0.827  -1.527  1.00  0.00     0.014 A 
ATOM     12  C   UNL     1       2.422  -0.020   0.182  1.00  0.00     0.014 A 
ATOM     13  C   UNL     1      -0.021   1.123  -0.548  1.00  0.00     0.010 A 
ATOM     14  C   UNL     1       1.467   0.272   1.159  1.00  0.00     0.010 A 
BRANCH  10  15
ATOM     15  C   UNL     1       3.177  -0.089  -2.201  1.00  0.00     0.248 C 
ATOM     16  N   UNL     1       2.814  -0.314  -3.566  1.00  0.00    -0.366 N 
ATOM     17  H   UNL     1       3.555  -0.490  -4.279  1.00  0.00     0.159 HD
ATOM     18  H   UNL     1       1.817  -0.401  -3.861  1.00  0.00     0.159 HD
ATOM     19  O   UNL     1       4.389  -0.192  -1.869  1.00  0.00    -0.270 OA
ENDBRANCH  10  15
ENDBRANCH   1   9
BRANCH   8  20
ATOM     20  O   UNL     1      -2.492  -0.046   0.605  1.00  0.00    -0.484 OA
BRANCH  20  21
ATOM     21  C   UNL     1      -2.944  -1.394   0.705  1.00  0.00     0.284 C 
BRANCH  21  22
ATOM     22  C   UNL     1      -1.789  -2.298   0.999  1.00  0.00     0.058 A 
ATOM     23  N   UNL     1      -1.205  -2.410   2.216  1.00  0.00    -0.369 NA
ATOM     24  C   UNL     1      -0.979  -2.916   0.077  1.00  0.00    -0.042 A 
ATOM     25  N   UNL     1      -0.049  -3.052   2.074  1.00  0.00    -0.578 NA
ATOM     26  C   UNL     1       0.060  -3.379   0.775  1.00  0.00    -0.141 A 
ATOM     27  C   UNL     1      -0.675  -2.692  -1.348  1.00  0.00     0.036 C 
ATOM     28  C   UNL     1       1.269  -3.590  -0.043  1.00  0.00     0.013 C 
ATOM     29  C   UNL     1       0.759  -3.271  -1.474  1.00  0.00     0.008 C 
ENDBRANCH  21  22
ENDBRANCH  20  21
ENDBRANCH   8  20
TORSDOF 5


