REMARK SMILES Cc1ccc2ccc(-c3cccnc3F)nc2c1F
REMARK SMILES IDX 1 1 2 2 3 3 4 4 5 5 6 6 7 7 8 8 16 9 17 10 18 11 19 12 9 13
REMARK SMILES IDX 10 14 14 15 11 16 13 17 12 18 15 19
REMARK H PARENT
ROOT
ATOM      1  C   UNL     1      -2.278   0.695  -5.139  1.00  0.00     0.047 C 
ATOM      2  C   UNL     1      -1.985   0.709  -3.667  1.00  0.00    -0.013 A 
ATOM      3  C   UNL     1      -2.777   1.472  -2.793  1.00  0.00     0.007 A 
ATOM      4  C   UNL     1      -2.493   1.505  -1.425  1.00  0.00     0.011 A 
ATOM      5  C   UNL     1      -1.407   0.781  -0.916  1.00  0.00     0.003 A 
ATOM      6  C   UNL     1      -1.097   0.800   0.448  1.00  0.00     0.013 A 
ATOM      7  C   UNL     1      -0.005   0.072   0.924  1.00  0.00     0.030 A 
ATOM      8  C   UNL     1       0.778  -0.679   0.029  1.00  0.00     0.076 A 
ATOM      9  N   UNL     1       0.458  -0.677  -1.296  1.00  0.00    -0.245 NA
ATOM     10  C   UNL     1      -0.600   0.022  -1.789  1.00  0.00     0.107 A 
ATOM     11  C   UNL     1      -0.887  -0.009  -3.160  1.00  0.00     0.152 A 
ATOM     12  F   UNL     1      -0.099  -0.734  -3.996  1.00  0.00    -0.204 F 
ENDROOT
BRANCH   8  13
ATOM     13  C   UNL     1       1.945  -1.468   0.497  1.00  0.00     0.055 A 
ATOM     14  C   UNL     1       1.943  -2.085   1.762  1.00  0.00     0.017 A 
ATOM     15  C   UNL     1       3.078  -1.641  -0.324  1.00  0.00     0.222 A 
ATOM     16  C   UNL     1       3.042  -2.835   2.182  1.00  0.00     0.021 A 
ATOM     17  N   UNL     1       4.136  -2.376   0.114  1.00  0.00    -0.228 NA
ATOM     18  C   UNL     1       4.142  -2.969   1.335  1.00  0.00     0.114 A 
ATOM     19  F   UNL     1       3.147  -1.059  -1.548  1.00  0.00    -0.184 F 
ENDBRANCH   8  13
TORSDOF 1


