MODEL 1
REMARK VINA RESULT:     -10.5      0.000      0.000
REMARK SMILES CC(=O)c1ccc(-c2ccc3cc[nH]c3c2)cn1
REMARK SMILES IDX 4 1 5 2 6 3 7 4 17 5 18 6 2 7 1 8 3 9 8 10 9 11 16 12 10 13
REMARK SMILES IDX 15 14 11 15 14 16 12 17 13 18
REMARK H PARENT 14 19
ROOT
ATOM      1  C   UNL     1      46.810 130.711  14.838  1.00  0.00     0.106 A 
ATOM      2  C   UNL     1      46.178 131.943  15.063  1.00  0.00     0.033 A 
ATOM      3  C   UNL     1      45.473 132.149  16.250  1.00  0.00     0.013 A 
ATOM      4  C   UNL     1      45.396 131.130  17.214  1.00  0.00     0.000 A 
ATOM      5  C   UNL     1      46.045 129.914  16.947  1.00  0.00     0.120 A 
ATOM      6  N   UNL     1      46.723 129.736  15.784  1.00  0.00    -0.253 NA
ENDROOT
BRANCH   1   7
ATOM      7  C   UNL     1      47.566 130.457  13.592  1.00  0.00     0.178 C 
ATOM      8  C   UNL     1      48.537 129.321  13.507  1.00  0.00     0.095 C 
ATOM      9  O   UNL     1      47.399 131.199  12.586  1.00  0.00    -0.293 OA
ENDBRANCH   1   7
BRANCH   4  10
ATOM     10  C   UNL     1      44.651 131.336  18.482  1.00  0.00    -0.015 A 
ATOM     11  C   UNL     1      43.312 131.814  18.460  1.00  0.00     0.009 A 
ATOM     12  C   UNL     1      45.267 131.057  19.726  1.00  0.00     0.035 A 
ATOM     13  C   UNL     1      42.597 132.012  19.654  1.00  0.00     0.011 A 
ATOM     14  C   UNL     1      44.529 131.265  20.889  1.00  0.00     0.046 A 
ATOM     15  C   UNL     1      43.242 131.726  20.853  1.00  0.00    -0.001 A 
ATOM     16  N   UNL     1      44.929 131.066  22.156  1.00  0.00    -0.361 N 
ATOM     17  C   UNL     1      42.801 131.824  22.156  1.00  0.00     0.028 A 
ATOM     18  C   UNL     1      43.875 131.407  22.934  1.00  0.00     0.083 A 
ATOM     19  H   UNL     1      45.860 130.721  22.479  1.00  0.00     0.166 HD
ENDBRANCH   4  10
TORSDOF 2
ENDMDL
MODEL 2
REMARK VINA RESULT:     -10.1      0.645      1.133
REMARK SMILES CC(=O)c1ccc(-c2ccc3cc[nH]c3c2)cn1
REMARK SMILES IDX 4 1 5 2 6 3 7 4 17 5 18 6 2 7 1 8 3 9 8 10 9 11 16 12 10 13
REMARK SMILES IDX 15 14 11 15 14 16 12 17 13 18
REMARK H PARENT 14 19
ROOT
ATOM      1  C   UNL     1      46.793 130.665  14.782  1.00  0.00     0.106 A 
ATOM      2  C   UNL     1      46.613 129.601  15.678  1.00  0.00     0.033 A 
ATOM      3  C   UNL     1      45.911 129.812  16.865  1.00  0.00     0.013 A 
ATOM      4  C   UNL     1      45.387 131.080  17.164  1.00  0.00     0.000 A 
ATOM      5  C   UNL     1      45.590 132.116  16.238  1.00  0.00     0.120 A 
ATOM      6  N   UNL     1      46.279 131.888  15.089  1.00  0.00    -0.253 NA
ENDROOT
BRANCH   1   7
ATOM      7  C   UNL     1      47.532 130.480  13.515  1.00  0.00     0.178 C 
ATOM      8  C   UNL     1      48.549 129.389  13.377  1.00  0.00     0.095 C 
ATOM      9  O   UNL     1      47.313 131.241  12.534  1.00  0.00    -0.293 OA
ENDBRANCH   1   7
BRANCH   4  10
ATOM     10  C   UNL     1      44.636 131.318  18.422  1.00  0.00    -0.015 A 
ATOM     11  C   UNL     1      43.287 131.767  18.380  1.00  0.00     0.009 A 
ATOM     12  C   UNL     1      45.254 131.100  19.676  1.00  0.00     0.035 A 
ATOM     13  C   UNL     1      42.565 131.996  19.566  1.00  0.00     0.011 A 
ATOM     14  C   UNL     1      44.510 131.336  20.830  1.00  0.00     0.046 A 
ATOM     15  C   UNL     1      43.214 131.769  20.775  1.00  0.00    -0.001 A 
ATOM     16  N   UNL     1      44.912 131.194  22.104  1.00  0.00    -0.361 N 
ATOM     17  C   UNL     1      42.769 131.907  22.073  1.00  0.00     0.028 A 
ATOM     18  C   UNL     1      43.850 131.542  22.867  1.00  0.00     0.083 A 
ATOM     19  H   UNL     1      45.850 130.881  22.441  1.00  0.00     0.166 HD
ENDBRANCH   4  10
TORSDOF 2
ENDMDL
MODEL 3
REMARK VINA RESULT:     -10.0      2.757      7.042
REMARK SMILES CC(=O)c1ccc(-c2ccc3cc[nH]c3c2)cn1
REMARK SMILES IDX 4 1 5 2 6 3 7 4 17 5 18 6 2 7 1 8 3 9 8 10 9 11 16 12 10 13
REMARK SMILES IDX 15 14 11 15 14 16 12 17 13 18
REMARK H PARENT 14 19
ROOT
ATOM      1  C   UNL     1      43.804 131.198  20.867  1.00  0.00     0.106 A 
ATOM      2  C   UNL     1      43.120 131.762  19.780  1.00  0.00     0.033 A 
ATOM      3  C   UNL     1      43.711 131.756  18.516  1.00  0.00     0.013 A 
ATOM      4  C   UNL     1      44.984 131.191  18.331  1.00  0.00     0.000 A 
ATOM      5  C   UNL     1      45.632 130.638  19.447  1.00  0.00     0.120 A 
ATOM      6  N   UNL     1      45.037 130.656  20.668  1.00  0.00    -0.253 NA
ENDROOT
BRANCH   1   7
ATOM      7  C   UNL     1      43.209 131.186  22.221  1.00  0.00     0.178 C 
ATOM      8  C   UNL     1      43.405 130.013  23.130  1.00  0.00     0.095 C 
ATOM      9  O   UNL     1      42.526 132.167  22.624  1.00  0.00    -0.293 OA
ENDBRANCH   1   7
BRANCH   4  10
ATOM     10  C   UNL     1      45.624 131.177  16.992  1.00  0.00    -0.015 A 
ATOM     11  C   UNL     1      45.563 132.325  16.154  1.00  0.00     0.009 A 
ATOM     12  C   UNL     1      46.302 130.021  16.536  1.00  0.00     0.035 A 
ATOM     13  C   UNL     1      46.167 132.323  14.883  1.00  0.00     0.011 A 
ATOM     14  C   UNL     1      46.888 130.055  15.272  1.00  0.00     0.046 A 
ATOM     15  C   UNL     1      46.821 131.164  14.476  1.00  0.00    -0.001 A 
ATOM     16  N   UNL     1      47.566 129.069  14.661  1.00  0.00    -0.361 N 
ATOM     17  C   UNL     1      47.489 130.875  13.305  1.00  0.00     0.028 A 
ATOM     18  C   UNL     1      47.936 129.567  13.458  1.00  0.00     0.083 A 
ATOM     19  H   UNL     1      47.769 128.115  15.033  1.00  0.00     0.166 HD
ENDBRANCH   4  10
TORSDOF 2
ENDMDL
MODEL 4
REMARK VINA RESULT:      -9.9      2.864      7.134
REMARK SMILES CC(=O)c1ccc(-c2ccc3cc[nH]c3c2)cn1
REMARK SMILES IDX 4 1 5 2 6 3 7 4 17 5 18 6 2 7 1 8 3 9 8 10 9 11 16 12 10 13
REMARK SMILES IDX 15 14 11 15 14 16 12 17 13 18
REMARK H PARENT 14 19
ROOT
ATOM      1  C   UNL     1      44.118 131.025  21.212  1.00  0.00     0.106 A 
ATOM      2  C   UNL     1      45.349 130.413  20.930  1.00  0.00     0.033 A 
ATOM      3  C   UNL     1      45.847 130.437  19.627  1.00  0.00     0.013 A 
ATOM      4  C   UNL     1      45.123 131.069  18.602  1.00  0.00     0.000 A 
ATOM      5  C   UNL     1      43.897 131.670  18.930  1.00  0.00     0.120 A 
ATOM      6  N   UNL     1      43.431 131.631  20.205  1.00  0.00    -0.253 NA
ENDROOT
BRANCH   1   7
ATOM      7  C   UNL     1      43.559 131.019  22.581  1.00  0.00     0.178 C 
ATOM      8  C   UNL     1      44.168 131.863  23.657  1.00  0.00     0.095 C 
ATOM      9  O   UNL     1      42.560 130.300  22.856  1.00  0.00    -0.293 OA
ENDBRANCH   1   7
BRANCH   4  10
ATOM     10  C   UNL     1      45.642 131.104  17.211  1.00  0.00    -0.015 A 
ATOM     11  C   UNL     1      45.387 132.228  16.377  1.00  0.00     0.009 A 
ATOM     12  C   UNL     1      46.397 130.020  16.703  1.00  0.00     0.035 A 
ATOM     13  C   UNL     1      45.874 132.272  15.058  1.00  0.00     0.011 A 
ATOM     14  C   UNL     1      46.864 130.098  15.392  1.00  0.00     0.046 A 
ATOM     15  C   UNL     1      46.610 131.184  14.600  1.00  0.00    -0.001 A 
ATOM     16  N   UNL     1      47.587 129.182  14.728  1.00  0.00    -0.361 N 
ATOM     17  C   UNL     1      47.200 130.950  13.376  1.00  0.00     0.028 A 
ATOM     18  C   UNL     1      47.796 129.699  13.495  1.00  0.00     0.083 A 
ATOM     19  H   UNL     1      47.921 128.259  15.084  1.00  0.00     0.166 HD
ENDBRANCH   4  10
TORSDOF 2
ENDMDL
MODEL 5
REMARK VINA RESULT:      -9.5      0.975      1.585
REMARK SMILES CC(=O)c1ccc(-c2ccc3cc[nH]c3c2)cn1
REMARK SMILES IDX 4 1 5 2 6 3 7 4 17 5 18 6 2 7 1 8 3 9 8 10 9 11 16 12 10 13
REMARK SMILES IDX 15 14 11 15 14 16 12 17 13 18
REMARK H PARENT 14 19
ROOT
ATOM      1  C   UNL     1      46.660 130.700  14.981  1.00  0.00     0.106 A 
ATOM      2  C   UNL     1      46.015 131.892  15.345  1.00  0.00     0.033 A 
ATOM      3  C   UNL     1      45.479 132.021  16.627  1.00  0.00     0.013 A 
ATOM      4  C   UNL     1      45.583 130.966  17.548  1.00  0.00     0.000 A 
ATOM      5  C   UNL     1      46.237 129.791  17.142  1.00  0.00     0.120 A 
ATOM      6  N   UNL     1      46.749 129.688  15.887  1.00  0.00    -0.253 NA
ENDROOT
BRANCH   1   7
ATOM      7  C   UNL     1      47.240 130.527  13.631  1.00  0.00     0.178 C 
ATOM      8  C   UNL     1      48.361 129.562  13.401  1.00  0.00     0.095 C 
ATOM      9  O   UNL     1      46.794 131.194  12.658  1.00  0.00    -0.293 OA
ENDBRANCH   1   7
BRANCH   4  10
ATOM     10  C   UNL     1      45.019 131.090  18.916  1.00  0.00    -0.015 A 
ATOM     11  C   UNL     1      45.716 130.551  20.033  1.00  0.00     0.009 A 
ATOM     12  C   UNL     1      43.782 131.746  19.123  1.00  0.00     0.035 A 
ATOM     13  C   UNL     1      45.192 130.663  21.333  1.00  0.00     0.011 A 
ATOM     14  C   UNL     1      43.293 131.839  20.424  1.00  0.00     0.046 A 
ATOM     15  C   UNL     1      43.973 131.315  21.488  1.00  0.00    -0.001 A 
ATOM     16  N   UNL     1      42.147 132.413  20.826  1.00  0.00    -0.361 N 
ATOM     17  C   UNL     1      43.228 131.569  22.621  1.00  0.00     0.028 A 
ATOM     18  C   UNL     1      42.104 132.251  22.169  1.00  0.00     0.083 A 
ATOM     19  H   UNL     1      41.433 132.887  20.229  1.00  0.00     0.166 HD
ENDBRANCH   4  10
TORSDOF 2
ENDMDL
MODEL 6
REMARK VINA RESULT:      -9.4      2.791      7.094
REMARK SMILES CC(=O)c1ccc(-c2ccc3cc[nH]c3c2)cn1
REMARK SMILES IDX 4 1 5 2 6 3 7 4 17 5 18 6 2 7 1 8 3 9 8 10 9 11 16 12 10 13
REMARK SMILES IDX 15 14 11 15 14 16 12 17 13 18
REMARK H PARENT 14 19
ROOT
ATOM      1  C   UNL     1      43.500 131.630  20.509  1.00  0.00     0.106 A 
ATOM      2  C   UNL     1      44.887 131.419  20.526  1.00  0.00     0.033 A 
ATOM      3  C   UNL     1      45.578 131.290  19.322  1.00  0.00     0.013 A 
ATOM      4  C   UNL     1      44.893 131.371  18.098  1.00  0.00     0.000 A 
ATOM      5  C   UNL     1      43.505 131.584  18.128  1.00  0.00     0.120 A 
ATOM      6  N   UNL     1      42.853 131.705  19.314  1.00  0.00    -0.253 NA
ENDROOT
BRANCH   1   7
ATOM      7  C   UNL     1      42.733 131.772  21.766  1.00  0.00     0.178 C 
ATOM      8  C   UNL     1      43.013 130.878  22.935  1.00  0.00     0.095 C 
ATOM      9  O   UNL     1      41.833 132.649  21.866  1.00  0.00    -0.293 OA
ENDBRANCH   1   7
BRANCH   4  10
ATOM     10  C   UNL     1      45.617 131.237  16.809  1.00  0.00    -0.015 A 
ATOM     11  C   UNL     1      45.653 132.322  15.889  1.00  0.00     0.009 A 
ATOM     12  C   UNL     1      46.278 130.029  16.482  1.00  0.00     0.035 A 
ATOM     13  C   UNL     1      46.335 132.207  14.665  1.00  0.00     0.011 A 
ATOM     14  C   UNL     1      46.945 129.951  15.261  1.00  0.00     0.046 A 
ATOM     15  C   UNL     1      46.970 131.001  14.385  1.00  0.00    -0.001 A 
ATOM     16  N   UNL     1      47.623 128.901  14.767  1.00  0.00    -0.361 N 
ATOM     17  C   UNL     1      47.700 130.604  13.285  1.00  0.00     0.028 A 
ATOM     18  C   UNL     1      48.087 129.297  13.559  1.00  0.00     0.083 A 
ATOM     19  H   UNL     1      47.765 127.970  15.219  1.00  0.00     0.166 HD
ENDBRANCH   4  10
TORSDOF 2
ENDMDL
MODEL 7
REMARK VINA RESULT:      -9.3      1.386      1.964
REMARK SMILES CC(=O)c1ccc(-c2ccc3cc[nH]c3c2)cn1
REMARK SMILES IDX 4 1 5 2 6 3 7 4 17 5 18 6 2 7 1 8 3 9 8 10 9 11 16 12 10 13
REMARK SMILES IDX 15 14 11 15 14 16 12 17 13 18
REMARK H PARENT 14 19
ROOT
ATOM      1  C   UNL     1      47.072 130.511  14.652  1.00  0.00     0.106 A 
ATOM      2  C   UNL     1      46.432 131.750  14.800  1.00  0.00     0.033 A 
ATOM      3  C   UNL     1      45.708 132.017  15.963  1.00  0.00     0.013 A 
ATOM      4  C   UNL     1      45.619 131.052  16.979  1.00  0.00     0.000 A 
ATOM      5  C   UNL     1      46.275 129.826  16.790  1.00  0.00     0.120 A 
ATOM      6  N   UNL     1      46.973 129.588  15.648  1.00  0.00    -0.253 NA
ENDROOT
BRANCH   1   7
ATOM      7  C   UNL     1      47.848 130.192  13.434  1.00  0.00     0.178 C 
ATOM      8  C   UNL     1      47.811 131.103  12.246  1.00  0.00     0.095 C 
ATOM      9  O   UNL     1      48.551 129.146  13.384  1.00  0.00    -0.293 OA
ENDBRANCH   1   7
BRANCH   4  10
ATOM     10  C   UNL     1      44.853 131.324  18.223  1.00  0.00    -0.015 A 
ATOM     11  C   UNL     1      45.338 130.867  19.480  1.00  0.00     0.009 A 
ATOM     12  C   UNL     1      43.634 132.040  18.169  1.00  0.00     0.035 A 
ATOM     13  C   UNL     1      44.622 131.118  20.664  1.00  0.00     0.011 A 
ATOM     14  C   UNL     1      42.951 132.271  19.362  1.00  0.00     0.046 A 
ATOM     15  C   UNL     1      43.428 131.825  20.563  1.00  0.00    -0.001 A 
ATOM     16  N   UNL     1      41.786 132.920  19.522  1.00  0.00    -0.361 N 
ATOM     17  C   UNL     1      42.528 132.209  21.534  1.00  0.00     0.028 A 
ATOM     18  C   UNL     1      41.524 132.885  20.849  1.00  0.00     0.083 A 
ATOM     19  H   UNL     1      41.199 133.361  18.779  1.00  0.00     0.166 HD
ENDBRANCH   4  10
TORSDOF 2
ENDMDL
MODEL 8
REMARK VINA RESULT:      -9.0      2.936      7.190
REMARK SMILES CC(=O)c1ccc(-c2ccc3cc[nH]c3c2)cn1
REMARK SMILES IDX 4 1 5 2 6 3 7 4 17 5 18 6 2 7 1 8 3 9 8 10 9 11 16 12 10 13
REMARK SMILES IDX 15 14 11 15 14 16 12 17 13 18
REMARK H PARENT 14 19
ROOT
ATOM      1  C   UNL     1      42.933 132.174  19.980  1.00  0.00     0.106 A 
ATOM      2  C   UNL     1      44.267 131.793  20.188  1.00  0.00     0.033 A 
ATOM      3  C   UNL     1      45.037 131.363  19.107  1.00  0.00     0.013 A 
ATOM      4  C   UNL     1      44.483 131.313  17.817  1.00  0.00     0.000 A 
ATOM      5  C   UNL     1      43.144 131.705  17.654  1.00  0.00     0.120 A 
ATOM      6  N   UNL     1      42.413 132.117  18.723  1.00  0.00    -0.253 NA
ENDROOT
BRANCH   1   7
ATOM      7  C   UNL     1      42.087 132.634  21.102  1.00  0.00     0.178 C 
ATOM      8  C   UNL     1      42.342 132.154  22.497  1.00  0.00     0.095 C 
ATOM      9  O   UNL     1      41.138 133.438  20.894  1.00  0.00    -0.293 OA
ENDBRANCH   1   7
BRANCH   4  10
ATOM     10  C   UNL     1      45.291 130.860  16.657  1.00  0.00    -0.015 A 
ATOM     11  C   UNL     1      45.447 129.472  16.387  1.00  0.00     0.009 A 
ATOM     12  C   UNL     1      45.915 131.805  15.807  1.00  0.00     0.035 A 
ATOM     13  C   UNL     1      46.210 129.031  15.291  1.00  0.00     0.011 A 
ATOM     14  C   UNL     1      46.663 131.333  14.731  1.00  0.00     0.046 A 
ATOM     15  C   UNL     1      46.805 129.996  14.484  1.00  0.00    -0.001 A 
ATOM     16  N   UNL     1      47.331 132.060  13.820  1.00  0.00    -0.361 N 
ATOM     17  C   UNL     1      47.597 129.864  13.363  1.00  0.00     0.028 A 
ATOM     18  C   UNL     1      47.903 131.165  12.981  1.00  0.00     0.083 A 
ATOM     19  H   UNL     1      47.398 133.101  13.766  1.00  0.00     0.166 HD
ENDBRANCH   4  10
TORSDOF 2
ENDMDL
MODEL 9
REMARK VINA RESULT:      -8.9      1.333      2.086
REMARK SMILES CC(=O)c1ccc(-c2ccc3cc[nH]c3c2)cn1
REMARK SMILES IDX 4 1 5 2 6 3 7 4 17 5 18 6 2 7 1 8 3 9 8 10 9 11 16 12 10 13
REMARK SMILES IDX 15 14 11 15 14 16 12 17 13 18
REMARK H PARENT 14 19
ROOT
ATOM      1  C   UNL     1      46.834 130.629  14.638  1.00  0.00     0.106 A 
ATOM      2  C   UNL     1      46.552 129.555  15.495  1.00  0.00     0.033 A 
ATOM      3  C   UNL     1      45.877 129.789  16.693  1.00  0.00     0.013 A 
ATOM      4  C   UNL     1      45.482 131.091  17.042  1.00  0.00     0.000 A 
ATOM      5  C   UNL     1      45.784 132.136  16.155  1.00  0.00     0.120 A 
ATOM      6  N   UNL     1      46.444 131.884  14.994  1.00  0.00    -0.253 NA
ENDROOT
BRANCH   1   7
ATOM      7  C   UNL     1      47.547 130.419  13.359  1.00  0.00     0.178 C 
ATOM      8  C   UNL     1      48.676 129.439  13.267  1.00  0.00     0.095 C 
ATOM      9  O   UNL     1      47.211 131.067  12.331  1.00  0.00    -0.293 OA
ENDBRANCH   1   7
BRANCH   4  10
ATOM     10  C   UNL     1      44.762 131.354  18.314  1.00  0.00    -0.015 A 
ATOM     11  C   UNL     1      45.328 130.956  19.556  1.00  0.00     0.009 A 
ATOM     12  C   UNL     1      43.505 132.004  18.302  1.00  0.00     0.035 A 
ATOM     13  C   UNL     1      44.655 131.200  20.767  1.00  0.00     0.011 A 
ATOM     14  C   UNL     1      42.866 132.230  19.520  1.00  0.00     0.046 A 
ATOM     15  C   UNL     1      43.422 131.841  20.707  1.00  0.00    -0.001 A 
ATOM     16  N   UNL     1      41.677 132.822  19.721  1.00  0.00    -0.361 N 
ATOM     17  C   UNL     1      42.549 132.203  21.711  1.00  0.00     0.028 A 
ATOM     18  C   UNL     1      41.479 132.808  21.059  1.00  0.00     0.083 A 
ATOM     19  H   UNL     1      41.035 133.213  18.996  1.00  0.00     0.166 HD
ENDBRANCH   4  10
TORSDOF 2
ENDMDL


