REMARK SMILES CC(=O)c1ccc(-c2nccc(C)c2F)c2c[nH]nc12
REMARK SMILES IDX 4 1 5 2 6 3 7 4 16 5 17 6 18 7 19 8 20 9 2 11 1 12 3 13 8 14
REMARK SMILES IDX 9 15 14 16 10 17 12 18 11 19 15 20 13 21
REMARK H PARENT 18 10
ROOT
ATOM      1  C   UNL     1      -1.096   2.257  -0.237  1.00  0.00     0.045 A 
ATOM      2  C   UNL     1      -0.560   1.624   0.911  1.00  0.00     0.015 A 
ATOM      3  C   UNL     1       0.287   0.501   0.797  1.00  0.00     0.012 A 
ATOM      4  C   UNL     1       0.631  -0.024  -0.467  1.00  0.00     0.014 A 
ATOM      5  C   UNL     1       0.081   0.613  -1.586  1.00  0.00     0.030 A 
ATOM      6  C   UNL     1       0.212   0.387  -2.939  1.00  0.00     0.114 A 
ATOM      7  N   UNL     1      -0.521   1.320  -3.581  1.00  0.00    -0.284 N 
ATOM      8  N   UNL     1      -1.105   2.129  -2.705  1.00  0.00    -0.175 NA
ATOM      9  C   UNL     1      -0.742   1.706  -1.479  1.00  0.00     0.103 A 
ATOM     10  H   UNL     1      -0.620   1.412  -4.616  1.00  0.00     0.189 HD
ENDROOT
BRANCH   1  11
ATOM     11  C   UNL     1      -1.988   3.444  -0.131  1.00  0.00     0.162 C 
ATOM     12  C   UNL     1      -2.351   4.041   1.195  1.00  0.00     0.093 C 
ATOM     13  O   UNL     1      -2.462   3.972  -1.174  1.00  0.00    -0.294 OA
ENDBRANCH   1  11
BRANCH   4  14
ATOM     14  C   UNL     1       1.498  -1.218  -0.597  1.00  0.00     0.107 A 
ATOM     15  N   UNL     1       1.149  -2.199  -1.474  1.00  0.00    -0.253 NA
ATOM     16  C   UNL     1       2.673  -1.359   0.165  1.00  0.00     0.152 A 
ATOM     17  C   UNL     1       1.897  -3.321  -1.639  1.00  0.00     0.112 A 
ATOM     18  C   UNL     1       3.455  -2.517   0.023  1.00  0.00    -0.012 A 
ATOM     19  C   UNL     1       3.064  -3.500  -0.896  1.00  0.00     0.026 A 
ATOM     20  F   UNL     1       3.077  -0.369   1.004  1.00  0.00    -0.204 F 
ATOM     21  C   UNL     1       4.729  -2.672   0.802  1.00  0.00     0.047 C 
ENDBRANCH   4  14
TORSDOF 2


