REMARK SMILES C/C=C(/O)OCOc1ccc([NH2+]c2ccc3cc[nH]c3c2)c(F)c1
REMARK SMILES IDX 6 1 5 2 3 3 4 4 2 6 1 7 7 8 8 9 9 10 24 11 10 12 22 13 11 14
REMARK SMILES IDX 23 15 12 16 13 19 14 20 21 21 15 22 20 23 16 24 19 25 17 26
REMARK SMILES IDX 18 27
REMARK H PARENT 4 5 12 17 12 18 19 28
ROOT
ATOM      1  C   UNL     1       1.768   0.966  -3.238  1.00  0.00     0.471 C 
ENDROOT
BRANCH   1   2
ATOM      2  O   UNL     1       1.611   2.380  -3.170  1.00  0.00    -0.428 OA
BRANCH   2   3
ATOM      3  C   UNL     1       2.636   3.268  -2.811  1.00  0.00     0.274 C 
BRANCH   3   4
ATOM      4  O   UNL     1       3.942   2.827  -2.589  1.00  0.00    -0.481 OA
ATOM      5  H   UNL     1       4.213   1.858  -2.687  1.00  0.00     0.296 HD
ENDBRANCH   3   4
BRANCH   3   6
ATOM      6  C   UNL     1       2.367   4.568  -2.675  1.00  0.00     0.058 C 
ATOM      7  C   UNL     1       0.991   5.118  -2.883  1.00  0.00     0.043 C 
ENDBRANCH   3   6
ENDBRANCH   2   3
ENDBRANCH   1   2
BRANCH   1   8
ATOM      8  O   UNL     1       2.100   0.439  -1.954  1.00  0.00    -0.457 OA
BRANCH   8   9
ATOM      9  C   UNL     1       1.279   0.518  -0.819  1.00  0.00     0.127 A 
ATOM     10  C   UNL     1      -0.009   1.085  -0.853  1.00  0.00     0.053 A 
ATOM     11  C   UNL     1       1.770   0.012   0.390  1.00  0.00     0.092 A 
ATOM     12  C   UNL     1      -0.783   1.145   0.309  1.00  0.00     0.075 A 
ATOM     13  C   UNL     1       0.998   0.069   1.554  1.00  0.00     0.187 A 
ATOM     14  C   UNL     1      -0.288   0.643   1.526  1.00  0.00     0.170 A 
ATOM     15  F   UNL     1       1.506  -0.431   2.708  1.00  0.00    -0.200 F 
BRANCH  14  16
ATOM     16  N   UNL     1      -1.108   0.681   2.712  1.00  0.00    -0.279 N 
ATOM     17  H   UNL     1      -1.721   1.530   2.697  1.00  0.00     0.358 HD
ATOM     18  H   UNL     1      -0.511   0.760   3.568  1.00  0.00     0.358 HD
BRANCH  16  19
ATOM     19  C   UNL     1      -1.921  -0.507   2.779  1.00  0.00     0.136 A 
ATOM     20  C   UNL     1      -1.455  -1.658   3.471  1.00  0.00     0.069 A 
ATOM     21  C   UNL     1      -3.175  -0.550   2.123  1.00  0.00     0.094 A 
ATOM     22  C   UNL     1      -2.227  -2.833   3.517  1.00  0.00     0.016 A 
ATOM     23  C   UNL     1      -3.912  -1.730   2.188  1.00  0.00     0.051 A 
ATOM     24  C   UNL     1      -3.454  -2.830   2.861  1.00  0.00    -0.000 A 
ATOM     25  N   UNL     1      -5.113  -1.974   1.638  1.00  0.00    -0.361 N 
ATOM     26  C   UNL     1      -4.406  -3.818   2.733  1.00  0.00     0.028 A 
ATOM     27  C   UNL     1      -5.419  -3.249   1.968  1.00  0.00     0.083 A 
ATOM     28  H   UNL     1      -5.693  -1.317   1.070  1.00  0.00     0.166 HD
ENDBRANCH  16  19
ENDBRANCH  14  16
ENDBRANCH   8   9
ENDBRANCH   1   8
TORSDOF 8


