MODEL 1
REMARK VINA RESULT:      -7.0      0.000      0.000
REMARK SMILES Cc1c(CCC(O)=C2CCC2)c(F)cc2[nH]c(-c3nc[nH+]cc3F)cc12
REMARK SMILES IDX 4 1 3 2 2 3 26 4 12 5 25 6 15 7 14 8 17 9 16 10 1 11 13 12
REMARK SMILES IDX 18 14 19 15 23 16 20 17 22 18 21 19 24 20 5 22 6 23 7 24
REMARK SMILES IDX 8 26 9 27 11 28 10 29
REMARK H PARENT 16 13 21 21 7 25
ROOT
ATOM      1  C   UNL     1      43.168 132.145  21.536  1.00  0.00     0.047 C 
ENDROOT
BRANCH   1   2
ATOM      2  C   UNL     1      43.452 131.943  20.060  1.00  0.00    -0.008 A 
ATOM      3  C   UNL     1      44.702 131.432  19.590  1.00  0.00    -0.036 A 
ATOM      4  C   UNL     1      44.879 131.343  18.197  1.00  0.00     0.004 A 
ATOM      5  C   UNL     1      42.450 132.321  19.123  1.00  0.00     0.128 A 
ATOM      6  C   UNL     1      45.954 130.923  17.433  1.00  0.00     0.041 A 
ATOM      7  C   UNL     1      43.898 131.721  17.315  1.00  0.00     0.049 A 
ATOM      8  C   UNL     1      42.673 132.213  17.745  1.00  0.00     0.066 A 
ATOM      9  C   UNL     1      45.553 131.065  16.107  1.00  0.00     0.095 A 
ATOM     10  N   UNL     1      44.295 131.561  16.042  1.00  0.00    -0.351 N 
ATOM     11  C   UNL     1      45.781 130.969  20.537  1.00  0.00     0.045 C 
ATOM     12  F   UNL     1      41.257 132.808  19.551  1.00  0.00    -0.207 F 
ATOM     13  H   UNL     1      43.748 131.819  15.191  1.00  0.00     0.167 HD
BRANCH   9  14
ATOM     14  C   UNL     1      46.412 130.769  14.940  1.00  0.00     0.237 A 
ATOM     15  N   UNL     1      46.967 131.808  14.256  1.00  0.00    -0.044 NA
ATOM     16  C   UNL     1      46.690 129.456  14.522  1.00  0.00     0.215 A 
ATOM     17  C   UNL     1      47.763 131.603  13.175  1.00  0.00     0.449 A 
ATOM     18  C   UNL     1      47.510 129.268  13.409  1.00  0.00     0.241 A 
ATOM     19  N   UNL     1      48.027 130.339  12.754  1.00  0.00    -0.247 N 
ATOM     20  F   UNL     1      46.228 128.374  15.196  1.00  0.00    -0.198 F 
ATOM     21  H   UNL     1      48.641 130.190  11.922  1.00  0.00     0.311 HD
ENDBRANCH   9  14
ENDBRANCH   1   2
BRANCH   1  22
ATOM     22  C   UNL     1      42.306 131.013  22.116  1.00  0.00     0.079 C 
BRANCH  22  23
ATOM     23  C   UNL     1      42.838 130.526  23.438  1.00  0.00     0.092 C 
BRANCH  23  24
ATOM     24  O   UNL     1      42.372 131.088  24.623  1.00  0.00    -0.512 OA
ATOM     25  H   UNL     1      42.753 130.811  25.520  1.00  0.00     0.293 HD
ENDBRANCH  23  24
BRANCH  23  26
ATOM     26  C   UNL     1      43.731 129.541  23.499  1.00  0.00    -0.033 C 
ATOM     27  C   UNL     1      44.324 128.656  24.578  1.00  0.00     0.035 C 
ATOM     28  C   UNL     1      44.628 128.766  22.550  1.00  0.00     0.035 C 
ATOM     29  C   UNL     1      45.199 127.905  23.629  1.00  0.00     0.009 C 
ENDBRANCH  23  26
ENDBRANCH  22  23
ENDBRANCH   1  22
TORSDOF 6
ENDMDL
MODEL 2
REMARK VINA RESULT:      -6.0      1.536      1.668
REMARK SMILES Cc1c(CCC(O)=C2CCC2)c(F)cc2[nH]c(-c3nc[nH+]cc3F)cc12
REMARK SMILES IDX 4 1 3 2 2 3 26 4 12 5 25 6 15 7 14 8 17 9 16 10 1 11 13 12
REMARK SMILES IDX 18 14 19 15 23 16 20 17 22 18 21 19 24 20 5 22 6 23 7 24
REMARK SMILES IDX 8 26 9 27 11 28 10 29
REMARK H PARENT 16 13 21 21 7 25
ROOT
ATOM      1  C   UNL     1      43.770 131.011  22.497  1.00  0.00     0.047 C 
ENDROOT
BRANCH   1   2
ATOM      2  C   UNL     1      43.811 131.138  20.986  1.00  0.00    -0.008 A 
ATOM      3  C   UNL     1      44.887 130.608  20.208  1.00  0.00    -0.036 A 
ATOM      4  C   UNL     1      44.853 130.837  18.820  1.00  0.00     0.004 A 
ATOM      5  C   UNL     1      42.762 131.851  20.342  1.00  0.00     0.128 A 
ATOM      6  C   UNL     1      45.731 130.486  17.809  1.00  0.00     0.041 A 
ATOM      7  C   UNL     1      43.832 131.534  18.224  1.00  0.00     0.049 A 
ATOM      8  C   UNL     1      42.772 132.053  18.955  1.00  0.00     0.066 A 
ATOM      9  C   UNL     1      45.179 130.993  16.636  1.00  0.00     0.095 A 
ATOM     10  N   UNL     1      44.018 131.639  16.898  1.00  0.00    -0.351 N 
ATOM     11  C   UNL     1      46.000 129.801  20.831  1.00  0.00     0.045 C 
ATOM     12  F   UNL     1      41.732 132.362  21.064  1.00  0.00    -0.207 F 
ATOM     13  H   UNL     1      43.406 132.160  16.232  1.00  0.00     0.167 HD
BRANCH   9  14
ATOM     14  C   UNL     1      45.809 130.886  15.303  1.00  0.00     0.237 A 
ATOM     15  N   UNL     1      47.085 130.416  15.218  1.00  0.00    -0.044 NA
ATOM     16  C   UNL     1      45.134 131.232  14.120  1.00  0.00     0.215 A 
ATOM     17  C   UNL     1      47.720 130.296  14.023  1.00  0.00     0.449 A 
ATOM     18  C   UNL     1      45.805 131.101  12.904  1.00  0.00     0.241 A 
ATOM     19  N   UNL     1      47.082 130.641  12.875  1.00  0.00    -0.247 N 
ATOM     20  F   UNL     1      43.840 131.639  14.123  1.00  0.00    -0.198 F 
ATOM     21  H   UNL     1      47.577 130.545  11.960  1.00  0.00     0.311 HD
ENDBRANCH   9  14
ENDBRANCH   1   2
BRANCH   1  22
ATOM     22  C   UNL     1      42.403 130.516  22.995  1.00  0.00     0.079 C 
BRANCH  22  23
ATOM     23  C   UNL     1      42.371 129.020  23.149  1.00  0.00     0.092 C 
BRANCH  23  24
ATOM     24  O   UNL     1      41.175 128.329  22.979  1.00  0.00    -0.512 OA
ATOM     25  H   UNL     1      40.958 127.511  23.537  1.00  0.00     0.293 HD
ENDBRANCH  23  24
BRANCH  23  26
ATOM     26  C   UNL     1      43.479 128.332  23.419  1.00  0.00    -0.033 C 
ATOM     27  C   UNL     1      44.411 128.163  24.602  1.00  0.00     0.035 C 
ATOM     28  C   UNL     1      44.403 127.354  22.715  1.00  0.00     0.035 C 
ATOM     29  C   UNL     1      45.309 127.202  23.893  1.00  0.00     0.009 C 
ENDBRANCH  23  26
ENDBRANCH  22  23
ENDBRANCH   1  22
TORSDOF 6
ENDMDL
MODEL 3
REMARK VINA RESULT:      -5.9      1.247      1.474
REMARK SMILES Cc1c(CCC(O)=C2CCC2)c(F)cc2[nH]c(-c3nc[nH+]cc3F)cc12
REMARK SMILES IDX 4 1 3 2 2 3 26 4 12 5 25 6 15 7 14 8 17 9 16 10 1 11 13 12
REMARK SMILES IDX 18 14 19 15 23 16 20 17 22 18 21 19 24 20 5 22 6 23 7 24
REMARK SMILES IDX 8 26 9 27 11 28 10 29
REMARK H PARENT 16 13 21 21 7 25
ROOT
ATOM      1  C   UNL     1      42.963 131.794  21.282  1.00  0.00     0.047 C 
ENDROOT
BRANCH   1   2
ATOM      2  C   UNL     1      43.352 131.623  19.826  1.00  0.00    -0.008 A 
ATOM      3  C   UNL     1      44.591 131.026  19.436  1.00  0.00    -0.036 A 
ATOM      4  C   UNL     1      44.876 130.973  18.059  1.00  0.00     0.004 A 
ATOM      5  C   UNL     1      42.466 132.119  18.830  1.00  0.00     0.128 A 
ATOM      6  C   UNL     1      45.973 130.492  17.366  1.00  0.00     0.041 A 
ATOM      7  C   UNL     1      44.006 131.465  17.118  1.00  0.00     0.049 A 
ATOM      8  C   UNL     1      42.794 132.042  17.470  1.00  0.00     0.066 A 
ATOM      9  C   UNL     1      45.698 130.716  16.020  1.00  0.00     0.095 A 
ATOM     10  N   UNL     1      44.494 131.319  15.875  1.00  0.00    -0.351 N 
ATOM     11  C   UNL     1      45.546 130.438  20.446  1.00  0.00     0.045 C 
ATOM     12  F   UNL     1      41.285 132.689  19.181  1.00  0.00    -0.207 F 
ATOM     13  H   UNL     1      44.042 131.653  14.996  1.00  0.00     0.167 HD
BRANCH   9  14
ATOM     14  C   UNL     1      46.624 130.392  14.913  1.00  0.00     0.237 A 
ATOM     15  N   UNL     1      47.678 129.567  15.162  1.00  0.00    -0.044 NA
ATOM     16  C   UNL     1      46.444 130.888  13.610  1.00  0.00     0.215 A 
ATOM     17  C   UNL     1      48.565 129.233  14.189  1.00  0.00     0.449 A 
ATOM     18  C   UNL     1      47.367 130.532  12.626  1.00  0.00     0.241 A 
ATOM     19  N   UNL     1      48.409 129.717  12.931  1.00  0.00    -0.247 N 
ATOM     20  F   UNL     1      45.379 131.657  13.274  1.00  0.00    -0.198 F 
ATOM     21  H   UNL     1      49.095 129.454  12.187  1.00  0.00     0.311 HD
ENDBRANCH   9  14
ENDBRANCH   1   2
BRANCH   1  22
ATOM     22  C   UNL     1      44.191 131.806  22.207  1.00  0.00     0.079 C 
BRANCH  22  23
ATOM     23  C   UNL     1      43.836 131.401  23.612  1.00  0.00     0.092 C 
BRANCH  23  24
ATOM     24  O   UNL     1      43.501 132.372  24.552  1.00  0.00    -0.512 OA
ATOM     25  H   UNL     1      42.581 132.395  24.977  1.00  0.00     0.293 HD
ENDBRANCH  23  24
BRANCH  23  26
ATOM     26  C   UNL     1      43.806 130.119  23.972  1.00  0.00    -0.033 C 
ATOM     27  C   UNL     1      44.818 129.016  24.207  1.00  0.00     0.035 C 
ATOM     28  C   UNL     1      42.771 129.073  24.346  1.00  0.00     0.035 C 
ATOM     29  C   UNL     1      43.786 128.000  24.572  1.00  0.00     0.009 C 
ENDBRANCH  23  26
ENDBRANCH  22  23
ENDBRANCH   1  22
TORSDOF 6
ENDMDL
MODEL 4
REMARK VINA RESULT:      -4.3      1.891      2.195
REMARK SMILES Cc1c(CCC(O)=C2CCC2)c(F)cc2[nH]c(-c3nc[nH+]cc3F)cc12
REMARK SMILES IDX 4 1 3 2 2 3 26 4 12 5 25 6 15 7 14 8 17 9 16 10 1 11 13 12
REMARK SMILES IDX 18 14 19 15 23 16 20 17 22 18 21 19 24 20 5 22 6 23 7 24
REMARK SMILES IDX 8 26 9 27 11 28 10 29
REMARK H PARENT 16 13 21 21 7 25
ROOT
ATOM      1  C   UNL     1      43.562 131.890  22.623  1.00  0.00     0.047 C 
ENDROOT
BRANCH   1   2
ATOM      2  C   UNL     1      43.694 131.808  21.114  1.00  0.00    -0.008 A 
ATOM      3  C   UNL     1      44.824 131.200  20.482  1.00  0.00    -0.036 A 
ATOM      4  C   UNL     1      44.872 131.235  19.076  1.00  0.00     0.004 A 
ATOM      5  C   UNL     1      42.676 132.401  20.316  1.00  0.00     0.128 A 
ATOM      6  C   UNL     1      45.817 130.767  18.179  1.00  0.00     0.041 A 
ATOM      7  C   UNL     1      43.880 131.818  18.330  1.00  0.00     0.049 A 
ATOM      8  C   UNL     1      42.769 132.409  18.918  1.00  0.00     0.066 A 
ATOM      9  C   UNL     1      45.330 131.093  16.916  1.00  0.00     0.095 A 
ATOM     10  N   UNL     1      44.146 131.743  17.016  1.00  0.00    -0.351 N 
ATOM     11  C   UNL     1      45.908 130.513  21.277  1.00  0.00     0.045 C 
ATOM     12  F   UNL     1      41.597 132.982  20.898  1.00  0.00    -0.207 F 
ATOM     13  H   UNL     1      43.569 132.152  16.248  1.00  0.00     0.167 HD
BRANCH   9  14
ATOM     14  C   UNL     1      46.043 130.817  15.650  1.00  0.00     0.237 A 
ATOM     15  N   UNL     1      46.113 129.532  15.205  1.00  0.00    -0.044 NA
ATOM     16  C   UNL     1      46.634 131.835  14.880  1.00  0.00     0.215 A 
ATOM     17  C   UNL     1      46.755 129.213  14.051  1.00  0.00     0.449 A 
ATOM     18  C   UNL     1      47.288 131.485  13.699  1.00  0.00     0.241 A 
ATOM     19  N   UNL     1      47.342 130.186  13.307  1.00  0.00    -0.247 N 
ATOM     20  F   UNL     1      46.543 133.143  15.226  1.00  0.00    -0.198 F 
ATOM     21  H   UNL     1      47.832 129.933  12.420  1.00  0.00     0.311 HD
ENDBRANCH   9  14
ENDBRANCH   1   2
BRANCH   1  22
ATOM     22  C   UNL     1      43.535 130.498  23.274  1.00  0.00     0.079 C 
BRANCH  22  23
ATOM     23  C   UNL     1      42.436 129.638  22.711  1.00  0.00     0.092 C 
BRANCH  23  24
ATOM     24  O   UNL     1      41.990 129.847  21.409  1.00  0.00    -0.512 OA
ATOM     25  H   UNL     1      42.249 129.217  20.659  1.00  0.00     0.293 HD
ENDBRANCH  23  24
BRANCH  23  26
ATOM     26  C   UNL     1      41.896 128.654  23.427  1.00  0.00    -0.033 C 
ATOM     27  C   UNL     1      40.902 128.536  24.565  1.00  0.00     0.035 C 
ATOM     28  C   UNL     1      41.966 127.140  23.501  1.00  0.00     0.035 C 
ATOM     29  C   UNL     1      40.984 127.046  24.623  1.00  0.00     0.009 C 
ENDBRANCH  23  26
ENDBRANCH  22  23
ENDBRANCH   1  22
TORSDOF 6
ENDMDL
MODEL 5
REMARK VINA RESULT:      -4.1      1.515      1.849
REMARK SMILES Cc1c(CCC(O)=C2CCC2)c(F)cc2[nH]c(-c3nc[nH+]cc3F)cc12
REMARK SMILES IDX 4 1 3 2 2 3 26 4 12 5 25 6 15 7 14 8 17 9 16 10 1 11 13 12
REMARK SMILES IDX 18 14 19 15 23 16 20 17 22 18 21 19 24 20 5 22 6 23 7 24
REMARK SMILES IDX 8 26 9 27 11 28 10 29
REMARK H PARENT 16 13 21 21 7 25
ROOT
ATOM      1  C   UNL     1      43.170 132.432  20.756  1.00  0.00     0.047 C 
ENDROOT
BRANCH   1   2
ATOM      2  C   UNL     1      43.539 131.983  19.355  1.00  0.00    -0.008 A 
ATOM      3  C   UNL     1      44.873 131.604  19.006  1.00  0.00    -0.036 A 
ATOM      4  C   UNL     1      45.115 131.264  17.662  1.00  0.00     0.004 A 
ATOM      5  C   UNL     1      42.526 131.991  18.357  1.00  0.00     0.128 A 
ATOM      6  C   UNL     1      46.273 130.882  17.006  1.00  0.00     0.041 A 
ATOM      7  C   UNL     1      44.120 131.285  16.717  1.00  0.00     0.049 A 
ATOM      8  C   UNL     1      42.816 131.642  17.031  1.00  0.00     0.066 A 
ATOM      9  C   UNL     1      45.905 130.683  15.678  1.00  0.00     0.095 A 
ATOM     10  N   UNL     1      44.587 130.938  15.506  1.00  0.00    -0.351 N 
ATOM     11  C   UNL     1      45.976 131.530  20.033  1.00  0.00     0.045 C 
ATOM     12  F   UNL     1      41.254 132.348  18.670  1.00  0.00    -0.207 F 
ATOM     13  H   UNL     1      44.038 130.922  14.619  1.00  0.00     0.167 HD
BRANCH   9  14
ATOM     14  C   UNL     1      46.845 130.303  14.600  1.00  0.00     0.237 A 
ATOM     15  N   UNL     1      47.162 128.989  14.442  1.00  0.00    -0.044 NA
ATOM     16  C   UNL     1      47.406 131.247  13.723  1.00  0.00     0.215 A 
ATOM     17  C   UNL     1      48.019 128.576  13.473  1.00  0.00     0.449 A 
ATOM     18  C   UNL     1      48.284 130.802  12.735  1.00  0.00     0.241 A 
ATOM     19  N   UNL     1      48.578 129.480  12.628  1.00  0.00    -0.247 N 
ATOM     20  F   UNL     1      47.081 132.563  13.777  1.00  0.00    -0.198 F 
ATOM     21  H   UNL     1      49.236 129.155  11.884  1.00  0.00     0.311 HD
ENDBRANCH   9  14
ENDBRANCH   1   2
BRANCH   1  22
ATOM     22  C   UNL     1      42.393 131.348  21.521  1.00  0.00     0.079 C 
BRANCH  22  23
ATOM     23  C   UNL     1      43.261 130.646  22.531  1.00  0.00     0.092 C 
BRANCH  23  24
ATOM     24  O   UNL     1      44.585 131.040  22.702  1.00  0.00    -0.512 OA
ATOM     25  H   UNL     1      44.911 131.416  23.584  1.00  0.00     0.293 HD
ENDBRANCH  23  24
BRANCH  23  26
ATOM     26  C   UNL     1      42.777 129.667  23.293  1.00  0.00    -0.033 C 
ATOM     27  C   UNL     1      41.545 129.441  24.145  1.00  0.00     0.035 C 
ATOM     28  C   UNL     1      43.172 128.265  23.718  1.00  0.00     0.035 C 
ATOM     29  C   UNL     1      41.950 128.062  24.553  1.00  0.00     0.009 C 
ENDBRANCH  23  26
ENDBRANCH  22  23
ENDBRANCH   1  22
TORSDOF 6
ENDMDL


