REMARK SMILES C=Cc1cccc(-c2ccc3cc[n-]c(=O)c3c2)c1
REMARK SMILES IDX 3 1 4 2 5 3 6 4 7 5 19 6 2 7 1 8 8 9 9 10 18 11 10 12 17 13
REMARK SMILES IDX 11 14 15 15 12 16 14 17 13 18 16 19
REMARK H PARENT
ROOT
ATOM      1  C   UNL     1      -2.228  -0.431   3.283  1.00  0.00    -0.026 A 
ATOM      2  C   UNL     1      -2.108   0.798   3.950  1.00  0.00     0.008 A 
ATOM      3  C   UNL     1      -1.354   1.835   3.397  1.00  0.00     0.001 A 
ATOM      4  C   UNL     1      -0.717   1.661   2.167  1.00  0.00     0.009 A 
ATOM      5  C   UNL     1      -0.833   0.446   1.471  1.00  0.00    -0.018 A 
ATOM      6  C   UNL     1      -1.595  -0.595   2.034  1.00  0.00     0.016 A 
ENDROOT
BRANCH   1   7
ATOM      7  C   UNL     1      -3.049  -1.498   3.909  1.00  0.00     0.000 C 
ATOM      8  C   UNL     1      -2.968  -2.789   3.587  1.00  0.00     0.009 C 
ENDBRANCH   1   7
BRANCH   5   9
ATOM      9  C   UNL     1      -0.164   0.266   0.157  1.00  0.00    -0.018 A 
ATOM     10  C   UNL     1      -0.174   1.300  -0.795  1.00  0.00     0.009 A 
ATOM     11  C   UNL     1       0.487  -0.943  -0.151  1.00  0.00     0.019 A 
ATOM     12  C   UNL     1       0.451   1.135  -2.033  1.00  0.00     0.009 A 
ATOM     13  C   UNL     1       1.121  -1.119  -1.395  1.00  0.00     0.007 A 
ATOM     14  C   UNL     1       1.100  -0.068  -2.342  1.00  0.00    -0.018 A 
ATOM     15  C   UNL     1       1.782  -2.318  -1.730  1.00  0.00     0.086 A 
ATOM     16  C   UNL     1       1.729  -0.240  -3.581  1.00  0.00    -0.015 A 
ATOM     17  N   UNL     1       2.382  -2.446  -2.944  1.00  0.00    -0.629 NA
ATOM     18  C   UNL     1       2.369  -1.446  -3.864  1.00  0.00    -0.136 A 
ATOM     19  O   UNL     1       1.827  -3.281  -0.918  1.00  0.00    -0.315 OA
ENDBRANCH   5   9
TORSDOF 2


