MODEL 1
REMARK VINA RESULT:     -10.7      0.000      0.000
REMARK SMILES Cc1ccc(-c2ccc3[nH]ccc3c2)cc1F
REMARK SMILES IDX 6 1 7 2 8 3 9 4 10 5 11 6 12 7 13 8 14 9 5 11 2 12 3 13
REMARK SMILES IDX 16 14 4 15 15 16 1 17 17 18
REMARK H PARENT 10 10
ROOT
ATOM      1  C   UNL     1      44.510 131.401  17.981  1.00  0.00    -0.018 A 
ATOM      2  C   UNL     1      43.137 131.765  17.920  1.00  0.00     0.011 A 
ATOM      3  C   UNL     1      42.383 131.934  19.095  1.00  0.00     0.027 A 
ATOM      4  C   UNL     1      43.022 131.733  20.314  1.00  0.00     0.045 A 
ATOM      5  N   UNL     1      42.491 131.844  21.544  1.00  0.00    -0.361 N 
ATOM      6  C   UNL     1      43.494 131.558  22.406  1.00  0.00     0.083 A 
ATOM      7  C   UNL     1      44.667 131.264  21.719  1.00  0.00     0.028 A 
ATOM      8  C   UNL     1      44.342 131.382  20.385  1.00  0.00    -0.000 A 
ATOM      9  C   UNL     1      45.120 131.206  19.244  1.00  0.00     0.019 A 
ATOM     10  H   UNL     1      41.509 132.099  21.787  1.00  0.00     0.166 HD
ENDROOT
BRANCH   1  11
ATOM     11  C   UNL     1      45.297 131.226  16.734  1.00  0.00    -0.015 A 
ATOM     12  C   UNL     1      46.800 130.893  14.370  1.00  0.00    -0.015 A 
ATOM     13  C   UNL     1      46.474 132.179  14.828  1.00  0.00     0.007 A 
ATOM     14  C   UNL     1      46.355 129.773  15.089  1.00  0.00     0.126 A 
ATOM     15  C   UNL     1      45.734 132.344  16.000  1.00  0.00     0.009 A 
ATOM     16  C   UNL     1      45.615 129.940  16.264  1.00  0.00     0.048 A 
ATOM     17  C   UNL     1      47.573 130.715  13.095  1.00  0.00     0.047 C 
ATOM     18  F   UNL     1      46.634 128.519  14.651  1.00  0.00    -0.207 F 
ENDBRANCH   1  11
TORSDOF 1
ENDMDL
MODEL 2
REMARK VINA RESULT:     -10.3      0.817      1.612
REMARK SMILES Cc1ccc(-c2ccc3[nH]ccc3c2)cc1F
REMARK SMILES IDX 6 1 7 2 8 3 9 4 10 5 11 6 12 7 13 8 14 9 5 11 2 12 3 13
REMARK SMILES IDX 16 14 4 15 15 16 1 17 17 18
REMARK H PARENT 10 10
ROOT
ATOM      1  C   UNL     1      45.204 131.085  18.400  1.00  0.00    -0.018 A 
ATOM      2  C   UNL     1      45.927 130.453  19.448  1.00  0.00     0.011 A 
ATOM      3  C   UNL     1      45.454 130.486  20.772  1.00  0.00     0.027 A 
ATOM      4  C   UNL     1      44.261 131.156  21.022  1.00  0.00     0.045 A 
ATOM      5  N   UNL     1      43.638 131.304  22.203  1.00  0.00    -0.361 N 
ATOM      6  C   UNL     1      42.520 132.022  21.944  1.00  0.00     0.083 A 
ATOM      7  C   UNL     1      42.435 132.332  20.591  1.00  0.00     0.028 A 
ATOM      8  C   UNL     1      43.557 131.769  20.022  1.00  0.00    -0.000 A 
ATOM      9  C   UNL     1      43.994 131.757  18.699  1.00  0.00     0.019 A 
ATOM     10  H   UNL     1      43.947 130.940  23.131  1.00  0.00     0.166 HD
ENDROOT
BRANCH   1  11
ATOM     11  C   UNL     1      45.712 131.043  17.005  1.00  0.00    -0.015 A 
ATOM     12  C   UNL     1      46.687 130.965  14.359  1.00  0.00    -0.015 A 
ATOM     13  C   UNL     1      46.224 132.169  14.908  1.00  0.00     0.007 A 
ATOM     14  C   UNL     1      46.644 129.794  15.132  1.00  0.00     0.126 A 
ATOM     15  C   UNL     1      45.745 132.210  16.220  1.00  0.00     0.009 A 
ATOM     16  C   UNL     1      46.166 129.836  16.446  1.00  0.00     0.048 A 
ATOM     17  C   UNL     1      47.176 130.916  12.940  1.00  0.00     0.047 C 
ATOM     18  F   UNL     1      47.060 128.611  14.614  1.00  0.00    -0.207 F 
ENDBRANCH   1  11
TORSDOF 1
ENDMDL
MODEL 3
REMARK VINA RESULT:      -9.8      3.145      6.527
REMARK SMILES Cc1ccc(-c2ccc3[nH]ccc3c2)cc1F
REMARK SMILES IDX 6 1 7 2 8 3 9 4 10 5 11 6 12 7 13 8 14 9 5 11 2 12 3 13
REMARK SMILES IDX 16 14 4 15 15 16 1 17 17 18
REMARK H PARENT 10 10
ROOT
ATOM      1  C   UNL     1      45.657 131.135  17.167  1.00  0.00    -0.018 A 
ATOM      2  C   UNL     1      45.457 132.270  16.335  1.00  0.00     0.011 A 
ATOM      3  C   UNL     1      45.956 132.296  15.020  1.00  0.00     0.027 A 
ATOM      4  C   UNL     1      46.649 131.179  14.563  1.00  0.00     0.045 A 
ATOM      5  N   UNL     1      47.200 130.998  13.351  1.00  0.00    -0.361 N 
ATOM      6  C   UNL     1      47.756 129.765  13.379  1.00  0.00     0.083 A 
ATOM      7  C   UNL     1      47.556 129.161  14.616  1.00  0.00     0.028 A 
ATOM      8  C   UNL     1      46.848 130.082  15.356  1.00  0.00    -0.000 A 
ATOM      9  C   UNL     1      46.369 130.020  16.662  1.00  0.00     0.019 A 
ATOM     10  H   UNL     1      47.201 131.668  12.550  1.00  0.00     0.166 HD
ENDROOT
BRANCH   1  11
ATOM     11  C   UNL     1      45.125 131.118  18.554  1.00  0.00    -0.015 A 
ATOM     12  C   UNL     1      44.119 131.095  21.190  1.00  0.00    -0.015 A 
ATOM     13  C   UNL     1      45.338 130.468  20.890  1.00  0.00     0.007 A 
ATOM     14  C   UNL     1      43.395 131.718  20.161  1.00  0.00     0.126 A 
ATOM     15  C   UNL     1      45.839 130.482  19.586  1.00  0.00     0.009 A 
ATOM     16  C   UNL     1      43.898 131.734  18.856  1.00  0.00     0.048 A 
ATOM     17  C   UNL     1      43.568 131.056  22.586  1.00  0.00     0.047 C 
ATOM     18  F   UNL     1      42.200 132.308  20.420  1.00  0.00    -0.207 F 
ENDBRANCH   1  11
TORSDOF 1
ENDMDL
MODEL 4
REMARK VINA RESULT:      -9.8      1.132      1.630
REMARK SMILES Cc1ccc(-c2ccc3[nH]ccc3c2)cc1F
REMARK SMILES IDX 6 1 7 2 8 3 9 4 10 5 11 6 12 7 13 8 14 9 5 11 2 12 3 13
REMARK SMILES IDX 16 14 4 15 15 16 1 17 17 18
REMARK H PARENT 10 10
ROOT
ATOM      1  C   UNL     1      44.556 131.195  17.723  1.00  0.00    -0.018 A 
ATOM      2  C   UNL     1      43.223 131.647  17.520  1.00  0.00     0.011 A 
ATOM      3  C   UNL     1      42.406 131.996  18.610  1.00  0.00     0.027 A 
ATOM      4  C   UNL     1      42.943 131.886  19.889  1.00  0.00     0.045 A 
ATOM      5  N   UNL     1      42.340 132.168  21.056  1.00  0.00    -0.361 N 
ATOM      6  C   UNL     1      43.256 131.909  22.017  1.00  0.00     0.083 A 
ATOM      7  C   UNL     1      44.446 131.459  21.456  1.00  0.00     0.028 A 
ATOM      8  C   UNL     1      44.223 131.452  20.096  1.00  0.00    -0.000 A 
ATOM      9  C   UNL     1      45.061 131.097  19.042  1.00  0.00     0.019 A 
ATOM     10  H   UNL     1      41.366 132.517  21.196  1.00  0.00     0.166 HD
ENDROOT
BRANCH   1  11
ATOM     11  C   UNL     1      45.409 130.829  16.564  1.00  0.00    -0.015 A 
ATOM     12  C   UNL     1      47.024 130.136  14.357  1.00  0.00    -0.015 A 
ATOM     13  C   UNL     1      46.404 129.138  15.123  1.00  0.00     0.007 A 
ATOM     14  C   UNL     1      46.849 131.483  14.711  1.00  0.00     0.126 A 
ATOM     15  C   UNL     1      45.601 129.480  16.214  1.00  0.00     0.009 A 
ATOM     16  C   UNL     1      46.043 131.826  15.802  1.00  0.00     0.048 A 
ATOM     17  C   UNL     1      47.909 129.766  13.202  1.00  0.00     0.047 C 
ATOM     18  F   UNL     1      47.461 132.465  14.002  1.00  0.00    -0.207 F 
ENDBRANCH   1  11
TORSDOF 1
ENDMDL
MODEL 5
REMARK VINA RESULT:      -9.7      0.992      1.023
REMARK SMILES Cc1ccc(-c2ccc3[nH]ccc3c2)cc1F
REMARK SMILES IDX 6 1 7 2 8 3 9 4 10 5 11 6 12 7 13 8 14 9 5 11 2 12 3 13
REMARK SMILES IDX 16 14 4 15 15 16 1 17 17 18
REMARK H PARENT 10 10
ROOT
ATOM      1  C   UNL     1      44.038 131.544  18.447  1.00  0.00    -0.018 A 
ATOM      2  C   UNL     1      42.713 132.053  18.509  1.00  0.00     0.011 A 
ATOM      3  C   UNL     1      42.072 132.249  19.745  1.00  0.00     0.027 A 
ATOM      4  C   UNL     1      42.776 131.928  20.902  1.00  0.00     0.045 A 
ATOM      5  N   UNL     1      42.354 132.040  22.173  1.00  0.00    -0.361 N 
ATOM      6  C   UNL     1      43.382 131.612  22.942  1.00  0.00     0.083 A 
ATOM      7  C   UNL     1      44.461 131.226  22.153  1.00  0.00     0.028 A 
ATOM      8  C   UNL     1      44.051 131.436  20.855  1.00  0.00    -0.000 A 
ATOM      9  C   UNL     1      44.717 131.229  19.650  1.00  0.00     0.019 A 
ATOM     10  H   UNL     1      41.426 132.386  22.503  1.00  0.00     0.166 HD
ENDROOT
BRANCH   1  11
ATOM     11  C   UNL     1      44.705 131.342  17.136  1.00  0.00    -0.015 A 
ATOM     12  C   UNL     1      45.978 130.966  14.646  1.00  0.00    -0.015 A 
ATOM     13  C   UNL     1      44.772 131.678  14.725  1.00  0.00     0.007 A 
ATOM     14  C   UNL     1      46.536 130.426  15.815  1.00  0.00     0.126 A 
ATOM     15  C   UNL     1      44.143 131.868  15.958  1.00  0.00     0.009 A 
ATOM     16  C   UNL     1      45.908 130.618  17.050  1.00  0.00     0.048 A 
ATOM     17  C   UNL     1      46.639 130.739  13.317  1.00  0.00     0.047 C 
ATOM     18  F   UNL     1      47.688 129.709  15.760  1.00  0.00    -0.207 F 
ENDBRANCH   1  11
TORSDOF 1
ENDMDL
MODEL 6
REMARK VINA RESULT:      -9.6      1.454      1.703
REMARK SMILES Cc1ccc(-c2ccc3[nH]ccc3c2)cc1F
REMARK SMILES IDX 6 1 7 2 8 3 9 4 10 5 11 6 12 7 13 8 14 9 5 11 2 12 3 13
REMARK SMILES IDX 16 14 4 15 15 16 1 17 17 18
REMARK H PARENT 10 10
ROOT
ATOM      1  C   UNL     1      43.962 131.528  18.668  1.00  0.00    -0.018 A 
ATOM      2  C   UNL     1      42.649 132.066  18.751  1.00  0.00     0.011 A 
ATOM      3  C   UNL     1      42.032 132.272  19.998  1.00  0.00     0.027 A 
ATOM      4  C   UNL     1      42.746 131.933  21.142  1.00  0.00     0.045 A 
ATOM      5  N   UNL     1      42.346 132.051  22.420  1.00  0.00    -0.361 N 
ATOM      6  C   UNL     1      43.377 131.599  23.172  1.00  0.00     0.083 A 
ATOM      7  C   UNL     1      44.435 131.192  22.366  1.00  0.00     0.028 A 
ATOM      8  C   UNL     1      44.010 131.414  21.074  1.00  0.00    -0.000 A 
ATOM      9  C   UNL     1      44.652 131.197  19.858  1.00  0.00     0.019 A 
ATOM     10  H   UNL     1      41.431 132.416  22.765  1.00  0.00     0.166 HD
ENDROOT
BRANCH   1  11
ATOM     11  C   UNL     1      44.604 131.316  17.345  1.00  0.00    -0.015 A 
ATOM     12  C   UNL     1      45.820 130.903  14.833  1.00  0.00    -0.015 A 
ATOM     13  C   UNL     1      46.505 130.581  16.014  1.00  0.00     0.007 A 
ATOM     14  C   UNL     1      44.530 131.450  14.914  1.00  0.00     0.126 A 
ATOM     15  C   UNL     1      45.903 130.782  17.258  1.00  0.00     0.009 A 
ATOM     16  C   UNL     1      43.926 131.649  16.160  1.00  0.00     0.048 A 
ATOM     17  C   UNL     1      46.478 130.713  13.497  1.00  0.00     0.047 C 
ATOM     18  F   UNL     1      43.857 131.796  13.787  1.00  0.00    -0.207 F 
ENDBRANCH   1  11
TORSDOF 1
ENDMDL
MODEL 7
REMARK VINA RESULT:      -9.4      3.037      6.430
REMARK SMILES Cc1ccc(-c2ccc3[nH]ccc3c2)cc1F
REMARK SMILES IDX 6 1 7 2 8 3 9 4 10 5 11 6 12 7 13 8 14 9 5 11 2 12 3 13
REMARK SMILES IDX 16 14 4 15 15 16 1 17 17 18
REMARK H PARENT 10 10
ROOT
ATOM      1  C   UNL     1      45.582 131.205  16.946  1.00  0.00    -0.018 A 
ATOM      2  C   UNL     1      45.588 132.348  16.102  1.00  0.00     0.011 A 
ATOM      3  C   UNL     1      46.234 132.319  14.853  1.00  0.00     0.027 A 
ATOM      4  C   UNL     1      46.865 131.138  14.473  1.00  0.00     0.045 A 
ATOM      5  N   UNL     1      47.532 130.898  13.331  1.00  0.00    -0.361 N 
ATOM      6  C   UNL     1      47.960 129.617  13.417  1.00  0.00     0.083 A 
ATOM      7  C   UNL     1      47.564 129.043  14.619  1.00  0.00     0.028 A 
ATOM      8  C   UNL     1      46.866 130.032  15.278  1.00  0.00    -0.000 A 
ATOM      9  C   UNL     1      46.237 130.024  16.520  1.00  0.00     0.019 A 
ATOM     10  H   UNL     1      47.688 131.560  12.539  1.00  0.00     0.166 HD
ENDROOT
BRANCH   1  11
ATOM     11  C   UNL     1      44.896 131.247  18.263  1.00  0.00    -0.015 A 
ATOM     12  C   UNL     1      43.589 131.318  20.762  1.00  0.00    -0.015 A 
ATOM     13  C   UNL     1      42.965 131.844  19.621  1.00  0.00     0.007 A 
ATOM     14  C   UNL     1      44.878 130.774  20.653  1.00  0.00     0.126 A 
ATOM     15  C   UNL     1      43.610 131.805  18.382  1.00  0.00     0.009 A 
ATOM     16  C   UNL     1      45.522 130.734  19.412  1.00  0.00     0.048 A 
ATOM     17  C   UNL     1      42.907 131.385  22.098  1.00  0.00     0.047 C 
ATOM     18  F   UNL     1      45.514 130.285  21.748  1.00  0.00    -0.207 F 
ENDBRANCH   1  11
TORSDOF 1
ENDMDL
MODEL 8
REMARK VINA RESULT:      -9.0      3.153      6.536
REMARK SMILES Cc1ccc(-c2ccc3[nH]ccc3c2)cc1F
REMARK SMILES IDX 6 1 7 2 8 3 9 4 10 5 11 6 12 7 13 8 14 9 5 11 2 12 3 13
REMARK SMILES IDX 16 14 4 15 15 16 1 17 17 18
REMARK H PARENT 10 10
ROOT
ATOM      1  C   UNL     1      45.231 130.794  16.633  1.00  0.00    -0.018 A 
ATOM      2  C   UNL     1      45.363 129.400  16.389  1.00  0.00     0.011 A 
ATOM      3  C   UNL     1      46.140 128.927  15.316  1.00  0.00     0.027 A 
ATOM      4  C   UNL     1      46.772 129.864  14.505  1.00  0.00     0.045 A 
ATOM      5  N   UNL     1      47.555 129.628  13.440  1.00  0.00    -0.361 N 
ATOM      6  C   UNL     1      47.935 130.844  12.984  1.00  0.00     0.083 A 
ATOM      7  C   UNL     1      47.390 131.857  13.766  1.00  0.00     0.028 A 
ATOM      8  C   UNL     1      46.650 131.208  14.730  1.00  0.00    -0.000 A 
ATOM      9  C   UNL     1      45.890 131.714  15.782  1.00  0.00     0.019 A 
ATOM     10  H   UNL     1      47.819 128.699  13.042  1.00  0.00     0.166 HD
ENDROOT
BRANCH   1  11
ATOM     11  C   UNL     1      44.408 131.282  17.769  1.00  0.00    -0.015 A 
ATOM     12  C   UNL     1      42.843 132.200  19.930  1.00  0.00    -0.015 A 
ATOM     13  C   UNL     1      42.299 132.133  18.639  1.00  0.00     0.007 A 
ATOM     14  C   UNL     1      44.180 131.824  20.134  1.00  0.00     0.126 A 
ATOM     15  C   UNL     1      43.072 131.675  17.569  1.00  0.00     0.009 A 
ATOM     16  C   UNL     1      44.953 131.364  19.063  1.00  0.00     0.048 A 
ATOM     17  C   UNL     1      42.020 132.719  21.074  1.00  0.00     0.047 C 
ATOM     18  F   UNL     1      44.737 131.907  21.368  1.00  0.00    -0.207 F 
ENDBRANCH   1  11
TORSDOF 1
ENDMDL
MODEL 9
REMARK VINA RESULT:      -9.0      3.121      6.566
REMARK SMILES Cc1ccc(-c2ccc3[nH]ccc3c2)cc1F
REMARK SMILES IDX 6 1 7 2 8 3 9 4 10 5 11 6 12 7 13 8 14 9 5 11 2 12 3 13
REMARK SMILES IDX 16 14 4 15 15 16 1 17 17 18
REMARK H PARENT 10 10
ROOT
ATOM      1  C   UNL     1      45.335 130.746  16.780  1.00  0.00    -0.018 A 
ATOM      2  C   UNL     1      45.415 129.369  16.435  1.00  0.00     0.011 A 
ATOM      3  C   UNL     1      46.111 128.953  15.286  1.00  0.00     0.027 A 
ATOM      4  C   UNL     1      46.716 129.929  14.501  1.00  0.00     0.045 A 
ATOM      5  N   UNL     1      47.425 129.749  13.374  1.00  0.00    -0.361 N 
ATOM      6  C   UNL     1      47.809 130.985  12.978  1.00  0.00     0.083 A 
ATOM      7  C   UNL     1      47.340 131.953  13.858  1.00  0.00     0.028 A 
ATOM      8  C   UNL     1      46.645 131.257  14.823  1.00  0.00    -0.000 A 
ATOM      9  C   UNL     1      45.965 131.706  15.952  1.00  0.00     0.019 A 
ATOM     10  H   UNL     1      47.639 128.844  12.900  1.00  0.00     0.166 HD
ENDROOT
BRANCH   1  11
ATOM     11  C   UNL     1      44.598 131.174  17.996  1.00  0.00    -0.015 A 
ATOM     12  C   UNL     1      43.201 131.996  20.305  1.00  0.00    -0.015 A 
ATOM     13  C   UNL     1      44.510 131.503  20.407  1.00  0.00     0.007 A 
ATOM     14  C   UNL     1      42.585 132.059  19.045  1.00  0.00     0.126 A 
ATOM     15  C   UNL     1      45.204 131.100  19.264  1.00  0.00     0.009 A 
ATOM     16  C   UNL     1      43.281 131.657  17.901  1.00  0.00     0.048 A 
ATOM     17  C   UNL     1      42.445 132.404  21.537  1.00  0.00     0.047 C 
ATOM     18  F   UNL     1      41.309 132.506  18.924  1.00  0.00    -0.207 F 
ENDBRANCH   1  11
TORSDOF 1
ENDMDL


