MODEL 1
REMARK VINA RESULT:      -7.9      0.000      0.000
REMARK SMILES Cc1cc(N(N)C(=O)O[C@H]2CS(=O)(=O)C[C@@H]2Cl)c([O-])c(-n2nc3ccccc3n2)c1
REMARK SMILES IDX 7 1 8 2 5 3 4 4 2 5 3 6 30 7 20 8 18 9 1 10 19 11 21 12
REMARK SMILES IDX 22 13 29 14 23 15 28 16 24 17 27 18 25 19 26 20 6 21 9 24
REMARK SMILES IDX 10 25 11 26 16 27 12 28 15 29 17 30 13 31 14 32
REMARK H PARENT 6 22 6 23
ROOT
ATOM      1  C   UNL     1      44.540 129.785  22.767  1.00  0.00     0.429 C 
ATOM      2  O   UNL     1      43.913 129.718  23.859  1.00  0.00    -0.222 OA
ENDROOT
BRANCH   1   3
ATOM      3  N   UNL     1      44.749 131.063  22.138  1.00  0.00    -0.214 N 
BRANCH   3   4
ATOM      4  C   UNL     1      44.247 131.322  20.817  1.00  0.00     0.059 A 
ATOM      5  C   UNL     1      42.452 132.127  19.386  1.00  0.00    -0.047 A 
ATOM      6  C   UNL     1      42.955 131.841  20.659  1.00  0.00     0.031 A 
ATOM      7  C   UNL     1      43.237 131.858  18.256  1.00  0.00     0.033 A 
ATOM      8  C   UNL     1      44.531 131.323  18.385  1.00  0.00     0.080 A 
ATOM      9  C   UNL     1      45.028 131.041  19.679  1.00  0.00    -0.054 A 
ATOM     10  C   UNL     1      41.058 132.657  19.227  1.00  0.00     0.044 C 
ATOM     11  O   UNL     1      46.280 130.457  19.843  1.00  0.00    -0.870 OA
BRANCH   8  12
ATOM     12  N   UNL     1      45.320 131.071  17.201  1.00  0.00    -0.151 N 
ATOM     13  N   UNL     1      45.575 131.984  16.264  1.00  0.00    -0.148 NA
ATOM     14  N   UNL     1      45.857 129.885  16.918  1.00  0.00    -0.148 NA
ATOM     15  C   UNL     1      46.313 131.343  15.346  1.00  0.00     0.113 A 
ATOM     16  C   UNL     1      46.484 130.057  15.746  1.00  0.00     0.113 A 
ATOM     17  C   UNL     1      46.850 131.831  14.158  1.00  0.00     0.032 A 
ATOM     18  C   UNL     1      47.209 129.136  14.996  1.00  0.00     0.032 A 
ATOM     19  C   UNL     1      47.593 130.930  13.368  1.00  0.00     0.002 A 
ATOM     20  C   UNL     1      47.770 129.588  13.784  1.00  0.00     0.002 A 
ENDBRANCH   8  12
ENDBRANCH   3   4
BRANCH   3  21
ATOM     21  N   UNL     1      45.568 132.028  22.751  1.00  0.00    -0.238 NA
ATOM     22  H   UNL     1      45.103 132.327  23.638  1.00  0.00     0.144 HD
ATOM     23  H   UNL     1      46.472 131.566  23.001  1.00  0.00     0.144 HD
ENDBRANCH   3  21
ENDBRANCH   1   3
BRANCH   1  24
ATOM     24  O   UNL     1      45.041 128.624  22.164  1.00  0.00    -0.442 OA
BRANCH  24  25
ATOM     25  C   UNL     1      44.532 127.312  22.405  1.00  0.00     0.212 C 
ATOM     26  C   UNL     1      45.698 126.325  22.477  1.00  0.00     0.183 C 
ATOM     27  C   UNL     1      43.780 127.252  23.751  1.00  0.00     0.138 C 
ATOM     28  S   UNL     1      45.151 125.028  23.543  1.00  0.00     0.155 S 
ATOM     29  C   UNL     1      43.695 125.790  24.191  1.00  0.00     0.160 C 
ATOM     30  Cl  UNL     1      42.147 127.965  23.632  1.00  0.00    -0.118 Cl
ATOM     31  O   UNL     1      44.824 123.779  22.775  1.00  0.00    -0.229 OA
ATOM     32  O   UNL     1      46.154 124.742  24.625  1.00  0.00    -0.229 OA
ENDBRANCH  24  25
ENDBRANCH   1  24
TORSDOF 6
ENDMDL
MODEL 2
REMARK VINA RESULT:      -7.7      3.640      8.186
REMARK SMILES Cc1cc(N(N)C(=O)O[C@H]2CS(=O)(=O)C[C@@H]2Cl)c([O-])c(-n2nc3ccccc3n2)c1
REMARK SMILES IDX 7 1 8 2 5 3 4 4 2 5 3 6 30 7 20 8 18 9 1 10 19 11 21 12
REMARK SMILES IDX 22 13 29 14 23 15 28 16 24 17 27 18 25 19 26 20 6 21 9 24
REMARK SMILES IDX 10 25 11 26 16 27 12 28 15 29 17 30 13 31 14 32
REMARK H PARENT 6 22 6 23
ROOT
ATOM      1  C   UNL     1      44.741 131.501  19.453  1.00  0.00     0.429 C 
ATOM      2  O   UNL     1      43.796 132.325  19.316  1.00  0.00    -0.222 OA
ENDROOT
BRANCH   1   3
ATOM      3  N   UNL     1      45.381 131.352  20.733  1.00  0.00    -0.214 N 
BRANCH   3   4
ATOM      4  C   UNL     1      44.671 130.783  21.847  1.00  0.00     0.059 A 
ATOM      5  C   UNL     1      43.173 131.081  23.739  1.00  0.00    -0.047 A 
ATOM      6  C   UNL     1      43.894 131.613  22.665  1.00  0.00     0.031 A 
ATOM      7  C   UNL     1      43.258 129.711  24.018  1.00  0.00     0.033 A 
ATOM      8  C   UNL     1      44.043 128.857  23.222  1.00  0.00     0.080 A 
ATOM      9  C   UNL     1      44.765 129.409  22.138  1.00  0.00    -0.054 A 
ATOM     10  C   UNL     1      42.364 131.982  24.625  1.00  0.00     0.044 C 
ATOM     11  O   UNL     1      45.598 128.606  21.364  1.00  0.00    -0.870 OA
BRANCH   8  12
ATOM     12  N   UNL     1      44.098 127.447  23.527  1.00  0.00    -0.151 N 
ATOM     13  N   UNL     1      43.032 126.647  23.566  1.00  0.00    -0.148 NA
ATOM     14  N   UNL     1      45.228 126.805  23.823  1.00  0.00    -0.148 NA
ATOM     15  C   UNL     1      43.514 125.441  23.899  1.00  0.00     0.113 A 
ATOM     16  C   UNL     1      44.859 125.538  24.057  1.00  0.00     0.113 A 
ATOM     17  C   UNL     1      42.828 124.243  24.076  1.00  0.00     0.032 A 
ATOM     18  C   UNL     1      45.646 124.446  24.408  1.00  0.00     0.032 A 
ATOM     19  C   UNL     1      43.588 123.110  24.432  1.00  0.00     0.002 A 
ATOM     20  C   UNL     1      44.991 123.212  24.599  1.00  0.00     0.002 A 
ENDBRANCH   8  12
ENDBRANCH   3   4
BRANCH   3  21
ATOM     21  N   UNL     1      46.661 131.889  20.952  1.00  0.00    -0.238 NA
ATOM     22  H   UNL     1      47.228 131.729  20.087  1.00  0.00     0.144 HD
ATOM     23  H   UNL     1      46.557 132.921  21.081  1.00  0.00     0.144 HD
ENDBRANCH   3  21
ENDBRANCH   1   3
BRANCH   1  24
ATOM     24  O   UNL     1      45.168 130.725  18.368  1.00  0.00    -0.442 OA
BRANCH  24  25
ATOM     25  C   UNL     1      45.395 131.239  17.054  1.00  0.00     0.212 C 
ATOM     26  C   UNL     1      46.667 130.611  16.482  1.00  0.00     0.183 C 
ATOM     27  C   UNL     1      44.226 130.881  16.114  1.00  0.00     0.138 C 
ATOM     28  S   UNL     1      46.435 130.596  14.731  1.00  0.00     0.155 S 
ATOM     29  C   UNL     1      44.716 130.999  14.670  1.00  0.00     0.160 C 
ATOM     30  Cl  UNL     1      42.810 131.934  16.382  1.00  0.00    -0.118 Cl
ATOM     31  O   UNL     1      47.271 131.642  14.051  1.00  0.00    -0.229 OA
ATOM     32  O   UNL     1      46.705 129.236  14.150  1.00  0.00    -0.229 OA
ENDBRANCH  24  25
ENDBRANCH   1  24
TORSDOF 6
ENDMDL
MODEL 3
REMARK VINA RESULT:      -6.1      3.576      8.157
REMARK SMILES Cc1cc(N(N)C(=O)O[C@H]2CS(=O)(=O)C[C@@H]2Cl)c([O-])c(-n2nc3ccccc3n2)c1
REMARK SMILES IDX 7 1 8 2 5 3 4 4 2 5 3 6 30 7 20 8 18 9 1 10 19 11 21 12
REMARK SMILES IDX 22 13 29 14 23 15 28 16 24 17 27 18 25 19 26 20 6 21 9 24
REMARK SMILES IDX 10 25 11 26 16 27 12 28 15 29 17 30 13 31 14 32
REMARK H PARENT 6 22 6 23
ROOT
ATOM      1  C   UNL     1      44.471 131.932  19.483  1.00  0.00     0.429 C 
ATOM      2  O   UNL     1      43.223 132.063  19.611  1.00  0.00    -0.222 OA
ENDROOT
BRANCH   1   3
ATOM      3  N   UNL     1      45.256 131.433  20.581  1.00  0.00    -0.214 N 
BRANCH   3   4
ATOM      4  C   UNL     1      44.621 130.884  21.747  1.00  0.00     0.059 A 
ATOM      5  C   UNL     1      43.205 131.204  23.699  1.00  0.00    -0.047 A 
ATOM      6  C   UNL     1      43.856 131.718  22.572  1.00  0.00     0.031 A 
ATOM      7  C   UNL     1      43.350 129.849  24.023  1.00  0.00     0.033 A 
ATOM      8  C   UNL     1      44.125 128.992  23.220  1.00  0.00     0.080 A 
ATOM      9  C   UNL     1      44.776 129.525  22.083  1.00  0.00    -0.054 A 
ATOM     10  C   UNL     1      42.409 132.112  24.590  1.00  0.00     0.044 C 
ATOM     11  O   UNL     1      45.598 128.722  21.298  1.00  0.00    -0.870 OA
BRANCH   8  12
ATOM     12  N   UNL     1      44.243 127.596  23.573  1.00  0.00    -0.151 N 
ATOM     13  N   UNL     1      45.403 126.971  23.776  1.00  0.00    -0.148 NA
ATOM     14  N   UNL     1      43.195 126.784  23.709  1.00  0.00    -0.148 NA
ATOM     15  C   UNL     1      45.070 125.704  24.059  1.00  0.00     0.113 A 
ATOM     16  C   UNL     1      43.717 125.589  24.017  1.00  0.00     0.113 A 
ATOM     17  C   UNL     1      45.899 124.625  24.355  1.00  0.00     0.032 A 
ATOM     18  C   UNL     1      43.066 124.385  24.267  1.00  0.00     0.032 A 
ATOM     19  C   UNL     1      45.279 123.386  24.614  1.00  0.00     0.002 A 
ATOM     20  C   UNL     1      43.868 123.267  24.569  1.00  0.00     0.002 A 
ENDBRANCH   8  12
ENDBRANCH   3   4
BRANCH   3  21
ATOM     21  N   UNL     1      46.652 131.605  20.589  1.00  0.00    -0.238 NA
ATOM     22  H   UNL     1      46.926 132.046  19.681  1.00  0.00     0.144 HD
ATOM     23  H   UNL     1      46.886 132.275  21.356  1.00  0.00     0.144 HD
ENDBRANCH   3  21
ENDBRANCH   1   3
BRANCH   1  24
ATOM     24  O   UNL     1      45.098 132.265  18.275  1.00  0.00    -0.442 OA
BRANCH  24  25
ATOM     25  C   UNL     1      45.066 131.449  17.103  1.00  0.00     0.212 C 
ATOM     26  C   UNL     1      45.336 132.320  15.875  1.00  0.00     0.183 C 
ATOM     27  C   UNL     1      46.158 130.361  17.160  1.00  0.00     0.138 C 
ATOM     28  S   UNL     1      46.088 131.245  14.693  1.00  0.00     0.155 S 
ATOM     29  C   UNL     1      46.411 129.858  15.738  1.00  0.00     0.160 C 
ATOM     30  Cl  UNL     1      45.695 129.008  18.229  1.00  0.00    -0.118 Cl
ATOM     31  O   UNL     1      45.139 130.890  13.584  1.00  0.00    -0.229 OA
ATOM     32  O   UNL     1      47.357 131.831  14.142  1.00  0.00    -0.229 OA
ENDBRANCH  24  25
ENDBRANCH   1  24
TORSDOF 6
ENDMDL
MODEL 4
REMARK VINA RESULT:      -5.0      6.346      9.599
REMARK SMILES Cc1cc(N(N)C(=O)O[C@H]2CS(=O)(=O)C[C@@H]2Cl)c([O-])c(-n2nc3ccccc3n2)c1
REMARK SMILES IDX 7 1 8 2 5 3 4 4 2 5 3 6 30 7 20 8 18 9 1 10 19 11 21 12
REMARK SMILES IDX 22 13 29 14 23 15 28 16 24 17 27 18 25 19 26 20 6 21 9 24
REMARK SMILES IDX 10 25 11 26 16 27 12 28 15 29 17 30 13 31 14 32
REMARK H PARENT 6 22 6 23
ROOT
ATOM      1  C   UNL     1      49.362 124.475  23.622  1.00  0.00     0.429 C 
ATOM      2  O   UNL     1      49.734 125.531  24.204  1.00  0.00    -0.222 OA
ENDROOT
BRANCH   1   3
ATOM      3  N   UNL     1      48.029 123.974  23.833  1.00  0.00    -0.214 N 
BRANCH   3   4
ATOM      4  C   UNL     1      46.884 124.729  23.402  1.00  0.00     0.059 A 
ATOM      5  C   UNL     1      45.975 126.663  22.241  1.00  0.00    -0.047 A 
ATOM      6  C   UNL     1      47.072 125.922  22.695  1.00  0.00     0.031 A 
ATOM      7  C   UNL     1      44.677 126.221  22.529  1.00  0.00     0.033 A 
ATOM      8  C   UNL     1      44.460 125.033  23.251  1.00  0.00     0.080 A 
ATOM      9  C   UNL     1      45.578 124.294  23.701  1.00  0.00    -0.054 A 
ATOM     10  C   UNL     1      46.187 127.954  21.507  1.00  0.00     0.044 C 
ATOM     11  O   UNL     1      45.404 123.146  24.468  1.00  0.00    -0.870 OA
BRANCH   8  12
ATOM     12  N   UNL     1      43.109 124.598  23.518  1.00  0.00    -0.151 N 
ATOM     13  N   UNL     1      42.026 125.351  23.321  1.00  0.00    -0.148 NA
ATOM     14  N   UNL     1      42.811 123.397  24.013  1.00  0.00    -0.148 NA
ATOM     15  C   UNL     1      40.995 124.586  23.707  1.00  0.00     0.113 A 
ATOM     16  C   UNL     1      41.476 123.389  24.132  1.00  0.00     0.113 A 
ATOM     17  C   UNL     1      39.636 124.885  23.708  1.00  0.00     0.032 A 
ATOM     18  C   UNL     1      40.643 122.377  24.599  1.00  0.00     0.032 A 
ATOM     19  C   UNL     1      38.756 123.886  24.174  1.00  0.00     0.002 A 
ATOM     20  C   UNL     1      39.258 122.639  24.618  1.00  0.00     0.002 A 
ENDBRANCH   8  12
ENDBRANCH   3   4
BRANCH   3  21
ATOM     21  N   UNL     1      47.824 122.806  24.588  1.00  0.00    -0.238 NA
ATOM     22  H   UNL     1      47.169 122.189  24.053  1.00  0.00     0.144 HD
ATOM     23  H   UNL     1      48.741 122.311  24.666  1.00  0.00     0.144 HD
ENDBRANCH   3  21
ENDBRANCH   1   3
BRANCH   1  24
ATOM     24  O   UNL     1      50.236 123.790  22.768  1.00  0.00    -0.442 OA
BRANCH  24  25
ATOM     25  C   UNL     1      50.569 124.221  21.448  1.00  0.00     0.212 C 
ATOM     26  C   UNL     1      52.091 124.304  21.315  1.00  0.00     0.183 C 
ATOM     27  C   UNL     1      50.057 123.218  20.395  1.00  0.00     0.138 C 
ATOM     28  S   UNL     1      52.429 124.005  19.608  1.00  0.00     0.155 S 
ATOM     29  C   UNL     1      50.835 123.440  19.098  1.00  0.00     0.160 C 
ATOM     30  Cl  UNL     1      48.303 123.391  20.109  1.00  0.00    -0.118 Cl
ATOM     31  O   UNL     1      52.822 125.266  18.892  1.00  0.00    -0.229 OA
ATOM     32  O   UNL     1      53.477 122.942  19.430  1.00  0.00    -0.229 OA
ENDBRANCH  24  25
ENDBRANCH   1  24
TORSDOF 6
ENDMDL


