REMARK SMILES N#CC1(/C(O)=N/CCCS[C@H](C(=O)c2ccc(F)cc2)[C@H](O)c2ccc(Cl)c(F)c2)CC1
REMARK SMILES IDX 8 1 7 2 6 3 4 4 5 5 3 7 31 8 32 9 2 10 1 11 9 12 10 13 11 14
REMARK SMILES IDX 12 15 13 16 14 17 15 18 20 19 16 20 19 21 17 22 18 23 21 24
REMARK SMILES IDX 22 25 23 27 24 28 30 29 25 30 28 31 26 32 29 33 27 34
REMARK H PARENT 5 6 22 26
ROOT
ATOM      1  C   UNL     1       0.216   3.721  -2.698  1.00  0.00     0.035 C 
ENDROOT
BRANCH   1   2
ATOM      2  C   UNL     1       1.485   3.561  -1.856  1.00  0.00     0.147 C 
BRANCH   2   3
ATOM      3  N   UNL     1       1.142   3.245  -0.471  1.00  0.00    -0.254 NA
BRANCH   3   4
ATOM      4  C   UNL     1       2.008   2.884   0.426  1.00  0.00     0.201 C 
BRANCH   4   5
ATOM      5  O   UNL     1       3.358   2.774   0.071  1.00  0.00    -0.495 OA
ATOM      6  H   UNL     1       4.067   2.408   0.692  1.00  0.00     0.295 HD
ENDBRANCH   4   5
BRANCH   4   7
ATOM      7  C   UNL     1       1.516   2.568   1.825  1.00  0.00     0.132 C 
ATOM      8  C   UNL     1       2.096   1.333   2.495  1.00  0.00     0.034 C 
ATOM      9  C   UNL     1       2.484   2.724   2.993  1.00  0.00     0.034 C 
BRANCH   7  10
ATOM     10  C   UNL     1       0.114   2.864   2.164  1.00  0.00     0.079 C 
ATOM     11  N   UNL     1      -0.986   3.112   2.432  1.00  0.00    -0.197 NA
ENDBRANCH   7  10
ENDBRANCH   4   7
ENDBRANCH   3   4
ENDBRANCH   2   3
ENDBRANCH   1   2
BRANCH   1  12
ATOM     12  C   UNL     1      -0.707   2.503  -2.628  1.00  0.00     0.072 C 
BRANCH  12  13
ATOM     13  S   UNL     1       0.097   1.014  -3.334  1.00  0.00    -0.147 SA
BRANCH  13  14
ATOM     14  C   UNL     1      -0.746  -0.200  -2.248  1.00  0.00     0.151 C 
BRANCH  14  15
ATOM     15  C   UNL     1      -0.136  -0.154  -0.861  1.00  0.00     0.178 C 
ATOM     16  O   UNL     1       1.120  -0.187  -0.750  1.00  0.00    -0.293 OA
BRANCH  15  17
ATOM     17  C   UNL     1      -0.965  -0.204   0.370  1.00  0.00     0.019 A 
ATOM     18  C   UNL     1      -2.231   0.408   0.439  1.00  0.00     0.015 A 
ATOM     19  C   UNL     1      -0.470  -0.865   1.508  1.00  0.00     0.015 A 
ATOM     20  C   UNL     1      -2.980   0.354   1.617  1.00  0.00     0.040 A 
ATOM     21  C   UNL     1      -1.224  -0.917   2.684  1.00  0.00     0.040 A 
ATOM     22  C   UNL     1      -2.476  -0.304   2.739  1.00  0.00     0.123 A 
ATOM     23  F   UNL     1      -3.204  -0.351   3.883  1.00  0.00    -0.207 F 
ENDBRANCH  15  17
ENDBRANCH  14  15
BRANCH  14  24
ATOM     24  C   UNL     1      -0.614  -1.621  -2.843  1.00  0.00     0.165 C 
BRANCH  24  25
ATOM     25  O   UNL     1      -1.133  -1.637  -4.149  1.00  0.00    -0.387 OA
ATOM     26  H   UNL     1      -0.813  -2.476  -4.574  1.00  0.00     0.211 HD
ENDBRANCH  24  25
BRANCH  24  27
ATOM     27  C   UNL     1      -1.354  -2.631  -1.989  1.00  0.00    -0.015 A 
ATOM     28  C   UNL     1      -0.645  -3.481  -1.124  1.00  0.00     0.008 A 
ATOM     29  C   UNL     1      -2.760  -2.679  -1.995  1.00  0.00     0.047 A 
ATOM     30  C   UNL     1      -1.329  -4.374  -0.296  1.00  0.00     0.024 A 
ATOM     31  C   UNL     1      -3.443  -3.576  -1.168  1.00  0.00     0.142 A 
ATOM     32  C   UNL     1      -2.727  -4.427  -0.318  1.00  0.00     0.076 A 
ATOM     33  F   UNL     1      -4.797  -3.618  -1.199  1.00  0.00    -0.205 F 
ATOM     34  Cl  UNL     1      -3.572  -5.565   0.721  1.00  0.00    -0.081 Cl
ENDBRANCH  24  27
ENDBRANCH  14  24
ENDBRANCH  13  14
ENDBRANCH  12  13
ENDBRANCH   1  12
TORSDOF 14


