REMARK SMILES Cc1cc(N(N)C(=O)O[C@H]2CS(=O)(=O)C[C@@H]2Cl)c([O-])c(-n2nc3ccccc3n2)c1
REMARK SMILES IDX 7 1 8 2 5 3 4 4 2 5 3 6 30 7 20 8 18 9 1 10 19 11 21 12
REMARK SMILES IDX 22 13 29 14 23 15 28 16 24 17 27 18 25 19 26 20 6 21 9 24
REMARK SMILES IDX 10 25 11 26 16 27 12 28 15 29 17 30 13 31 14 32
REMARK H PARENT 6 22 6 23
ROOT
ATOM      1  C   UNL     1      -0.622   0.001  -2.895  1.00  0.00     0.429 C 
ATOM      2  O   UNL     1      -0.394  -0.420  -4.062  1.00  0.00    -0.222 OA
ENDROOT
BRANCH   1   3
ATOM      3  N   UNL     1      -0.724  -0.929  -1.807  1.00  0.00    -0.214 N 
BRANCH   3   4
ATOM      4  C   UNL     1      -0.981  -0.455  -0.470  1.00  0.00     0.059 A 
ATOM      5  C   UNL     1      -2.384   0.809   1.064  1.00  0.00    -0.047 A 
ATOM      6  C   UNL     1      -2.123   0.318  -0.219  1.00  0.00     0.031 A 
ATOM      7  C   UNL     1      -1.518   0.487   2.116  1.00  0.00     0.033 A 
ATOM      8  C   UNL     1      -0.367  -0.291   1.894  1.00  0.00     0.080 A 
ATOM      9  C   UNL     1      -0.099  -0.756   0.585  1.00  0.00    -0.054 A 
ATOM     10  C   UNL     1      -3.623   1.614   1.326  1.00  0.00     0.044 C 
ATOM     11  O   UNL     1       1.048  -1.497   0.321  1.00  0.00    -0.870 OA
BRANCH   8  12
ATOM     12  N   UNL     1       0.513  -0.593   3.000  1.00  0.00    -0.151 N 
ATOM     13  N   UNL     1       1.615  -1.337   2.900  1.00  0.00    -0.148 NA
ATOM     14  N   UNL     1       0.307  -0.152   4.242  1.00  0.00    -0.148 NA
ATOM     15  C   UNL     1       2.129  -1.368   4.138  1.00  0.00     0.113 A 
ATOM     16  C   UNL     1       1.327  -0.641   4.960  1.00  0.00     0.113 A 
ATOM     17  C   UNL     1       3.279  -2.005   4.594  1.00  0.00     0.032 A 
ATOM     18  C   UNL     1       1.600  -0.484   6.315  1.00  0.00     0.032 A 
ATOM     19  C   UNL     1       3.592  -1.871   5.961  1.00  0.00     0.002 A 
ATOM     20  C   UNL     1       2.756  -1.114   6.818  1.00  0.00     0.002 A 
ENDBRANCH   8  12
ENDBRANCH   3   4
BRANCH   3  21
ATOM     21  N   UNL     1      -0.506  -2.298  -2.058  1.00  0.00    -0.238 NA
ATOM     22  H   UNL     1       0.519  -2.479  -1.967  1.00  0.00     0.144 HD
ATOM     23  H   UNL     1      -1.000  -2.858  -1.325  1.00  0.00     0.144 HD
ENDBRANCH   3  21
ENDBRANCH   1   3
BRANCH   1  24
ATOM     24  O   UNL     1      -0.766   1.373  -2.653  1.00  0.00    -0.442 OA
BRANCH  24  25
ATOM     25  C   UNL     1      -0.585   2.379  -3.650  1.00  0.00     0.212 C 
ATOM     26  C   UNL     1      -1.182   3.689  -3.133  1.00  0.00     0.183 C 
ATOM     27  C   UNL     1       0.922   2.607  -3.897  1.00  0.00     0.138 C 
ATOM     28  S   UNL     1       0.116   4.459  -2.213  1.00  0.00     0.155 S 
ATOM     29  C   UNL     1       1.473   3.461  -2.751  1.00  0.00     0.160 C 
ATOM     30  Cl  UNL     1       1.166   3.440  -5.463  1.00  0.00    -0.118 Cl
ATOM     31  O   UNL     1       0.295   5.898  -2.606  1.00  0.00    -0.229 OA
ATOM     32  O   UNL     1      -0.108   4.334  -0.732  1.00  0.00    -0.229 OA
ENDBRANCH  24  25
ENDBRANCH   1  24
TORSDOF 6


