MODEL 1
REMARK VINA RESULT:      -7.8      0.000      0.000
REMARK SMILES C=C[C@H](OCC)/C(O)=N\c1cc(F)c[n-]/c1=N\c1c[nH]c2nccc-2c1
REMARK SMILES IDX 7 1 8 2 9 4 10 5 11 6 16 7 12 8 15 9 14 10 13 11 17 12 18 13
REMARK SMILES IDX 26 14 19 15 25 16 20 17 24 18 21 19 23 20 22 21 3 23 4 24
REMARK SMILES IDX 5 25 6 26 2 27 1 28
REMARK H PARENT 8 3 20 22
ROOT
ATOM      1  C   UNL     1      44.632 129.967  22.478  1.00  0.00     0.220 C 
ENDROOT
BRANCH   1   2
ATOM      2  O   UNL     1      44.877 130.902  23.481  1.00  0.00    -0.494 OA
ATOM      3  H   UNL     1      45.605 131.599  23.381  1.00  0.00     0.295 HD
ENDBRANCH   1   2
BRANCH   1   4
ATOM      4  N   UNL     1      44.815 130.313  21.235  1.00  0.00    -0.216 NA
BRANCH   4   5
ATOM      5  C   UNL     1      43.916 131.124  20.468  1.00  0.00     0.069 A 
ATOM      6  C   UNL     1      42.874 131.803  21.109  1.00  0.00     0.067 A 
ATOM      7  C   UNL     1      44.061 131.245  19.074  1.00  0.00    -0.032 A 
ATOM      8  C   UNL     1      42.000 132.597  20.367  1.00  0.00     0.121 A 
ATOM      9  N   UNL     1      43.185 132.023  18.376  1.00  0.00    -0.438 NA
ATOM     10  C   UNL     1      42.175 132.698  18.986  1.00  0.00     0.018 A 
ATOM     11  F   UNL     1      40.992 133.264  20.980  1.00  0.00    -0.207 F 
BRANCH   7  12
ATOM     12  N   UNL     1      45.005 130.585  18.467  1.00  0.00    -0.433 NA
BRANCH  12  13
ATOM     13  C   UNL     1      45.540 130.850  17.161  1.00  0.00    -0.024 A 
ATOM     14  C   UNL     1      46.187 129.802  16.477  1.00  0.00     0.017 A 
ATOM     15  C   UNL     1      45.518 132.160  16.595  1.00  0.00     0.088 A 
ATOM     16  C   UNL     1      46.736 130.088  15.238  1.00  0.00     0.019 A 
ATOM     17  N   UNL     1      46.070 132.414  15.368  1.00  0.00    -0.346 N 
ATOM     18  C   UNL     1      47.417 129.337  14.315  1.00  0.00     0.032 A 
ATOM     19  C   UNL     1      46.663 131.401  14.696  1.00  0.00     0.137 A 
ATOM     20  C   UNL     1      47.722 130.216  13.273  1.00  0.00     0.114 A 
ATOM     21  N   UNL     1      47.268 131.478  13.499  1.00  0.00    -0.239 NA
ATOM     22  H   UNL     1      46.048 133.378  14.967  1.00  0.00     0.167 HD
ENDBRANCH  12  13
ENDBRANCH   7  12
ENDBRANCH   4   5
ENDBRANCH   1   4
BRANCH   1  23
ATOM     23  C   UNL     1      44.136 128.588  22.876  1.00  0.00     0.226 C 
BRANCH  23  24
ATOM     24  O   UNL     1      45.213 127.788  23.334  1.00  0.00    -0.365 OA
BRANCH  24  25
ATOM     25  C   UNL     1      45.156 126.500  22.754  1.00  0.00     0.158 C 
ATOM     26  C   UNL     1      46.012 125.546  23.572  1.00  0.00     0.035 C 
ENDBRANCH  24  25
ENDBRANCH  23  24
BRANCH  23  27
ATOM     27  C   UNL     1      43.117 128.707  23.981  1.00  0.00     0.006 C 
ATOM     28  C   UNL     1      41.989 127.989  23.994  1.00  0.00     0.007 C 
ENDBRANCH  23  27
ENDBRANCH   1  23
TORSDOF 9
ENDMDL
MODEL 2
REMARK VINA RESULT:      -6.2      1.728      2.438
REMARK SMILES C=C[C@H](OCC)/C(O)=N\c1cc(F)c[n-]/c1=N\c1c[nH]c2nccc-2c1
REMARK SMILES IDX 7 1 8 2 9 4 10 5 11 6 16 7 12 8 15 9 14 10 13 11 17 12 18 13
REMARK SMILES IDX 26 14 19 15 25 16 20 17 24 18 21 19 23 20 22 21 3 23 4 24
REMARK SMILES IDX 5 25 6 26 2 27 1 28
REMARK H PARENT 8 3 20 22
ROOT
ATOM      1  C   UNL     1      45.085 127.937  23.013  1.00  0.00     0.220 C 
ENDROOT
BRANCH   1   2
ATOM      2  O   UNL     1      45.255 128.138  24.382  1.00  0.00    -0.494 OA
ATOM      3  H   UNL     1      44.574 127.796  25.050  1.00  0.00     0.295 HD
ENDBRANCH   1   2
BRANCH   1   4
ATOM      4  N   UNL     1      45.203 128.956  22.209  1.00  0.00    -0.216 NA
BRANCH   4   5
ATOM      5  C   UNL     1      44.315 130.080  22.173  1.00  0.00     0.069 A 
ATOM      6  C   UNL     1      43.354 130.239  23.177  1.00  0.00     0.067 A 
ATOM      7  C   UNL     1      44.389 131.028  21.136  1.00  0.00    -0.032 A 
ATOM      8  C   UNL     1      42.492 131.336  23.148  1.00  0.00     0.121 A 
ATOM      9  N   UNL     1      43.526 132.084  21.132  1.00  0.00    -0.438 NA
ATOM     10  C   UNL     1      42.596 132.259  22.107  1.00  0.00     0.018 A 
ATOM     11  F   UNL     1      41.564 131.502  24.122  1.00  0.00    -0.207 F 
BRANCH   7  12
ATOM     12  N   UNL     1      45.255 130.864  20.176  1.00  0.00    -0.433 NA
BRANCH  12  13
ATOM     13  C   UNL     1      45.011 130.974  18.766  1.00  0.00    -0.024 A 
ATOM     14  C   UNL     1      46.000 130.511  17.876  1.00  0.00     0.017 A 
ATOM     15  C   UNL     1      43.847 131.625  18.257  1.00  0.00     0.088 A 
ATOM     16  C   UNL     1      45.766 130.667  16.520  1.00  0.00     0.019 A 
ATOM     17  N   UNL     1      43.642 131.766  16.910  1.00  0.00    -0.346 N 
ATOM     18  C   UNL     1      46.485 130.343  15.399  1.00  0.00     0.032 A 
ATOM     19  C   UNL     1      44.577 131.293  16.054  1.00  0.00     0.137 A 
ATOM     20  C   UNL     1      45.710 130.781  14.322  1.00  0.00     0.114 A 
ATOM     21  N   UNL     1      44.546 131.365  14.713  1.00  0.00    -0.239 NA
ATOM     22  H   UNL     1      42.786 132.246  16.552  1.00  0.00     0.167 HD
ENDBRANCH  12  13
ENDBRANCH   7  12
ENDBRANCH   4   5
ENDBRANCH   1   4
BRANCH   1  23
ATOM     23  C   UNL     1      44.743 126.542  22.520  1.00  0.00     0.226 C 
BRANCH  23  24
ATOM     24  O   UNL     1      45.925 125.827  22.200  1.00  0.00    -0.365 OA
BRANCH  24  25
ATOM     25  C   UNL     1      46.434 125.172  23.345  1.00  0.00     0.158 C 
ATOM     26  C   UNL     1      47.953 125.258  23.333  1.00  0.00     0.035 C 
ENDBRANCH  24  25
ENDBRANCH  23  24
BRANCH  23  27
ATOM     27  C   UNL     1      43.995 125.788  23.589  1.00  0.00     0.006 C 
ATOM     28  C   UNL     1      42.663 125.827  23.693  1.00  0.00     0.007 C 
ENDBRANCH  23  27
ENDBRANCH   1  23
TORSDOF 9
ENDMDL
MODEL 3
REMARK VINA RESULT:      -6.1      1.163      2.372
REMARK SMILES C=C[C@H](OCC)/C(O)=N\c1cc(F)c[n-]/c1=N\c1c[nH]c2nccc-2c1
REMARK SMILES IDX 7 1 8 2 9 4 10 5 11 6 16 7 12 8 15 9 14 10 13 11 17 12 18 13
REMARK SMILES IDX 26 14 19 15 25 16 20 17 24 18 21 19 23 20 22 21 3 23 4 24
REMARK SMILES IDX 5 25 6 26 2 27 1 28
REMARK H PARENT 8 3 20 22
ROOT
ATOM      1  C   UNL     1      45.076 130.241  21.732  1.00  0.00     0.220 C 
ENDROOT
BRANCH   1   2
ATOM      2  O   UNL     1      45.633 128.987  21.488  1.00  0.00    -0.494 OA
ATOM      3  H   UNL     1      45.423 128.477  20.638  1.00  0.00     0.295 HD
ENDBRANCH   1   2
BRANCH   1   4
ATOM      4  N   UNL     1      45.163 131.159  20.811  1.00  0.00    -0.216 NA
BRANCH   4   5
ATOM      5  C   UNL     1      44.072 131.611  19.998  1.00  0.00     0.069 A 
ATOM      6  C   UNL     1      43.045 132.367  20.572  1.00  0.00     0.067 A 
ATOM      7  C   UNL     1      44.015 131.301  18.627  1.00  0.00    -0.032 A 
ATOM      8  C   UNL     1      41.985 132.813  19.783  1.00  0.00     0.121 A 
ATOM      9  N   UNL     1      42.960 131.745  17.885  1.00  0.00    -0.438 NA
ATOM     10  C   UNL     1      41.960 132.491  18.425  1.00  0.00     0.018 A 
ATOM     11  F   UNL     1      40.988 133.552  20.329  1.00  0.00    -0.207 F 
BRANCH   7  12
ATOM     12  N   UNL     1      44.948 130.564  18.095  1.00  0.00    -0.433 NA
BRANCH  12  13
ATOM     13  C   UNL     1      45.612 130.785  16.841  1.00  0.00    -0.024 A 
ATOM     14  C   UNL     1      46.313 129.712  16.255  1.00  0.00     0.017 A 
ATOM     15  C   UNL     1      45.658 132.077  16.236  1.00  0.00     0.088 A 
ATOM     16  C   UNL     1      46.983 129.957  15.068  1.00  0.00     0.019 A 
ATOM     17  N   UNL     1      46.331 132.290  15.063  1.00  0.00    -0.346 N 
ATOM     18  C   UNL     1      47.744 129.173  14.241  1.00  0.00     0.032 A 
ATOM     19  C   UNL     1      46.977 131.253  14.483  1.00  0.00     0.137 A 
ATOM     20  C   UNL     1      48.159 130.018  13.208  1.00  0.00     0.114 A 
ATOM     21  N   UNL     1      47.697 131.289  13.349  1.00  0.00    -0.239 NA
ATOM     22  H   UNL     1      46.357 133.242  14.633  1.00  0.00     0.167 HD
ENDBRANCH  12  13
ENDBRANCH   7  12
ENDBRANCH   4   5
ENDBRANCH   1   4
BRANCH   1  23
ATOM     23  C   UNL     1      44.413 130.492  23.074  1.00  0.00     0.226 C 
BRANCH  23  24
ATOM     24  O   UNL     1      43.123 131.052  22.892  1.00  0.00    -0.365 OA
BRANCH  24  25
ATOM     25  C   UNL     1      42.818 131.947  23.942  1.00  0.00     0.158 C 
ATOM     26  C   UNL     1      41.398 132.463  23.761  1.00  0.00     0.035 C 
ENDBRANCH  24  25
ENDBRANCH  23  24
BRANCH  23  27
ATOM     27  C   UNL     1      44.276 129.196  23.831  1.00  0.00     0.006 C 
ATOM     28  C   UNL     1      44.186 128.013  23.215  1.00  0.00     0.007 C 
ENDBRANCH  23  27
ENDBRANCH   1  23
TORSDOF 9
ENDMDL
MODEL 4
REMARK VINA RESULT:      -5.4      1.267      1.477
REMARK SMILES C=C[C@H](OCC)/C(O)=N\c1cc(F)c[n-]/c1=N\c1c[nH]c2nccc-2c1
REMARK SMILES IDX 7 1 8 2 9 4 10 5 11 6 16 7 12 8 15 9 14 10 13 11 17 12 18 13
REMARK SMILES IDX 26 14 19 15 25 16 20 17 24 18 21 19 23 20 22 21 3 23 4 24
REMARK SMILES IDX 5 25 6 26 2 27 1 28
REMARK H PARENT 8 3 20 22
ROOT
ATOM      1  C   UNL     1      45.495 130.543  20.683  1.00  0.00     0.220 C 
ENDROOT
BRANCH   1   2
ATOM      2  O   UNL     1      46.661 131.206  21.062  1.00  0.00    -0.494 OA
ATOM      3  H   UNL     1      47.209 131.728  20.389  1.00  0.00     0.295 HD
ENDBRANCH   1   2
BRANCH   1   4
ATOM      4  N   UNL     1      45.033 130.723  19.478  1.00  0.00    -0.216 NA
BRANCH   4   5
ATOM      5  C   UNL     1      43.818 131.415  19.161  1.00  0.00     0.069 A 
ATOM      6  C   UNL     1      43.225 132.250  20.114  1.00  0.00     0.067 A 
ATOM      7  C   UNL     1      43.207 131.264  17.903  1.00  0.00    -0.032 A 
ATOM      8  C   UNL     1      42.046 132.930  19.806  1.00  0.00     0.121 A 
ATOM      9  N   UNL     1      42.050 131.935  17.637  1.00  0.00    -0.438 NA
ATOM     10  C   UNL     1      41.468 132.760  18.548  1.00  0.00     0.018 A 
ATOM     11  F   UNL     1      41.468 133.747  20.720  1.00  0.00    -0.207 F 
BRANCH   7  12
ATOM     12  N   UNL     1      43.733 130.457  17.026  1.00  0.00    -0.433 NA
BRANCH  12  13
ATOM     13  C   UNL     1      44.775 130.765  16.087  1.00  0.00    -0.024 A 
ATOM     14  C   UNL     1      45.524 129.702  15.545  1.00  0.00     0.017 A 
ATOM     15  C   UNL     1      45.127 132.112  15.775  1.00  0.00     0.088 A 
ATOM     16  C   UNL     1      46.553 130.021  14.675  1.00  0.00     0.019 A 
ATOM     17  N   UNL     1      46.151 132.399  14.913  1.00  0.00    -0.346 N 
ATOM     18  C   UNL     1      47.462 129.268  13.978  1.00  0.00     0.032 A 
ATOM     19  C   UNL     1      46.850 131.377  14.366  1.00  0.00     0.137 A 
ATOM     20  C   UNL     1      48.256 130.189  13.289  1.00  0.00     0.114 A 
ATOM     21  N   UNL     1      47.891 131.478  13.523  1.00  0.00    -0.239 NA
ATOM     22  H   UNL     1      46.399 133.390  14.695  1.00  0.00     0.167 HD
ENDBRANCH  12  13
ENDBRANCH   7  12
ENDBRANCH   4   5
ENDBRANCH   1   4
BRANCH   1  23
ATOM     23  C   UNL     1      44.799 129.658  21.701  1.00  0.00     0.226 C 
BRANCH  23  24
ATOM     24  O   UNL     1      45.701 128.694  22.218  1.00  0.00    -0.365 OA
BRANCH  24  25
ATOM     25  C   UNL     1      45.042 127.462  22.434  1.00  0.00     0.158 C 
ATOM     26  C   UNL     1      45.963 126.325  22.020  1.00  0.00     0.035 C 
ENDBRANCH  24  25
ENDBRANCH  23  24
BRANCH  23  27
ATOM     27  C   UNL     1      44.280 130.495  22.841  1.00  0.00     0.006 C 
ATOM     28  C   UNL     1      43.762 129.953  23.948  1.00  0.00     0.007 C 
ENDBRANCH  23  27
ENDBRANCH   1  23
TORSDOF 9
ENDMDL
MODEL 5
REMARK VINA RESULT:      -5.1      1.198      1.626
REMARK SMILES C=C[C@H](OCC)/C(O)=N\c1cc(F)c[n-]/c1=N\c1c[nH]c2nccc-2c1
REMARK SMILES IDX 7 1 8 2 9 4 10 5 11 6 16 7 12 8 15 9 14 10 13 11 17 12 18 13
REMARK SMILES IDX 26 14 19 15 25 16 20 17 24 18 21 19 23 20 22 21 3 23 4 24
REMARK SMILES IDX 5 25 6 26 2 27 1 28
REMARK H PARENT 8 3 20 22
ROOT
ATOM      1  C   UNL     1      45.166 130.753  21.694  1.00  0.00     0.220 C 
ENDROOT
BRANCH   1   2
ATOM      2  O   UNL     1      46.397 130.418  22.255  1.00  0.00    -0.494 OA
ATOM      3  H   UNL     1      47.135 130.011  21.693  1.00  0.00     0.295 HD
ENDBRANCH   1   2
BRANCH   1   4
ATOM      4  N   UNL     1      45.137 131.576  20.685  1.00  0.00    -0.216 NA
BRANCH   4   5
ATOM      5  C   UNL     1      43.988 131.828  19.864  1.00  0.00     0.069 A 
ATOM      6  C   UNL     1      42.894 132.520  20.394  1.00  0.00     0.067 A 
ATOM      7  C   UNL     1      43.941 131.383  18.530  1.00  0.00    -0.032 A 
ATOM      8  C   UNL     1      41.777 132.772  19.597  1.00  0.00     0.121 A 
ATOM      9  N   UNL     1      42.830 131.638  17.780  1.00  0.00    -0.438 NA
ATOM     10  C   UNL     1      41.764 132.320  18.277  1.00  0.00     0.018 A 
ATOM     11  F   UNL     1      40.716 133.448  20.100  1.00  0.00    -0.207 F 
BRANCH   7  12
ATOM     12  N   UNL     1      44.940 130.704  18.044  1.00  0.00    -0.433 NA
BRANCH  12  13
ATOM     13  C   UNL     1      45.579 130.902  16.774  1.00  0.00    -0.024 A 
ATOM     14  C   UNL     1      46.281 129.822  16.201  1.00  0.00     0.017 A 
ATOM     15  C   UNL     1      45.603 132.180  16.138  1.00  0.00     0.088 A 
ATOM     16  C   UNL     1      46.928 130.045  14.997  1.00  0.00     0.019 A 
ATOM     17  N   UNL     1      46.253 132.371  14.949  1.00  0.00    -0.346 N 
ATOM     18  C   UNL     1      47.683 129.249  14.175  1.00  0.00     0.032 A 
ATOM     19  C   UNL     1      46.899 131.326  14.382  1.00  0.00     0.137 A 
ATOM     20  C   UNL     1      48.071 130.072  13.115  1.00  0.00     0.114 A 
ATOM     21  N   UNL     1      47.600 131.342  13.235  1.00  0.00    -0.239 NA
ATOM     22  H   UNL     1      46.263 133.312  14.496  1.00  0.00     0.167 HD
ENDBRANCH  12  13
ENDBRANCH   7  12
ENDBRANCH   4   5
ENDBRANCH   1   4
BRANCH   1  23
ATOM     23  C   UNL     1      43.907 130.160  22.301  1.00  0.00     0.226 C 
BRANCH  23  24
ATOM     24  O   UNL     1      44.023 128.751  22.407  1.00  0.00    -0.365 OA
BRANCH  24  25
ATOM     25  C   UNL     1      43.761 128.329  23.730  1.00  0.00     0.158 C 
ATOM     26  C   UNL     1      42.395 127.662  23.779  1.00  0.00     0.035 C 
ENDBRANCH  24  25
ENDBRANCH  23  24
BRANCH  23  27
ATOM     27  C   UNL     1      43.680 130.732  23.677  1.00  0.00     0.006 C 
ATOM     28  C   UNL     1      43.904 132.019  23.963  1.00  0.00     0.007 C 
ENDBRANCH  23  27
ENDBRANCH   1  23
TORSDOF 9
ENDMDL


