REMARK SMILES C=Cc1ccc(-c2cc3cc[nH]c3cc2Nc2cc(F)c(O)cc2N)nc1
REMARK SMILES IDX 7 1 8 2 9 3 10 4 11 5 12 6 13 7 14 8 15 9 6 11 3 12 4 13
REMARK SMILES IDX 27 14 5 15 26 16 2 17 1 18 16 19 17 21 18 22 24 23 19 24
REMARK SMILES IDX 23 25 21 26 20 27 25 28 22 31
REMARK H PARENT 12 10 16 20 25 29 25 30 22 32
ROOT
ATOM      1  C   UNL     1      -0.847   0.971  -1.512  1.00  0.00     0.024 A 
ATOM      2  C   UNL     1      -0.063   1.569  -2.526  1.00  0.00     0.022 A 
ATOM      3  C   UNL     1      -0.461   2.805  -3.024  1.00  0.00     0.000 A 
ATOM      4  C   UNL     1       0.096   3.597  -4.005  1.00  0.00     0.028 A 
ATOM      5  C   UNL     1      -0.737   4.708  -4.089  1.00  0.00     0.083 A 
ATOM      6  N   UNL     1      -1.758   4.610  -3.208  1.00  0.00    -0.361 N 
ATOM      7  C   UNL     1      -1.579   3.443  -2.567  1.00  0.00     0.047 A 
ATOM      8  C   UNL     1      -2.374   2.900  -1.564  1.00  0.00     0.053 A 
ATOM      9  C   UNL     1      -1.998   1.659  -1.006  1.00  0.00     0.050 A 
ATOM     10  H   UNL     1      -2.527   5.301  -3.060  1.00  0.00     0.166 HD
ENDROOT
BRANCH   1  11
ATOM     11  C   UNL     1      -0.488  -0.383  -1.039  1.00  0.00     0.072 A 
ATOM     12  C   UNL     1       0.113  -2.935  -0.071  1.00  0.00    -0.008 A 
ATOM     13  C   UNL     1       1.120  -1.955  -0.154  1.00  0.00     0.012 A 
ATOM     14  C   UNL     1      -1.183  -2.590  -0.482  1.00  0.00     0.119 A 
ATOM     15  C   UNL     1       0.823  -0.683  -0.645  1.00  0.00     0.030 A 
ATOM     16  N   UNL     1      -1.448  -1.343  -0.951  1.00  0.00    -0.256 NA
BRANCH  12  17
ATOM     17  C   UNL     1       0.354  -4.301   0.458  1.00  0.00     0.002 C 
ATOM     18  C   UNL     1       1.562  -4.840   0.625  1.00  0.00     0.009 C 
ENDBRANCH  12  17
ENDBRANCH   1  11
BRANCH   9  19
ATOM     19  N   UNL     1      -2.785   1.129   0.076  1.00  0.00    -0.353 N 
ATOM     20  H   UNL     1      -3.816   1.298   0.055  1.00  0.00     0.167 HD
BRANCH  19  21
ATOM     21  C   UNL     1      -2.212   0.598   1.285  1.00  0.00     0.065 A 
ATOM     22  C   UNL     1      -1.024   1.145   1.801  1.00  0.00     0.071 A 
ATOM     23  C   UNL     1      -2.837  -0.468   1.971  1.00  0.00     0.059 A 
ATOM     24  C   UNL     1      -0.454   0.635   2.970  1.00  0.00     0.167 A 
ATOM     25  C   UNL     1      -2.260  -0.966   3.149  1.00  0.00     0.077 A 
ATOM     26  C   UNL     1      -1.072  -0.423   3.647  1.00  0.00     0.153 A 
ATOM     27  F   UNL     1       0.698   1.175   3.441  1.00  0.00    -0.203 F 
BRANCH  23  28
ATOM     28  N   UNL     1      -4.024  -1.089   1.461  1.00  0.00    -0.397 N 
ATOM     29  H   UNL     1      -4.492  -1.855   1.994  1.00  0.00     0.156 HD
ATOM     30  H   UNL     1      -4.420  -0.843   0.528  1.00  0.00     0.156 HD
ENDBRANCH  23  28
BRANCH  26  31
ATOM     31  O   UNL     1      -0.519  -0.948   4.815  1.00  0.00    -0.505 OA
ATOM     32  H   UNL     1       0.341  -0.586   5.209  1.00  0.00     0.293 HD
ENDBRANCH  26  31
ENDBRANCH  19  21
ENDBRANCH   9  19
TORSDOF 6


