REMARK SMILES N/[N+](C1=C[C@H]2C[C@H]3C=CC=C[C@@H]3C[C@@]2(F)C=C1)=C(/O)N1CCOCC1
REMARK SMILES IDX 18 1 20 2 21 3 22 4 23 5 24 6 25 7 19 8 2 10 3 11 4 12 17 13
REMARK SMILES IDX 5 14 16 15 6 16 14 17 7 18 13 19 8 20 12 21 9 22 11 23 10 24
REMARK SMILES IDX 15 25 1 26
REMARK H PARENT 19 9 1 27 1 28
ROOT
ATOM      1  C   UNL     1      -2.087   1.219   1.407  1.00  0.00     0.473 C 
ATOM      2  N   UNL     1      -2.802   1.106   2.647  1.00  0.00    -0.222 N 
ATOM      3  C   UNL     1      -2.884  -0.200   3.306  1.00  0.00     0.268 C 
ATOM      4  C   UNL     1      -3.200  -0.004   4.792  1.00  0.00     0.206 C 
ATOM      5  O   UNL     1      -4.347   0.809   4.958  1.00  0.00    -0.373 OA
ATOM      6  C   UNL     1      -4.088   2.112   4.469  1.00  0.00     0.206 C 
ATOM      7  C   UNL     1      -3.842   2.087   2.957  1.00  0.00     0.268 C 
ENDROOT
BRANCH   1   8
ATOM      8  O   UNL     1      -2.828   1.483   0.249  1.00  0.00    -0.445 OA
ATOM      9  H   UNL     1      -2.409   1.694  -0.648  1.00  0.00     0.301 HD
ENDBRANCH   1   8
BRANCH   1  10
ATOM     10  N   UNL     1      -0.779   1.097   1.373  1.00  0.00    -0.096 N 
BRANCH  10  11
ATOM     11  C   UNL     1      -0.064   1.024   0.127  1.00  0.00     0.153 C 
ATOM     12  C   UNL     1       0.921   1.899  -0.138  1.00  0.00     0.034 C 
ATOM     13  C   UNL     1      -0.368  -0.057  -0.841  1.00  0.00     0.053 C 
ATOM     14  C   UNL     1       1.782   1.750  -1.371  1.00  0.00     0.058 C 
ATOM     15  C   UNL     1       0.139  -0.029  -2.079  1.00  0.00     0.018 C 
ATOM     16  C   UNL     1       3.010   0.875  -1.030  1.00  0.00     0.020 C 
ATOM     17  C   UNL     1       0.941   1.166  -2.549  1.00  0.00     0.136 C 
ATOM     18  C   UNL     1       3.859   0.621  -2.281  1.00  0.00     0.019 C 
ATOM     19  C   UNL     1       1.827   0.810  -3.765  1.00  0.00     0.054 C 
ATOM     20  C   UNL     1       5.090  -0.204  -1.979  1.00  0.00    -0.023 C 
ATOM     21  C   UNL     1       3.010  -0.084  -3.361  1.00  0.00     0.022 C 
ATOM     22  C   UNL     1       5.715  -0.848  -2.973  1.00  0.00    -0.004 C 
ATOM     23  C   UNL     1       3.882  -0.444  -4.542  1.00  0.00    -0.023 C 
ATOM     24  C   UNL     1       5.138  -0.861  -4.335  1.00  0.00    -0.004 C 
ATOM     25  F   UNL     1       0.038   2.135  -2.956  1.00  0.00    -0.239 F 
ENDBRANCH  10  11
BRANCH  10  26
ATOM     26  N   UNL     1      -0.029   1.049   2.565  1.00  0.00    -0.266 NA
ATOM     27  H   UNL     1       0.995   0.843   2.539  1.00  0.00     0.202 HD
ATOM     28  H   UNL     1      -0.448   1.280   3.494  1.00  0.00     0.202 HD
ENDBRANCH  10  26
ENDBRANCH   1  10
TORSDOF 4


