REMARK SMILES Cc1ccc([C@H]2O[C@@H]2C(=O)c2ccc(F)cc2)cc1F
REMARK SMILES IDX 6 1 7 2 8 3 5 4 2 5 3 6 19 7 4 8 18 9 1 10 20 11 9 12 10 13
REMARK SMILES IDX 11 14 12 15 17 16 13 17 16 18 14 19 15 20
REMARK H PARENT
ROOT
ATOM      1  C   UNL     1       0.107  -0.309  -0.390  1.00  0.00     0.186 C 
ATOM      2  O   UNL     1       0.961   0.637   0.212  1.00  0.00    -0.356 OA
ATOM      3  C   UNL     1       1.099  -0.697   0.646  1.00  0.00     0.224 C 
ENDROOT
BRANCH   1   4
ATOM      4  C   UNL     1      -1.306  -0.159   0.087  1.00  0.00    -0.013 A 
ATOM      5  C   UNL     1      -3.979   0.103   0.923  1.00  0.00    -0.015 A 
ATOM      6  C   UNL     1      -3.280   1.214   0.423  1.00  0.00     0.007 A 
ATOM      7  C   UNL     1      -3.341  -1.147   0.973  1.00  0.00     0.126 A 
ATOM      8  C   UNL     1      -1.952   1.083   0.007  1.00  0.00     0.007 A 
ATOM      9  C   UNL     1      -2.012  -1.276   0.556  1.00  0.00     0.046 A 
ATOM     10  C   UNL     1      -5.415   0.237   1.342  1.00  0.00     0.047 C 
ATOM     11  F   UNL     1      -4.005  -2.243   1.421  1.00  0.00    -0.207 F 
ENDBRANCH   1   4
BRANCH   3  12
ATOM     12  C   UNL     1       2.371  -1.306   0.137  1.00  0.00     0.194 C 
ATOM     13  O   UNL     1       2.293  -2.285  -0.654  1.00  0.00    -0.291 OA
BRANCH  12  14
ATOM     14  C   UNL     1       3.704  -0.809   0.569  1.00  0.00     0.021 A 
ATOM     15  C   UNL     1       3.828   0.157   1.587  1.00  0.00     0.015 A 
ATOM     16  C   UNL     1       4.873  -1.307  -0.038  1.00  0.00     0.015 A 
ATOM     17  C   UNL     1       5.089   0.613   1.982  1.00  0.00     0.040 A 
ATOM     18  C   UNL     1       6.132  -0.847   0.361  1.00  0.00     0.040 A 
ATOM     19  C   UNL     1       6.240   0.113   1.370  1.00  0.00     0.123 A 
ATOM     20  F   UNL     1       7.462   0.558   1.755  1.00  0.00    -0.207 F 
ENDBRANCH  12  14
ENDBRANCH   3  12
TORSDOF 3


