REMARK SMILES C#CC[NH2+][C@H](C=C)C(=O)N1N[C@H](C)O[C@@H]1c1ccc2cc(C)[nH]c2c1
REMARK SMILES IDX 5 1 4 2 3 5 2 6 1 7 6 8 7 9 8 10 9 11 10 12 11 13 15 14
REMARK SMILES IDX 12 15 14 16 13 18 16 19 17 20 25 21 18 22 24 23 19 24 23 25
REMARK SMILES IDX 20 26 21 27 22 29
REMARK H PARENT 4 3 4 4 11 17 23 28
ROOT
ATOM      1  C   UNL     1       0.722   2.913  -0.708  1.00  0.00     0.298 C 
ENDROOT
BRANCH   1   2
ATOM      2  N   UNL     1      -0.606   2.930  -1.368  1.00  0.00    -0.323 N 
ATOM      3  H   UNL     1      -0.511   3.091  -2.399  1.00  0.00     0.348 HD
ATOM      4  H   UNL     1      -1.157   3.734  -0.986  1.00  0.00     0.348 HD
BRANCH   2   5
ATOM      5  C   UNL     1      -1.403   1.715  -1.105  1.00  0.00     0.353 C 
BRANCH   5   6
ATOM      6  C   UNL     1      -1.000   0.593  -1.968  1.00  0.00    -0.047 C 
ATOM      7  C   UNL     1      -0.671  -0.329  -2.671  1.00  0.00     0.010 C 
ENDBRANCH   5   6
ENDBRANCH   2   5
ENDBRANCH   1   2
BRANCH   1   8
ATOM      8  C   UNL     1       1.329   4.300  -0.715  1.00  0.00     0.039 C 
ATOM      9  C   UNL     1       0.917   5.246   0.134  1.00  0.00     0.011 C 
ENDBRANCH   1   8
BRANCH   1  10
ATOM     10  C   UNL     1       1.682   1.960  -1.396  1.00  0.00     0.301 C 
ATOM     11  O   UNL     1       1.821   2.038  -2.647  1.00  0.00    -0.266 OA
BRANCH  10  12
ATOM     12  N   UNL     1       2.486   1.014  -0.665  1.00  0.00    -0.237 N 
ATOM     13  N   UNL     1       3.522   0.323  -1.281  1.00  0.00    -0.201 NA
ATOM     14  C   UNL     1       2.461   0.783   0.762  1.00  0.00     0.267 C 
ATOM     15  C   UNL     1       4.274  -0.227  -0.148  1.00  0.00     0.204 C 
ATOM     16  O   UNL     1       3.538  -0.071   1.052  1.00  0.00    -0.333 OA
ATOM     17  H   UNL     1       3.078  -0.440  -1.844  1.00  0.00     0.151 HD
ATOM     18  C   UNL     1       4.620  -1.704  -0.352  1.00  0.00     0.058 C 
BRANCH  14  19
ATOM     19  C   UNL     1       1.176   0.115   1.185  1.00  0.00     0.005 A 
ATOM     20  C   UNL     1       0.447   0.613   2.296  1.00  0.00     0.009 A 
ATOM     21  C   UNL     1       0.703  -1.026   0.495  1.00  0.00     0.035 A 
ATOM     22  C   UNL     1      -0.760   0.011   2.693  1.00  0.00     0.011 A 
ATOM     23  C   UNL     1      -0.496  -1.597   0.913  1.00  0.00     0.046 A 
ATOM     24  C   UNL     1      -1.203  -1.094   1.972  1.00  0.00    -0.000 A 
ATOM     25  N   UNL     1      -1.131  -2.647   0.367  1.00  0.00    -0.359 N 
ATOM     26  C   UNL     1      -2.342  -1.857   2.111  1.00  0.00     0.031 A 
ATOM     27  C   UNL     1      -2.254  -2.814   1.104  1.00  0.00     0.013 A 
ATOM     28  H   UNL     1      -0.830  -3.205  -0.463  1.00  0.00     0.166 HD
ATOM     29  C   UNL     1      -3.301  -3.834   0.797  1.00  0.00     0.064 C 
ENDBRANCH  14  19
ENDBRANCH  10  12
ENDBRANCH   1  10
TORSDOF 7


