REMARK SMILES CCCC[C@H](CC)C[N-]C(=O)N1[NH2+][C@H](C)O[C@H]1c1cc2ccc(F)cc2[nH]1
REMARK SMILES IDX 8 1 5 2 4 3 3 4 2 5 1 6 6 7 7 8 9 9 10 10 11 11 12 12 13 13
REMARK SMILES IDX 17 14 14 15 16 16 15 19 18 20 19 21 27 22 20 23 26 24 21 25
REMARK SMILES IDX 25 26 22 27 23 28 24 30
REMARK H PARENT 13 17 13 18 27 29
ROOT
ATOM      1  C   UNL     1       3.119  -1.486  -0.440  1.00  0.00     0.007 C 
ENDROOT
BRANCH   1   2
ATOM      2  C   UNL     1       2.073  -2.624  -0.460  1.00  0.00    -0.012 C 
BRANCH   2   3
ATOM      3  C   UNL     1       1.262  -2.631   0.863  1.00  0.00     0.003 C 
BRANCH   3   4
ATOM      4  C   UNL     1      -0.083  -3.386   0.745  1.00  0.00    -0.000 C 
BRANCH   4   5
ATOM      5  C   UNL     1      -1.298  -2.456   0.609  1.00  0.00    -0.003 C 
ATOM      6  C   UNL     1      -1.299  -1.668  -0.699  1.00  0.00     0.004 C 
ENDBRANCH   4   5
ENDBRANCH   3   4
ENDBRANCH   2   3
BRANCH   2   7
ATOM      7  C   UNL     1       2.766  -3.994  -0.683  1.00  0.00    -0.000 C 
ATOM      8  C   UNL     1       3.143  -4.231  -2.148  1.00  0.00     0.004 C 
ENDBRANCH   2   7
ENDBRANCH   1   2
BRANCH   1   9
ATOM      9  N   UNL     1       2.476  -0.178  -0.529  1.00  0.00    -0.427 NA
BRANCH   9  10
ATOM     10  C   UNL     1       1.924   0.347  -1.742  1.00  0.00     0.200 C 
ATOM     11  O   UNL     1       1.989  -0.323  -2.809  1.00  0.00    -0.294 OA
BRANCH  10  12
ATOM     12  N   UNL     1       1.295   1.637  -1.748  1.00  0.00    -0.260 N 
ATOM     13  N   UNL     1       0.830   2.245  -2.908  1.00  0.00    -0.277 N 
ATOM     14  C   UNL     1       1.212   2.516  -0.609  1.00  0.00     0.228 C 
ATOM     15  C   UNL     1       0.346   3.552  -2.436  1.00  0.00     0.328 C 
ATOM     16  O   UNL     1       0.710   3.743  -1.078  1.00  0.00    -0.315 OA
ATOM     17  H   UNL     1       0.045   1.674  -3.300  1.00  0.00     0.361 HD
ATOM     18  H   UNL     1       1.623   2.323  -3.589  1.00  0.00     0.361 HD
ATOM     19  C   UNL     1       0.904   4.700  -3.279  1.00  0.00     0.111 C 
BRANCH  14  20
ATOM     20  C   UNL     1       0.283   1.954   0.427  1.00  0.00     0.050 A 
ATOM     21  C   UNL     1       0.644   1.627   1.732  1.00  0.00     0.034 A 
ATOM     22  N   UNL     1      -1.028   1.699   0.203  1.00  0.00    -0.356 N 
ATOM     23  C   UNL     1      -0.513   1.154   2.309  1.00  0.00    -0.000 A 
ATOM     24  C   UNL     1      -1.502   1.212   1.361  1.00  0.00     0.049 A 
ATOM     25  C   UNL     1      -0.754   0.677   3.596  1.00  0.00     0.013 A 
ATOM     26  C   UNL     1      -2.804   0.795   1.633  1.00  0.00     0.065 A 
ATOM     27  C   UNL     1      -2.060   0.250   3.902  1.00  0.00     0.040 A 
ATOM     28  C   UNL     1      -3.080   0.305   2.924  1.00  0.00     0.125 A 
ATOM     29  H   UNL     1      -1.559   1.843  -0.686  1.00  0.00     0.166 HD
ATOM     30  F   UNL     1      -4.331  -0.116   3.231  1.00  0.00    -0.207 F 
ENDBRANCH  14  20
ENDBRANCH  10  12
ENDBRANCH   9  10
ENDBRANCH   1   9
TORSDOF 9


