MODEL 1
REMARK VINA RESULT:      -7.3      0.000      0.000
REMARK SMILES C/C=C(/O)OCOc1ccc(Nc2ccc3cc[nH]c3c2)c(F)c1
REMARK SMILES IDX 6 1 5 2 3 3 4 4 2 6 1 7 7 8 8 9 9 10 24 11 10 12 22 13 11 14
REMARK SMILES IDX 23 15 12 16 13 18 14 19 21 20 15 21 20 22 16 23 19 24 17 25
REMARK SMILES IDX 18 26
REMARK H PARENT 4 5 12 17 19 27
ROOT
ATOM      1  C   UNL     1      43.729 131.250  16.037  1.00  0.00     0.471 C 
ENDROOT
BRANCH   1   2
ATOM      2  O   UNL     1      44.591 131.381  14.910  1.00  0.00    -0.428 OA
BRANCH   2   3
ATOM      3  C   UNL     1      45.948 131.701  15.031  1.00  0.00     0.274 C 
BRANCH   3   4
ATOM      4  O   UNL     1      46.333 133.018  15.287  1.00  0.00    -0.481 OA
ATOM      5  H   UNL     1      45.858 133.593  15.973  1.00  0.00     0.296 HD
ENDBRANCH   3   4
BRANCH   3   6
ATOM      6  C   UNL     1      46.871 130.744  14.898  1.00  0.00     0.058 C 
ATOM      7  C   UNL     1      46.505 129.294  14.845  1.00  0.00     0.043 C 
ENDBRANCH   3   6
ENDBRANCH   2   3
ENDBRANCH   1   2
BRANCH   1   8
ATOM      8  O   UNL     1      44.179 132.078  17.107  1.00  0.00    -0.457 OA
BRANCH   8   9
ATOM      9  C   UNL     1      44.417 131.636  18.418  1.00  0.00     0.126 A 
ATOM     10  C   UNL     1      45.515 130.823  18.756  1.00  0.00     0.049 A 
ATOM     11  C   UNL     1      43.520 132.021  19.420  1.00  0.00     0.088 A 
ATOM     12  C   UNL     1      45.704 130.408  20.077  1.00  0.00     0.033 A 
ATOM     13  C   UNL     1      43.708 131.606  20.742  1.00  0.00     0.150 A 
ATOM     14  C   UNL     1      44.812 130.811  21.085  1.00  0.00     0.075 A 
ATOM     15  F   UNL     1      42.821 131.994  21.692  1.00  0.00    -0.205 F 
BRANCH  14  16
ATOM     16  N   UNL     1      44.978 130.368  22.443  1.00  0.00    -0.353 N 
ATOM     17  H   UNL     1      45.629 130.905  23.058  1.00  0.00     0.167 HD
BRANCH  16  18
ATOM     18  C   UNL     1      44.299 129.236  23.015  1.00  0.00     0.041 A 
ATOM     19  C   UNL     1      43.279 129.452  23.976  1.00  0.00     0.027 A 
ATOM     20  C   UNL     1      44.672 127.912  22.679  1.00  0.00     0.052 A 
ATOM     21  C   UNL     1      42.611 128.368  24.575  1.00  0.00     0.012 A 
ATOM     22  C   UNL     1      43.990 126.862  23.290  1.00  0.00     0.047 A 
ATOM     23  C   UNL     1      42.995 127.083  24.203  1.00  0.00    -0.001 A 
ATOM     24  N   UNL     1      44.186 125.546  23.108  1.00  0.00    -0.361 N 
ATOM     25  C   UNL     1      42.536 125.853  24.618  1.00  0.00     0.028 A 
ATOM     26  C   UNL     1      43.298 124.924  23.917  1.00  0.00     0.083 A 
ATOM     27  H   UNL     1      44.881 125.091  22.474  1.00  0.00     0.166 HD
ENDBRANCH  16  18
ENDBRANCH  14  16
ENDBRANCH   8   9
ENDBRANCH   1   8
TORSDOF 8
ENDMDL
MODEL 2
REMARK VINA RESULT:      -6.8      3.593      8.066
REMARK SMILES C/C=C(/O)OCOc1ccc(Nc2ccc3cc[nH]c3c2)c(F)c1
REMARK SMILES IDX 6 1 5 2 3 3 4 4 2 6 1 7 7 8 8 9 9 10 24 11 10 12 22 13 11 14
REMARK SMILES IDX 23 15 12 16 13 18 14 19 21 20 15 21 20 22 16 23 19 24 17 25
REMARK SMILES IDX 18 26
REMARK H PARENT 4 5 12 17 19 27
ROOT
ATOM      1  C   UNL     1      43.013 129.692  23.487  1.00  0.00     0.471 C 
ENDROOT
BRANCH   1   2
ATOM      2  O   UNL     1      43.841 128.795  24.222  1.00  0.00    -0.428 OA
BRANCH   2   3
ATOM      3  C   UNL     1      43.881 127.421  23.963  1.00  0.00     0.274 C 
BRANCH   3   4
ATOM      4  O   UNL     1      42.711 126.663  24.042  1.00  0.00    -0.481 OA
ATOM      5  H   UNL     1      42.058 126.762  24.811  1.00  0.00     0.296 HD
ENDBRANCH   3   4
BRANCH   3   6
ATOM      6  C   UNL     1      45.039 126.837  23.642  1.00  0.00     0.058 C 
ATOM      7  C   UNL     1      45.092 125.547  22.887  1.00  0.00     0.043 C 
ENDBRANCH   3   6
ENDBRANCH   2   3
ENDBRANCH   1   2
BRANCH   1   8
ATOM      8  O   UNL     1      43.799 130.730  22.905  1.00  0.00    -0.457 OA
BRANCH   8   9
ATOM      9  C   UNL     1      43.859 131.018  21.533  1.00  0.00     0.126 A 
ATOM     10  C   UNL     1      45.072 131.065  20.820  1.00  0.00     0.049 A 
ATOM     11  C   UNL     1      42.661 131.269  20.855  1.00  0.00     0.088 A 
ATOM     12  C   UNL     1      45.077 131.359  19.454  1.00  0.00     0.033 A 
ATOM     13  C   UNL     1      42.663 131.563  19.488  1.00  0.00     0.150 A 
ATOM     14  C   UNL     1      43.870 131.594  18.772  1.00  0.00     0.075 A 
ATOM     15  F   UNL     1      41.486 131.804  18.858  1.00  0.00    -0.205 F 
BRANCH  14  16
ATOM     16  N   UNL     1      43.861 131.926  17.373  1.00  0.00    -0.353 N 
ATOM     17  H   UNL     1      43.044 132.458  17.001  1.00  0.00     0.167 HD
BRANCH  16  18
ATOM     18  C   UNL     1      44.910 131.578  16.451  1.00  0.00     0.041 A 
ATOM     19  C   UNL     1      45.658 132.612  15.832  1.00  0.00     0.027 A 
ATOM     20  C   UNL     1      45.166 130.229  16.108  1.00  0.00     0.052 A 
ATOM     21  C   UNL     1      46.674 132.310  14.906  1.00  0.00     0.012 A 
ATOM     22  C   UNL     1      46.178 129.966  15.188  1.00  0.00     0.047 A 
ATOM     23  C   UNL     1      46.907 130.970  14.611  1.00  0.00    -0.001 A 
ATOM     24  N   UNL     1      46.578 128.766  14.735  1.00  0.00    -0.361 N 
ATOM     25  C   UNL     1      47.812 130.384  13.754  1.00  0.00     0.028 A 
ATOM     26  C   UNL     1      47.578 129.016  13.859  1.00  0.00     0.083 A 
ATOM     27  H   UNL     1      46.197 127.831  15.002  1.00  0.00     0.166 HD
ENDBRANCH  16  18
ENDBRANCH  14  16
ENDBRANCH   8   9
ENDBRANCH   1   8
TORSDOF 8
ENDMDL
MODEL 3
REMARK VINA RESULT:      -6.2      3.637      7.995
REMARK SMILES C/C=C(/O)OCOc1ccc(Nc2ccc3cc[nH]c3c2)c(F)c1
REMARK SMILES IDX 6 1 5 2 3 3 4 4 2 6 1 7 7 8 8 9 9 10 24 11 10 12 22 13 11 14
REMARK SMILES IDX 23 15 12 16 13 18 14 19 21 20 15 21 20 22 16 23 19 24 17 25
REMARK SMILES IDX 18 26
REMARK H PARENT 4 5 12 17 19 27
ROOT
ATOM      1  C   UNL     1      43.209 129.727  22.892  1.00  0.00     0.471 C 
ENDROOT
BRANCH   1   2
ATOM      2  O   UNL     1      44.116 128.735  22.419  1.00  0.00    -0.428 OA
BRANCH   2   3
ATOM      3  C   UNL     1      44.688 127.774  23.260  1.00  0.00     0.274 C 
BRANCH   3   4
ATOM      4  O   UNL     1      44.847 128.045  24.620  1.00  0.00    -0.481 OA
ATOM      5  H   UNL     1      44.961 128.989  24.970  1.00  0.00     0.296 HD
ENDBRANCH   3   4
BRANCH   3   6
ATOM      6  C   UNL     1      45.083 126.601  22.758  1.00  0.00     0.058 C 
ATOM      7  C   UNL     1      45.285 125.398  23.624  1.00  0.00     0.043 C 
ENDBRANCH   3   6
ENDBRANCH   2   3
ENDBRANCH   1   2
BRANCH   1   8
ATOM      8  O   UNL     1      43.543 131.004  22.351  1.00  0.00    -0.457 OA
BRANCH   8   9
ATOM      9  C   UNL     1      43.661 131.290  20.982  1.00  0.00     0.126 A 
ATOM     10  C   UNL     1      44.864 131.114  20.273  1.00  0.00     0.049 A 
ATOM     11  C   UNL     1      42.535 131.771  20.306  1.00  0.00     0.088 A 
ATOM     12  C   UNL     1      44.930 131.416  18.910  1.00  0.00     0.033 A 
ATOM     13  C   UNL     1      42.599 132.074  18.942  1.00  0.00     0.150 A 
ATOM     14  C   UNL     1      43.792 131.882  18.228  1.00  0.00     0.075 A 
ATOM     15  F   UNL     1      41.491 132.540  18.312  1.00  0.00    -0.205 F 
BRANCH  14  16
ATOM     16  N   UNL     1      43.852 132.225  16.833  1.00  0.00    -0.353 N 
ATOM     17  H   UNL     1      43.203 132.964  16.482  1.00  0.00     0.167 HD
BRANCH  16  18
ATOM     18  C   UNL     1      44.753 131.621  15.888  1.00  0.00     0.041 A 
ATOM     19  C   UNL     1      44.451 131.685  14.504  1.00  0.00     0.027 A 
ATOM     20  C   UNL     1      45.902 130.915  16.320  1.00  0.00     0.052 A 
ATOM     21  C   UNL     1      45.296 131.084  13.554  1.00  0.00     0.012 A 
ATOM     22  C   UNL     1      46.717 130.332  15.353  1.00  0.00     0.047 A 
ATOM     23  C   UNL     1      46.425 130.416  14.019  1.00  0.00    -0.001 A 
ATOM     24  N   UNL     1      47.844 129.629  15.551  1.00  0.00    -0.361 N 
ATOM     25  C   UNL     1      47.411 129.738  13.337  1.00  0.00     0.028 A 
ATOM     26  C   UNL     1      48.273 129.264  14.322  1.00  0.00     0.083 A 
ATOM     27  H   UNL     1      48.298 129.406  16.465  1.00  0.00     0.166 HD
ENDBRANCH  16  18
ENDBRANCH  14  16
ENDBRANCH   8   9
ENDBRANCH   1   8
TORSDOF 8
ENDMDL
MODEL 4
REMARK VINA RESULT:      -6.0      3.961      8.169
REMARK SMILES C/C=C(/O)OCOc1ccc(Nc2ccc3cc[nH]c3c2)c(F)c1
REMARK SMILES IDX 6 1 5 2 3 3 4 4 2 6 1 7 7 8 8 9 9 10 24 11 10 12 22 13 11 14
REMARK SMILES IDX 23 15 12 16 13 18 14 19 21 20 15 21 20 22 16 23 19 24 17 25
REMARK SMILES IDX 18 26
REMARK H PARENT 4 5 12 17 19 27
ROOT
ATOM      1  C   UNL     1      44.462 126.900  23.927  1.00  0.00     0.471 C 
ENDROOT
BRANCH   1   2
ATOM      2  O   UNL     1      43.684 125.930  24.625  1.00  0.00    -0.428 OA
BRANCH   2   3
ATOM      3  C   UNL     1      42.829 125.037  23.972  1.00  0.00     0.274 C 
BRANCH   3   4
ATOM      4  O   UNL     1      43.045 123.662  24.078  1.00  0.00    -0.481 OA
ATOM      5  H   UNL     1      43.660 123.267  24.780  1.00  0.00     0.296 HD
ENDBRANCH   3   4
BRANCH   3   6
ATOM      6  C   UNL     1      41.809 125.503  23.245  1.00  0.00     0.058 C 
ATOM      7  C   UNL     1      40.823 126.481  23.802  1.00  0.00     0.043 C 
ENDBRANCH   3   6
ENDBRANCH   2   3
ENDBRANCH   1   2
BRANCH   1   8
ATOM      8  O   UNL     1      43.770 128.145  23.871  1.00  0.00    -0.457 OA
BRANCH   8   9
ATOM      9  C   UNL     1      43.930 129.107  22.862  1.00  0.00     0.126 A 
ATOM     10  C   UNL     1      42.992 130.132  22.636  1.00  0.00     0.049 A 
ATOM     11  C   UNL     1      45.068 129.034  22.051  1.00  0.00     0.088 A 
ATOM     12  C   UNL     1      43.198 131.064  21.615  1.00  0.00     0.033 A 
ATOM     13  C   UNL     1      45.275 129.965  21.029  1.00  0.00     0.150 A 
ATOM     14  C   UNL     1      44.350 130.999  20.813  1.00  0.00     0.075 A 
ATOM     15  F   UNL     1      46.387 129.869  20.258  1.00  0.00    -0.205 F 
BRANCH  14  16
ATOM     16  N   UNL     1      44.561 131.933  19.740  1.00  0.00    -0.353 N 
ATOM     17  H   UNL     1      44.596 132.950  19.975  1.00  0.00     0.167 HD
BRANCH  16  18
ATOM     18  C   UNL     1      44.736 131.558  18.362  1.00  0.00     0.041 A 
ATOM     19  C   UNL     1      43.717 131.867  17.426  1.00  0.00     0.027 A 
ATOM     20  C   UNL     1      45.877 130.835  17.939  1.00  0.00     0.052 A 
ATOM     21  C   UNL     1      43.843 131.493  16.075  1.00  0.00     0.012 A 
ATOM     22  C   UNL     1      45.970 130.481  16.596  1.00  0.00     0.047 A 
ATOM     23  C   UNL     1      44.989 130.801  15.696  1.00  0.00    -0.001 A 
ATOM     24  N   UNL     1      46.963 129.804  15.996  1.00  0.00    -0.361 N 
ATOM     25  C   UNL     1      45.376 130.308  14.470  1.00  0.00     0.028 A 
ATOM     26  C   UNL     1      46.605 129.697  14.696  1.00  0.00     0.083 A 
ATOM     27  H   UNL     1      47.833 129.434  16.439  1.00  0.00     0.166 HD
ENDBRANCH  16  18
ENDBRANCH  14  16
ENDBRANCH   8   9
ENDBRANCH   1   8
TORSDOF 8
ENDMDL
MODEL 5
REMARK VINA RESULT:      -5.8      3.643      7.808
REMARK SMILES C/C=C(/O)OCOc1ccc(Nc2ccc3cc[nH]c3c2)c(F)c1
REMARK SMILES IDX 6 1 5 2 3 3 4 4 2 6 1 7 7 8 8 9 9 10 24 11 10 12 22 13 11 14
REMARK SMILES IDX 23 15 12 16 13 18 14 19 21 20 15 21 20 22 16 23 19 24 17 25
REMARK SMILES IDX 18 26
REMARK H PARENT 4 5 12 17 19 27
ROOT
ATOM      1  C   UNL     1      43.163 131.205  23.509  1.00  0.00     0.471 C 
ENDROOT
BRANCH   1   2
ATOM      2  O   UNL     1      43.753 130.011  23.002  1.00  0.00    -0.428 OA
BRANCH   2   3
ATOM      3  C   UNL     1      43.422 128.741  23.486  1.00  0.00     0.274 C 
BRANCH   3   4
ATOM      4  O   UNL     1      42.433 128.604  24.462  1.00  0.00    -0.481 OA
ATOM      5  H   UNL     1      41.872 129.389  24.772  1.00  0.00     0.296 HD
ENDBRANCH   3   4
BRANCH   3   6
ATOM      6  C   UNL     1      44.055 127.664  23.014  1.00  0.00     0.058 C 
ATOM      7  C   UNL     1      45.450 127.737  22.480  1.00  0.00     0.043 C 
ENDBRANCH   3   6
ENDBRANCH   2   3
ENDBRANCH   1   2
BRANCH   1   8
ATOM      8  O   UNL     1      43.309 132.269  22.571  1.00  0.00    -0.457 OA
BRANCH   8   9
ATOM      9  C   UNL     1      43.278 132.119  21.176  1.00  0.00     0.126 A 
ATOM     10  C   UNL     1      44.318 131.502  20.457  1.00  0.00     0.049 A 
ATOM     11  C   UNL     1      42.167 132.608  20.481  1.00  0.00     0.088 A 
ATOM     12  C   UNL     1      44.240 131.380  19.067  1.00  0.00     0.033 A 
ATOM     13  C   UNL     1      42.086 132.487  19.090  1.00  0.00     0.150 A 
ATOM     14  C   UNL     1      43.114 131.856  18.373  1.00  0.00     0.075 A 
ATOM     15  F   UNL     1      40.996 132.972  18.443  1.00  0.00    -0.205 F 
BRANCH  14  16
ATOM     16  N   UNL     1      43.032 131.764  16.940  1.00  0.00    -0.353 N 
ATOM     17  H   UNL     1      42.123 132.005  16.485  1.00  0.00     0.167 HD
BRANCH  16  18
ATOM     18  C   UNL     1      44.122 131.368  16.090  1.00  0.00     0.041 A 
ATOM     19  C   UNL     1      44.134 131.792  14.736  1.00  0.00     0.027 A 
ATOM     20  C   UNL     1      45.148 130.516  16.564  1.00  0.00     0.052 A 
ATOM     21  C   UNL     1      45.172 131.402  13.869  1.00  0.00     0.012 A 
ATOM     22  C   UNL     1      46.160 130.150  15.679  1.00  0.00     0.047 A 
ATOM     23  C   UNL     1      46.172 130.580  14.380  1.00  0.00    -0.001 A 
ATOM     24  N   UNL     1      47.218 129.360  15.929  1.00  0.00    -0.361 N 
ATOM     25  C   UNL     1      47.287 130.042  13.777  1.00  0.00     0.028 A 
ATOM     26  C   UNL     1      47.911 129.293  14.770  1.00  0.00     0.083 A 
ATOM     27  H   UNL     1      47.458 128.893  16.831  1.00  0.00     0.166 HD
ENDBRANCH  16  18
ENDBRANCH  14  16
ENDBRANCH   8   9
ENDBRANCH   1   8
TORSDOF 8
ENDMDL
MODEL 6
REMARK VINA RESULT:      -5.7      3.926      7.963
REMARK SMILES C/C=C(/O)OCOc1ccc(Nc2ccc3cc[nH]c3c2)c(F)c1
REMARK SMILES IDX 6 1 5 2 3 3 4 4 2 6 1 7 7 8 8 9 9 10 24 11 10 12 22 13 11 14
REMARK SMILES IDX 23 15 12 16 13 18 14 19 21 20 15 21 20 22 16 23 19 24 17 25
REMARK SMILES IDX 18 26
REMARK H PARENT 4 5 12 17 19 27
ROOT
ATOM      1  C   UNL     1      42.339 127.600  23.970  1.00  0.00     0.471 C 
ENDROOT
BRANCH   1   2
ATOM      2  O   UNL     1      43.174 126.539  24.425  1.00  0.00    -0.428 OA
BRANCH   2   3
ATOM      3  C   UNL     1      43.617 125.513  23.582  1.00  0.00     0.274 C 
BRANCH   3   4
ATOM      4  O   UNL     1      42.916 124.308  23.525  1.00  0.00    -0.481 OA
ATOM      5  H   UNL     1      41.945 124.264  23.237  1.00  0.00     0.296 HD
ENDBRANCH   3   4
BRANCH   3   6
ATOM      6  C   UNL     1      44.712 125.690  22.837  1.00  0.00     0.058 C 
ATOM      7  C   UNL     1      45.451 124.538  22.233  1.00  0.00     0.043 C 
ENDBRANCH   3   6
ENDBRANCH   2   3
ENDBRANCH   1   2
BRANCH   1   8
ATOM      8  O   UNL     1      42.997 128.855  24.130  1.00  0.00    -0.457 OA
BRANCH   8   9
ATOM      9  C   UNL     1      43.469 129.653  23.077  1.00  0.00     0.126 A 
ATOM     10  C   UNL     1      42.781 130.793  22.622  1.00  0.00     0.049 A 
ATOM     11  C   UNL     1      44.670 129.291  22.458  1.00  0.00     0.088 A 
ATOM     12  C   UNL     1      43.293 131.552  21.566  1.00  0.00     0.033 A 
ATOM     13  C   UNL     1      45.185 130.049  21.401  1.00  0.00     0.150 A 
ATOM     14  C   UNL     1      44.509 131.197  20.958  1.00  0.00     0.075 A 
ATOM     15  F   UNL     1      46.351 129.673  20.820  1.00  0.00    -0.205 F 
BRANCH  14  16
ATOM     16  N   UNL     1      45.034 131.951  19.852  1.00  0.00    -0.353 N 
ATOM     17  H   UNL     1      45.432 132.897  20.049  1.00  0.00     0.167 HD
BRANCH  16  18
ATOM     18  C   UNL     1      45.055 131.486  18.491  1.00  0.00     0.041 A 
ATOM     19  C   UNL     1      46.060 130.571  18.087  1.00  0.00     0.027 A 
ATOM     20  C   UNL     1      44.128 131.971  17.537  1.00  0.00     0.052 A 
ATOM     21  C   UNL     1      46.126 130.114  16.758  1.00  0.00     0.012 A 
ATOM     22  C   UNL     1      44.222 131.498  16.231  1.00  0.00     0.047 A 
ATOM     23  C   UNL     1      45.184 130.601  15.856  1.00  0.00    -0.001 A 
ATOM     24  N   UNL     1      43.444 131.827  15.185  1.00  0.00    -0.361 N 
ATOM     25  C   UNL     1      45.011 130.345  14.514  1.00  0.00     0.028 A 
ATOM     26  C   UNL     1      43.921 131.123  14.134  1.00  0.00     0.083 A 
ATOM     27  H   UNL     1      42.637 132.489  15.182  1.00  0.00     0.166 HD
ENDBRANCH  16  18
ENDBRANCH  14  16
ENDBRANCH   8   9
ENDBRANCH   1   8
TORSDOF 8
ENDMDL
MODEL 7
REMARK VINA RESULT:      -5.4      3.773      8.304
REMARK SMILES C/C=C(/O)OCOc1ccc(Nc2ccc3cc[nH]c3c2)c(F)c1
REMARK SMILES IDX 6 1 5 2 3 3 4 4 2 6 1 7 7 8 8 9 9 10 24 11 10 12 22 13 11 14
REMARK SMILES IDX 23 15 12 16 13 18 14 19 21 20 15 21 20 22 16 23 19 24 17 25
REMARK SMILES IDX 18 26
REMARK H PARENT 4 5 12 17 19 27
ROOT
ATOM      1  C   UNL     1      44.990 130.711  23.215  1.00  0.00     0.471 C 
ENDROOT
BRANCH   1   2
ATOM      2  O   UNL     1      44.172 130.381  24.333  1.00  0.00    -0.428 OA
BRANCH   2   3
ATOM      3  C   UNL     1      42.909 129.794  24.198  1.00  0.00     0.274 C 
BRANCH   3   4
ATOM      4  O   UNL     1      42.801 128.426  23.939  1.00  0.00    -0.481 OA
ATOM      5  H   UNL     1      42.214 128.065  23.196  1.00  0.00     0.296 HD
ENDBRANCH   3   4
BRANCH   3   6
ATOM      6  C   UNL     1      41.810 130.545  24.313  1.00  0.00     0.058 C 
ATOM      7  C   UNL     1      41.883 132.024  24.532  1.00  0.00     0.043 C 
ENDBRANCH   3   6
ENDBRANCH   2   3
ENDBRANCH   1   2
BRANCH   1   8
ATOM      8  O   UNL     1      44.351 131.696  22.405  1.00  0.00    -0.457 OA
BRANCH   8   9
ATOM      9  C   UNL     1      44.204 131.617  21.012  1.00  0.00     0.126 A 
ATOM     10  C   UNL     1      45.247 131.207  20.161  1.00  0.00     0.049 A 
ATOM     11  C   UNL     1      42.968 131.964  20.455  1.00  0.00     0.088 A 
ATOM     12  C   UNL     1      45.049 131.149  18.779  1.00  0.00     0.033 A 
ATOM     13  C   UNL     1      42.767 131.905  19.073  1.00  0.00     0.150 A 
ATOM     14  C   UNL     1      43.801 131.480  18.224  1.00  0.00     0.075 A 
ATOM     15  F   UNL     1      41.558 132.248  18.561  1.00  0.00    -0.205 F 
BRANCH  14  16
ATOM     16  N   UNL     1      43.591 131.452  16.802  1.00  0.00    -0.353 N 
ATOM     17  H   UNL     1      42.625 131.631  16.446  1.00  0.00     0.167 HD
BRANCH  16  18
ATOM     18  C   UNL     1      44.625 131.199  15.834  1.00  0.00     0.041 A 
ATOM     19  C   UNL     1      44.496 131.733  14.527  1.00  0.00     0.027 A 
ATOM     20  C   UNL     1      45.736 130.379  16.148  1.00  0.00     0.052 A 
ATOM     21  C   UNL     1      45.476 131.485  13.548  1.00  0.00     0.012 A 
ATOM     22  C   UNL     1      46.687 130.155  15.155  1.00  0.00     0.047 A 
ATOM     23  C   UNL     1      46.562 130.691  13.902  1.00  0.00    -0.001 A 
ATOM     24  N   UNL     1      47.806 129.418  15.248  1.00  0.00    -0.361 N 
ATOM     25  C   UNL     1      47.650 130.278  13.166  1.00  0.00     0.028 A 
ATOM     26  C   UNL     1      48.399 129.491  14.035  1.00  0.00     0.083 A 
ATOM     27  H   UNL     1      48.150 128.894  16.084  1.00  0.00     0.166 HD
ENDBRANCH  16  18
ENDBRANCH  14  16
ENDBRANCH   8   9
ENDBRANCH   1   8
TORSDOF 8
ENDMDL
MODEL 8
REMARK VINA RESULT:      -5.3      3.714      8.247
REMARK SMILES C/C=C(/O)OCOc1ccc(Nc2ccc3cc[nH]c3c2)c(F)c1
REMARK SMILES IDX 6 1 5 2 3 3 4 4 2 6 1 7 7 8 8 9 9 10 24 11 10 12 22 13 11 14
REMARK SMILES IDX 23 15 12 16 13 18 14 19 21 20 15 21 20 22 16 23 19 24 17 25
REMARK SMILES IDX 18 26
REMARK H PARENT 4 5 12 17 19 27
ROOT
ATOM      1  C   UNL     1      45.392 128.143  23.356  1.00  0.00     0.471 C 
ENDROOT
BRANCH   1   2
ATOM      2  O   UNL     1      44.695 127.303  24.272  1.00  0.00    -0.428 OA
BRANCH   2   3
ATOM      3  C   UNL     1      44.182 126.053  23.911  1.00  0.00     0.274 C 
BRANCH   3   4
ATOM      4  O   UNL     1      44.921 124.896  24.166  1.00  0.00    -0.481 OA
ATOM      5  H   UNL     1      45.631 124.561  23.526  1.00  0.00     0.296 HD
ENDBRANCH   3   4
BRANCH   3   6
ATOM      6  C   UNL     1      42.987 125.970  23.319  1.00  0.00     0.058 C 
ATOM      7  C   UNL     1      42.071 124.809  23.547  1.00  0.00     0.043 C 
ENDBRANCH   3   6
ENDBRANCH   2   3
ENDBRANCH   1   2
BRANCH   1   8
ATOM      8  O   UNL     1      44.597 129.278  23.018  1.00  0.00    -0.457 OA
BRANCH   8   9
ATOM      9  C   UNL     1      44.608 129.923  21.772  1.00  0.00     0.126 A 
ATOM     10  C   UNL     1      45.552 129.623  20.772  1.00  0.00     0.049 A 
ATOM     11  C   UNL     1      43.642 130.903  21.524  1.00  0.00     0.088 A 
ATOM     12  C   UNL     1      45.522 130.297  19.548  1.00  0.00     0.033 A 
ATOM     13  C   UNL     1      43.609 131.579  20.300  1.00  0.00     0.150 A 
ATOM     14  C   UNL     1      44.538 131.269  19.295  1.00  0.00     0.075 A 
ATOM     15  F   UNL     1      42.660 132.525  20.089  1.00  0.00    -0.205 F 
BRANCH  14  16
ATOM     16  N   UNL     1      44.512 131.991  18.052  1.00  0.00    -0.353 N 
ATOM     17  H   UNL     1      43.871 132.813  17.976  1.00  0.00     0.167 HD
BRANCH  16  18
ATOM     18  C   UNL     1      45.316 131.662  16.906  1.00  0.00     0.041 A 
ATOM     19  C   UNL     1      45.712 132.694  16.017  1.00  0.00     0.027 A 
ATOM     20  C   UNL     1      45.667 130.320  16.619  1.00  0.00     0.052 A 
ATOM     21  C   UNL     1      46.477 132.404  14.872  1.00  0.00     0.012 A 
ATOM     22  C   UNL     1      46.425 130.069  15.478  1.00  0.00     0.047 A 
ATOM     23  C   UNL     1      46.818 131.075  14.637  1.00  0.00    -0.001 A 
ATOM     24  N   UNL     1      46.862 128.879  15.033  1.00  0.00    -0.361 N 
ATOM     25  C   UNL     1      47.538 130.501  13.614  1.00  0.00     0.028 A 
ATOM     26  C   UNL     1      47.544 129.138  13.895  1.00  0.00     0.083 A 
ATOM     27  H   UNL     1      46.709 127.945  15.474  1.00  0.00     0.166 HD
ENDBRANCH  16  18
ENDBRANCH  14  16
ENDBRANCH   8   9
ENDBRANCH   1   8
TORSDOF 8
ENDMDL
MODEL 9
REMARK VINA RESULT:      -5.1      3.755      7.603
REMARK SMILES C/C=C(/O)OCOc1ccc(Nc2ccc3cc[nH]c3c2)c(F)c1
REMARK SMILES IDX 6 1 5 2 3 3 4 4 2 6 1 7 7 8 8 9 9 10 24 11 10 12 22 13 11 14
REMARK SMILES IDX 23 15 12 16 13 18 14 19 21 20 15 21 20 22 16 23 19 24 17 25
REMARK SMILES IDX 18 26
REMARK H PARENT 4 5 12 17 19 27
ROOT
ATOM      1  C   UNL     1      43.687 129.260  24.133  1.00  0.00     0.471 C 
ENDROOT
BRANCH   1   2
ATOM      2  O   UNL     1      44.101 128.291  23.175  1.00  0.00    -0.428 OA
BRANCH   2   3
ATOM      3  C   UNL     1      44.026 126.914  23.412  1.00  0.00     0.274 C 
BRANCH   3   4
ATOM      4  O   UNL     1      43.476 126.443  24.606  1.00  0.00    -0.481 OA
ATOM      5  H   UNL     1      43.850 126.705  25.510  1.00  0.00     0.296 HD
ENDBRANCH   3   4
BRANCH   3   6
ATOM      6  C   UNL     1      44.483 126.055  22.498  1.00  0.00     0.058 C 
ATOM      7  C   UNL     1      45.863 126.164  21.930  1.00  0.00     0.043 C 
ENDBRANCH   3   6
ENDBRANCH   2   3
ENDBRANCH   1   2
BRANCH   1   8
ATOM      8  O   UNL     1      42.907 130.277  23.507  1.00  0.00    -0.457 OA
BRANCH   8   9
ATOM      9  C   UNL     1      43.109 130.755  22.204  1.00  0.00     0.126 A 
ATOM     10  C   UNL     1      44.189 130.338  21.403  1.00  0.00     0.049 A 
ATOM     11  C   UNL     1      42.199 131.685  21.689  1.00  0.00     0.088 A 
ATOM     12  C   UNL     1      44.347 130.848  20.111  1.00  0.00     0.033 A 
ATOM     13  C   UNL     1      42.355 132.195  20.397  1.00  0.00     0.150 A 
ATOM     14  C   UNL     1      43.421 131.768  19.590  1.00  0.00     0.075 A 
ATOM     15  F   UNL     1      41.457 133.096  19.925  1.00  0.00    -0.205 F 
BRANCH  14  16
ATOM     16  N   UNL     1      43.586 132.322  18.274  1.00  0.00    -0.353 N 
ATOM     17  H   UNL     1      43.161 133.256  18.078  1.00  0.00     0.167 HD
BRANCH  16  18
ATOM     18  C   UNL     1      44.306 131.679  17.208  1.00  0.00     0.041 A 
ATOM     19  C   UNL     1      43.742 131.653  15.907  1.00  0.00     0.027 A 
ATOM     20  C   UNL     1      45.536 131.020  17.449  1.00  0.00     0.052 A 
ATOM     21  C   UNL     1      44.407 131.011  14.846  1.00  0.00     0.012 A 
ATOM     22  C   UNL     1      46.167 130.394  16.376  1.00  0.00     0.047 A 
ATOM     23  C   UNL     1      45.623 130.392  15.121  1.00  0.00    -0.001 A 
ATOM     24  N   UNL     1      47.331 129.724  16.391  1.00  0.00    -0.361 N 
ATOM     25  C   UNL     1      46.479 129.692  14.300  1.00  0.00     0.028 A 
ATOM     26  C   UNL     1      47.527 129.294  15.124  1.00  0.00     0.083 A 
ATOM     27  H   UNL     1      47.959 129.565  17.211  1.00  0.00     0.166 HD
ENDBRANCH  16  18
ENDBRANCH  14  16
ENDBRANCH   8   9
ENDBRANCH   1   8
TORSDOF 8
ENDMDL


