REMARK SMILES C=C1CC[C@@H]([NH2+][C@@H]2CCC[C@@H](NN)[C@H]2O)C[C@H]1F
REMARK SMILES IDX 7 1 8 2 9 3 10 4 11 5 14 6 6 7 5 10 2 11 3 12 17 13 4 14
REMARK SMILES IDX 16 15 1 16 18 17 15 18 12 20 13 22
REMARK H PARENT 6 8 6 9 15 19 12 21 13 23 13 24
ROOT
ATOM      1  C   UNL     1       0.233   0.819   1.648  1.00  0.00     0.213 C 
ATOM      2  C   UNL     1       1.141  -0.302   2.214  1.00  0.00     0.068 C 
ATOM      3  C   UNL     1       2.579   0.181   2.410  1.00  0.00     0.008 C 
ATOM      4  C   UNL     1       2.623   1.377   3.364  1.00  0.00     0.023 C 
ATOM      5  C   UNL     1       1.762   2.544   2.858  1.00  0.00     0.104 C 
ATOM      6  C   UNL     1       0.304   2.076   2.561  1.00  0.00     0.190 C 
ENDROOT
BRANCH   1   7
ATOM      7  N   UNL     1      -1.173   0.347   1.526  1.00  0.00    -0.339 N 
ATOM      8  H   UNL     1      -1.836   1.157   1.519  1.00  0.00     0.346 HD
ATOM      9  H   UNL     1      -1.415  -0.217   2.374  1.00  0.00     0.346 HD
BRANCH   7  10
ATOM     10  C   UNL     1      -1.422  -0.455   0.304  1.00  0.00     0.186 C 
ATOM     11  C   UNL     1      -2.836  -1.285  -2.086  1.00  0.00    -0.043 C 
ATOM     12  C   UNL     1      -2.490   0.182  -1.998  1.00  0.00     0.039 C 
ATOM     13  C   UNL     1      -3.033  -2.071  -0.812  1.00  0.00     0.198 C 
ATOM     14  C   UNL     1      -1.356   0.426  -0.987  1.00  0.00     0.069 C 
ATOM     15  C   UNL     1      -2.770  -1.202   0.425  1.00  0.00     0.107 C 
ATOM     16  C   UNL     1      -3.003  -1.880  -3.276  1.00  0.00     0.011 C 
ATOM     17  F   UNL     1      -4.327  -2.560  -0.760  1.00  0.00    -0.242 F 
ENDBRANCH   7  10
ENDBRANCH   1   7
BRANCH   6  18
ATOM     18  O   UNL     1      -0.429   3.124   1.978  1.00  0.00    -0.385 OA
ATOM     19  H   UNL     1      -0.627   3.774   2.701  1.00  0.00     0.211 HD
ENDBRANCH   6  18
BRANCH   5  20
ATOM     20  N   UNL     1       2.421   3.184   1.703  1.00  0.00    -0.255 NA
ATOM     21  H   UNL     1       2.169   2.687   0.818  1.00  0.00     0.141 HD
BRANCH  20  22
ATOM     22  N   UNL     1       1.983   4.518   1.596  1.00  0.00    -0.271 NA
ATOM     23  H   UNL     1       2.525   5.078   2.294  1.00  0.00     0.137 HD
ATOM     24  H   UNL     1       2.280   4.877   0.659  1.00  0.00     0.137 HD
ENDBRANCH  20  22
ENDBRANCH   5  20
TORSDOF 5


