REMARK SMILES C=CC/C(O)=N\c1ccc(-c2ccc(C)cc2)cc1C=O
REMARK SMILES IDX 4 1 5 2 6 4 7 5 8 6 19 7 9 8 18 9 10 10 20 11 21 12 11 13
REMARK SMILES IDX 12 14 17 15 13 16 16 17 14 18 15 19 3 20 2 21 1 22
REMARK H PARENT 5 3
ROOT
ATOM      1  C   UNL     1       3.470  -2.917   0.527  1.00  0.00     0.189 C 
ENDROOT
BRANCH   1   2
ATOM      2  O   UNL     1       4.638  -3.639   0.762  1.00  0.00    -0.496 OA
ATOM      3  H   UNL     1       4.628  -4.648   0.843  1.00  0.00     0.294 HD
ENDBRANCH   1   2
BRANCH   1   4
ATOM      4  N   UNL     1       3.555  -1.622   0.422  1.00  0.00    -0.217 NA
BRANCH   4   5
ATOM      5  C   UNL     1       2.450  -0.730   0.222  1.00  0.00     0.077 A 
ATOM      6  C   UNL     1       1.582  -0.458   1.286  1.00  0.00     0.030 A 
ATOM      7  C   UNL     1       2.263  -0.083  -1.018  1.00  0.00     0.041 A 
ATOM      8  C   UNL     1       0.510   0.420   1.121  1.00  0.00     0.011 A 
ATOM      9  C   UNL     1       1.179   0.801  -1.175  1.00  0.00     0.022 A 
ATOM     10  C   UNL     1       0.294   1.056  -0.112  1.00  0.00    -0.018 A 
BRANCH   7  11
ATOM     11  C   UNL     1       3.186  -0.337  -2.146  1.00  0.00     0.262 C 
ATOM     12  O   UNL     1       3.026   0.233  -3.258  1.00  0.00    -0.298 OA
ENDBRANCH   7  11
BRANCH  10  13
ATOM     13  C   UNL     1      -0.849   1.987  -0.289  1.00  0.00    -0.018 A 
ATOM     14  C   UNL     1      -1.193   2.899   0.725  1.00  0.00     0.009 A 
ATOM     15  C   UNL     1      -1.609   1.968  -1.473  1.00  0.00     0.009 A 
ATOM     16  C   UNL     1      -2.269   3.775   0.556  1.00  0.00     0.004 A 
ATOM     17  C   UNL     1      -2.686   2.844  -1.639  1.00  0.00     0.004 A 
ATOM     18  C   UNL     1      -3.012   3.764  -0.633  1.00  0.00    -0.051 A 
ATOM     19  C   UNL     1      -4.192   4.676  -0.796  1.00  0.00     0.044 C 
ENDBRANCH  10  13
ENDBRANCH   4   5
ENDBRANCH   1   4
BRANCH   1  20
ATOM     20  C   UNL     1       2.159  -3.659   0.398  1.00  0.00     0.123 C 
BRANCH  20  21
ATOM     21  C   UNL     1       1.450  -3.752   1.720  1.00  0.00    -0.025 C 
ATOM     22  C   UNL     1       1.925  -4.492   2.725  1.00  0.00     0.004 C 
ENDBRANCH  20  21
ENDBRANCH   1  20
TORSDOF 7


