MODEL 1
REMARK VINA RESULT:      -7.3      0.000      0.000
REMARK SMILES CCNC(=O)[N-]CC(=O)n1nc2cc(-c3cnc(F)cc3C)ccc2c1C
REMARK SMILES IDX 7 1 6 2 4 3 3 4 5 6 2 7 1 8 8 9 9 10 10 11 11 12 26 13 12 14
REMARK SMILES IDX 25 15 13 16 24 17 14 18 23 19 27 20 15 21 16 22 21 23 17 24
REMARK SMILES IDX 20 25 18 26 22 27 19 28
REMARK H PARENT 3 5
ROOT
ATOM      1  C   UNL     1      42.873 130.374  23.779  1.00  0.00     0.106 C 
ENDROOT
BRANCH   1   2
ATOM      2  N   UNL     1      42.823 129.064  23.139  1.00  0.00    -0.421 NA
BRANCH   2   3
ATOM      3  C   UNL     1      43.637 127.957  23.539  1.00  0.00     0.153 C 
ATOM      4  N   UNL     1      44.942 127.803  22.972  1.00  0.00    -0.450 N 
ATOM      5  H   UNL     1      45.265 128.511  22.273  1.00  0.00     0.024 HD
ATOM      6  O   UNL     1      43.208 127.125  24.383  1.00  0.00    -0.299 OA
BRANCH   4   7
ATOM      7  C   UNL     1      45.815 126.694  23.354  1.00  0.00    -0.002 C 
ATOM      8  C   UNL     1      46.563 126.145  22.143  1.00  0.00     0.003 C 
ENDBRANCH   4   7
ENDBRANCH   2   3
ENDBRANCH   1   2
BRANCH   1   9
ATOM      9  C   UNL     1      43.885 131.249  23.098  1.00  0.00     0.246 C 
ATOM     10  O   UNL     1      44.673 131.933  23.806  1.00  0.00    -0.273 OA
BRANCH   9  11
ATOM     11  N   UNL     1      43.963 131.294  21.662  1.00  0.00    -0.204 N 
ATOM     12  N   UNL     1      44.980 130.768  20.982  1.00  0.00    -0.165 NA
ATOM     13  C   UNL     1      43.072 131.855  20.798  1.00  0.00     0.052 A 
ATOM     14  C   UNL     1      44.737 130.991  19.680  1.00  0.00     0.094 A 
ATOM     15  C   UNL     1      43.558 131.666  19.519  1.00  0.00     0.023 A 
ATOM     16  C   UNL     1      45.529 130.622  18.596  1.00  0.00     0.039 A 
ATOM     17  C   UNL     1      43.083 132.027  18.259  1.00  0.00     0.013 A 
ATOM     18  C   UNL     1      45.077 130.958  17.300  1.00  0.00    -0.014 A 
ATOM     19  C   UNL     1      43.858 131.669  17.141  1.00  0.00     0.009 A 
ATOM     20  C   UNL     1      41.800 132.556  21.175  1.00  0.00     0.067 C 
BRANCH  18  21
ATOM     21  C   UNL     1      45.892 130.596  16.119  1.00  0.00     0.003 A 
ATOM     22  C   UNL     1      46.224 129.248  15.911  1.00  0.00     0.123 A 
ATOM     23  C   UNL     1      46.345 131.561  15.186  1.00  0.00    -0.037 A 
ATOM     24  N   UNL     1      46.993 128.883  14.853  1.00  0.00    -0.228 NA
ATOM     25  C   UNL     1      47.151 131.146  14.115  1.00  0.00     0.064 A 
ATOM     26  C   UNL     1      47.462 129.795  13.963  1.00  0.00     0.213 A 
ATOM     27  C   UNL     1      46.000 133.021  15.317  1.00  0.00     0.045 C 
ATOM     28  F   UNL     1      48.232 129.388  12.924  1.00  0.00    -0.185 F 
ENDBRANCH  18  21
ENDBRANCH   9  11
ENDBRANCH   1   9
TORSDOF 6
ENDMDL
MODEL 2
REMARK VINA RESULT:      -7.0      1.281      1.400
REMARK SMILES CCNC(=O)[N-]CC(=O)n1nc2cc(-c3cnc(F)cc3C)ccc2c1C
REMARK SMILES IDX 7 1 6 2 4 3 3 4 5 6 2 7 1 8 8 9 9 10 10 11 11 12 26 13 12 14
REMARK SMILES IDX 25 15 13 16 24 17 14 18 23 19 27 20 15 21 16 22 21 23 17 24
REMARK SMILES IDX 20 25 18 26 22 27 19 28
REMARK H PARENT 3 5
ROOT
ATOM      1  C   UNL     1      43.825 129.445  23.964  1.00  0.00     0.106 C 
ENDROOT
BRANCH   1   2
ATOM      2  N   UNL     1      44.284 128.308  23.174  1.00  0.00    -0.421 NA
BRANCH   2   3
ATOM      3  C   UNL     1      43.709 127.000  23.261  1.00  0.00     0.153 C 
ATOM      4  N   UNL     1      44.541 125.852  23.063  1.00  0.00    -0.450 N 
ATOM      5  H   UNL     1      45.554 126.004  22.857  1.00  0.00     0.024 HD
ATOM      6  O   UNL     1      42.481 126.862  23.511  1.00  0.00    -0.299 OA
BRANCH   4   7
ATOM      7  C   UNL     1      44.003 124.495  23.151  1.00  0.00    -0.002 C 
ATOM      8  C   UNL     1      43.889 124.046  24.604  1.00  0.00     0.003 C 
ENDBRANCH   4   7
ENDBRANCH   2   3
ENDBRANCH   1   2
BRANCH   1   9
ATOM      9  C   UNL     1      44.287 130.732  23.343  1.00  0.00     0.246 C 
ATOM     10  O   UNL     1      44.725 131.647  24.092  1.00  0.00    -0.273 OA
BRANCH   9  11
ATOM     11  N   UNL     1      44.243 130.911  21.916  1.00  0.00    -0.204 N 
ATOM     12  N   UNL     1      45.184 130.433  21.104  1.00  0.00    -0.165 NA
ATOM     13  C   UNL     1      43.297 131.567  21.189  1.00  0.00     0.052 A 
ATOM     14  C   UNL     1      44.837 130.783  19.854  1.00  0.00     0.094 A 
ATOM     15  C   UNL     1      43.667 131.491  19.860  1.00  0.00     0.023 A 
ATOM     16  C   UNL     1      45.524 130.504  18.676  1.00  0.00     0.039 A 
ATOM     17  C   UNL     1      43.095 131.979  18.685  1.00  0.00     0.013 A 
ATOM     18  C   UNL     1      44.971 130.970  17.461  1.00  0.00    -0.014 A 
ATOM     19  C   UNL     1      43.762 131.713  17.476  1.00  0.00     0.009 A 
ATOM     20  C   UNL     1      42.080 132.252  21.739  1.00  0.00     0.067 C 
BRANCH  18  21
ATOM     21  C   UNL     1      45.673 130.706  16.185  1.00  0.00     0.003 A 
ATOM     22  C   UNL     1      46.918 130.058  16.216  1.00  0.00     0.123 A 
ATOM     23  C   UNL     1      45.131 131.079  14.930  1.00  0.00    -0.037 A 
ATOM     24  N   UNL     1      47.603 129.826  15.066  1.00  0.00    -0.228 NA
ATOM     25  C   UNL     1      45.875 130.835  13.767  1.00  0.00     0.064 A 
ATOM     26  C   UNL     1      47.114 130.200  13.856  1.00  0.00     0.213 A 
ATOM     27  C   UNL     1      43.784 131.742  14.809  1.00  0.00     0.045 C 
ATOM     28  F   UNL     1      47.833 129.953  12.734  1.00  0.00    -0.185 F 
ENDBRANCH  18  21
ENDBRANCH   9  11
ENDBRANCH   1   9
TORSDOF 6
ENDMDL
MODEL 3
REMARK VINA RESULT:      -6.3      1.170      1.309
REMARK SMILES CCNC(=O)[N-]CC(=O)n1nc2cc(-c3cnc(F)cc3C)ccc2c1C
REMARK SMILES IDX 7 1 6 2 4 3 3 4 5 6 2 7 1 8 8 9 9 10 10 11 11 12 26 13 12 14
REMARK SMILES IDX 25 15 13 16 24 17 14 18 23 19 27 20 15 21 16 22 21 23 17 24
REMARK SMILES IDX 20 25 18 26 22 27 19 28
REMARK H PARENT 3 5
ROOT
ATOM      1  C   UNL     1      44.419 130.040  23.486  1.00  0.00     0.106 C 
ENDROOT
BRANCH   1   2
ATOM      2  N   UNL     1      44.486 128.904  22.572  1.00  0.00    -0.421 NA
BRANCH   2   3
ATOM      3  C   UNL     1      44.776 127.567  22.992  1.00  0.00     0.153 C 
ATOM      4  N   UNL     1      43.825 126.528  22.735  1.00  0.00    -0.450 N 
ATOM      5  H   UNL     1      42.938 126.780  22.243  1.00  0.00     0.024 HD
ATOM      6  O   UNL     1      45.859 127.307  23.584  1.00  0.00    -0.299 OA
BRANCH   4   7
ATOM      7  C   UNL     1      44.078 125.145  23.136  1.00  0.00    -0.002 C 
ATOM      8  C   UNL     1      43.075 124.690  24.191  1.00  0.00     0.003 C 
ENDBRANCH   4   7
ENDBRANCH   2   3
ENDBRANCH   1   2
BRANCH   1   9
ATOM      9  C   UNL     1      44.030 131.285  22.742  1.00  0.00     0.246 C 
ATOM     10  O   UNL     1      43.647 132.291  23.398  1.00  0.00    -0.273 OA
BRANCH   9  11
ATOM     11  N   UNL     1      44.106 131.331  21.306  1.00  0.00    -0.204 N 
ATOM     12  N   UNL     1      45.113 130.790  20.624  1.00  0.00    -0.165 NA
ATOM     13  C   UNL     1      43.223 131.909  20.445  1.00  0.00     0.052 A 
ATOM     14  C   UNL     1      44.872 131.020  19.322  1.00  0.00     0.094 A 
ATOM     15  C   UNL     1      43.704 131.715  19.164  1.00  0.00     0.023 A 
ATOM     16  C   UNL     1      45.656 130.641  18.236  1.00  0.00     0.039 A 
ATOM     17  C   UNL     1      43.233 132.087  17.906  1.00  0.00     0.013 A 
ATOM     18  C   UNL     1      45.207 130.988  16.941  1.00  0.00    -0.014 A 
ATOM     19  C   UNL     1      44.000 131.719  16.786  1.00  0.00     0.009 A 
ATOM     20  C   UNL     1      41.964 132.630  20.825  1.00  0.00     0.067 C 
BRANCH  18  21
ATOM     21  C   UNL     1      46.014 130.615  15.759  1.00  0.00     0.003 A 
ATOM     22  C   UNL     1      46.240 129.255  15.492  1.00  0.00     0.123 A 
ATOM     23  C   UNL     1      46.564 131.581  14.880  1.00  0.00    -0.037 A 
ATOM     24  N   UNL     1      46.999 128.878  14.431  1.00  0.00    -0.228 NA
ATOM     25  C   UNL     1      47.355 131.152  13.804  1.00  0.00     0.064 A 
ATOM     26  C   UNL     1      47.559 129.788  13.593  1.00  0.00     0.213 A 
ATOM     27  C   UNL     1      46.335 133.057  15.075  1.00  0.00     0.045 C 
ATOM     28  F   UNL     1      48.314 129.368  12.550  1.00  0.00    -0.185 F 
ENDBRANCH  18  21
ENDBRANCH   9  11
ENDBRANCH   1   9
TORSDOF 6
ENDMDL
MODEL 4
REMARK VINA RESULT:      -6.0      1.046      1.566
REMARK SMILES CCNC(=O)[N-]CC(=O)n1nc2cc(-c3cnc(F)cc3C)ccc2c1C
REMARK SMILES IDX 7 1 6 2 4 3 3 4 5 6 2 7 1 8 8 9 9 10 10 11 11 12 26 13 12 14
REMARK SMILES IDX 25 15 13 16 24 17 14 18 23 19 27 20 15 21 16 22 21 23 17 24
REMARK SMILES IDX 20 25 18 26 22 27 19 28
REMARK H PARENT 3 5
ROOT
ATOM      1  C   UNL     1      43.225 130.287  23.456  1.00  0.00     0.106 C 
ENDROOT
BRANCH   1   2
ATOM      2  N   UNL     1      44.311 129.365  23.138  1.00  0.00    -0.421 NA
BRANCH   2   3
ATOM      3  C   UNL     1      44.498 128.107  23.795  1.00  0.00     0.153 C 
ATOM      4  N   UNL     1      45.664 127.330  23.505  1.00  0.00    -0.450 N 
ATOM      5  H   UNL     1      46.351 127.707  22.813  1.00  0.00     0.024 HD
ATOM      6  O   UNL     1      43.642 127.688  24.621  1.00  0.00    -0.299 OA
BRANCH   4   7
ATOM      7  C   UNL     1      45.904 126.042  24.155  1.00  0.00    -0.002 C 
ATOM      8  C   UNL     1      44.922 124.987  23.658  1.00  0.00     0.003 C 
ENDBRANCH   4   7
ENDBRANCH   2   3
ENDBRANCH   1   2
BRANCH   1   9
ATOM      9  C   UNL     1      43.424 131.592  22.742  1.00  0.00     0.246 C 
ATOM     10  O   UNL     1      43.488 132.654  23.420  1.00  0.00    -0.273 OA
BRANCH   9  11
ATOM     11  N   UNL     1      43.552 131.629  21.309  1.00  0.00    -0.204 N 
ATOM     12  N   UNL     1      44.614 131.140  20.673  1.00  0.00    -0.165 NA
ATOM     13  C   UNL     1      42.672 132.146  20.408  1.00  0.00     0.052 A 
ATOM     14  C   UNL     1      44.411 131.343  19.360  1.00  0.00     0.094 A 
ATOM     15  C   UNL     1      43.212 131.967  19.149  1.00  0.00     0.023 A 
ATOM     16  C   UNL     1      45.257 130.999  18.309  1.00  0.00     0.039 A 
ATOM     17  C   UNL     1      42.769 132.298  17.870  1.00  0.00     0.013 A 
ATOM     18  C   UNL     1      44.839 131.305  16.994  1.00  0.00    -0.014 A 
ATOM     19  C   UNL     1      43.599 131.963  16.784  1.00  0.00     0.009 A 
ATOM     20  C   UNL     1      41.359 132.796  20.732  1.00  0.00     0.067 C 
BRANCH  18  21
ATOM     21  C   UNL     1      45.711 130.968  15.848  1.00  0.00     0.003 A 
ATOM     22  C   UNL     1      46.329 132.007  15.134  1.00  0.00     0.123 A 
ATOM     23  C   UNL     1      45.952 129.631  15.446  1.00  0.00    -0.037 A 
ATOM     24  N   UNL     1      47.113 131.736  14.060  1.00  0.00    -0.228 NA
ATOM     25  C   UNL     1      46.756 129.391  14.321  1.00  0.00     0.064 A 
ATOM     26  C   UNL     1      47.334 130.463  13.640  1.00  0.00     0.213 A 
ATOM     27  C   UNL     1      45.359 128.458  16.181  1.00  0.00     0.045 C 
ATOM     28  F   UNL     1      48.119 130.237  12.560  1.00  0.00    -0.185 F 
ENDBRANCH  18  21
ENDBRANCH   9  11
ENDBRANCH   1   9
TORSDOF 6
ENDMDL
MODEL 5
REMARK VINA RESULT:      -5.8      1.805      2.092
REMARK SMILES CCNC(=O)[N-]CC(=O)n1nc2cc(-c3cnc(F)cc3C)ccc2c1C
REMARK SMILES IDX 7 1 6 2 4 3 3 4 5 6 2 7 1 8 8 9 9 10 10 11 11 12 26 13 12 14
REMARK SMILES IDX 25 15 13 16 24 17 14 18 23 19 27 20 15 21 16 22 21 23 17 24
REMARK SMILES IDX 20 25 18 26 22 27 19 28
REMARK H PARENT 3 5
ROOT
ATOM      1  C   UNL     1      42.019 131.333  22.966  1.00  0.00     0.106 C 
ENDROOT
BRANCH   1   2
ATOM      2  N   UNL     1      42.177 130.491  24.147  1.00  0.00    -0.421 NA
BRANCH   2   3
ATOM      3  C   UNL     1      42.173 129.060  24.104  1.00  0.00     0.153 C 
ATOM      4  N   UNL     1      40.977 128.351  24.440  1.00  0.00    -0.450 N 
ATOM      5  H   UNL     1      40.132 128.904  24.711  1.00  0.00     0.024 HD
ATOM      6  O   UNL     1      43.215 128.432  23.773  1.00  0.00    -0.299 OA
BRANCH   4   7
ATOM      7  C   UNL     1      40.920 126.890  24.404  1.00  0.00    -0.002 C 
ATOM      8  C   UNL     1      39.498 126.406  24.139  1.00  0.00     0.003 C 
ENDBRANCH   4   7
ENDBRANCH   2   3
ENDBRANCH   1   2
BRANCH   1   9
ATOM      9  C   UNL     1      43.361 131.692  22.397  1.00  0.00     0.246 C 
ATOM     10  O   UNL     1      44.285 132.032  23.185  1.00  0.00    -0.273 OA
BRANCH   9  11
ATOM     11  N   UNL     1      43.591 131.635  20.978  1.00  0.00    -0.204 N 
ATOM     12  N   UNL     1      44.656 131.037  20.448  1.00  0.00    -0.165 NA
ATOM     13  C   UNL     1      42.816 132.158  19.988  1.00  0.00     0.052 A 
ATOM     14  C   UNL     1      44.561 131.176  19.115  1.00  0.00     0.094 A 
ATOM     15  C   UNL     1      43.428 131.867  18.784  1.00  0.00     0.023 A 
ATOM     16  C   UNL     1      45.450 130.712  18.150  1.00  0.00     0.039 A 
ATOM     17  C   UNL     1      43.100 132.153  17.459  1.00  0.00     0.013 A 
ATOM     18  C   UNL     1      45.149 130.969  16.793  1.00  0.00    -0.014 A 
ATOM     19  C   UNL     1      43.977 131.698  16.457  1.00  0.00     0.009 A 
ATOM     20  C   UNL     1      41.535 132.915  20.178  1.00  0.00     0.067 C 
BRANCH  18  21
ATOM     21  C   UNL     1      46.071 130.505  15.734  1.00  0.00     0.003 A 
ATOM     22  C   UNL     1      46.437 129.151  15.697  1.00  0.00     0.123 A 
ATOM     23  C   UNL     1      46.596 131.379  14.749  1.00  0.00    -0.037 A 
ATOM     24  N   UNL     1      47.304 128.696  14.756  1.00  0.00    -0.228 NA
ATOM     25  C   UNL     1      47.500 130.874  13.803  1.00  0.00     0.064 A 
ATOM     26  C   UNL     1      47.840 129.521  13.821  1.00  0.00     0.213 A 
ATOM     27  C   UNL     1      46.222 132.837  14.696  1.00  0.00     0.045 C 
ATOM     28  F   UNL     1      48.706 129.026  12.903  1.00  0.00    -0.185 F 
ENDBRANCH  18  21
ENDBRANCH   9  11
ENDBRANCH   1   9
TORSDOF 6
ENDMDL
MODEL 6
REMARK VINA RESULT:      -5.2      3.596      7.940
REMARK SMILES CCNC(=O)[N-]CC(=O)n1nc2cc(-c3cnc(F)cc3C)ccc2c1C
REMARK SMILES IDX 7 1 6 2 4 3 3 4 5 6 2 7 1 8 8 9 9 10 10 11 11 12 26 13 12 14
REMARK SMILES IDX 25 15 13 16 24 17 14 18 23 19 27 20 15 21 16 22 21 23 17 24
REMARK SMILES IDX 20 25 18 26 22 27 19 28
REMARK H PARENT 3 5
ROOT
ATOM      1  C   UNL     1      43.261 131.665  18.749  1.00  0.00     0.106 C 
ENDROOT
BRANCH   1   2
ATOM      2  N   UNL     1      43.956 131.986  17.507  1.00  0.00    -0.421 NA
BRANCH   2   3
ATOM      3  C   UNL     1      45.014 131.190  16.964  1.00  0.00     0.153 C 
ATOM      4  N   UNL     1      45.751 131.674  15.837  1.00  0.00    -0.450 N 
ATOM      5  H   UNL     1      45.492 132.605  15.439  1.00  0.00     0.024 HD
ATOM      6  O   UNL     1      45.293 130.071  17.474  1.00  0.00    -0.299 OA
BRANCH   4   7
ATOM      7  C   UNL     1      46.846 130.902  15.251  1.00  0.00    -0.002 C 
ATOM      8  C   UNL     1      46.841 131.015  13.730  1.00  0.00     0.003 C 
ENDBRANCH   4   7
ENDBRANCH   2   3
ENDBRANCH   1   2
BRANCH   1   9
ATOM      9  C   UNL     1      44.168 131.882  19.926  1.00  0.00     0.246 C 
ATOM     10  O   UNL     1      44.790 132.974  20.022  1.00  0.00    -0.273 OA
BRANCH   9  11
ATOM     11  N   UNL     1      44.312 130.865  20.933  1.00  0.00    -0.204 N 
ATOM     12  N   UNL     1      45.128 129.823  20.788  1.00  0.00    -0.165 NA
ATOM     13  C   UNL     1      43.674 130.787  22.134  1.00  0.00     0.052 A 
ATOM     14  C   UNL     1      45.013 129.077  21.900  1.00  0.00     0.094 A 
ATOM     15  C   UNL     1      44.117 129.642  22.767  1.00  0.00     0.023 A 
ATOM     16  C   UNL     1      45.674 127.889  22.195  1.00  0.00     0.039 A 
ATOM     17  C   UNL     1      43.812 129.056  23.995  1.00  0.00     0.013 A 
ATOM     18  C   UNL     1      45.402 127.269  23.436  1.00  0.00    -0.014 A 
ATOM     19  C   UNL     1      44.463 127.854  24.325  1.00  0.00     0.009 A 
ATOM     20  C   UNL     1      42.670 131.768  22.664  1.00  0.00     0.067 C 
BRANCH  18  21
ATOM     21  C   UNL     1      46.074 125.998  23.786  1.00  0.00     0.003 A 
ATOM     22  C   UNL     1      47.459 125.886  23.592  1.00  0.00     0.123 A 
ATOM     23  C   UNL     1      45.369 124.889  24.317  1.00  0.00    -0.037 A 
ATOM     24  N   UNL     1      48.104 124.725  23.877  1.00  0.00    -0.228 NA
ATOM     25  C   UNL     1      46.068 123.702  24.584  1.00  0.00     0.064 A 
ATOM     26  C   UNL     1      47.444 123.641  24.359  1.00  0.00     0.213 A 
ATOM     27  C   UNL     1      43.889 124.942  24.591  1.00  0.00     0.045 C 
ATOM     28  F   UNL     1      48.124 122.500  24.625  1.00  0.00    -0.185 F 
ENDBRANCH  18  21
ENDBRANCH   9  11
ENDBRANCH   1   9
TORSDOF 6
ENDMDL
MODEL 7
REMARK VINA RESULT:      -5.1      1.788      2.368
REMARK SMILES CCNC(=O)[N-]CC(=O)n1nc2cc(-c3cnc(F)cc3C)ccc2c1C
REMARK SMILES IDX 7 1 6 2 4 3 3 4 5 6 2 7 1 8 8 9 9 10 10 11 11 12 26 13 12 14
REMARK SMILES IDX 25 15 13 16 24 17 14 18 23 19 27 20 15 21 16 22 21 23 17 24
REMARK SMILES IDX 20 25 18 26 22 27 19 28
REMARK H PARENT 3 5
ROOT
ATOM      1  C   UNL     1      43.144 131.409  23.166  1.00  0.00     0.106 C 
ENDROOT
BRANCH   1   2
ATOM      2  N   UNL     1      43.398 130.151  23.860  1.00  0.00    -0.421 NA
BRANCH   2   3
ATOM      3  C   UNL     1      42.557 128.999  23.742  1.00  0.00     0.153 C 
ATOM      4  N   UNL     1      41.359 128.920  24.521  1.00  0.00    -0.450 N 
ATOM      5  H   UNL     1      41.132 129.715  25.162  1.00  0.00     0.024 HD
ATOM      6  O   UNL     1      42.869 128.062  22.957  1.00  0.00    -0.299 OA
BRANCH   4   7
ATOM      7  C   UNL     1      40.463 127.769  24.430  1.00  0.00    -0.002 C 
ATOM      8  C   UNL     1      41.229 126.464  24.618  1.00  0.00     0.003 C 
ENDBRANCH   4   7
ENDBRANCH   2   3
ENDBRANCH   1   2
BRANCH   1   9
ATOM      9  C   UNL     1      44.358 131.830  22.389  1.00  0.00     0.246 C 
ATOM     10  O   UNL     1      45.372 132.238  23.018  1.00  0.00    -0.273 OA
BRANCH   9  11
ATOM     11  N   UNL     1      44.368 131.755  20.952  1.00  0.00    -0.204 N 
ATOM     12  N   UNL     1      45.428 131.339  20.263  1.00  0.00    -0.165 NA
ATOM     13  C   UNL     1      43.362 132.085  20.095  1.00  0.00     0.052 A 
ATOM     14  C   UNL     1      45.098 131.401  18.962  1.00  0.00     0.094 A 
ATOM     15  C   UNL     1      43.819 131.860  18.811  1.00  0.00     0.023 A 
ATOM     16  C   UNL     1      45.894 131.066  17.870  1.00  0.00     0.039 A 
ATOM     17  C   UNL     1      43.238 132.024  17.554  1.00  0.00     0.013 A 
ATOM     18  C   UNL     1      45.340 131.205  16.578  1.00  0.00    -0.014 A 
ATOM     19  C   UNL     1      44.015 131.694  16.428  1.00  0.00     0.009 A 
ATOM     20  C   UNL     1      42.008 132.604  20.483  1.00  0.00     0.067 C 
BRANCH  18  21
ATOM     21  C   UNL     1      46.153 130.872  15.388  1.00  0.00     0.003 A 
ATOM     22  C   UNL     1      46.825 131.904  14.714  1.00  0.00     0.123 A 
ATOM     23  C   UNL     1      46.284 129.546  14.906  1.00  0.00    -0.037 A 
ATOM     24  N   UNL     1      47.558 131.638  13.602  1.00  0.00    -0.228 NA
ATOM     25  C   UNL     1      47.038 129.314  13.746  1.00  0.00     0.064 A 
ATOM     26  C   UNL     1      47.674 130.379  13.107  1.00  0.00     0.213 A 
ATOM     27  C   UNL     1      45.627 128.379  15.595  1.00  0.00     0.045 C 
ATOM     28  F   UNL     1      48.411 130.158  11.991  1.00  0.00    -0.185 F 
ENDBRANCH  18  21
ENDBRANCH   9  11
ENDBRANCH   1   9
TORSDOF 6
ENDMDL
MODEL 8
REMARK VINA RESULT:      -4.3      2.755      4.066
REMARK SMILES CCNC(=O)[N-]CC(=O)n1nc2cc(-c3cnc(F)cc3C)ccc2c1C
REMARK SMILES IDX 7 1 6 2 4 3 3 4 5 6 2 7 1 8 8 9 9 10 10 11 11 12 26 13 12 14
REMARK SMILES IDX 25 15 13 16 24 17 14 18 23 19 27 20 15 21 16 22 21 23 17 24
REMARK SMILES IDX 20 25 18 26 22 27 19 28
REMARK H PARENT 3 5
ROOT
ATOM      1  C   UNL     1      45.604 132.170  23.691  1.00  0.00     0.106 C 
ENDROOT
BRANCH   1   2
ATOM      2  N   UNL     1      46.112 133.470  23.265  1.00  0.00    -0.421 NA
BRANCH   2   3
ATOM      3  C   UNL     1      47.448 133.682  22.797  1.00  0.00     0.153 C 
ATOM      4  N   UNL     1      48.371 134.413  23.611  1.00  0.00    -0.450 N 
ATOM      5  H   UNL     1      48.037 134.776  24.533  1.00  0.00     0.024 HD
ATOM      6  O   UNL     1      47.808 133.227  21.677  1.00  0.00    -0.299 OA
BRANCH   4   7
ATOM      7  C   UNL     1      49.748 134.649  23.181  1.00  0.00    -0.002 C 
ATOM      8  C   UNL     1      49.819 135.796  22.178  1.00  0.00     0.003 C 
ENDBRANCH   4   7
ENDBRANCH   2   3
ENDBRANCH   1   2
BRANCH   1   9
ATOM      9  C   UNL     1      44.298 131.874  23.012  1.00  0.00     0.246 C 
ATOM     10  O   UNL     1      43.269 131.702  23.720  1.00  0.00    -0.273 OA
BRANCH   9  11
ATOM     11  N   UNL     1      44.221 131.802  21.577  1.00  0.00    -0.204 N 
ATOM     12  N   UNL     1      45.267 131.482  20.818  1.00  0.00    -0.165 NA
ATOM     13  C   UNL     1      43.136 132.041  20.789  1.00  0.00     0.052 A 
ATOM     14  C   UNL     1      44.849 131.515  19.541  1.00  0.00     0.094 A 
ATOM     15  C   UNL     1      43.527 131.859  19.477  1.00  0.00     0.023 A 
ATOM     16  C   UNL     1      45.599 131.254  18.398  1.00  0.00     0.039 A 
ATOM     17  C   UNL     1      42.854 131.972  18.261  1.00  0.00     0.013 A 
ATOM     18  C   UNL     1      44.952 131.344  17.145  1.00  0.00    -0.014 A 
ATOM     19  C   UNL     1      43.582 131.713  17.085  1.00  0.00     0.009 A 
ATOM     20  C   UNL     1      41.770 132.438  21.266  1.00  0.00     0.067 C 
BRANCH  18  21
ATOM     21  C   UNL     1      45.713 131.086  15.903  1.00  0.00     0.003 A 
ATOM     22  C   UNL     1      46.418 132.142  15.306  1.00  0.00     0.123 A 
ATOM     23  C   UNL     1      45.761 129.807  15.296  1.00  0.00    -0.037 A 
ATOM     24  N   UNL     1      47.104 131.948  14.151  1.00  0.00    -0.228 NA
ATOM     25  C   UNL     1      46.468 129.649  14.094  1.00  0.00     0.064 A 
ATOM     26  C   UNL     1      47.140 130.737  13.537  1.00  0.00     0.213 A 
ATOM     27  C   UNL     1      45.064 128.613  15.894  1.00  0.00     0.045 C 
ATOM     28  F   UNL     1      47.833 130.588  12.382  1.00  0.00    -0.185 F 
ENDBRANCH  18  21
ENDBRANCH   9  11
ENDBRANCH   1   9
TORSDOF 6
ENDMDL


