REMARK SMILES CC[C@@H](O)C(=O)[N@@H+]1C[C@H](c2ccc3cc[nH]c3c2)[C@H](C)C[C@@H]1F
REMARK SMILES IDX 5 1 6 2 3 3 2 4 1 5 4 6 7 8 8 9 22 10 9 11 21 12 19 13 23 15
REMARK SMILES IDX 20 16 10 17 11 18 18 19 12 20 17 21 13 22 16 23 14 24 15 25
REMARK H PARENT 4 7 7 14 16 26
ROOT
ATOM      1  C   UNL     1      -3.268  -0.795   0.234  1.00  0.00     0.343 C 
ATOM      2  O   UNL     1      -3.713  -0.804   1.375  1.00  0.00    -0.228 OA
ENDROOT
BRANCH   1   3
ATOM      3  C   UNL     1      -3.617  -1.941  -0.691  1.00  0.00     0.243 C 
BRANCH   3   4
ATOM      4  C   UNL     1      -4.574  -1.488  -1.810  1.00  0.00     0.043 C 
ATOM      5  C   UNL     1      -5.952  -1.101  -1.273  1.00  0.00     0.007 C 
ENDBRANCH   3   4
BRANCH   3   6
ATOM      6  O   UNL     1      -2.434  -2.450  -1.250  1.00  0.00    -0.379 OA
ATOM      7  H   UNL     1      -2.648  -3.352  -1.607  1.00  0.00     0.211 HD
ENDBRANCH   3   6
ENDBRANCH   1   3
BRANCH   1   8
ATOM      8  N   UNL     1      -2.422   0.298  -0.214  1.00  0.00    -0.240 N 
ATOM      9  C   UNL     1      -1.199   0.368   0.614  1.00  0.00     0.281 C 
ATOM     10  C   UNL     1      -3.166   1.579  -0.198  1.00  0.00     0.374 C 
ATOM     11  C   UNL     1      -0.246   1.465   0.085  1.00  0.00     0.078 C 
ATOM     12  C   UNL     1      -2.290   2.738  -0.712  1.00  0.00     0.107 C 
ATOM     13  C   UNL     1      -0.943   2.850   0.035  1.00  0.00     0.008 C 
ATOM     14  H   UNL     1      -2.134   0.107  -1.203  1.00  0.00     0.359 HD
ATOM     15  F   UNL     1      -3.637   1.874   1.074  1.00  0.00    -0.185 F 
ATOM     16  C   UNL     1      -1.110   3.513   1.416  1.00  0.00     0.009 C 
BRANCH  11  17
ATOM     17  C   UNL     1       1.097   1.506   0.801  1.00  0.00    -0.037 A 
ATOM     18  C   UNL     1       1.207   1.344   2.212  1.00  0.00     0.005 A 
ATOM     19  C   UNL     1       2.265   1.774   0.046  1.00  0.00     0.031 A 
ATOM     20  C   UNL     1       2.457   1.419   2.853  1.00  0.00     0.010 A 
ATOM     21  C   UNL     1       3.485   1.841   0.714  1.00  0.00     0.046 A 
ATOM     22  C   UNL     1       3.577   1.667   2.067  1.00  0.00    -0.001 A 
ATOM     23  N   UNL     1       4.695   2.078   0.181  1.00  0.00    -0.361 N 
ATOM     24  C   UNL     1       4.904   1.799   2.412  1.00  0.00     0.028 A 
ATOM     25  C   UNL     1       5.566   2.053   1.215  1.00  0.00     0.083 A 
ATOM     26  H   UNL     1       4.921   2.248  -0.824  1.00  0.00     0.166 HD
ENDBRANCH  11  17
ENDBRANCH   1   8
TORSDOF 5


