REMARK SMILES C=C[C@H]1CC[C@H](c2cccc3ccoc23)N(C(=O)[C@@H](C)c2[nH]cc[nH+]2)C1
REMARK SMILES IDX 17 1 18 2 16 3 3 4 4 5 26 6 5 7 6 8 2 9 1 10 7 11 8 12 15 13
REMARK SMILES IDX 9 14 14 15 11 16 10 17 13 18 12 19 19 20 20 21 21 22 22 23
REMARK SMILES IDX 25 24 23 25 24 26
REMARK H PARENT 22 27 25 28
ROOT
ATOM      1  C   UNL     1      -1.208   0.453   0.313  1.00  0.00     0.238 C 
ATOM      2  O   UNL     1      -1.280   0.950   1.471  1.00  0.00    -0.274 OA
ENDROOT
BRANCH   1   3
ATOM      3  N   UNL     1      -1.322  -0.983   0.153  1.00  0.00    -0.334 N 
ATOM      4  C   UNL     1      -1.446  -3.003   1.584  1.00  0.00     0.031 C 
ATOM      5  C   UNL     1      -0.789  -3.810   0.428  1.00  0.00     0.012 C 
ATOM      6  C   UNL     1      -2.173  -1.738   1.089  1.00  0.00     0.127 C 
ATOM      7  C   UNL     1      -1.040  -3.205  -0.960  1.00  0.00     0.031 C 
ATOM      8  C   UNL     1      -0.723  -1.695  -1.000  1.00  0.00     0.119 C 
BRANCH   4   9
ATOM      9  C   UNL     1      -2.390  -3.866   2.393  1.00  0.00    -0.030 C 
ATOM     10  C   UNL     1      -1.937  -4.866   3.157  1.00  0.00     0.004 C 
ENDBRANCH   4   9
BRANCH   8  11
ATOM     11  C   UNL     1       0.778  -1.478  -1.099  1.00  0.00     0.018 A 
ATOM     12  C   UNL     1       1.412  -1.525  -2.363  1.00  0.00     0.010 A 
ATOM     13  C   UNL     1       1.607  -1.285   0.018  1.00  0.00     0.139 A 
ATOM     14  C   UNL     1       2.808  -1.356  -2.482  1.00  0.00     0.001 A 
ATOM     15  O   UNL     1       1.263  -1.214   1.282  1.00  0.00    -0.464 OA
ATOM     16  C   UNL     1       2.961  -1.122  -0.106  1.00  0.00     0.021 A 
ATOM     17  C   UNL     1       3.600  -1.149  -1.341  1.00  0.00     0.012 A 
ATOM     18  C   UNL     1       2.356  -1.007   1.991  1.00  0.00     0.196 A 
ATOM     19  C   UNL     1       3.466  -0.939   1.159  1.00  0.00     0.050 A 
ENDBRANCH   8  11
ENDBRANCH   1   3
BRANCH   1  20
ATOM     20  C   UNL     1      -0.978   1.384  -0.861  1.00  0.00     0.189 C 
ATOM     21  C   UNL     1      -1.815   2.661  -0.730  1.00  0.00     0.031 C 
BRANCH  20  22
ATOM     22  C   UNL     1       0.479   1.740  -0.993  1.00  0.00     0.264 A 
ATOM     23  N   UNL     1       1.137   1.755  -2.170  1.00  0.00    -0.247 N 
ATOM     24  N   UNL     1       1.264   2.140   0.029  1.00  0.00    -0.247 N 
ATOM     25  C   UNL     1       2.386   2.160  -1.877  1.00  0.00     0.240 A 
ATOM     26  C   UNL     1       2.464   2.397  -0.521  1.00  0.00     0.240 A 
ATOM     27  H   UNL     1       0.762   1.504  -3.111  1.00  0.00     0.311 HD
ATOM     28  H   UNL     1       1.005   2.238   1.035  1.00  0.00     0.311 HD
ENDBRANCH  20  22
ENDBRANCH   1  20
TORSDOF 5


