REMARK SMILES O=C([N-]CCc1ccc(-c2c[nH+]c3ccnn3c2)cc1)[C@H]1CCCSC1
REMARK SMILES IDX 4 1 3 2 2 3 1 4 21 5 22 6 26 7 23 8 25 9 24 10 5 11 6 12
REMARK SMILES IDX 7 13 20 14 8 15 19 16 9 17 10 18 11 19 18 20 12 21 17 22
REMARK SMILES IDX 13 23 16 24 14 25 15 26
REMARK H PARENT 12 27
ROOT
ATOM      1  C   UNL     1      -2.251  -2.896  -1.649  1.00  0.00    -0.113 C 
ENDROOT
BRANCH   1   2
ATOM      2  N   UNL     1      -0.837  -2.799  -2.005  1.00  0.00    -0.653 NA
BRANCH   2   3
ATOM      3  C   UNL     1      -0.171  -1.562  -2.298  1.00  0.00     0.055 C 
ATOM      4  O   UNL     1      -0.828  -0.485  -2.308  1.00  0.00    -0.320 OA
BRANCH   3   5
ATOM      5  C   UNL     1       1.286  -1.560  -2.717  1.00  0.00     0.047 C 
ATOM      6  C   UNL     1       1.979  -0.202  -2.461  1.00  0.00     0.011 C 
ATOM      7  C   UNL     1       2.094  -2.705  -2.076  1.00  0.00     0.079 C 
ATOM      8  C   UNL     1       2.131   0.118  -0.968  1.00  0.00     0.012 C 
ATOM      9  S   UNL     1       2.167  -2.560  -0.256  1.00  0.00    -0.161 SA
ATOM     10  C   UNL     1       2.984  -0.928  -0.250  1.00  0.00     0.069 C 
ENDBRANCH   3   5
ENDBRANCH   2   3
ENDBRANCH   1   2
BRANCH   1  11
ATOM     11  C   UNL     1      -2.447  -2.921  -0.127  1.00  0.00     0.016 C 
BRANCH  11  12
ATOM     12  C   UNL     1      -1.881  -1.698   0.549  1.00  0.00    -0.049 A 
ATOM     13  C   UNL     1      -2.458  -0.437   0.337  1.00  0.00     0.004 A 
ATOM     14  C   UNL     1      -0.757  -1.805   1.381  1.00  0.00     0.004 A 
ATOM     15  C   UNL     1      -1.891   0.705   0.909  1.00  0.00     0.009 A 
ATOM     16  C   UNL     1      -0.195  -0.666   1.962  1.00  0.00     0.009 A 
ATOM     17  C   UNL     1      -0.746   0.604   1.720  1.00  0.00    -0.011 A 
BRANCH  17  18
ATOM     18  C   UNL     1      -0.112   1.819   2.287  1.00  0.00     0.063 A 
ATOM     19  C   UNL     1       0.412   1.825   3.604  1.00  0.00     0.210 A 
ATOM     20  C   UNL     1       0.001   2.998   1.524  1.00  0.00     0.245 A 
ATOM     21  N   UNL     1       1.006   2.945   4.113  1.00  0.00    -0.245 N 
ATOM     22  N   UNL     1       0.603   4.071   2.091  1.00  0.00    -0.104 N 
ATOM     23  C   UNL     1       1.087   4.051   3.334  1.00  0.00     0.306 A 
ATOM     24  N   UNL     1       0.808   5.253   1.540  1.00  0.00    -0.086 NA
ATOM     25  C   UNL     1       1.642   5.271   3.638  1.00  0.00     0.125 A 
ATOM     26  C   UNL     1       1.444   6.006   2.471  1.00  0.00     0.167 A 
ATOM     27  H   UNL     1       1.388   2.945   5.085  1.00  0.00     0.312 HD
ENDBRANCH  17  18
ENDBRANCH  11  12
ENDBRANCH   1  11
TORSDOF 6


