REMARK SMILES Cc1c(Br)cccc1N/C(S)=[N+]1/CCC[C@H](c2ccc3cc(F)ccc3n2)[C@@H]1F
REMARK SMILES IDX 12 1 13 2 14 3 15 4 16 5 28 6 29 7 10 8 9 9 11 11 8 13 7 14
REMARK SMILES IDX 2 15 6 16 3 17 5 18 1 19 4 20 17 21 27 22 18 23 26 24 19 25
REMARK SMILES IDX 25 26 20 27 24 28 21 29 22 30 23 31
REMARK H PARENT 9 10 11 12
ROOT
ATOM      1  N   UNL     1       0.373   1.867  -0.690  1.00  0.00    -0.224 N 
ATOM      2  C   UNL     1       0.479   2.717  -1.897  1.00  0.00     0.240 C 
ATOM      3  C   UNL     1      -0.673   2.455  -2.875  1.00  0.00     0.047 C 
ATOM      4  C   UNL     1      -0.782   0.978  -3.287  1.00  0.00     0.021 C 
ATOM      5  C   UNL     1      -0.238   0.007  -2.216  1.00  0.00     0.116 C 
ATOM      6  C   UNL     1      -0.361   0.585  -0.793  1.00  0.00     0.363 C 
ATOM      7  F   UNL     1      -1.689   0.788  -0.454  1.00  0.00    -0.196 F 
ENDROOT
BRANCH   1   8
ATOM      8  C   UNL     1       0.961   2.217   0.437  1.00  0.00     0.310 C 
ATOM      9  N   UNL     1       0.728   1.480   1.652  1.00  0.00    -0.235 N 
ATOM     10  H   UNL     1      -0.230   1.106   1.837  1.00  0.00     0.313 HD
BRANCH   8  11
ATOM     11  S   UNL     1       2.022   3.679   0.532  1.00  0.00    -0.056 SA
ATOM     12  H   UNL     1       3.160   2.963   0.122  1.00  0.00     0.116 HD
ENDBRANCH   8  11
BRANCH   9  13
ATOM     13  C   UNL     1       1.735   1.307   2.662  1.00  0.00     0.129 A 
ATOM     14  C   UNL     1       3.028   0.913   2.284  1.00  0.00     0.052 A 
ATOM     15  C   UNL     1       1.423   1.463   4.035  1.00  0.00     0.010 A 
ATOM     16  C   UNL     1       4.006   0.671   3.247  1.00  0.00     0.006 A 
ATOM     17  C   UNL     1       2.416   1.179   5.003  1.00  0.00     0.025 A 
ATOM     18  C   UNL     1       3.699   0.797   4.600  1.00  0.00     0.016 A 
ATOM     19  C   UNL     1       0.040   1.889   4.462  1.00  0.00     0.050 C 
ATOM     20  Br  UNL     1       2.072   1.273   6.890  1.00  0.00    -0.050 Br
ENDBRANCH   9  13
ENDBRANCH   1   8
BRANCH   5  21
ATOM     21  C   UNL     1      -0.899  -1.350  -2.320  1.00  0.00     0.051 A 
ATOM     22  N   UNL     1      -2.236  -1.472  -2.080  1.00  0.00    -0.252 NA
ATOM     23  C   UNL     1      -0.153  -2.488  -2.665  1.00  0.00     0.025 A 
ATOM     24  C   UNL     1      -2.878  -2.667  -2.162  1.00  0.00     0.071 A 
ATOM     25  C   UNL     1      -0.785  -3.729  -2.756  1.00  0.00     0.012 A 
ATOM     26  C   UNL     1      -4.252  -2.745  -1.906  1.00  0.00     0.032 A 
ATOM     27  C   UNL     1      -2.158  -3.832  -2.505  1.00  0.00     0.003 A 
ATOM     28  C   UNL     1      -4.910  -3.977  -1.990  1.00  0.00     0.041 A 
ATOM     29  C   UNL     1      -2.825  -5.064  -2.587  1.00  0.00     0.049 A 
ATOM     30  C   UNL     1      -4.199  -5.133  -2.330  1.00  0.00     0.123 A 
ATOM     31  F   UNL     1      -4.842  -6.324  -2.410  1.00  0.00    -0.207 F 
ENDBRANCH   5  21
TORSDOF 4


