MODEL 1
REMARK VINA RESULT:      -1.7      0.000      0.000
REMARK SMILES C=C1[C@@H](F)C[C@H](Nc2cccc(N)c2[O-])[C@H]2CC(c3ncncc3F)=N[C@@H]12
REMARK SMILES IDX 7 1 6 3 2 4 3 5 27 6 5 7 26 8 16 9 18 10 17 11 1 12 4 13
REMARK SMILES IDX 19 14 20 15 24 16 21 17 23 18 22 19 25 20 8 21 9 22 14 23
REMARK SMILES IDX 10 24 12 25 11 26 15 27 13 28
REMARK H PARENT 7 2 13 29 13 30
ROOT
ATOM      1  N   UNL     1      47.108 125.721  23.360  1.00  0.00    -0.382 N 
ATOM      2  H   UNL     1      46.497 125.479  24.173  1.00  0.00     0.160 HD
ENDROOT
BRANCH   1   3
ATOM      3  C   UNL     1      46.520 126.532  22.279  1.00  0.00     0.088 C 
ATOM      4  C   UNL     1      43.994 126.652  23.672  1.00  0.00    -0.019 C 
ATOM      5  C   UNL     1      44.246 125.501  22.721  1.00  0.00     0.196 C 
ATOM      6  C   UNL     1      44.778 127.955  23.616  1.00  0.00     0.139 C 
ATOM      7  C   UNL     1      45.306 125.816  21.665  1.00  0.00     0.067 C 
ATOM      8  N   UNL     1      43.965 128.973  22.977  1.00  0.00    -0.279 NA
ATOM      9  C   UNL     1      46.106 127.926  22.811  1.00  0.00     0.046 C 
ATOM     10  C   UNL     1      44.551 129.508  21.962  1.00  0.00     0.065 C 
ATOM     11  C   UNL     1      45.904 128.962  21.689  1.00  0.00     0.066 C 
ATOM     12  C   UNL     1      43.038 126.517  24.604  1.00  0.00     0.013 C 
ATOM     13  F   UNL     1      43.067 125.159  22.080  1.00  0.00    -0.243 F 
BRANCH  10  14
ATOM     14  C   UNL     1      43.922 130.566  21.140  1.00  0.00     0.123 A 
ATOM     15  N   UNL     1      42.810 131.192  21.614  1.00  0.00    -0.232 NA
ATOM     16  C   UNL     1      44.437 130.945  19.887  1.00  0.00     0.168 A 
ATOM     17  C   UNL     1      42.192 132.171  20.904  1.00  0.00     0.222 A 
ATOM     18  C   UNL     1      43.785 131.953  19.176  1.00  0.00     0.154 A 
ATOM     19  N   UNL     1      42.680 132.546  19.695  1.00  0.00    -0.242 NA
ATOM     20  F   UNL     1      45.542 130.361  19.359  1.00  0.00    -0.203 F 
ENDBRANCH  10  14
ENDBRANCH   1   3
BRANCH   1  21
ATOM     21  C   UNL     1      48.446 125.179  23.340  1.00  0.00     0.028 A 
ATOM     22  C   UNL     1      49.477 125.735  24.123  1.00  0.00     0.025 A 
ATOM     23  C   UNL     1      48.733 124.059  22.532  1.00  0.00    -0.061 A 
ATOM     24  C   UNL     1      50.762 125.190  24.093  1.00  0.00     0.004 A 
ATOM     25  C   UNL     1      50.030 123.512  22.506  1.00  0.00     0.025 A 
ATOM     26  C   UNL     1      51.038 124.085  23.289  1.00  0.00     0.025 A 
ATOM     27  O   UNL     1      47.731 123.492  21.748  1.00  0.00    -0.870 OA
BRANCH  25  28
ATOM     28  N   UNL     1      50.329 122.376  21.686  1.00  0.00    -0.399 N 
ATOM     29  H   UNL     1      51.152 122.370  21.044  1.00  0.00     0.156 HD
ATOM     30  H   UNL     1      49.725 121.524  21.716  1.00  0.00     0.156 HD
ENDBRANCH  25  28
ENDBRANCH   1  21
TORSDOF 4
ENDMDL
MODEL 2
REMARK VINA RESULT:      -1.5      4.100      7.666
REMARK SMILES C=C1[C@@H](F)C[C@H](Nc2cccc(N)c2[O-])[C@H]2CC(c3ncncc3F)=N[C@@H]12
REMARK SMILES IDX 7 1 6 3 2 4 3 5 27 6 5 7 26 8 16 9 18 10 17 11 1 12 4 13
REMARK SMILES IDX 19 14 20 15 24 16 21 17 23 18 22 19 25 20 8 21 9 22 14 23
REMARK SMILES IDX 10 24 12 25 11 26 15 27 13 28
REMARK H PARENT 7 2 13 29 13 30
ROOT
ATOM      1  N   UNL     1      44.036 123.871  23.383  1.00  0.00    -0.382 N 
ATOM      2  H   UNL     1      44.508 123.815  24.314  1.00  0.00     0.160 HD
ENDROOT
BRANCH   1   3
ATOM      3  C   UNL     1      44.889 123.992  22.189  1.00  0.00     0.088 C 
ATOM      4  C   UNL     1      46.621 125.857  23.551  1.00  0.00    -0.019 C 
ATOM      5  C   UNL     1      45.424 126.395  22.795  1.00  0.00     0.196 C 
ATOM      6  C   UNL     1      47.214 124.481  23.286  1.00  0.00     0.139 C 
ATOM      7  C   UNL     1      44.932 125.449  21.700  1.00  0.00     0.067 C 
ATOM      8  N   UNL     1      48.421 124.627  22.495  1.00  0.00    -0.279 NA
ATOM      9  C   UNL     1      46.322 123.488  22.493  1.00  0.00     0.046 C 
ATOM     10  C   UNL     1      48.386 123.939  21.406  1.00  0.00     0.065 C 
ATOM     11  C   UNL     1      47.130 123.169  21.221  1.00  0.00     0.066 C 
ATOM     12  C   UNL     1      47.184 126.629  24.495  1.00  0.00     0.013 C 
ATOM     13  F   UNL     1      45.746 127.613  22.219  1.00  0.00    -0.243 F 
BRANCH  10  14
ATOM     14  C   UNL     1      49.495 123.929  20.428  1.00  0.00     0.123 A 
ATOM     15  N   UNL     1      49.315 123.296  19.236  1.00  0.00    -0.232 NA
ATOM     16  C   UNL     1      50.729 124.552  20.689  1.00  0.00     0.168 A 
ATOM     17  C   UNL     1      50.298 123.256  18.299  1.00  0.00     0.222 A 
ATOM     18  C   UNL     1      51.724 124.497  19.713  1.00  0.00     0.154 A 
ATOM     19  N   UNL     1      51.492 123.854  18.540  1.00  0.00    -0.242 NA
ATOM     20  F   UNL     1      50.973 125.200  21.856  1.00  0.00    -0.203 F 
ENDBRANCH  10  14
ENDBRANCH   1   3
BRANCH   1  21
ATOM     21  C   UNL     1      42.592 123.895  23.361  1.00  0.00     0.028 A 
ATOM     22  C   UNL     1      41.838 123.903  24.552  1.00  0.00     0.025 A 
ATOM     23  C   UNL     1      41.914 123.928  22.125  1.00  0.00    -0.061 A 
ATOM     24  C   UNL     1      40.443 123.933  24.507  1.00  0.00     0.004 A 
ATOM     25  C   UNL     1      40.507 123.959  22.084  1.00  0.00     0.025 A 
ATOM     26  C   UNL     1      39.780 123.960  23.280  1.00  0.00     0.025 A 
ATOM     27  O   UNL     1      42.637 123.920  20.935  1.00  0.00    -0.870 OA
BRANCH  25  28
ATOM     28  N   UNL     1      39.811 123.990  20.833  1.00  0.00    -0.399 N 
ATOM     29  H   UNL     1      39.527 123.109  20.347  1.00  0.00     0.156 HD
ATOM     30  H   UNL     1      39.573 124.899  20.378  1.00  0.00     0.156 HD
ENDBRANCH  25  28
ENDBRANCH   1  21
TORSDOF 4
ENDMDL
MODEL 3
REMARK VINA RESULT:      -0.7      4.683      7.402
REMARK SMILES C=C1[C@@H](F)C[C@H](Nc2cccc(N)c2[O-])[C@H]2CC(c3ncncc3F)=N[C@@H]12
REMARK SMILES IDX 7 1 6 3 2 4 3 5 27 6 5 7 26 8 16 9 18 10 17 11 1 12 4 13
REMARK SMILES IDX 19 14 20 15 24 16 21 17 23 18 22 19 25 20 8 21 9 22 14 23
REMARK SMILES IDX 10 24 12 25 11 26 15 27 13 28
REMARK H PARENT 7 2 13 29 13 30
ROOT
ATOM      1  N   UNL     1      42.883 131.925  20.645  1.00  0.00    -0.382 N 
ATOM      2  H   UNL     1      41.864 131.805  20.445  1.00  0.00     0.160 HD
ENDROOT
BRANCH   1   3
ATOM      3  C   UNL     1      43.765 132.276  19.518  1.00  0.00     0.088 C 
ATOM      4  C   UNL     1      45.604 130.168  20.231  1.00  0.00    -0.019 C 
ATOM      5  C   UNL     1      45.790 131.537  20.852  1.00  0.00     0.196 C 
ATOM      6  C   UNL     1      44.807 129.942  18.955  1.00  0.00     0.139 C 
ATOM      7  C   UNL     1      45.164 132.660  20.025  1.00  0.00     0.067 C 
ATOM      8  N   UNL     1      45.725 129.758  17.847  1.00  0.00    -0.279 NA
ATOM      9  C   UNL     1      43.864 131.097  18.519  1.00  0.00     0.046 C 
ATOM     10  C   UNL     1      45.510 130.586  16.884  1.00  0.00     0.065 C 
ATOM     11  C   UNL     1      44.386 131.524  17.134  1.00  0.00     0.066 C 
ATOM     12  C   UNL     1      46.166 129.108  20.834  1.00  0.00     0.013 C 
ATOM     13  F   UNL     1      47.142 131.798  21.007  1.00  0.00    -0.243 F 
BRANCH  10  14
ATOM     14  C   UNL     1      46.320 130.603  15.646  1.00  0.00     0.123 A 
ATOM     15  N   UNL     1      46.785 129.423  15.149  1.00  0.00    -0.232 NA
ATOM     16  C   UNL     1      46.623 131.795  14.966  1.00  0.00     0.168 A 
ATOM     17  C   UNL     1      47.531 129.377  14.015  1.00  0.00     0.222 A 
ATOM     18  C   UNL     1      47.392 131.724  13.804  1.00  0.00     0.154 A 
ATOM     19  N   UNL     1      47.830 130.522  13.351  1.00  0.00    -0.242 NA
ATOM     20  F   UNL     1      46.190 133.003  15.407  1.00  0.00    -0.203 F 
ENDBRANCH  10  14
ENDBRANCH   1   3
BRANCH   1  21
ATOM     21  C   UNL     1      43.340 131.668  21.990  1.00  0.00     0.028 A 
ATOM     22  C   UNL     1      44.026 132.648  22.735  1.00  0.00     0.025 A 
ATOM     23  C   UNL     1      43.085 130.415  22.586  1.00  0.00    -0.061 A 
ATOM     24  C   UNL     1      44.453 132.380  24.036  1.00  0.00     0.004 A 
ATOM     25  C   UNL     1      43.516 130.149  23.899  1.00  0.00     0.025 A 
ATOM     26  C   UNL     1      44.200 131.137  24.617  1.00  0.00     0.025 A 
ATOM     27  O   UNL     1      42.411 129.430  21.869  1.00  0.00    -0.870 OA
BRANCH  25  28
ATOM     28  N   UNL     1      43.263 128.878  24.509  1.00  0.00    -0.399 N 
ATOM     29  H   UNL     1      43.726 128.007  24.164  1.00  0.00     0.156 HD
ATOM     30  H   UNL     1      42.606 128.797  25.317  1.00  0.00     0.156 HD
ENDBRANCH  25  28
ENDBRANCH   1  21
TORSDOF 4
ENDMDL
MODEL 4
REMARK VINA RESULT:       0.5      3.784      7.947
REMARK SMILES C=C1[C@@H](F)C[C@H](Nc2cccc(N)c2[O-])[C@H]2CC(c3ncncc3F)=N[C@@H]12
REMARK SMILES IDX 7 1 6 3 2 4 3 5 27 6 5 7 26 8 16 9 18 10 17 11 1 12 4 13
REMARK SMILES IDX 19 14 20 15 24 16 21 17 23 18 22 19 25 20 8 21 9 22 14 23
REMARK SMILES IDX 10 24 12 25 11 26 15 27 13 28
REMARK H PARENT 7 2 13 29 13 30
ROOT
ATOM      1  N   UNL     1      46.008 123.752  24.501  1.00  0.00    -0.382 N 
ATOM      2  H   UNL     1      46.351 124.236  25.361  1.00  0.00     0.160 HD
ENDROOT
BRANCH   1   3
ATOM      3  C   UNL     1      47.012 123.151  23.606  1.00  0.00     0.088 C 
ATOM      4  C   UNL     1      47.003 125.503  21.931  1.00  0.00    -0.019 C 
ATOM      5  C   UNL     1      46.017 124.393  21.632  1.00  0.00     0.196 C 
ATOM      6  C   UNL     1      48.263 125.287  22.757  1.00  0.00     0.139 C 
ATOM      7  C   UNL     1      46.460 123.035  22.176  1.00  0.00     0.067 C 
ATOM      8  N   UNL     1      49.406 125.205  21.867  1.00  0.00    -0.279 NA
ATOM      9  C   UNL     1      48.313 123.990  23.610  1.00  0.00     0.046 C 
ATOM     10  C   UNL     1      50.079 124.118  22.025  1.00  0.00     0.065 C 
ATOM     11  C   UNL     1      49.530 123.216  23.069  1.00  0.00     0.066 C 
ATOM     12  C   UNL     1      46.753 126.731  21.448  1.00  0.00     0.013 C 
ATOM     13  F   UNL     1      45.837 124.287  20.262  1.00  0.00    -0.243 F 
BRANCH  10  14
ATOM     14  C   UNL     1      51.284 123.799  21.229  1.00  0.00     0.123 A 
ATOM     15  N   UNL     1      51.175 122.918  20.197  1.00  0.00    -0.232 NA
ATOM     16  C   UNL     1      52.537 124.376  21.503  1.00  0.00     0.168 A 
ATOM     17  C   UNL     1      52.247 122.589  19.430  1.00  0.00     0.222 A 
ATOM     18  C   UNL     1      53.624 124.022  20.704  1.00  0.00     0.154 A 
ATOM     19  N   UNL     1      53.461 123.139  19.686  1.00  0.00    -0.242 NA
ATOM     20  F   UNL     1      52.713 125.261  22.517  1.00  0.00    -0.203 F 
ENDBRANCH  10  14
ENDBRANCH   1   3
BRANCH   1  21
ATOM     21  C   UNL     1      44.589 123.778  24.236  1.00  0.00     0.028 A 
ATOM     22  C   UNL     1      43.873 122.601  23.942  1.00  0.00     0.025 A 
ATOM     23  C   UNL     1      43.893 125.004  24.285  1.00  0.00    -0.061 A 
ATOM     24  C   UNL     1      42.500 122.649  23.696  1.00  0.00     0.004 A 
ATOM     25  C   UNL     1      42.508 125.048  24.037  1.00  0.00     0.025 A 
ATOM     26  C   UNL     1      41.819 123.865  23.743  1.00  0.00     0.025 A 
ATOM     27  O   UNL     1      44.578 126.181  24.572  1.00  0.00    -0.870 OA
BRANCH  25  28
ATOM     28  N   UNL     1      41.795 126.290  24.083  1.00  0.00    -0.399 N 
ATOM     29  H   UNL     1      41.738 126.853  24.961  1.00  0.00     0.156 HD
ATOM     30  H   UNL     1      41.315 126.659  23.232  1.00  0.00     0.156 HD
ENDBRANCH  25  28
ENDBRANCH   1  21
TORSDOF 4
ENDMDL
MODEL 5
REMARK VINA RESULT:       0.7      2.454      3.559
REMARK SMILES C=C1[C@@H](F)C[C@H](Nc2cccc(N)c2[O-])[C@H]2CC(c3ncncc3F)=N[C@@H]12
REMARK SMILES IDX 7 1 6 3 2 4 3 5 27 6 5 7 26 8 16 9 18 10 17 11 1 12 4 13
REMARK SMILES IDX 19 14 20 15 24 16 21 17 23 18 22 19 25 20 8 21 9 22 14 23
REMARK SMILES IDX 10 24 12 25 11 26 15 27 13 28
REMARK H PARENT 7 2 13 29 13 30
ROOT
ATOM      1  N   UNL     1      45.629 127.338  23.313  1.00  0.00    -0.382 N 
ATOM      2  H   UNL     1      45.784 128.129  23.978  1.00  0.00     0.160 HD
ENDROOT
BRANCH   1   3
ATOM      3  C   UNL     1      45.020 127.649  22.008  1.00  0.00     0.088 C 
ATOM      4  C   UNL     1      44.169 130.237  22.964  1.00  0.00    -0.019 C 
ATOM      5  C   UNL     1      43.245 129.052  23.153  1.00  0.00     0.196 C 
ATOM      6  C   UNL     1      45.294 130.251  21.940  1.00  0.00     0.139 C 
ATOM      7  C   UNL     1      43.515 127.918  22.164  1.00  0.00     0.067 C 
ATOM      8  N   UNL     1      44.883 131.037  20.791  1.00  0.00    -0.279 NA
ATOM      9  C   UNL     1      45.717 128.872  21.363  1.00  0.00     0.046 C 
ATOM     10  C   UNL     1      44.964 130.378  19.687  1.00  0.00     0.065 C 
ATOM     11  C   UNL     1      45.453 128.986  19.850  1.00  0.00     0.066 C 
ATOM     12  C   UNL     1      43.987 131.322  23.733  1.00  0.00     0.013 C 
ATOM     13  F   UNL     1      41.929 129.461  23.015  1.00  0.00    -0.243 F 
BRANCH  10  14
ATOM     14  C   UNL     1      44.593 130.960  18.379  1.00  0.00     0.123 A 
ATOM     15  N   UNL     1      45.503 130.935  17.366  1.00  0.00    -0.232 NA
ATOM     16  C   UNL     1      43.331 131.536  18.146  1.00  0.00     0.168 A 
ATOM     17  C   UNL     1      45.217 131.452  16.143  1.00  0.00     0.222 A 
ATOM     18  C   UNL     1      43.060 132.062  16.883  1.00  0.00     0.154 A 
ATOM     19  N   UNL     1      44.003 132.011  15.908  1.00  0.00    -0.242 NA
ATOM     20  F   UNL     1      42.379 131.592  19.112  1.00  0.00    -0.203 F 
ENDBRANCH  10  14
ENDBRANCH   1   3
BRANCH   1  21
ATOM     21  C   UNL     1      45.961 126.007  23.763  1.00  0.00     0.028 A 
ATOM     22  C   UNL     1      44.967 125.107  24.199  1.00  0.00     0.025 A 
ATOM     23  C   UNL     1      47.306 125.582  23.753  1.00  0.00    -0.061 A 
ATOM     24  C   UNL     1      45.311 123.823  24.623  1.00  0.00     0.004 A 
ATOM     25  C   UNL     1      47.648 124.285  24.180  1.00  0.00     0.025 A 
ATOM     26  C   UNL     1      46.643 123.412  24.615  1.00  0.00     0.025 A 
ATOM     27  O   UNL     1      48.306 126.453  23.327  1.00  0.00    -0.870 OA
BRANCH  25  28
ATOM     28  N   UNL     1      49.012 123.849  24.176  1.00  0.00    -0.399 N 
ATOM     29  H   UNL     1      49.608 123.918  25.031  1.00  0.00     0.156 HD
ATOM     30  H   UNL     1      49.440 123.450  23.311  1.00  0.00     0.156 HD
ENDBRANCH  25  28
ENDBRANCH   1  21
TORSDOF 4
ENDMDL
MODEL 6
REMARK VINA RESULT:       0.7      4.812      7.694
REMARK SMILES C=C1[C@@H](F)C[C@H](Nc2cccc(N)c2[O-])[C@H]2CC(c3ncncc3F)=N[C@@H]12
REMARK SMILES IDX 7 1 6 3 2 4 3 5 27 6 5 7 26 8 16 9 18 10 17 11 1 12 4 13
REMARK SMILES IDX 19 14 20 15 24 16 21 17 23 18 22 19 25 20 8 21 9 22 14 23
REMARK SMILES IDX 10 24 12 25 11 26 15 27 13 28
REMARK H PARENT 7 2 13 29 13 30
ROOT
ATOM      1  N   UNL     1      46.666 133.612  20.961  1.00  0.00    -0.382 N 
ATOM      2  H   UNL     1      46.667 133.802  19.933  1.00  0.00     0.160 HD
ENDROOT
BRANCH   1   3
ATOM      3  C   UNL     1      45.469 132.974  21.537  1.00  0.00     0.088 C 
ATOM      4  C   UNL     1      45.528 130.915  19.515  1.00  0.00    -0.019 C 
ATOM      5  C   UNL     1      44.759 132.189  19.233  1.00  0.00     0.196 C 
ATOM      6  C   UNL     1      45.896 130.467  20.921  1.00  0.00     0.139 C 
ATOM      7  C   UNL     1      44.332 132.925  20.504  1.00  0.00     0.067 C 
ATOM      8  N   UNL     1      44.993 129.410  21.335  1.00  0.00    -0.279 NA
ATOM      9  C   UNL     1      45.802 131.546  22.035  1.00  0.00     0.046 C 
ATOM     10  C   UNL     1      44.390 129.679  22.442  1.00  0.00     0.065 C 
ATOM     11  C   UNL     1      44.758 130.995  23.024  1.00  0.00     0.066 C 
ATOM     12  C   UNL     1      45.902 130.148  18.477  1.00  0.00     0.013 C 
ATOM     13  F   UNL     1      43.630 131.896  18.487  1.00  0.00    -0.243 F 
BRANCH  10  14
ATOM     14  C   UNL     1      43.413 128.761  23.066  1.00  0.00     0.123 A 
ATOM     15  N   UNL     1      42.181 129.237  23.396  1.00  0.00    -0.232 NA
ATOM     16  C   UNL     1      43.715 127.413  23.328  1.00  0.00     0.168 A 
ATOM     17  C   UNL     1      41.244 128.439  23.970  1.00  0.00     0.222 A 
ATOM     18  C   UNL     1      42.737 126.612  23.919  1.00  0.00     0.154 A 
ATOM     19  N   UNL     1      41.524 127.137  24.227  1.00  0.00    -0.242 NA
ATOM     20  F   UNL     1      44.924 126.875  23.023  1.00  0.00    -0.203 F 
ENDBRANCH  10  14
ENDBRANCH   1   3
BRANCH   1  21
ATOM     21  C   UNL     1      47.805 134.055  21.729  1.00  0.00     0.028 A 
ATOM     22  C   UNL     1      48.364 133.254  22.745  1.00  0.00     0.025 A 
ATOM     23  C   UNL     1      48.389 135.308  21.451  1.00  0.00    -0.061 A 
ATOM     24  C   UNL     1      49.471 133.700  23.470  1.00  0.00     0.004 A 
ATOM     25  C   UNL     1      49.506 135.753  22.184  1.00  0.00     0.025 A 
ATOM     26  C   UNL     1      50.039 134.942  23.193  1.00  0.00     0.025 A 
ATOM     27  O   UNL     1      47.854 136.118  20.453  1.00  0.00    -0.870 OA
BRANCH  25  28
ATOM     28  N   UNL     1      50.101 137.027  21.910  1.00  0.00    -0.399 N 
ATOM     29  H   UNL     1      50.246 137.360  20.930  1.00  0.00     0.156 HD
ATOM     30  H   UNL     1      50.405 137.651  22.690  1.00  0.00     0.156 HD
ENDBRANCH  25  28
ENDBRANCH   1  21
TORSDOF 4
ENDMDL
MODEL 7
REMARK VINA RESULT:       0.7      5.279      7.956
REMARK SMILES C=C1[C@@H](F)C[C@H](Nc2cccc(N)c2[O-])[C@H]2CC(c3ncncc3F)=N[C@@H]12
REMARK SMILES IDX 7 1 6 3 2 4 3 5 27 6 5 7 26 8 16 9 18 10 17 11 1 12 4 13
REMARK SMILES IDX 19 14 20 15 24 16 21 17 23 18 22 19 25 20 8 21 9 22 14 23
REMARK SMILES IDX 10 24 12 25 11 26 15 27 13 28
REMARK H PARENT 7 2 13 29 13 30
ROOT
ATOM      1  N   UNL     1      43.613 131.550  18.382  1.00  0.00    -0.382 N 
ATOM      2  H   UNL     1      42.632 131.210  18.508  1.00  0.00     0.160 HD
ENDROOT
BRANCH   1   3
ATOM      3  C   UNL     1      44.119 132.550  19.337  1.00  0.00     0.088 C 
ATOM      4  C   UNL     1      44.588 130.501  21.316  1.00  0.00    -0.019 C 
ATOM      5  C   UNL     1      43.232 131.174  21.273  1.00  0.00     0.196 C 
ATOM      6  C   UNL     1      45.834 131.117  20.698  1.00  0.00     0.139 C 
ATOM      7  C   UNL     1      43.268 132.555  20.617  1.00  0.00     0.067 C 
ATOM      8  N   UNL     1      46.653 131.692  21.749  1.00  0.00    -0.279 NA
ATOM      9  C   UNL     1      45.602 132.270  19.682  1.00  0.00     0.046 C 
ATOM     10  C   UNL     1      46.912 132.939  21.549  1.00  0.00     0.065 C 
ATOM     11  C   UNL     1      46.316 133.485  20.303  1.00  0.00     0.066 C 
ATOM     12  C   UNL     1      44.695 129.310  21.927  1.00  0.00     0.013 C 
ATOM     13  F   UNL     1      42.736 131.305  22.560  1.00  0.00    -0.243 F 
BRANCH  10  14
ATOM     14  C   UNL     1      47.722 133.749  22.484  1.00  0.00     0.123 A 
ATOM     15  N   UNL     1      48.911 134.255  22.054  1.00  0.00    -0.232 NA
ATOM     16  C   UNL     1      47.305 134.013  23.800  1.00  0.00     0.168 A 
ATOM     17  C   UNL     1      49.695 135.008  22.868  1.00  0.00     0.222 A 
ATOM     18  C   UNL     1      48.127 134.787  24.618  1.00  0.00     0.154 A 
ATOM     19  N   UNL     1      49.303 135.269  24.140  1.00  0.00    -0.242 NA
ATOM     20  F   UNL     1      46.131 133.539  24.290  1.00  0.00    -0.203 F 
ENDBRANCH  10  14
ENDBRANCH   1   3
BRANCH   1  21
ATOM     21  C   UNL     1      44.354 131.058  17.245  1.00  0.00     0.028 A 
ATOM     22  C   UNL     1      45.536 130.308  17.405  1.00  0.00     0.025 A 
ATOM     23  C   UNL     1      43.883 131.315  15.941  1.00  0.00    -0.061 A 
ATOM     24  C   UNL     1      46.233 129.837  16.291  1.00  0.00     0.004 A 
ATOM     25  C   UNL     1      44.587 130.837  14.820  1.00  0.00     0.025 A 
ATOM     26  C   UNL     1      45.763 130.099  15.005  1.00  0.00     0.025 A 
ATOM     27  O   UNL     1      42.717 132.055  15.757  1.00  0.00    -0.870 OA
BRANCH  25  28
ATOM     28  N   UNL     1      44.116 131.097  13.493  1.00  0.00    -0.399 N 
ATOM     29  H   UNL     1      43.104 131.010  13.248  1.00  0.00     0.156 HD
ATOM     30  H   UNL     1      44.780 131.382  12.739  1.00  0.00     0.156 HD
ENDBRANCH  25  28
ENDBRANCH   1  21
TORSDOF 4
ENDMDL
MODEL 8
REMARK VINA RESULT:       0.8      3.276      5.268
REMARK SMILES C=C1[C@@H](F)C[C@H](Nc2cccc(N)c2[O-])[C@H]2CC(c3ncncc3F)=N[C@@H]12
REMARK SMILES IDX 7 1 6 3 2 4 3 5 27 6 5 7 26 8 16 9 18 10 17 11 1 12 4 13
REMARK SMILES IDX 19 14 20 15 24 16 21 17 23 18 22 19 25 20 8 21 9 22 14 23
REMARK SMILES IDX 10 24 12 25 11 26 15 27 13 28
REMARK H PARENT 7 2 13 29 13 30
ROOT
ATOM      1  N   UNL     1      44.461 128.813  22.873  1.00  0.00    -0.382 N 
ATOM      2  H   UNL     1      44.766 129.611  23.475  1.00  0.00     0.160 HD
ENDROOT
BRANCH   1   3
ATOM      3  C   UNL     1      44.059 129.115  21.488  1.00  0.00     0.088 C 
ATOM      4  C   UNL     1      45.180 131.768  21.685  1.00  0.00    -0.019 C 
ATOM      5  C   UNL     1      43.739 131.555  22.097  1.00  0.00     0.196 C 
ATOM      6  C   UNL     1      45.931 130.800  20.782  1.00  0.00     0.139 C 
ATOM      7  C   UNL     1      43.107 130.321  21.453  1.00  0.00     0.067 C 
ATOM      8  N   UNL     1      46.000 131.355  19.443  1.00  0.00    -0.279 NA
ATOM      9  C   UNL     1      45.304 129.390  20.609  1.00  0.00     0.046 C 
ATOM     10  C   UNL     1      45.519 130.559  18.552  1.00  0.00     0.065 C 
ATOM     11  C   UNL     1      45.012 129.275  19.101  1.00  0.00     0.066 C 
ATOM     12  C   UNL     1      45.823 132.856  22.136  1.00  0.00     0.013 C 
ATOM     13  F   UNL     1      42.988 132.669  21.757  1.00  0.00    -0.243 F 
BRANCH  10  14
ATOM     14  C   UNL     1      45.470 130.901  17.114  1.00  0.00     0.123 A 
ATOM     15  N   UNL     1      46.571 130.673  16.346  1.00  0.00    -0.232 NA
ATOM     16  C   UNL     1      44.323 131.453  16.514  1.00  0.00     0.168 A 
ATOM     17  C   UNL     1      46.582 130.965  15.020  1.00  0.00     0.222 A 
ATOM     18  C   UNL     1      44.359 131.747  15.151  1.00  0.00     0.154 A 
ATOM     19  N   UNL     1      45.482 131.498  14.431  1.00  0.00    -0.242 NA
ATOM     20  F   UNL     1      43.194 131.705  17.223  1.00  0.00    -0.203 F 
ENDBRANCH  10  14
ENDBRANCH   1   3
BRANCH   1  21
ATOM     21  C   UNL     1      44.398 127.502  23.475  1.00  0.00     0.028 A 
ATOM     22  C   UNL     1      43.205 127.009  24.042  1.00  0.00     0.025 A 
ATOM     23  C   UNL     1      45.546 126.683  23.486  1.00  0.00    -0.061 A 
ATOM     24  C   UNL     1      43.165 125.736  24.612  1.00  0.00     0.004 A 
ATOM     25  C   UNL     1      45.501 125.399  24.062  1.00  0.00     0.025 A 
ATOM     26  C   UNL     1      44.306 124.934  24.624  1.00  0.00     0.025 A 
ATOM     27  O   UNL     1      46.737 127.148  22.933  1.00  0.00    -0.870 OA
BRANCH  25  28
ATOM     28  N   UNL     1      46.664 124.564  24.079  1.00  0.00    -0.399 N 
ATOM     29  H   UNL     1      47.304 124.505  23.256  1.00  0.00     0.156 HD
ATOM     30  H   UNL     1      46.896 123.993  24.922  1.00  0.00     0.156 HD
ENDBRANCH  25  28
ENDBRANCH   1  21
TORSDOF 4
ENDMDL
MODEL 9
REMARK VINA RESULT:       0.8      5.125      7.739
REMARK SMILES C=C1[C@@H](F)C[C@H](Nc2cccc(N)c2[O-])[C@H]2CC(c3ncncc3F)=N[C@@H]12
REMARK SMILES IDX 7 1 6 3 2 4 3 5 27 6 5 7 26 8 16 9 18 10 17 11 1 12 4 13
REMARK SMILES IDX 19 14 20 15 24 16 21 17 23 18 22 19 25 20 8 21 9 22 14 23
REMARK SMILES IDX 10 24 12 25 11 26 15 27 13 28
REMARK H PARENT 7 2 13 29 13 30
ROOT
ATOM      1  N   UNL     1      46.743 133.577  20.976  1.00  0.00    -0.382 N 
ATOM      2  H   UNL     1      46.772 133.709  19.939  1.00  0.00     0.160 HD
ENDROOT
BRANCH   1   3
ATOM      3  C   UNL     1      45.522 132.995  21.559  1.00  0.00     0.088 C 
ATOM      4  C   UNL     1      45.521 130.888  19.585  1.00  0.00    -0.019 C 
ATOM      5  C   UNL     1      44.799 132.181  19.269  1.00  0.00     0.196 C 
ATOM      6  C   UNL     1      45.865 130.460  21.004  1.00  0.00     0.139 C 
ATOM      7  C   UNL     1      44.390 132.960  20.519  1.00  0.00     0.067 C 
ATOM      8  N   UNL     1      44.923 129.445  21.437  1.00  0.00    -0.279 NA
ATOM      9  C   UNL     1      45.802 131.568  22.091  1.00  0.00     0.046 C 
ATOM     10  C   UNL     1      44.323 129.761  22.532  1.00  0.00     0.065 C 
ATOM     11  C   UNL     1      44.733 131.077  23.086  1.00  0.00     0.066 C 
ATOM     12  C   UNL     1      45.874 130.084  18.568  1.00  0.00     0.013 C 
ATOM     13  F   UNL     1      43.664 131.910  18.522  1.00  0.00    -0.243 F 
BRANCH  10  14
ATOM     14  C   UNL     1      43.311 128.892  23.171  1.00  0.00     0.123 A 
ATOM     15  N   UNL     1      43.518 127.546  23.189  1.00  0.00    -0.232 NA
ATOM     16  C   UNL     1      42.145 129.410  23.761  1.00  0.00     0.168 A 
ATOM     17  C   UNL     1      42.625 126.700  23.763  1.00  0.00     0.222 A 
ATOM     18  C   UNL     1      41.241 128.522  24.345  1.00  0.00     0.154 A 
ATOM     19  N   UNL     1      41.496 127.189  24.336  1.00  0.00    -0.242 NA
ATOM     20  F   UNL     1      41.879 130.741  23.778  1.00  0.00    -0.203 F 
ENDBRANCH  10  14
ENDBRANCH   1   3
BRANCH   1  21
ATOM     21  C   UNL     1      47.874 134.040  21.744  1.00  0.00     0.028 A 
ATOM     22  C   UNL     1      48.451 133.248  22.757  1.00  0.00     0.025 A 
ATOM     23  C   UNL     1      48.431 135.307  21.471  1.00  0.00    -0.061 A 
ATOM     24  C   UNL     1      49.549 133.714  23.482  1.00  0.00     0.004 A 
ATOM     25  C   UNL     1      49.539 135.773  22.204  1.00  0.00     0.025 A 
ATOM     26  C   UNL     1      50.091 134.969  23.209  1.00  0.00     0.025 A 
ATOM     27  O   UNL     1      47.878 136.109  20.476  1.00  0.00    -0.870 OA
BRANCH  25  28
ATOM     28  N   UNL     1      50.108 137.059  21.934  1.00  0.00    -0.399 N 
ATOM     29  H   UNL     1      51.078 137.299  22.236  1.00  0.00     0.156 HD
ATOM     30  H   UNL     1      49.559 137.787  21.425  1.00  0.00     0.156 HD
ENDBRANCH  25  28
ENDBRANCH   1  21
TORSDOF 4
ENDMDL


