MODEL 1
REMARK VINA RESULT:      -8.8      0.000      0.000
REMARK SMILES C=Cc1cc([S-])cc(-c2ccc3c(c2)CC3)c1
REMARK SMILES IDX 3 1 4 2 5 3 6 4 7 5 8 6 17 7 2 8 1 9 9 10 10 11 14 12 11 13
REMARK SMILES IDX 13 14 12 15 15 16 16 17
REMARK H PARENT
ROOT
ATOM      1  C   UNL     1      44.916 130.407  20.467  1.00  0.00    -0.027 A 
ATOM      2  C   UNL     1      43.747 131.177  20.621  1.00  0.00    -0.013 A 
ATOM      3  C   UNL     1      43.237 131.912  19.546  1.00  0.00    -0.174 A 
ATOM      4  S   UNL     1      41.743 132.897  19.757  1.00  0.00    -0.780 S 
ATOM      5  C   UNL     1      43.881 131.881  18.306  1.00  0.00    -0.012 A 
ATOM      6  C   UNL     1      45.040 131.109  18.126  1.00  0.00    -0.019 A 
ATOM      7  C   UNL     1      45.546 130.372  19.212  1.00  0.00     0.016 A 
ENDROOT
BRANCH   1   8
ATOM      8  C   UNL     1      45.490 129.598  21.571  1.00  0.00     0.000 C 
ATOM      9  C   UNL     1      44.767 129.017  22.529  1.00  0.00     0.009 C 
ENDBRANCH   1   8
BRANCH   6  10
ATOM     10  C   UNL     1      45.721 131.070  16.807  1.00  0.00    -0.018 A 
ATOM     11  C   UNL     1      45.755 132.251  15.982  1.00  0.00     0.009 A 
ATOM     12  C   UNL     1      46.335 129.861  16.366  1.00  0.00     0.012 A 
ATOM     13  C   UNL     1      46.393 132.267  14.718  1.00  0.00     0.004 A 
ATOM     14  C   UNL     1      46.946 129.912  15.131  1.00  0.00    -0.044 A 
ATOM     15  C   UNL     1      46.975 131.080  14.331  1.00  0.00    -0.044 A 
ATOM     16  C   UNL     1      47.717 129.164  14.098  1.00  0.00     0.040 C 
ATOM     17  C   UNL     1      47.744 130.361  13.277  1.00  0.00     0.040 C 
ENDBRANCH   6  10
TORSDOF 2
ENDMDL
MODEL 2
REMARK VINA RESULT:      -8.6      1.889      6.241
REMARK SMILES C=Cc1cc([S-])cc(-c2ccc3c(c2)CC3)c1
REMARK SMILES IDX 3 1 4 2 5 3 6 4 7 5 8 6 17 7 2 8 1 9 9 10 10 11 14 12 11 13
REMARK SMILES IDX 13 14 12 15 15 16 16 17
REMARK H PARENT
ROOT
ATOM      1  C   UNL     1      46.453 130.290  15.060  1.00  0.00    -0.027 A 
ATOM      2  C   UNL     1      45.438 130.786  14.218  1.00  0.00    -0.013 A 
ATOM      3  C   UNL     1      44.273 131.334  14.764  1.00  0.00    -0.174 A 
ATOM      4  S   UNL     1      42.979 131.960  13.677  1.00  0.00    -0.780 S 
ATOM      5  C   UNL     1      44.109 131.400  16.150  1.00  0.00    -0.012 A 
ATOM      6  C   UNL     1      45.115 130.924  17.008  1.00  0.00    -0.019 A 
ATOM      7  C   UNL     1      46.285 130.376  16.452  1.00  0.00     0.016 A 
ENDROOT
BRANCH   1   8
ATOM      8  C   UNL     1      47.715 129.712  14.533  1.00  0.00     0.000 C 
ATOM      9  C   UNL     1      48.215 129.979  13.326  1.00  0.00     0.009 C 
ENDBRANCH   1   8
BRANCH   6  10
ATOM     10  C   UNL     1      44.945 131.001  18.481  1.00  0.00    -0.018 A 
ATOM     11  C   UNL     1      45.958 130.457  19.349  1.00  0.00     0.009 A 
ATOM     12  C   UNL     1      43.778 131.613  19.025  1.00  0.00     0.012 A 
ATOM     13  C   UNL     1      45.845 130.507  20.760  1.00  0.00     0.004 A 
ATOM     14  C   UNL     1      43.701 131.644  20.401  1.00  0.00    -0.044 A 
ATOM     15  C   UNL     1      44.704 131.108  21.244  1.00  0.00    -0.044 A 
ATOM     16  C   UNL     1      42.902 132.062  21.589  1.00  0.00     0.040 C 
ATOM     17  C   UNL     1      43.930 131.510  22.451  1.00  0.00     0.040 C 
ENDBRANCH   6  10
TORSDOF 2
ENDMDL
MODEL 3
REMARK VINA RESULT:      -8.1      1.519      2.577
REMARK SMILES C=Cc1cc([S-])cc(-c2ccc3c(c2)CC3)c1
REMARK SMILES IDX 3 1 4 2 5 3 6 4 7 5 8 6 17 7 2 8 1 9 9 10 10 11 14 12 11 13
REMARK SMILES IDX 13 14 12 15 15 16 16 17
REMARK H PARENT
ROOT
ATOM      1  C   UNL     1      43.078 131.993  19.573  1.00  0.00    -0.027 A 
ATOM      2  C   UNL     1      43.572 131.247  20.662  1.00  0.00    -0.013 A 
ATOM      3  C   UNL     1      44.709 130.448  20.514  1.00  0.00    -0.174 A 
ATOM      4  S   UNL     1      45.328 129.495  21.913  1.00  0.00    -0.780 S 
ATOM      5  C   UNL     1      45.372 130.389  19.285  1.00  0.00    -0.012 A 
ATOM      6  C   UNL     1      44.906 131.135  18.190  1.00  0.00    -0.019 A 
ATOM      7  C   UNL     1      43.761 131.938  18.346  1.00  0.00     0.016 A 
ENDROOT
BRANCH   1   8
ATOM      8  C   UNL     1      41.884 132.868  19.680  1.00  0.00     0.000 C 
ATOM      9  C   UNL     1      41.345 133.262  20.835  1.00  0.00     0.009 C 
ENDBRANCH   1   8
BRANCH   6  10
ATOM     10  C   UNL     1      45.613 131.078  16.885  1.00  0.00    -0.018 A 
ATOM     11  C   UNL     1      45.640 132.239  16.033  1.00  0.00     0.009 A 
ATOM     12  C   UNL     1      46.260 129.872  16.486  1.00  0.00     0.012 A 
ATOM     13  C   UNL     1      46.303 132.238  14.781  1.00  0.00     0.004 A 
ATOM     14  C   UNL     1      46.893 129.905  15.262  1.00  0.00    -0.044 A 
ATOM     15  C   UNL     1      46.915 131.054  14.435  1.00  0.00    -0.044 A 
ATOM     16  C   UNL     1      47.699 129.148  14.263  1.00  0.00     0.040 C 
ATOM     17  C   UNL     1      47.719 130.325  13.414  1.00  0.00     0.040 C 
ENDBRANCH   6  10
TORSDOF 2
ENDMDL
MODEL 4
REMARK VINA RESULT:      -7.5      0.858      1.584
REMARK SMILES C=Cc1cc([S-])cc(-c2ccc3c(c2)CC3)c1
REMARK SMILES IDX 3 1 4 2 5 3 6 4 7 5 8 6 17 7 2 8 1 9 9 10 10 11 14 12 11 13
REMARK SMILES IDX 13 14 12 15 15 16 16 17
REMARK H PARENT
ROOT
ATOM      1  C   UNL     1      44.763 131.054  20.065  1.00  0.00    -0.027 A 
ATOM      2  C   UNL     1      43.506 131.680  19.953  1.00  0.00    -0.013 A 
ATOM      3  C   UNL     1      42.974 131.977  18.695  1.00  0.00    -0.174 A 
ATOM      4  S   UNL     1      41.367 132.784  18.566  1.00  0.00    -0.780 S 
ATOM      5  C   UNL     1      43.682 131.648  17.537  1.00  0.00    -0.012 A 
ATOM      6  C   UNL     1      44.930 131.010  17.624  1.00  0.00    -0.019 A 
ATOM      7  C   UNL     1      45.459 130.713  18.893  1.00  0.00     0.016 A 
ENDROOT
BRANCH   1   8
ATOM      8  C   UNL     1      45.367 130.704  21.375  1.00  0.00     0.000 C 
ATOM      9  C   UNL     1      44.780 129.927  22.287  1.00  0.00     0.009 C 
ENDBRANCH   1   8
BRANCH   6  10
ATOM     10  C   UNL     1      45.680 130.653  16.393  1.00  0.00    -0.018 A 
ATOM     11  C   UNL     1      45.821 129.270  16.015  1.00  0.00     0.009 A 
ATOM     12  C   UNL     1      46.257 131.684  15.595  1.00  0.00     0.012 A 
ATOM     13  C   UNL     1      46.525 128.877  14.850  1.00  0.00     0.004 A 
ATOM     14  C   UNL     1      46.935 131.266  14.469  1.00  0.00    -0.044 A 
ATOM     15  C   UNL     1      47.064 129.904  14.107  1.00  0.00    -0.044 A 
ATOM     16  C   UNL     1      47.715 131.678  13.268  1.00  0.00     0.040 C 
ATOM     17  C   UNL     1      47.850 130.281  12.899  1.00  0.00     0.040 C 
ENDBRANCH   6  10
TORSDOF 2
ENDMDL
MODEL 5
REMARK VINA RESULT:      -7.5      1.005      1.049
REMARK SMILES C=Cc1cc([S-])cc(-c2ccc3c(c2)CC3)c1
REMARK SMILES IDX 3 1 4 2 5 3 6 4 7 5 8 6 17 7 2 8 1 9 9 10 10 11 14 12 11 13
REMARK SMILES IDX 13 14 12 15 15 16 16 17
REMARK H PARENT
ROOT
ATOM      1  C   UNL     1      44.495 130.677  20.981  1.00  0.00    -0.027 A 
ATOM      2  C   UNL     1      43.395 131.520  21.235  1.00  0.00    -0.013 A 
ATOM      3  C   UNL     1      42.789 132.226  20.192  1.00  0.00    -0.174 A 
ATOM      4  S   UNL     1      41.385 133.305  20.532  1.00  0.00    -0.780 S 
ATOM      5  C   UNL     1      43.267 132.097  18.885  1.00  0.00    -0.012 A 
ATOM      6  C   UNL     1      44.354 131.252  18.607  1.00  0.00    -0.019 A 
ATOM      7  C   UNL     1      44.957 130.543  19.661  1.00  0.00     0.016 A 
ENDROOT
BRANCH   1   8
ATOM      8  C   UNL     1      45.165 129.894  22.049  1.00  0.00     0.000 C 
ATOM      9  C   UNL     1      45.082 128.568  22.169  1.00  0.00     0.009 C 
ENDBRANCH   1   8
BRANCH   6  10
ATOM     10  C   UNL     1      44.858 131.109  17.217  1.00  0.00    -0.018 A 
ATOM     11  C   UNL     1      44.102 131.656  16.119  1.00  0.00     0.009 A 
ATOM     12  C   UNL     1      46.088 130.427  16.980  1.00  0.00     0.012 A 
ATOM     13  C   UNL     1      44.539 131.548  14.777  1.00  0.00     0.004 A 
ATOM     14  C   UNL     1      46.483 130.340  15.662  1.00  0.00    -0.044 A 
ATOM     15  C   UNL     1      45.732 130.884  14.593  1.00  0.00    -0.044 A 
ATOM     16  C   UNL     1      47.519 129.850  14.709  1.00  0.00     0.040 C 
ATOM     17  C   UNL     1      46.748 130.407  13.613  1.00  0.00     0.040 C 
ENDBRANCH   6  10
TORSDOF 2
ENDMDL
MODEL 6
REMARK VINA RESULT:      -7.1      1.996      6.123
REMARK SMILES C=Cc1cc([S-])cc(-c2ccc3c(c2)CC3)c1
REMARK SMILES IDX 3 1 4 2 5 3 6 4 7 5 8 6 17 7 2 8 1 9 9 10 10 11 14 12 11 13
REMARK SMILES IDX 13 14 12 15 15 16 16 17
REMARK H PARENT
ROOT
ATOM      1  C   UNL     1      46.241 130.373  15.433  1.00  0.00    -0.027 A 
ATOM      2  C   UNL     1      45.351 130.793  14.425  1.00  0.00    -0.013 A 
ATOM      3  C   UNL     1      44.123 131.369  14.763  1.00  0.00    -0.174 A 
ATOM      4  S   UNL     1      42.990 131.898  13.464  1.00  0.00    -0.780 S 
ATOM      5  C   UNL     1      43.772 131.540  16.104  1.00  0.00    -0.012 A 
ATOM      6  C   UNL     1      44.650 131.141  17.125  1.00  0.00    -0.019 A 
ATOM      7  C   UNL     1      45.885 130.563  16.779  1.00  0.00     0.016 A 
ENDROOT
BRANCH   1   8
ATOM      8  C   UNL     1      47.563 129.768  15.130  1.00  0.00     0.000 C 
ATOM      9  C   UNL     1      48.051 129.614  13.898  1.00  0.00     0.009 C 
ENDBRANCH   1   8
BRANCH   6  10
ATOM     10  C   UNL     1      44.281 131.329  18.552  1.00  0.00    -0.018 A 
ATOM     11  C   UNL     1      43.037 131.972  18.892  1.00  0.00     0.009 A 
ATOM     12  C   UNL     1      45.163 130.872  19.574  1.00  0.00     0.012 A 
ATOM     13  C   UNL     1      42.638 132.174  20.236  1.00  0.00     0.004 A 
ATOM     14  C   UNL     1      44.743 131.084  20.870  1.00  0.00    -0.044 A 
ATOM     15  C   UNL     1      43.517 131.716  21.192  1.00  0.00    -0.044 A 
ATOM     16  C   UNL     1      45.055 130.915  22.317  1.00  0.00     0.040 C 
ATOM     17  C   UNL     1      43.800 131.564  22.646  1.00  0.00     0.040 C 
ENDBRANCH   6  10
TORSDOF 2
ENDMDL
MODEL 7
REMARK VINA RESULT:      -6.8      1.829      2.970
REMARK SMILES C=Cc1cc([S-])cc(-c2ccc3c(c2)CC3)c1
REMARK SMILES IDX 3 1 4 2 5 3 6 4 7 5 8 6 17 7 2 8 1 9 9 10 10 11 14 12 11 13
REMARK SMILES IDX 13 14 12 15 15 16 16 17
REMARK H PARENT
ROOT
ATOM      1  C   UNL     1      43.142 131.975  18.923  1.00  0.00    -0.027 A 
ATOM      2  C   UNL     1      43.924 132.111  20.087  1.00  0.00    -0.013 A 
ATOM      3  C   UNL     1      45.289 131.810  20.060  1.00  0.00    -0.174 A 
ATOM      4  S   UNL     1      46.278 131.983  21.558  1.00  0.00    -0.780 S 
ATOM      5  C   UNL     1      45.891 131.380  18.875  1.00  0.00    -0.012 A 
ATOM      6  C   UNL     1      45.134 131.252  17.699  1.00  0.00    -0.019 A 
ATOM      7  C   UNL     1      43.761 131.557  17.733  1.00  0.00     0.016 A 
ENDROOT
BRANCH   1   8
ATOM      8  C   UNL     1      41.693 132.294  18.893  1.00  0.00     0.000 C 
ATOM      9  C   UNL     1      41.055 132.975  19.847  1.00  0.00     0.009 C 
ENDBRANCH   1   8
BRANCH   6  10
ATOM     10  C   UNL     1      45.775 130.801  16.437  1.00  0.00    -0.018 A 
ATOM     11  C   UNL     1      45.785 129.401  16.098  1.00  0.00     0.009 A 
ATOM     12  C   UNL     1      46.377 131.761  15.571  1.00  0.00     0.012 A 
ATOM     13  C   UNL     1      46.380 128.921  14.905  1.00  0.00     0.004 A 
ATOM     14  C   UNL     1      46.947 131.259  14.421  1.00  0.00    -0.044 A 
ATOM     15  C   UNL     1      46.949 129.881  14.097  1.00  0.00    -0.044 A 
ATOM     16  C   UNL     1      47.679 131.573  13.161  1.00  0.00     0.040 C 
ATOM     17  C   UNL     1      47.682 130.160  12.831  1.00  0.00     0.040 C 
ENDBRANCH   6  10
TORSDOF 2
ENDMDL
MODEL 8
REMARK VINA RESULT:      -6.7      1.293      1.459
REMARK SMILES C=Cc1cc([S-])cc(-c2ccc3c(c2)CC3)c1
REMARK SMILES IDX 3 1 4 2 5 3 6 4 7 5 8 6 17 7 2 8 1 9 9 10 10 11 14 12 11 13
REMARK SMILES IDX 13 14 12 15 15 16 16 17
REMARK H PARENT
ROOT
ATOM      1  C   UNL     1      45.234 131.519  19.818  1.00  0.00    -0.027 A 
ATOM      2  C   UNL     1      43.853 131.792  19.876  1.00  0.00    -0.013 A 
ATOM      3  C   UNL     1      43.087 131.818  18.707  1.00  0.00    -0.174 A 
ATOM      4  S   UNL     1      41.322 132.174  18.795  1.00  0.00    -0.780 S 
ATOM      5  C   UNL     1      43.685 131.566  17.470  1.00  0.00    -0.012 A 
ATOM      6  C   UNL     1      45.057 131.278  17.389  1.00  0.00    -0.019 A 
ATOM      7  C   UNL     1      45.821 131.252  18.569  1.00  0.00     0.016 A 
ENDROOT
BRANCH   1   8
ATOM      8  C   UNL     1      46.090 131.465  21.029  1.00  0.00     0.000 C 
ATOM      9  C   UNL     1      46.593 132.540  21.639  1.00  0.00     0.009 C 
ENDBRANCH   1   8
BRANCH   6  10
ATOM     10  C   UNL     1      45.692 131.002  16.075  1.00  0.00    -0.018 A 
ATOM     11  C   UNL     1      45.153 131.597  14.879  1.00  0.00     0.009 A 
ATOM     12  C   UNL     1      46.831 130.147  16.008  1.00  0.00     0.012 A 
ATOM     13  C   UNL     1      45.723 131.368  13.602  1.00  0.00     0.004 A 
ATOM     14  C   UNL     1      47.359 129.945  14.750  1.00  0.00    -0.044 A 
ATOM     15  C   UNL     1      46.822 130.538  13.583  1.00  0.00    -0.044 A 
ATOM     16  C   UNL     1      48.418 129.274  13.944  1.00  0.00     0.040 C 
ATOM     17  C   UNL     1      47.865 129.881  12.747  1.00  0.00     0.040 C 
ENDBRANCH   6  10
TORSDOF 2
ENDMDL
MODEL 9
REMARK VINA RESULT:      -6.5      0.878      1.734
REMARK SMILES C=Cc1cc([S-])cc(-c2ccc3c(c2)CC3)c1
REMARK SMILES IDX 3 1 4 2 5 3 6 4 7 5 8 6 17 7 2 8 1 9 9 10 10 11 14 12 11 13
REMARK SMILES IDX 13 14 12 15 15 16 16 17
REMARK H PARENT
ROOT
ATOM      1  C   UNL     1      44.388 130.620  21.358  1.00  0.00    -0.027 A 
ATOM      2  C   UNL     1      43.294 131.505  21.421  1.00  0.00    -0.013 A 
ATOM      3  C   UNL     1      42.873 132.191  20.278  1.00  0.00    -0.174 A 
ATOM      4  S   UNL     1      41.475 133.325  20.374  1.00  0.00    -0.780 S 
ATOM      5  C   UNL     1      43.530 131.998  19.061  1.00  0.00    -0.012 A 
ATOM      6  C   UNL     1      44.614 131.110  18.971  1.00  0.00    -0.019 A 
ATOM      7  C   UNL     1      45.032 130.422  20.125  1.00  0.00     0.016 A 
ENDROOT
BRANCH   1   8
ATOM      8  C   UNL     1      44.866 129.856  22.537  1.00  0.00     0.000 C 
ATOM      9  C   UNL     1      44.844 128.525  22.627  1.00  0.00     0.009 C 
ENDBRANCH   1   8
BRANCH   6  10
ATOM     10  C   UNL     1      45.309 130.899  17.675  1.00  0.00    -0.018 A 
ATOM     11  C   UNL     1      45.839 129.600  17.349  1.00  0.00     0.009 A 
ATOM     12  C   UNL     1      45.447 131.987  16.764  1.00  0.00     0.012 A 
ATOM     13  C   UNL     1      46.508 129.346  16.127  1.00  0.00     0.004 A 
ATOM     14  C   UNL     1      46.103 131.704  15.585  1.00  0.00    -0.044 A 
ATOM     15  C   UNL     1      46.617 130.423  15.275  1.00  0.00    -0.044 A 
ATOM     16  C   UNL     1      46.587 132.234  14.279  1.00  0.00     0.040 C 
ATOM     17  C   UNL     1      47.116 130.920  13.963  1.00  0.00     0.040 C 
ENDBRANCH   6  10
TORSDOF 2
ENDMDL


