MODEL 1
REMARK VINA RESULT:      -6.1      0.000      0.000
REMARK SMILES N#C[C@H]1C[C@@H]1C(=O)N(c1ccc2cc[nH]c2c1)c1c2o[nH]cc-2cc(-n2nc3ccccc3n2)c1=O
REMARK SMILES IDX 6 1 7 2 5 3 3 4 4 5 2 6 1 7 8 8 9 9 10 10 17 11 11 12 16 13
REMARK SMILES IDX 12 14 15 15 13 16 14 17 18 19 19 20 35 21 20 22 23 23 25 24
REMARK SMILES IDX 21 25 22 26 24 27 36 28 26 30 27 31 34 32 28 33 33 34 29 35
REMARK SMILES IDX 32 36 30 37 31 38
REMARK H PARENT 15 18 21 29
ROOT
ATOM      1  C   UNL     1      45.508 132.229  22.653  1.00  0.00     0.236 C 
ATOM      2  O   UNL     1      44.955 132.760  23.654  1.00  0.00    -0.274 OA
ENDROOT
BRANCH   1   3
ATOM      3  C   UNL     1      46.861 132.723  22.224  1.00  0.00     0.098 C 
ATOM      4  C   UNL     1      47.287 134.026  22.889  1.00  0.00     0.106 C 
ATOM      5  C   UNL     1      46.839 134.029  21.437  1.00  0.00     0.034 C 
BRANCH   4   6
ATOM      6  C   UNL     1      48.739 134.145  23.075  1.00  0.00     0.066 C 
ATOM      7  N   UNL     1      49.882 134.242  23.220  1.00  0.00    -0.198 NA
ENDBRANCH   4   6
ENDBRANCH   1   3
BRANCH   1   8
ATOM      8  N   UNL     1      44.831 131.187  21.922  1.00  0.00    -0.273 N 
BRANCH   8   9
ATOM      9  C   UNL     1      44.623 129.888  22.520  1.00  0.00     0.051 A 
ATOM     10  C   UNL     1      43.708 129.734  23.596  1.00  0.00     0.027 A 
ATOM     11  C   UNL     1      45.301 128.752  22.016  1.00  0.00     0.053 A 
ATOM     12  C   UNL     1      43.472 128.471  24.166  1.00  0.00     0.012 A 
ATOM     13  C   UNL     1      45.047 127.517  22.609  1.00  0.00     0.047 A 
ATOM     14  C   UNL     1      44.164 127.382  23.643  1.00  0.00    -0.000 A 
ATOM     15  N   UNL     1      45.578 126.328  22.275  1.00  0.00    -0.361 N 
ATOM     16  C   UNL     1      44.128 126.047  23.984  1.00  0.00     0.028 A 
ATOM     17  C   UNL     1      45.019 125.426  23.113  1.00  0.00     0.083 A 
ATOM     18  H   UNL     1      46.272 126.137  21.521  1.00  0.00     0.166 HD
ENDBRANCH   8   9
BRANCH   8  19
ATOM     19  C   UNL     1      44.364 131.439  20.580  1.00  0.00     0.145 A 
ATOM     20  C   UNL     1      43.125 132.024  20.354  1.00  0.00     0.192 A 
ATOM     21  C   UNL     1      45.153 131.124  19.442  1.00  0.00     0.234 A 
ATOM     22  O   UNL     1      42.204 132.403  21.205  1.00  0.00    -0.380 OA
ATOM     23  C   UNL     1      42.663 132.303  19.038  1.00  0.00     0.044 A 
ATOM     24  C   UNL     1      44.683 131.391  18.112  1.00  0.00     0.136 A 
ATOM     25  N   UNL     1      41.187 132.907  20.557  1.00  0.00    -0.229 N 
ATOM     26  C   UNL     1      41.422 132.867  19.224  1.00  0.00     0.132 A 
ATOM     27  C   UNL     1      43.415 131.996  17.919  1.00  0.00     0.048 A 
ATOM     28  O   UNL     1      46.294 130.617  19.619  1.00  0.00    -0.285 OA
ATOM     29  H   UNL     1      40.325 133.278  21.014  1.00  0.00     0.208 HD
BRANCH  24  30
ATOM     30  N   UNL     1      45.480 131.057  16.953  1.00  0.00    -0.146 N 
ATOM     31  N   UNL     1      45.779 131.932  15.993  1.00  0.00    -0.148 NA
ATOM     32  N   UNL     1      45.984 129.845  16.714  1.00  0.00    -0.148 NA
ATOM     33  C   UNL     1      46.508 131.241  15.106  1.00  0.00     0.113 A 
ATOM     34  C   UNL     1      46.633 129.962  15.547  1.00  0.00     0.113 A 
ATOM     35  C   UNL     1      47.077 131.674  13.912  1.00  0.00     0.032 A 
ATOM     36  C   UNL     1      47.338 128.995  14.836  1.00  0.00     0.032 A 
ATOM     37  C   UNL     1      47.798 130.725  13.159  1.00  0.00     0.002 A 
ATOM     38  C   UNL     1      47.927 129.391  13.618  1.00  0.00     0.002 A 
ENDBRANCH  24  30
ENDBRANCH   8  19
ENDBRANCH   1   8
TORSDOF 6
ENDMDL
MODEL 2
REMARK VINA RESULT:      -3.8      0.952      1.040
REMARK SMILES N#C[C@H]1C[C@@H]1C(=O)N(c1ccc2cc[nH]c2c1)c1c2o[nH]cc-2cc(-n2nc3ccccc3n2)c1=O
REMARK SMILES IDX 6 1 7 2 5 3 3 4 4 5 2 6 1 7 8 8 9 9 10 10 17 11 11 12 16 13
REMARK SMILES IDX 12 14 15 15 13 16 14 17 18 19 19 20 35 21 20 22 23 23 25 24
REMARK SMILES IDX 21 25 22 26 24 27 36 28 26 30 27 31 34 32 28 33 33 34 29 35
REMARK SMILES IDX 32 36 30 37 31 38
REMARK H PARENT 15 18 21 29
ROOT
ATOM      1  C   UNL     1      45.283 131.964  23.327  1.00  0.00     0.236 C 
ATOM      2  O   UNL     1      45.554 131.709  24.532  1.00  0.00    -0.274 OA
ENDROOT
BRANCH   1   3
ATOM      3  C   UNL     1      45.826 133.224  22.713  1.00  0.00     0.098 C 
ATOM      4  C   UNL     1      47.151 133.686  23.306  1.00  0.00     0.106 C 
ATOM      5  C   UNL     1      45.868 134.421  23.656  1.00  0.00     0.034 C 
BRANCH   4   6
ATOM      6  C   UNL     1      48.012 134.390  22.349  1.00  0.00     0.066 C 
ATOM      7  N   UNL     1      48.690 134.948  21.595  1.00  0.00    -0.198 NA
ENDBRANCH   4   6
ENDBRANCH   1   3
BRANCH   1   8
ATOM      8  N   UNL     1      44.441 131.071  22.570  1.00  0.00    -0.273 N 
BRANCH   8   9
ATOM      9  C   UNL     1      44.060 129.787  23.113  1.00  0.00     0.051 A 
ATOM     10  C   UNL     1      43.008 129.696  24.064  1.00  0.00     0.027 A 
ATOM     11  C   UNL     1      44.706 128.606  22.676  1.00  0.00     0.053 A 
ATOM     12  C   UNL     1      42.605 128.450  24.576  1.00  0.00     0.012 A 
ATOM     13  C   UNL     1      44.285 127.390  23.208  1.00  0.00     0.047 A 
ATOM     14  C   UNL     1      43.271 127.315  24.122  1.00  0.00    -0.000 A 
ATOM     15  N   UNL     1      44.759 126.166  22.921  1.00  0.00    -0.361 N 
ATOM     16  C   UNL     1      43.090 125.984  24.431  1.00  0.00     0.028 A 
ATOM     17  C   UNL     1      44.031 125.303  23.665  1.00  0.00     0.083 A 
ATOM     18  H   UNL     1      45.526 125.927  22.255  1.00  0.00     0.166 HD
ENDBRANCH   8   9
BRANCH   8  19
ATOM     19  C   UNL     1      43.982 131.457  21.259  1.00  0.00     0.145 A 
ATOM     20  C   UNL     1      42.795 132.158  21.096  1.00  0.00     0.192 A 
ATOM     21  C   UNL     1      44.729 131.161  20.088  1.00  0.00     0.234 A 
ATOM     22  O   UNL     1      41.919 132.550  21.987  1.00  0.00    -0.380 OA
ATOM     23  C   UNL     1      42.342 132.569  19.811  1.00  0.00     0.044 A 
ATOM     24  C   UNL     1      44.269 131.562  18.788  1.00  0.00     0.136 A 
ATOM     25  N   UNL     1      40.940 133.183  21.395  1.00  0.00    -0.229 N 
ATOM     26  C   UNL     1      41.156 133.219  20.058  1.00  0.00     0.132 A 
ATOM     27  C   UNL     1      43.054 132.283  18.661  1.00  0.00     0.048 A 
ATOM     28  O   UNL     1      45.825 130.549  20.208  1.00  0.00    -0.285 OA
ATOM     29  H   UNL     1      40.117 133.590  21.892  1.00  0.00     0.208 HD
BRANCH  24  30
ATOM     30  N   UNL     1      45.021 131.247  17.595  1.00  0.00    -0.146 N 
ATOM     31  N   UNL     1      45.283 132.138  16.638  1.00  0.00    -0.148 NA
ATOM     32  N   UNL     1      45.516 130.040  17.317  1.00  0.00    -0.148 NA
ATOM     33  C   UNL     1      45.979 131.462  15.713  1.00  0.00     0.113 A 
ATOM     34  C   UNL     1      46.121 130.176  16.129  1.00  0.00     0.113 A 
ATOM     35  C   UNL     1      46.501 131.915  14.505  1.00  0.00     0.032 A 
ATOM     36  C   UNL     1      46.799 129.222  15.376  1.00  0.00     0.032 A 
ATOM     37  C   UNL     1      47.195 130.979  13.711  1.00  0.00     0.002 A 
ATOM     38  C   UNL     1      47.341 129.638  14.144  1.00  0.00     0.002 A 
ENDBRANCH  24  30
ENDBRANCH   8  19
ENDBRANCH   1   8
TORSDOF 6
ENDMDL
MODEL 3
REMARK VINA RESULT:      -3.7      0.884      1.261
REMARK SMILES N#C[C@H]1C[C@@H]1C(=O)N(c1ccc2cc[nH]c2c1)c1c2o[nH]cc-2cc(-n2nc3ccccc3n2)c1=O
REMARK SMILES IDX 6 1 7 2 5 3 3 4 4 5 2 6 1 7 8 8 9 9 10 10 17 11 11 12 16 13
REMARK SMILES IDX 12 14 15 15 13 16 14 17 18 19 19 20 35 21 20 22 23 23 25 24
REMARK SMILES IDX 21 25 22 26 24 27 36 28 26 30 27 31 34 32 28 33 33 34 29 35
REMARK SMILES IDX 32 36 30 37 31 38
REMARK H PARENT 15 18 21 29
ROOT
ATOM      1  C   UNL     1      45.353 131.794  22.853  1.00  0.00     0.236 C 
ATOM      2  O   UNL     1      45.060 131.822  24.080  1.00  0.00    -0.274 OA
ENDROOT
BRANCH   1   3
ATOM      3  C   UNL     1      46.373 132.764  22.329  1.00  0.00     0.098 C 
ATOM      4  C   UNL     1      46.987 133.662  23.396  1.00  0.00     0.106 C 
ATOM      5  C   UNL     1      45.964 134.230  22.427  1.00  0.00     0.034 C 
BRANCH   4   6
ATOM      6  C   UNL     1      48.373 134.053  23.112  1.00  0.00     0.066 C 
ATOM      7  N   UNL     1      49.466 134.359  22.887  1.00  0.00    -0.198 NA
ENDBRANCH   4   6
ENDBRANCH   1   3
BRANCH   1   8
ATOM      8  N   UNL     1      44.693 130.861  21.974  1.00  0.00    -0.273 N 
BRANCH   8   9
ATOM      9  C   UNL     1      44.447 129.502  22.399  1.00  0.00     0.051 A 
ATOM     10  C   UNL     1      45.310 128.454  21.981  1.00  0.00     0.027 A 
ATOM     11  C   UNL     1      43.366 129.209  23.264  1.00  0.00     0.053 A 
ATOM     12  C   UNL     1      45.101 127.133  22.413  1.00  0.00     0.012 A 
ATOM     13  C   UNL     1      43.186 127.888  23.668  1.00  0.00     0.047 A 
ATOM     14  C   UNL     1      44.023 126.888  23.259  1.00  0.00    -0.000 A 
ATOM     15  N   UNL     1      42.233 127.408  24.486  1.00  0.00    -0.361 N 
ATOM     16  C   UNL     1      43.587 125.719  23.843  1.00  0.00     0.028 A 
ATOM     17  C   UNL     1      42.475 126.082  24.596  1.00  0.00     0.083 A 
ATOM     18  H   UNL     1      41.469 127.946  24.948  1.00  0.00     0.166 HD
ENDBRANCH   8   9
BRANCH   8  19
ATOM     19  C   UNL     1      44.281 131.285  20.658  1.00  0.00     0.145 A 
ATOM     20  C   UNL     1      43.098 131.987  20.472  1.00  0.00     0.192 A 
ATOM     21  C   UNL     1      45.072 131.025  19.507  1.00  0.00     0.234 A 
ATOM     22  O   UNL     1      42.189 132.351  21.342  1.00  0.00    -0.380 OA
ATOM     23  C   UNL     1      42.692 132.435  19.184  1.00  0.00     0.044 A 
ATOM     24  C   UNL     1      44.658 131.463  18.204  1.00  0.00     0.136 A 
ATOM     25  N   UNL     1      41.230 132.999  20.732  1.00  0.00    -0.229 N 
ATOM     26  C   UNL     1      41.495 133.075  19.406  1.00  0.00     0.132 A 
ATOM     27  C   UNL     1      43.446 132.184  18.053  1.00  0.00     0.048 A 
ATOM     28  O   UNL     1      46.165 130.412  19.650  1.00  0.00    -0.285 OA
ATOM     29  H   UNL     1      40.388 133.389  21.210  1.00  0.00     0.208 HD
BRANCH  24  30
ATOM     30  N   UNL     1      45.455 131.184  17.031  1.00  0.00    -0.146 N 
ATOM     31  N   UNL     1      45.676 132.079  16.067  1.00  0.00    -0.148 NA
ATOM     32  N   UNL     1      46.038 130.011  16.781  1.00  0.00    -0.148 NA
ATOM     33  C   UNL     1      46.435 131.440  15.166  1.00  0.00     0.113 A 
ATOM     34  C   UNL     1      46.656 130.173  15.603  1.00  0.00     0.113 A 
ATOM     35  C   UNL     1      46.951 131.912  13.962  1.00  0.00     0.032 A 
ATOM     36  C   UNL     1      47.414 129.258  14.878  1.00  0.00     0.032 A 
ATOM     37  C   UNL     1      47.723 131.016  13.196  1.00  0.00     0.002 A 
ATOM     38  C   UNL     1      47.952 129.694  13.650  1.00  0.00     0.002 A 
ENDBRANCH  24  30
ENDBRANCH   8  19
ENDBRANCH   1   8
TORSDOF 6
ENDMDL


