REMARK SMILES Cc1c([NH2+]c2c3o[n-]cc-3cc(-n3nc4ccccc4[nH+]3)c2=O)cc(-c2ccc([O-])cc2)c2cc[nH]c12
REMARK SMILES IDX 4 1 3 4 2 5 37 6 24 7 36 8 33 9 25 10 35 11 34 12 1 13 26 15
REMARK SMILES IDX 27 16 32 17 28 18 31 19 29 20 30 21 5 22 6 23 22 24 7 25
REMARK SMILES IDX 10 26 12 27 8 28 9 29 11 30 23 31 13 32 14 33 21 34 15 35
REMARK SMILES IDX 20 36 16 37 19 38 17 39 18 40
REMARK H PARENT 4 2 4 3 36 14 21 41
ROOT
ATOM      1  N   UNL     1      -0.445   1.566   0.413  1.00  0.00    -0.275 N 
ATOM      2  H   UNL     1      -0.142   1.907   1.353  1.00  0.00     0.358 HD
ATOM      3  H   UNL     1      -0.726   2.420  -0.121  1.00  0.00     0.358 HD
ENDROOT
BRANCH   1   4
ATOM      4  C   UNL     1      -1.577   0.677   0.583  1.00  0.00     0.140 A 
ATOM      5  C   UNL     1      -1.561  -0.402   1.521  1.00  0.00     0.034 A 
ATOM      6  C   UNL     1      -2.705  -1.212   1.596  1.00  0.00     0.055 A 
ATOM      7  C   UNL     1      -2.734   0.884  -0.217  1.00  0.00     0.078 A 
ATOM      8  N   UNL     1      -2.891  -2.291   2.382  1.00  0.00    -0.361 N 
ATOM      9  C   UNL     1      -3.808  -0.997   0.809  1.00  0.00     0.008 A 
ATOM     10  C   UNL     1      -3.863   0.049  -0.117  1.00  0.00    -0.003 A 
ATOM     11  C   UNL     1      -4.118  -2.769   2.083  1.00  0.00     0.083 A 
ATOM     12  C   UNL     1      -4.720  -1.993   1.103  1.00  0.00     0.028 A 
ATOM     13  C   UNL     1      -0.393  -0.709   2.424  1.00  0.00     0.053 C 
ATOM     14  H   UNL     1      -2.225  -2.698   3.076  1.00  0.00     0.166 HD
BRANCH  10  15
ATOM     15  C   UNL     1      -5.045   0.277  -0.980  1.00  0.00    -0.018 A 
ATOM     16  C   UNL     1      -6.330   0.382  -0.420  1.00  0.00     0.008 A 
ATOM     17  C   UNL     1      -4.887   0.417  -2.369  1.00  0.00     0.008 A 
ATOM     18  C   UNL     1      -7.440   0.607  -1.240  1.00  0.00    -0.008 A 
ATOM     19  C   UNL     1      -6.000   0.640  -3.186  1.00  0.00    -0.008 A 
ATOM     20  C   UNL     1      -7.276   0.736  -2.623  1.00  0.00    -0.109 A 
ATOM     21  O   UNL     1      -8.380   0.962  -3.435  1.00  0.00    -0.872 OA
ENDBRANCH  10  15
ENDBRANCH   1   4
BRANCH   1  22
ATOM     22  C   UNL     1       0.635   0.930  -0.315  1.00  0.00     0.227 A 
ATOM     23  C   UNL     1       0.422   0.338  -1.562  1.00  0.00     0.179 A 
ATOM     24  C   UNL     1       1.984   0.978   0.144  1.00  0.00     0.274 A 
ATOM     25  O   UNL     1      -0.679   0.211  -2.261  1.00  0.00    -0.553 OA
ATOM     26  C   UNL     1       1.483  -0.246  -2.306  1.00  0.00     0.005 A 
ATOM     27  C   UNL     1       3.052   0.384  -0.608  1.00  0.00     0.182 A 
ATOM     28  N   UNL     1      -0.438  -0.402  -3.391  1.00  0.00    -0.512 NA
ATOM     29  C   UNL     1       0.884  -0.698  -3.456  1.00  0.00    -0.098 A 
ATOM     30  C   UNL     1       2.788  -0.235  -1.853  1.00  0.00     0.049 A 
ATOM     31  O   UNL     1       2.242   1.549   1.237  1.00  0.00    -0.280 OA
BRANCH  27  32
ATOM     32  N   UNL     1       4.406   0.423  -0.115  1.00  0.00    -0.008 N 
ATOM     33  N   UNL     1       4.879   1.383   0.681  1.00  0.00     0.054 NA
ATOM     34  N   UNL     1       5.334  -0.491  -0.397  1.00  0.00    -0.161 N 
ATOM     35  C   UNL     1       6.162   1.052   0.906  1.00  0.00     0.249 A 
ATOM     36  C   UNL     1       6.444  -0.102   0.243  1.00  0.00     0.198 A 
ATOM     37  C   UNL     1       7.111   1.706   1.686  1.00  0.00     0.064 A 
ATOM     38  C   UNL     1       7.693  -0.711   0.300  1.00  0.00     0.058 A 
ATOM     39  C   UNL     1       8.393   1.126   1.768  1.00  0.00     0.005 A 
ATOM     40  C   UNL     1       8.682  -0.078   1.078  1.00  0.00     0.005 A 
ATOM     41  H   UNL     1       5.206  -1.352  -0.973  1.00  0.00     0.340 HD
ENDBRANCH  27  32
ENDBRANCH   1  22
TORSDOF 4


