REMARK SMILES C[C@H]1CC[C@H](C(=O)N(c2cn3ccccc3n2)c2cc3cccc(F)c3[n-]2)S1
REMARK SMILES IDX 6 1 7 2 5 3 2 4 3 5 28 6 4 7 1 8 8 9 9 10 10 11 17 12 11 13
REMARK SMILES IDX 16 14 12 15 15 16 13 17 14 18 18 19 19 20 27 21 20 22 26 23
REMARK SMILES IDX 21 24 24 25 22 26 23 27 25 28
REMARK H PARENT
ROOT
ATOM      1  C   UNL     1       1.106   1.091   1.567  1.00  0.00     0.165 C 
ATOM      2  O   UNL     1       2.196   1.593   1.954  1.00  0.00    -0.297 OA
ENDROOT
BRANCH   1   3
ATOM      3  C   UNL     1      -0.166   1.496   2.275  1.00  0.00     0.115 C 
ATOM      4  C   UNL     1      -2.663   1.690   1.474  1.00  0.00     0.044 C 
ATOM      5  C   UNL     1      -2.108   2.983   2.057  1.00  0.00     0.016 C 
ATOM      6  S   UNL     1      -1.552   0.339   1.973  1.00  0.00    -0.148 SA
ATOM      7  C   UNL     1      -0.600   2.916   1.908  1.00  0.00     0.023 C 
ATOM      8  C   UNL     1      -4.088   1.416   1.948  1.00  0.00     0.019 C 
ENDBRANCH   1   3
BRANCH   1   9
ATOM      9  N   UNL     1       1.117   0.129   0.494  1.00  0.00    -0.370 N 
BRANCH   9  10
ATOM     10  C   UNL     1       0.290   0.332  -0.666  1.00  0.00     0.076 A 
ATOM     11  C   UNL     1      -0.288  -0.671  -1.431  1.00  0.00     0.117 A 
ATOM     12  N   UNL     1      -0.086   1.555  -1.114  1.00  0.00    -0.233 NA
ATOM     13  N   UNL     1      -1.027  -0.059  -2.366  1.00  0.00    -0.307 N 
ATOM     14  C   UNL     1      -0.889   1.261  -2.156  1.00  0.00     0.136 A 
ATOM     15  C   UNL     1      -1.803  -0.586  -3.346  1.00  0.00     0.093 A 
ATOM     16  C   UNL     1      -1.554   2.186  -2.958  1.00  0.00     0.048 A 
ATOM     17  C   UNL     1      -2.495   0.298  -4.188  1.00  0.00     0.018 A 
ATOM     18  C   UNL     1      -2.367   1.687  -3.990  1.00  0.00     0.005 A 
ENDBRANCH   9  10
BRANCH   9  19
ATOM     19  C   UNL     1       2.027  -0.988   0.552  1.00  0.00    -0.049 A 
ATOM     20  C   UNL     1       2.602  -1.486   1.721  1.00  0.00     0.008 A 
ATOM     21  N   UNL     1       2.427  -1.677  -0.546  1.00  0.00    -0.433 NA
ATOM     22  C   UNL     1       3.386  -2.531   1.300  1.00  0.00    -0.020 A 
ATOM     23  C   UNL     1       3.258  -2.618  -0.062  1.00  0.00     0.002 A 
ATOM     24  C   UNL     1       4.194  -3.406   2.023  1.00  0.00     0.008 A 
ATOM     25  C   UNL     1       3.937  -3.591  -0.795  1.00  0.00     0.127 A 
ATOM     26  C   UNL     1       4.891  -4.397   1.308  1.00  0.00     0.004 A 
ATOM     27  C   UNL     1       4.763  -4.490  -0.095  1.00  0.00     0.039 A 
ATOM     28  F   UNL     1       3.805  -3.671  -2.142  1.00  0.00    -0.207 F 
ENDBRANCH   9  19
ENDBRANCH   1   9
TORSDOF 4


