MODEL 1
REMARK VINA RESULT:      -8.0      0.000      0.000
REMARK SMILES NCC[C@H]1CC[C@]([S-])(c2c[nH+]c3cc[nH+]n3c2)CC1
REMARK SMILES IDX 3 1 2 2 1 3 4 6 5 7 19 8 6 9 18 10 7 11 8 12 9 13 10 14
REMARK SMILES IDX 17 15 11 16 16 17 12 18 15 19 13 20 14 21
REMARK H PARENT 1 4 1 5 11 22 15 23
ROOT
ATOM      1  C   UNL     1      46.765 130.981  13.339  1.00  0.00     0.018 C 
ENDROOT
BRANCH   1   2
ATOM      2  C   UNL     1      48.161 130.497  12.923  1.00  0.00     0.078 C 
BRANCH   2   3
ATOM      3  N   UNL     1      48.483 129.248  13.605  1.00  0.00    -0.330 NA
ATOM      4  H   UNL     1      48.922 129.491  14.523  1.00  0.00     0.118 HD
ATOM      5  H   UNL     1      47.588 128.755  13.828  1.00  0.00     0.118 HD
ENDBRANCH   2   3
ENDBRANCH   1   2
BRANCH   1   6
ATOM      6  C   UNL     1      46.558 130.978  14.872  1.00  0.00    -0.010 C 
ATOM      7  C   UNL     1      45.541 129.889  15.257  1.00  0.00     0.002 C 
ATOM      8  C   UNL     1      46.076 132.348  15.387  1.00  0.00     0.002 C 
ATOM      9  C   UNL     1      45.305 129.858  16.775  1.00  0.00    -0.014 C 
ATOM     10  C   UNL     1      45.821 132.326  16.904  1.00  0.00    -0.014 C 
ATOM     11  C   UNL     1      44.822 131.221  17.345  1.00  0.00    -0.119 C 
ATOM     12  S   UNL     1      43.184 131.576  16.690  1.00  0.00    -0.781 S 
BRANCH  11  13
ATOM     13  C   UNL     1      44.711 131.222  18.880  1.00  0.00     0.019 A 
ATOM     14  C   UNL     1      45.739 130.735  19.743  1.00  0.00     0.204 A 
ATOM     15  C   UNL     1      43.529 131.699  19.496  1.00  0.00     0.283 A 
ATOM     16  N   UNL     1      45.587 130.754  21.100  1.00  0.00    -0.242 N 
ATOM     17  N   UNL     1      43.452 131.687  20.847  1.00  0.00     0.007 N 
ATOM     18  C   UNL     1      44.437 131.237  21.624  1.00  0.00     0.346 A 
ATOM     19  N   UNL     1      42.444 132.087  21.602  1.00  0.00    -0.055 N 
ATOM     20  C   UNL     1      44.075 131.341  22.951  1.00  0.00     0.180 A 
ATOM     21  C   UNL     1      42.795 131.888  22.894  1.00  0.00     0.364 A 
ATOM     22  H   UNL     1      46.346 130.398  21.721  1.00  0.00     0.312 HD
ATOM     23  H   UNL     1      41.544 132.483  21.251  1.00  0.00     0.514 HD
ENDBRANCH  11  13
ENDBRANCH   1   6
TORSDOF 4
ENDMDL
MODEL 2
REMARK VINA RESULT:      -7.5      0.923      1.672
REMARK SMILES NCC[C@H]1CC[C@]([S-])(c2c[nH+]c3cc[nH+]n3c2)CC1
REMARK SMILES IDX 3 1 2 2 1 3 4 6 5 7 19 8 6 9 18 10 7 11 8 12 9 13 10 14
REMARK SMILES IDX 17 15 11 16 16 17 12 18 15 19 13 20 14 21
REMARK H PARENT 1 4 1 5 11 22 15 23
ROOT
ATOM      1  C   UNL     1      47.457 130.719  13.178  1.00  0.00     0.018 C 
ENDROOT
BRANCH   1   2
ATOM      2  C   UNL     1      48.559 129.656  13.065  1.00  0.00     0.078 C 
BRANCH   2   3
ATOM      3  N   UNL     1      48.462 128.713  14.175  1.00  0.00    -0.330 NA
ATOM      4  H   UNL     1      48.440 129.267  15.062  1.00  0.00     0.118 HD
ATOM      5  H   UNL     1      47.540 128.224  14.110  1.00  0.00     0.118 HD
ENDBRANCH   2   3
ENDBRANCH   1   2
BRANCH   1   6
ATOM      6  C   UNL     1      46.869 130.829  14.605  1.00  0.00    -0.010 C 
ATOM      7  C   UNL     1      45.710 129.829  14.768  1.00  0.00     0.002 C 
ATOM      8  C   UNL     1      46.374 132.256  14.912  1.00  0.00     0.002 C 
ATOM      9  C   UNL     1      45.096 129.911  16.173  1.00  0.00    -0.014 C 
ATOM     10  C   UNL     1      45.743 132.348  16.311  1.00  0.00    -0.014 C 
ATOM     11  C   UNL     1      44.587 131.335  16.534  1.00  0.00    -0.119 C 
ATOM     12  S   UNL     1      43.199 131.742  15.464  1.00  0.00    -0.781 S 
BRANCH  11  13
ATOM     13  C   UNL     1      44.091 131.443  17.987  1.00  0.00     0.019 A 
ATOM     14  C   UNL     1      42.755 131.803  18.337  1.00  0.00     0.204 A 
ATOM     15  C   UNL     1      44.991 131.203  19.053  1.00  0.00     0.283 A 
ATOM     16  N   UNL     1      42.367 131.889  19.644  1.00  0.00    -0.242 N 
ATOM     17  N   UNL     1      44.534 131.307  20.323  1.00  0.00     0.007 N 
ATOM     18  C   UNL     1      43.275 131.634  20.614  1.00  0.00     0.346 A 
ATOM     19  N   UNL     1      45.210 131.123  21.442  1.00  0.00    -0.055 N 
ATOM     20  C   UNL     1      43.101 131.669  21.982  1.00  0.00     0.180 A 
ATOM     21  C   UNL     1      44.362 131.337  22.475  1.00  0.00     0.364 A 
ATOM     22  H   UNL     1      41.387 132.153  19.887  1.00  0.00     0.312 HD
ATOM     23  H   UNL     1      46.219 130.860  21.505  1.00  0.00     0.514 HD
ENDBRANCH  11  13
ENDBRANCH   1   6
TORSDOF 4
ENDMDL
MODEL 3
REMARK VINA RESULT:      -7.0      2.532      7.324
REMARK SMILES NCC[C@H]1CC[C@]([S-])(c2c[nH+]c3cc[nH+]n3c2)CC1
REMARK SMILES IDX 3 1 2 2 1 3 4 6 5 7 19 8 6 9 18 10 7 11 8 12 9 13 10 14
REMARK SMILES IDX 17 15 11 16 16 17 12 18 15 19 13 20 14 21
REMARK H PARENT 1 4 1 5 11 22 15 23
ROOT
ATOM      1  C   UNL     1      42.777 130.401  24.100  1.00  0.00     0.018 C 
ENDROOT
BRANCH   1   2
ATOM      2  C   UNL     1      41.688 129.398  24.505  1.00  0.00     0.078 C 
BRANCH   2   3
ATOM      3  N   UNL     1      41.736 128.228  23.634  1.00  0.00    -0.330 NA
ATOM      4  H   UNL     1      42.150 128.527  22.722  1.00  0.00     0.118 HD
ATOM      5  H   UNL     1      42.402 127.537  24.048  1.00  0.00     0.118 HD
ENDBRANCH   2   3
ENDBRANCH   1   2
BRANCH   1   6
ATOM      6  C   UNL     1      43.089 130.374  22.585  1.00  0.00    -0.010 C 
ATOM      7  C   UNL     1      44.570 130.016  22.366  1.00  0.00     0.002 C 
ATOM      8  C   UNL     1      42.774 131.724  21.911  1.00  0.00     0.002 C 
ATOM      9  C   UNL     1      44.920 129.983  20.871  1.00  0.00    -0.014 C 
ATOM     10  C   UNL     1      43.135 131.709  20.416  1.00  0.00    -0.014 C 
ATOM     11  C   UNL     1      44.614 131.322  20.143  1.00  0.00    -0.119 C 
ATOM     12  S   UNL     1      45.711 132.595  20.786  1.00  0.00    -0.781 S 
BRANCH  11  13
ATOM     13  C   UNL     1      44.845 131.243  18.623  1.00  0.00     0.019 A 
ATOM     14  C   UNL     1      44.018 131.906  17.667  1.00  0.00     0.204 A 
ATOM     15  C   UNL     1      45.910 130.460  18.117  1.00  0.00     0.283 A 
ATOM     16  N   UNL     1      44.265 131.800  16.328  1.00  0.00    -0.242 N 
ATOM     17  N   UNL     1      46.093 130.403  16.777  1.00  0.00     0.007 N 
ATOM     18  C   UNL     1      45.308 131.045  15.912  1.00  0.00     0.346 A 
ATOM     19  N   UNL     1      47.020 129.734  16.116  1.00  0.00    -0.055 N 
ATOM     20  C   UNL     1      45.727 130.798  14.622  1.00  0.00     0.180 A 
ATOM     21  C   UNL     1      46.824 129.956  14.796  1.00  0.00     0.364 A 
ATOM     22  H   UNL     1      43.654 132.290  15.638  1.00  0.00     0.312 HD
ATOM     23  H   UNL     1      47.766 129.143  16.548  1.00  0.00     0.514 HD
ENDBRANCH  11  13
ENDBRANCH   1   6
TORSDOF 4
ENDMDL
MODEL 4
REMARK VINA RESULT:      -6.4      1.429      2.286
REMARK SMILES NCC[C@H]1CC[C@]([S-])(c2c[nH+]c3cc[nH+]n3c2)CC1
REMARK SMILES IDX 3 1 2 2 1 3 4 6 5 7 19 8 6 9 18 10 7 11 8 12 9 13 10 14
REMARK SMILES IDX 17 15 11 16 16 17 12 18 15 19 13 20 14 21
REMARK H PARENT 1 4 1 5 11 22 15 23
ROOT
ATOM      1  C   UNL     1      46.628 130.625  12.880  1.00  0.00     0.018 C 
ENDROOT
BRANCH   1   2
ATOM      2  C   UNL     1      48.123 130.636  13.226  1.00  0.00     0.078 C 
BRANCH   2   3
ATOM      3  N   UNL     1      48.622 129.269  13.333  1.00  0.00    -0.330 NA
ATOM      4  H   UNL     1      48.129 128.693  12.612  1.00  0.00     0.118 HD
ATOM      5  H   UNL     1      49.634 129.267  13.069  1.00  0.00     0.118 HD
ENDBRANCH   2   3
ENDBRANCH   1   2
BRANCH   1   6
ATOM      6  C   UNL     1      45.732 131.067  14.061  1.00  0.00    -0.010 C 
ATOM      7  C   UNL     1      46.585 131.786  15.120  1.00  0.00     0.002 C 
ATOM      8  C   UNL     1      45.001 129.871  14.703  1.00  0.00     0.002 C 
ATOM      9  C   UNL     1      45.730 132.237  16.314  1.00  0.00    -0.014 C 
ATOM     10  C   UNL     1      44.153 130.307  15.909  1.00  0.00    -0.014 C 
ATOM     11  C   UNL     1      44.966 131.066  16.993  1.00  0.00    -0.119 C 
ATOM     12  S   UNL     1      46.163 129.956  17.752  1.00  0.00    -0.781 S 
BRANCH  11  13
ATOM     13  C   UNL     1      44.012 131.539  18.105  1.00  0.00     0.019 A 
ATOM     14  C   UNL     1      42.803 132.252  17.851  1.00  0.00     0.204 A 
ATOM     15  C   UNL     1      44.338 131.290  19.460  1.00  0.00     0.283 A 
ATOM     16  N   UNL     1      41.993 132.654  18.876  1.00  0.00    -0.242 N 
ATOM     17  N   UNL     1      43.487 131.718  20.420  1.00  0.00     0.007 N 
ATOM     18  C   UNL     1      42.357 132.371  20.148  1.00  0.00     0.346 A 
ATOM     19  N   UNL     1      43.612 131.583  21.728  1.00  0.00    -0.055 N 
ATOM     20  C   UNL     1      41.700 132.686  21.318  1.00  0.00     0.180 A 
ATOM     21  C   UNL     1      42.534 132.164  22.306  1.00  0.00     0.364 A 
ATOM     22  H   UNL     1      41.110 133.174  18.678  1.00  0.00     0.312 HD
ATOM     23  H   UNL     1      44.405 131.111  22.217  1.00  0.00     0.514 HD
ENDBRANCH  11  13
ENDBRANCH   1   6
TORSDOF 4
ENDMDL
MODEL 5
REMARK VINA RESULT:      -6.4      1.544      2.234
REMARK SMILES NCC[C@H]1CC[C@]([S-])(c2c[nH+]c3cc[nH+]n3c2)CC1
REMARK SMILES IDX 3 1 2 2 1 3 4 6 5 7 19 8 6 9 18 10 7 11 8 12 9 13 10 14
REMARK SMILES IDX 17 15 11 16 16 17 12 18 15 19 13 20 14 21
REMARK H PARENT 1 4 1 5 11 22 15 23
ROOT
ATOM      1  C   UNL     1      48.021 129.557  13.840  1.00  0.00     0.018 C 
ENDROOT
BRANCH   1   2
ATOM      2  C   UNL     1      48.282 130.685  12.832  1.00  0.00     0.078 C 
BRANCH   2   3
ATOM      3  N   UNL     1      47.020 131.159  12.273  1.00  0.00    -0.330 NA
ATOM      4  H   UNL     1      46.836 132.111  12.665  1.00  0.00     0.118 HD
ATOM      5  H   UNL     1      47.143 131.283  11.242  1.00  0.00     0.118 HD
ENDBRANCH   2   3
ENDBRANCH   1   2
BRANCH   1   6
ATOM      6  C   UNL     1      47.129 130.000  15.023  1.00  0.00    -0.010 C 
ATOM      7  C   UNL     1      45.819 129.193  15.017  1.00  0.00     0.002 C 
ATOM      8  C   UNL     1      46.813 131.508  14.969  1.00  0.00     0.002 C 
ATOM      9  C   UNL     1      44.902 129.608  16.177  1.00  0.00    -0.014 C 
ATOM     10  C   UNL     1      45.883 131.934  16.118  1.00  0.00    -0.014 C 
ATOM     11  C   UNL     1      44.558 131.124  16.171  1.00  0.00    -0.119 C 
ATOM     12  S   UNL     1      43.559 131.485  14.719  1.00  0.00    -0.781 S 
BRANCH  11  13
ATOM     13  C   UNL     1      43.747 131.559  17.404  1.00  0.00     0.019 A 
ATOM     14  C   UNL     1      42.456 132.162  17.323  1.00  0.00     0.204 A 
ATOM     15  C   UNL     1      44.295 131.388  18.698  1.00  0.00     0.283 A 
ATOM     16  N   UNL     1      41.780 132.534  18.450  1.00  0.00    -0.242 N 
ATOM     17  N   UNL     1      43.566 131.781  19.768  1.00  0.00     0.007 N 
ATOM     18  C   UNL     1      42.356 132.330  19.657  1.00  0.00     0.346 A 
ATOM     19  N   UNL     1      43.899 131.707  21.044  1.00  0.00    -0.055 N 
ATOM     20  C   UNL     1      41.859 132.633  20.907  1.00  0.00     0.180 A 
ATOM     21  C   UNL     1      42.876 132.219  21.767  1.00  0.00     0.364 A 
ATOM     22  H   UNL     1      40.835 132.972  18.378  1.00  0.00     0.312 HD
ATOM     23  H   UNL     1      44.795 131.319  21.415  1.00  0.00     0.514 HD
ENDBRANCH  11  13
ENDBRANCH   1   6
TORSDOF 4
ENDMDL
MODEL 6
REMARK VINA RESULT:      -6.1      1.874      7.158
REMARK SMILES NCC[C@H]1CC[C@]([S-])(c2c[nH+]c3cc[nH+]n3c2)CC1
REMARK SMILES IDX 3 1 2 2 1 3 4 6 5 7 19 8 6 9 18 10 7 11 8 12 9 13 10 14
REMARK SMILES IDX 17 15 11 16 16 17 12 18 15 19 13 20 14 21
REMARK H PARENT 1 4 1 5 11 22 15 23
ROOT
ATOM      1  C   UNL     1      44.462 131.413  22.790  1.00  0.00     0.018 C 
ENDROOT
BRANCH   1   2
ATOM      2  C   UNL     1      43.704 130.112  23.086  1.00  0.00     0.078 C 
BRANCH   2   3
ATOM      3  N   UNL     1      44.343 129.399  24.187  1.00  0.00    -0.330 NA
ATOM      4  H   UNL     1      44.921 128.631  23.775  1.00  0.00     0.118 HD
ATOM      5  H   UNL     1      45.011 130.051  24.657  1.00  0.00     0.118 HD
ENDBRANCH   2   3
ENDBRANCH   1   2
BRANCH   1   6
ATOM      6  C   UNL     1      45.078 131.443  21.372  1.00  0.00    -0.010 C 
ATOM      7  C   UNL     1      44.499 132.628  20.579  1.00  0.00     0.002 C 
ATOM      8  C   UNL     1      44.822 130.130  20.608  1.00  0.00     0.002 C 
ATOM      9  C   UNL     1      45.085 132.690  19.160  1.00  0.00    -0.014 C 
ATOM     10  C   UNL     1      45.390 130.184  19.180  1.00  0.00    -0.014 C 
ATOM     11  C   UNL     1      44.857 131.383  18.349  1.00  0.00    -0.119 C 
ATOM     12  S   UNL     1      43.094 131.187  18.049  1.00  0.00    -0.781 S 
BRANCH  11  13
ATOM     13  C   UNL     1      45.556 131.400  16.978  1.00  0.00     0.019 A 
ATOM     14  C   UNL     1      45.590 132.546  16.128  1.00  0.00     0.204 A 
ATOM     15  C   UNL     1      46.184 130.226  16.498  1.00  0.00     0.283 A 
ATOM     16  N   UNL     1      46.220 132.507  14.916  1.00  0.00    -0.242 N 
ATOM     17  N   UNL     1      46.789 130.263  15.288  1.00  0.00     0.007 N 
ATOM     18  C   UNL     1      46.813 131.356  14.524  1.00  0.00     0.346 A 
ATOM     19  N   UNL     1      47.423 129.283  14.671  1.00  0.00    -0.055 N 
ATOM     20  C   UNL     1      47.490 131.096  13.351  1.00  0.00     0.180 A 
ATOM     21  C   UNL     1      47.865 129.760  13.484  1.00  0.00     0.364 A 
ATOM     22  H   UNL     1      46.240 133.352  14.304  1.00  0.00     0.312 HD
ATOM     23  H   UNL     1      47.554 128.316  15.044  1.00  0.00     0.514 HD
ENDBRANCH  11  13
ENDBRANCH   1   6
TORSDOF 4
ENDMDL
MODEL 7
REMARK VINA RESULT:      -5.6      1.767      7.160
REMARK SMILES NCC[C@H]1CC[C@]([S-])(c2c[nH+]c3cc[nH+]n3c2)CC1
REMARK SMILES IDX 3 1 2 2 1 3 4 6 5 7 19 8 6 9 18 10 7 11 8 12 9 13 10 14
REMARK SMILES IDX 17 15 11 16 16 17 12 18 15 19 13 20 14 21
REMARK H PARENT 1 4 1 5 11 22 15 23
ROOT
ATOM      1  C   UNL     1      42.232 132.511  21.539  1.00  0.00     0.018 C 
ENDROOT
BRANCH   1   2
ATOM      2  C   UNL     1      43.041 131.909  22.697  1.00  0.00     0.078 C 
BRANCH   2   3
ATOM      3  N   UNL     1      42.354 130.737  23.231  1.00  0.00    -0.330 NA
ATOM      4  H   UNL     1      41.676 131.068  23.955  1.00  0.00     0.118 HD
ATOM      5  H   UNL     1      41.783 130.313  22.465  1.00  0.00     0.118 HD
ENDBRANCH   2   3
ENDBRANCH   1   2
BRANCH   1   6
ATOM      6  C   UNL     1      42.993 132.482  20.193  1.00  0.00    -0.010 C 
ATOM      7  C   UNL     1      42.566 131.246  19.381  1.00  0.00     0.002 C 
ATOM      8  C   UNL     1      44.520 132.470  20.398  1.00  0.00     0.002 C 
ATOM      9  C   UNL     1      43.305 131.181  18.036  1.00  0.00    -0.014 C 
ATOM     10  C   UNL     1      45.272 132.388  19.059  1.00  0.00    -0.014 C 
ATOM     11  C   UNL     1      44.852 131.172  18.189  1.00  0.00    -0.119 C 
ATOM     12  S   UNL     1      45.346 129.641  18.995  1.00  0.00    -0.781 S 
BRANCH  11  13
ATOM     13  C   UNL     1      45.587 131.236  16.838  1.00  0.00     0.019 A 
ATOM     14  C   UNL     1      45.601 132.394  16.005  1.00  0.00     0.204 A 
ATOM     15  C   UNL     1      46.273 130.093  16.360  1.00  0.00     0.283 A 
ATOM     16  N   UNL     1      46.266 132.397  14.812  1.00  0.00    -0.242 N 
ATOM     17  N   UNL     1      46.910 130.171  15.169  1.00  0.00     0.007 N 
ATOM     18  C   UNL     1      46.913 131.275  14.420  1.00  0.00     0.346 A 
ATOM     19  N   UNL     1      47.598 129.224  14.557  1.00  0.00    -0.055 N 
ATOM     20  C   UNL     1      47.632 131.058  13.264  1.00  0.00     0.180 A 
ATOM     21  C   UNL     1      48.054 129.735  13.390  1.00  0.00     0.364 A 
ATOM     22  H   UNL     1      46.270 133.250  14.212  1.00  0.00     0.312 HD
ATOM     23  H   UNL     1      47.755 128.258  14.921  1.00  0.00     0.514 HD
ENDBRANCH  11  13
ENDBRANCH   1   6
TORSDOF 4
ENDMDL
MODEL 8
REMARK VINA RESULT:      -5.0      1.592      2.579
REMARK SMILES NCC[C@H]1CC[C@]([S-])(c2c[nH+]c3cc[nH+]n3c2)CC1
REMARK SMILES IDX 3 1 2 2 1 3 4 6 5 7 19 8 6 9 18 10 7 11 8 12 9 13 10 14
REMARK SMILES IDX 17 15 11 16 16 17 12 18 15 19 13 20 14 21
REMARK H PARENT 1 4 1 5 11 22 15 23
ROOT
ATOM      1  C   UNL     1      45.500 130.276  14.696  1.00  0.00     0.018 C 
ENDROOT
BRANCH   1   2
ATOM      2  C   UNL     1      46.540 131.383  14.472  1.00  0.00     0.078 C 
BRANCH   2   3
ATOM      3  N   UNL     1      47.253 131.153  13.220  1.00  0.00    -0.330 NA
ATOM      4  H   UNL     1      46.695 131.592  12.451  1.00  0.00     0.118 HD
ATOM      5  H   UNL     1      48.160 131.671  13.259  1.00  0.00     0.118 HD
ENDBRANCH   2   3
ENDBRANCH   1   2
BRANCH   1   6
ATOM      6  C   UNL     1      44.933 130.264  16.136  1.00  0.00    -0.010 C 
ATOM      7  C   UNL     1      44.009 131.477  16.341  1.00  0.00     0.002 C 
ATOM      8  C   UNL     1      46.054 130.277  17.193  1.00  0.00     0.002 C 
ATOM      9  C   UNL     1      43.428 131.502  17.763  1.00  0.00    -0.014 C 
ATOM     10  C   UNL     1      45.487 130.318  18.621  1.00  0.00    -0.014 C 
ATOM     11  C   UNL     1      44.522 131.510  18.867  1.00  0.00    -0.119 C 
ATOM     12  S   UNL     1      45.428 133.062  18.775  1.00  0.00    -0.781 S 
BRANCH  11  13
ATOM     13  C   UNL     1      43.938 131.405  20.288  1.00  0.00     0.019 A 
ATOM     14  C   UNL     1      42.747 132.074  20.699  1.00  0.00     0.204 A 
ATOM     15  C   UNL     1      44.610 130.633  21.265  1.00  0.00     0.283 A 
ATOM     16  N   UNL     1      42.273 131.951  21.975  1.00  0.00    -0.242 N 
ATOM     17  N   UNL     1      44.081 130.557  22.509  1.00  0.00     0.007 N 
ATOM     18  C   UNL     1      42.958 131.186  22.856  1.00  0.00     0.346 A 
ATOM     19  N   UNL     1      44.553 129.895  23.549  1.00  0.00    -0.055 N 
ATOM     20  C   UNL     1      42.667 130.933  24.180  1.00  0.00     0.180 A 
ATOM     21  C   UNL     1      43.710 130.104  24.587  1.00  0.00     0.364 A 
ATOM     22  H   UNL     1      41.400 132.444  22.264  1.00  0.00     0.312 HD
ATOM     23  H   UNL     1      45.423 129.317  23.556  1.00  0.00     0.514 HD
ENDBRANCH  11  13
ENDBRANCH   1   6
TORSDOF 4
ENDMDL


