REMARK SMILES O/C(=C\Cc1c(F)ccc2[nH]c([NH2+]c3cn4ccccc4n3)cc12)c1ccccc1
REMARK SMILES IDX 3 1 2 2 1 3 25 5 26 6 30 7 27 8 29 9 28 10 4 11 5 12 6 13
REMARK SMILES IDX 24 14 8 15 10 16 23 17 9 18 11 19 12 20 7 21 13 23 14 26
REMARK SMILES IDX 22 27 15 28 21 29 16 30 20 31 17 32 19 33 18 34
REMARK H PARENT 1 4 11 22 13 24 13 25
ROOT
ATOM      1  C   UNL     1       1.827   0.756  -1.596  1.00  0.00     0.024 C 
ENDROOT
BRANCH   1   2
ATOM      2  C   UNL     1       1.419   1.788  -2.360  1.00  0.00     0.119 C 
BRANCH   2   3
ATOM      3  O   UNL     1       1.588   1.774  -3.749  1.00  0.00    -0.508 OA
ATOM      4  H   UNL     1       2.041   1.020  -4.250  1.00  0.00     0.293 HD
ENDBRANCH   2   3
BRANCH   2   5
ATOM      5  C   UNL     1       0.791   2.990  -1.752  1.00  0.00     0.016 A 
ATOM      6  C   UNL     1       0.945   4.239  -2.380  1.00  0.00     0.012 A 
ATOM      7  C   UNL     1       0.011   2.911  -0.577  1.00  0.00     0.012 A 
ATOM      8  C   UNL     1       0.362   5.386  -1.832  1.00  0.00     0.001 A 
ATOM      9  C   UNL     1      -0.566   4.064  -0.033  1.00  0.00     0.001 A 
ATOM     10  C   UNL     1      -0.387   5.300  -0.656  1.00  0.00     0.000 A 
ENDBRANCH   2   5
ENDBRANCH   1   2
BRANCH   1  11
ATOM     11  C   UNL     1       2.410  -0.511  -2.165  1.00  0.00     0.070 C 
BRANCH  11  12
ATOM     12  C   UNL     1       2.571  -1.551  -1.085  1.00  0.00     0.001 A 
ATOM     13  C   UNL     1       3.837  -1.865  -0.534  1.00  0.00     0.127 A 
ATOM     14  C   UNL     1       1.454  -2.188  -0.527  1.00  0.00     0.012 A 
ATOM     15  C   UNL     1       3.946  -2.787   0.530  1.00  0.00     0.042 A 
ATOM     16  C   UNL     1       1.566  -3.070   0.520  1.00  0.00     0.051 A 
ATOM     17  C   UNL     1       0.107  -2.041  -0.796  1.00  0.00     0.099 A 
ATOM     18  C   UNL     1       2.802  -3.395   1.073  1.00  0.00     0.030 A 
ATOM     19  N   UNL     1       0.357  -3.484   0.937  1.00  0.00    -0.310 N 
ATOM     20  C   UNL     1      -0.533  -2.858   0.132  1.00  0.00     0.209 A 
ATOM     21  F   UNL     1       4.961  -1.271  -1.008  1.00  0.00    -0.207 F 
ATOM     22  H   UNL     1       0.147  -4.113   1.744  1.00  0.00     0.172 HD
BRANCH  20  23
ATOM     23  N   UNL     1      -1.952  -2.902   0.336  1.00  0.00    -0.249 N 
ATOM     24  H   UNL     1      -2.436  -2.959  -0.590  1.00  0.00     0.361 HD
ATOM     25  H   UNL     1      -2.208  -3.741   0.905  1.00  0.00     0.361 HD
BRANCH  23  26
ATOM     26  C   UNL     1      -2.358  -1.706   1.016  1.00  0.00     0.249 A 
ATOM     27  N   UNL     1      -2.651  -0.547   0.376  1.00  0.00    -0.177 NA
ATOM     28  C   UNL     1      -2.339  -1.523   2.390  1.00  0.00     0.183 A 
ATOM     29  C   UNL     1      -2.829   0.318   1.395  1.00  0.00     0.143 A 
ATOM     30  N   UNL     1      -2.647  -0.238   2.605  1.00  0.00    -0.301 N 
ATOM     31  C   UNL     1      -3.144   1.669   1.270  1.00  0.00     0.048 A 
ATOM     32  C   UNL     1      -2.745   0.451   3.770  1.00  0.00     0.093 A 
ATOM     33  C   UNL     1      -3.263   2.422   2.450  1.00  0.00     0.005 A 
ATOM     34  C   UNL     1      -3.062   1.816   3.706  1.00  0.00     0.018 A 
ENDBRANCH  23  26
ENDBRANCH  20  23
ENDBRANCH  11  12
ENDBRANCH   1  11
TORSDOF 7


