REMARK SMILES CNCCC/N=C(\O)Sc1cccc(-c2ccc3c(c2)CC3)c1
REMARK SMILES IDX 6 1 7 2 8 3 9 5 10 6 11 7 23 8 12 9 14 10 13 11 15 12 16 13
REMARK SMILES IDX 20 14 17 15 19 16 18 17 21 18 22 19 5 20 4 21 3 22 2 23 1 25
REMARK H PARENT 8 4 2 24
ROOT
ATOM      1  N   UNL     1       1.461  -2.029   2.552  1.00  0.00    -0.245 NA
ENDROOT
BRANCH   1   2
ATOM      2  C   UNL     1       1.399  -1.122   3.477  1.00  0.00     0.248 C 
BRANCH   2   3
ATOM      3  O   UNL     1       2.556  -0.624   4.070  1.00  0.00    -0.488 OA
ATOM      4  H   UNL     1       2.506   0.095   4.782  1.00  0.00     0.295 HD
ENDBRANCH   2   3
BRANCH   2   5
ATOM      5  S   UNL     1      -0.202  -0.488   3.967  1.00  0.00    -0.032 SA
BRANCH   5   6
ATOM      6  C   UNL     1      -0.257   0.657   2.588  1.00  0.00     0.017 A 
ATOM      7  C   UNL     1       0.201   1.968   2.744  1.00  0.00     0.015 A 
ATOM      8  C   UNL     1      -0.747   0.231   1.347  1.00  0.00     0.024 A 
ATOM      9  C   UNL     1       0.167   2.853   1.665  1.00  0.00     0.002 A 
ATOM     10  C   UNL     1      -0.777   1.110   0.248  1.00  0.00    -0.017 A 
ATOM     11  C   UNL     1      -0.319   2.430   0.424  1.00  0.00     0.009 A 
BRANCH  10  12
ATOM     12  C   UNL     1      -1.271   0.646  -1.075  1.00  0.00    -0.018 A 
ATOM     13  C   UNL     1      -0.616   1.085  -2.282  1.00  0.00     0.009 A 
ATOM     14  C   UNL     1      -2.380  -0.248  -1.141  1.00  0.00     0.012 A 
ATOM     15  C   UNL     1      -1.029   0.650  -3.565  1.00  0.00     0.004 A 
ATOM     16  C   UNL     1      -2.756  -0.651  -2.405  1.00  0.00    -0.044 A 
ATOM     17  C   UNL     1      -2.100  -0.217  -3.581  1.00  0.00    -0.044 A 
ATOM     18  C   UNL     1      -3.699  -1.475  -3.214  1.00  0.00     0.040 C 
ATOM     19  C   UNL     1      -3.023  -1.032  -4.420  1.00  0.00     0.040 C 
ENDBRANCH  10  12
ENDBRANCH   5   6
ENDBRANCH   2   5
ENDBRANCH   1   2
BRANCH   1  20
ATOM     20  C   UNL     1       2.708  -2.596   2.052  1.00  0.00     0.148 C 
BRANCH  20  21
ATOM     21  C   UNL     1       2.443  -3.380   0.762  1.00  0.00     0.039 C 
BRANCH  21  22
ATOM     22  C   UNL     1       1.970  -2.473  -0.382  1.00  0.00     0.082 C 
BRANCH  22  23
ATOM     23  N   UNL     1       3.047  -1.557  -0.780  1.00  0.00    -0.320 NA
ATOM     24  H   UNL     1       3.729  -2.095  -1.366  1.00  0.00     0.122 HD
ATOM     25  C   UNL     1       2.517  -0.467  -1.600  1.00  0.00     0.101 C 
ENDBRANCH  22  23
ENDBRANCH  21  22
ENDBRANCH  20  21
ENDBRANCH   1  20
TORSDOF 9


