REMARK SMILES O=C([N-][C@H]1CC12CCC2)c1ccc(C(=O)N[C@@H]2C=CCC2)c(F)c1[O-]
REMARK SMILES IDX 10 1 11 2 12 3 13 4 22 5 23 6 24 7 25 8 2 9 1 10 3 11 4 12
REMARK SMILES IDX 5 13 6 14 7 15 9 16 8 17 14 18 16 19 15 20 17 22 18 23 21 24
REMARK SMILES IDX 19 25 20 26
REMARK H PARENT 16 21
ROOT
ATOM      1  C   UNL     1       0.983  -0.249   0.665  1.00  0.00    -0.006 A 
ATOM      2  C   UNL     1       0.465  -0.821  -0.511  1.00  0.00     0.010 A 
ATOM      3  C   UNL     1      -0.823  -0.512  -0.951  1.00  0.00     0.017 A 
ATOM      4  C   UNL     1      -1.635   0.369  -0.222  1.00  0.00     0.074 A 
ATOM      5  C   UNL     1      -1.121   0.960   0.947  1.00  0.00     0.128 A 
ATOM      6  F   UNL     1      -1.851   1.873   1.639  1.00  0.00    -0.207 F 
ATOM      7  C   UNL     1       0.172   0.655   1.390  1.00  0.00    -0.062 A 
ATOM      8  O   UNL     1       0.639   1.263   2.551  1.00  0.00    -0.870 OA
ENDROOT
BRANCH   1   9
ATOM      9  C   UNL     1       2.359  -0.597   1.107  1.00  0.00     0.082 C 
ATOM     10  O   UNL     1       2.861  -0.056   2.130  1.00  0.00    -0.315 OA
BRANCH   9  11
ATOM     11  N   UNL     1       3.132  -1.548   0.367  1.00  0.00    -0.646 NA
BRANCH  11  12
ATOM     12  C   UNL     1       4.498  -1.895   0.730  1.00  0.00    -0.100 C 
ATOM     13  C   UNL     1       5.335  -2.384  -0.459  1.00  0.00    -0.010 C 
ATOM     14  C   UNL     1       5.527  -0.984   0.109  1.00  0.00    -0.044 C 
ATOM     15  C   UNL     1       5.388   0.176  -0.834  1.00  0.00     0.006 C 
ATOM     16  C   UNL     1       6.899  -0.611   0.589  1.00  0.00     0.006 C 
ATOM     17  C   UNL     1       6.798   0.597  -0.368  1.00  0.00     0.001 C 
ENDBRANCH  11  12
ENDBRANCH   9  11
ENDBRANCH   1   9
BRANCH   4  18
ATOM     18  C   UNL     1      -3.001   0.674  -0.707  1.00  0.00     0.254 C 
ATOM     19  N   UNL     1      -4.073   0.921   0.216  1.00  0.00    -0.346 N 
ATOM     20  O   UNL     1      -3.228   0.685  -1.948  1.00  0.00    -0.269 OA
ATOM     21  H   UNL     1      -3.947   0.647   1.217  1.00  0.00     0.164 HD
BRANCH  19  22
ATOM     22  C   UNL     1      -5.409   1.312  -0.242  1.00  0.00     0.105 C 
ATOM     23  C   UNL     1      -6.167   1.960   0.863  1.00  0.00    -0.007 C 
ATOM     24  C   UNL     1      -6.251   0.079  -0.608  1.00  0.00     0.033 C 
ATOM     25  C   UNL     1      -7.255   1.286   1.190  1.00  0.00    -0.029 C 
ATOM     26  C   UNL     1      -7.430   0.059   0.371  1.00  0.00     0.029 C 
ENDBRANCH  19  22
ENDBRANCH   4  18
TORSDOF 5


