REMARK SMILES Cc1ccc(CCC([O-])=C2CCC2)c(C)c1
REMARK SMILES IDX 6 1 5 2 2 3 3 4 16 5 4 6 14 7 1 8 15 9 7 10 8 11 9 12 10 13
REMARK SMILES IDX 11 14 13 15 12 16
REMARK H PARENT
ROOT
ATOM      1  C   UNL     1      -1.443   1.633   0.923  1.00  0.00     0.039 C 
ENDROOT
BRANCH   1   2
ATOM      2  C   UNL     1      -1.654   0.316   0.204  1.00  0.00    -0.045 A 
ATOM      3  C   UNL     1      -1.959  -2.071  -1.270  1.00  0.00    -0.051 A 
ATOM      4  C   UNL     1      -2.046  -0.830  -1.910  1.00  0.00     0.004 A 
ATOM      5  C   UNL     1      -1.752  -2.120   0.115  1.00  0.00     0.007 A 
ATOM      6  C   UNL     1      -1.889   0.349  -1.182  1.00  0.00     0.004 A 
ATOM      7  C   UNL     1      -1.590  -0.940   0.863  1.00  0.00    -0.048 A 
ATOM      8  C   UNL     1      -2.160  -3.338  -2.048  1.00  0.00     0.044 C 
ATOM      9  C   UNL     1      -1.385  -1.048   2.352  1.00  0.00     0.044 C 
ENDBRANCH   1   2
BRANCH   1  10
ATOM     10  C   UNL     1      -0.049   2.218   0.653  1.00  0.00     0.023 C 
BRANCH  10  11
ATOM     11  C   UNL     1       1.029   1.435   1.346  1.00  0.00    -0.133 C 
ATOM     12  O   UNL     1       1.280   1.668   2.692  1.00  0.00    -0.875 OA
BRANCH  11  13
ATOM     13  C   UNL     1       1.730   0.502   0.705  1.00  0.00    -0.082 C 
ATOM     14  C   UNL     1       2.832  -0.480   1.050  1.00  0.00     0.030 C 
ATOM     15  C   UNL     1       1.817  -0.086  -0.692  1.00  0.00     0.030 C 
ATOM     16  C   UNL     1       2.904  -1.046  -0.332  1.00  0.00     0.009 C 
ENDBRANCH  11  13
ENDBRANCH  10  11
ENDBRANCH   1  10
TORSDOF 4


