REMARK SMILES COCC[NH2+]C(=S)n1nc2cc(-c3cnc(F)cc3C)ccc2c1C
REMARK SMILES IDX 5 1 4 4 3 5 2 6 1 7 6 8 7 9 8 10 9 11 24 12 10 13 23 14
REMARK SMILES IDX 11 15 22 16 12 17 21 18 25 19 13 20 14 21 19 22 15 23 18 24
REMARK SMILES IDX 16 25 20 26 17 27
REMARK H PARENT 5 2 5 3
ROOT
ATOM      1  N   UNL     1       3.150  -0.707   3.073  1.00  0.00    -0.285 N 
ATOM      2  H   UNL     1       3.235  -1.200   2.155  1.00  0.00     0.354 HD
ATOM      3  H   UNL     1       3.607  -1.318   3.790  1.00  0.00     0.354 HD
ENDROOT
BRANCH   1   4
ATOM      4  C   UNL     1       3.873   0.578   3.030  1.00  0.00     0.296 C 
BRANCH   4   5
ATOM      5  C   UNL     1       3.417   1.490   1.878  1.00  0.00     0.221 C 
BRANCH   5   6
ATOM      6  O   UNL     1       3.571   0.844   0.627  1.00  0.00    -0.379 OA
ATOM      7  C   UNL     1       4.796   1.207   0.030  1.00  0.00     0.195 C 
ENDBRANCH   5   6
ENDBRANCH   4   5
ENDBRANCH   1   4
BRANCH   1   8
ATOM      8  C   UNL     1       1.761  -0.553   3.436  1.00  0.00     0.294 C 
ATOM      9  S   UNL     1       1.375  -0.089   4.968  1.00  0.00     0.006 S 
BRANCH   8  10
ATOM     10  N   UNL     1       0.733  -0.728   2.438  1.00  0.00    -0.179 N 
ATOM     11  N   UNL     1       0.945  -0.467   1.151  1.00  0.00    -0.162 NA
ATOM     12  C   UNL     1      -0.542  -1.185   2.607  1.00  0.00     0.055 A 
ATOM     13  C   UNL     1      -0.199  -0.733   0.499  1.00  0.00     0.094 A 
ATOM     14  C   UNL     1      -1.153  -1.178   1.369  1.00  0.00     0.024 A 
ATOM     15  C   UNL     1      -0.447  -0.599  -0.863  1.00  0.00     0.039 A 
ATOM     16  C   UNL     1      -2.435  -1.523   0.943  1.00  0.00     0.013 A 
ATOM     17  C   UNL     1      -1.731  -0.947  -1.340  1.00  0.00    -0.014 A 
ATOM     18  C   UNL     1      -2.722  -1.399  -0.429  1.00  0.00     0.009 A 
ATOM     19  C   UNL     1      -1.158  -1.658   3.891  1.00  0.00     0.068 C 
BRANCH  17  20
ATOM     20  C   UNL     1      -2.056  -0.813  -2.778  1.00  0.00     0.003 A 
ATOM     21  C   UNL     1      -3.116   0.024  -3.159  1.00  0.00     0.123 A 
ATOM     22  C   UNL     1      -1.338  -1.504  -3.784  1.00  0.00    -0.037 A 
ATOM     23  N   UNL     1      -3.423   0.193  -4.472  1.00  0.00    -0.228 NA
ATOM     24  C   UNL     1      -1.676  -1.292  -5.130  1.00  0.00     0.064 A 
ATOM     25  C   UNL     1      -2.730  -0.437  -5.454  1.00  0.00     0.213 A 
ATOM     26  C   UNL     1      -0.213  -2.451  -3.456  1.00  0.00     0.045 C 
ATOM     27  F   UNL     1      -3.067  -0.237  -6.751  1.00  0.00    -0.185 F 
ENDBRANCH  17  20
ENDBRANCH   8  10
ENDBRANCH   1   8
TORSDOF 6


