REMARK SMILES CC1=CCC=C[C@H]1C(=O)Oc1cc(F)c(Nc2ccc3cc[nH]c3c2)c(-c2ccc(C(N)=O)cc2)c1O
REMARK SMILES IDX 11 1 12 2 13 3 14 4 15 5 26 6 36 7 10 8 8 9 9 10 7 11 2 12
REMARK SMILES IDX 3 13 4 14 6 15 5 16 1 17 37 18 27 20 28 21 35 22 29 23 34 24
REMARK SMILES IDX 30 25 31 26 32 27 33 28 16 31 17 33 18 34 25 35 19 36 24 37
REMARK SMILES IDX 20 38 23 39 21 40 22 41
REMARK H PARENT 37 19 32 29 32 30 16 32 23 42
ROOT
ATOM      1  C   UNL     1       1.710   0.768  -0.123  1.00  0.00     0.176 A 
ATOM      2  C   UNL     1       2.668  -0.142   0.352  1.00  0.00     0.092 A 
ATOM      3  C   UNL     1       2.309  -1.454   0.658  1.00  0.00     0.151 A 
ATOM      4  F   UNL     1       3.259  -2.314   1.104  1.00  0.00    -0.205 F 
ATOM      5  C   UNL     1       0.995  -1.895   0.467  1.00  0.00     0.087 A 
ATOM      6  C   UNL     1       0.013  -0.986  -0.004  1.00  0.00     0.054 A 
ATOM      7  C   UNL     1       0.383   0.341  -0.308  1.00  0.00     0.168 A 
ENDROOT
BRANCH   1   8
ATOM      8  O   UNL     1       2.051   2.089  -0.455  1.00  0.00    -0.422 OA
BRANCH   8   9
ATOM      9  C   UNL     1       3.071   2.839   0.144  1.00  0.00     0.322 C 
ATOM     10  O   UNL     1       3.566   2.493   1.253  1.00  0.00    -0.251 OA
BRANCH   9  11
ATOM     11  C   UNL     1       3.538   4.100  -0.521  1.00  0.00     0.147 C 
ATOM     12  C   UNL     1       3.332   5.293   0.398  1.00  0.00    -0.059 C 
ATOM     13  C   UNL     1       4.353   5.780   1.131  1.00  0.00    -0.023 C 
ATOM     14  C   UNL     1       5.722   5.149   1.097  1.00  0.00     0.054 C 
ATOM     15  C   UNL     1       4.981   3.951  -0.948  1.00  0.00    -0.012 C 
ATOM     16  C   UNL     1       5.985   4.444  -0.208  1.00  0.00    -0.026 C 
ATOM     17  C   UNL     1       1.965   5.910   0.527  1.00  0.00     0.040 C 
ENDBRANCH   9  11
ENDBRANCH   8   9
ENDBRANCH   1   8
BRANCH   7  18
ATOM     18  O   UNL     1      -0.585   1.236  -0.772  1.00  0.00    -0.504 OA
ATOM     19  H   UNL     1      -0.371   2.200  -0.995  1.00  0.00     0.293 HD
ENDBRANCH   7  18
BRANCH   6  20
ATOM     20  C   UNL     1      -1.403  -1.402  -0.154  1.00  0.00    -0.012 A 
ATOM     21  C   UNL     1      -2.025  -1.349  -1.410  1.00  0.00     0.010 A 
ATOM     22  C   UNL     1      -2.113  -1.914   0.942  1.00  0.00     0.010 A 
ATOM     23  C   UNL     1      -3.328  -1.825  -1.573  1.00  0.00     0.014 A 
ATOM     24  C   UNL     1      -3.418  -2.387   0.781  1.00  0.00     0.014 A 
ATOM     25  C   UNL     1      -4.042  -2.348  -0.479  1.00  0.00     0.039 A 
BRANCH  25  26
ATOM     26  C   UNL     1      -5.417  -2.872  -0.676  1.00  0.00     0.248 C 
ATOM     27  N   UNL     1      -6.332  -3.004   0.415  1.00  0.00    -0.366 N 
ATOM     28  O   UNL     1      -5.799  -3.198  -1.832  1.00  0.00    -0.270 OA
ATOM     29  H   UNL     1      -6.132  -2.597   1.354  1.00  0.00     0.159 HD
ATOM     30  H   UNL     1      -7.270  -3.435   0.257  1.00  0.00     0.159 HD
ENDBRANCH  25  26
ENDBRANCH   6  20
BRANCH   5  31
ATOM     31  N   UNL     1       0.676  -3.266   0.770  1.00  0.00    -0.352 N 
ATOM     32  H   UNL     1       1.000  -3.651   1.687  1.00  0.00     0.167 HD
BRANCH  31  33
ATOM     33  C   UNL     1      -0.024  -4.143  -0.128  1.00  0.00     0.041 A 
ATOM     34  C   UNL     1      -0.769  -5.226   0.400  1.00  0.00     0.027 A 
ATOM     35  C   UNL     1       0.009  -3.933  -1.527  1.00  0.00     0.052 A 
ATOM     36  C   UNL     1      -1.512  -6.070  -0.446  1.00  0.00     0.012 A 
ATOM     37  C   UNL     1      -0.741  -4.783  -2.335  1.00  0.00     0.047 A 
ATOM     38  C   UNL     1      -1.477  -5.811  -1.813  1.00  0.00    -0.001 A 
ATOM     39  N   UNL     1      -0.868  -4.736  -3.671  1.00  0.00    -0.361 N 
ATOM     40  C   UNL     1      -2.100  -6.449  -2.863  1.00  0.00     0.028 A 
ATOM     41  C   UNL     1      -1.699  -5.752  -3.999  1.00  0.00     0.083 A 
ATOM     42  H   UNL     1      -0.423  -4.054  -4.325  1.00  0.00     0.166 HD
ENDBRANCH  31  33
ENDBRANCH   5  31
TORSDOF 8


