REMARK SMILES C=C[C@H]1CN[C@@H](c2c[nH+]c3ocnc3c2)N(/C(S)=N\c2cccc(SC(F)(F)F)c2)C1
REMARK SMILES IDX 19 1 17 2 18 3 16 5 31 6 6 7 3 8 5 9 4 10 7 12 15 13 8 14
REMARK SMILES IDX 14 15 9 16 13 17 10 18 12 19 11 20 2 22 1 23 20 24 21 25
REMARK SMILES IDX 30 26 22 27 24 28 23 29 25 30 26 31 27 32 28 33 29 34
REMARK H PARENT 18 4 5 11 9 21
ROOT
ATOM      1  N   UNL     1       0.770   1.450   0.756  1.00  0.00    -0.225 NA
ENDROOT
BRANCH   1   2
ATOM      2  C   UNL     1       1.402   0.629  -0.034  1.00  0.00     0.162 C 
BRANCH   2   3
ATOM      3  S   UNL     1       3.180   0.498   0.133  1.00  0.00    -0.106 SA
ATOM      4  H   UNL     1       3.084  -0.471   1.146  1.00  0.00     0.111 HD
ENDBRANCH   2   3
BRANCH   2   5
ATOM      5  N   UNL     1       0.730  -0.182  -1.023  1.00  0.00    -0.331 N 
ATOM      6  C   UNL     1       1.044   0.055  -2.437  1.00  0.00     0.129 C 
ATOM      7  C   UNL     1      -0.358  -1.140  -0.702  1.00  0.00     0.189 C 
ATOM      8  C   UNL     1       1.202  -1.276  -3.179  1.00  0.00     0.045 C 
ATOM      9  N   UNL     1      -0.181  -2.390  -1.463  1.00  0.00    -0.293 NA
ATOM     10  C   UNL     1      -0.036  -2.140  -2.902  1.00  0.00     0.092 C 
ATOM     11  H   UNL     1      -1.039  -2.978  -1.333  1.00  0.00     0.125 HD
BRANCH   7  12
ATOM     12  C   UNL     1      -0.406  -1.494   0.770  1.00  0.00     0.055 A 
ATOM     13  C   UNL     1      -1.574  -1.247   1.527  1.00  0.00     0.053 A 
ATOM     14  C   UNL     1       0.699  -2.136   1.396  1.00  0.00     0.317 A 
ATOM     15  C   UNL     1      -1.554  -1.601   2.869  1.00  0.00     0.179 A 
ATOM     16  N   UNL     1       0.656  -2.464   2.723  1.00  0.00    -0.177 N 
ATOM     17  N   UNL     1      -2.517  -1.447   3.793  1.00  0.00    -0.209 NA
ATOM     18  C   UNL     1      -0.468  -2.183   3.426  1.00  0.00     0.399 A 
ATOM     19  C   UNL     1      -1.928  -1.969   4.904  1.00  0.00     0.316 A 
ATOM     20  O   UNL     1      -0.699  -2.413   4.689  1.00  0.00    -0.391 OA
ATOM     21  H   UNL     1       1.471  -2.925   3.184  1.00  0.00     0.457 HD
ENDBRANCH   7  12
BRANCH   8  22
ATOM     22  C   UNL     1       2.472  -1.990  -2.767  1.00  0.00    -0.028 C 
ATOM     23  C   UNL     1       3.677  -1.534  -3.122  1.00  0.00     0.004 C 
ENDBRANCH   8  22
ENDBRANCH   2   5
ENDBRANCH   1   2
BRANCH   1  24
ATOM     24  C   UNL     1      -0.619   1.805   0.715  1.00  0.00     0.067 A 
ATOM     25  C   UNL     1      -1.320   1.931   1.921  1.00  0.00     0.028 A 
ATOM     26  C   UNL     1      -1.259   2.134  -0.492  1.00  0.00     0.043 A 
ATOM     27  C   UNL     1      -2.668   2.300   1.918  1.00  0.00     0.003 A 
ATOM     28  C   UNL     1      -2.609   2.506  -0.496  1.00  0.00     0.018 A 
ATOM     29  C   UNL     1      -3.314   2.581   0.711  1.00  0.00     0.015 A 
BRANCH  28  30
ATOM     30  S   UNL     1      -3.418   2.956  -2.035  1.00  0.00    -0.015 SA
BRANCH  30  31
ATOM     31  C   UNL     1      -3.938   1.260  -2.457  1.00  0.00     0.446 C 
ATOM     32  F   UNL     1      -4.745   1.304  -3.577  1.00  0.00    -0.160 F 
ATOM     33  F   UNL     1      -2.828   0.485  -2.734  1.00  0.00    -0.160 F 
ATOM     34  F   UNL     1      -4.648   0.698  -1.412  1.00  0.00    -0.160 F 
ENDBRANCH  30  31
ENDBRANCH  28  30
ENDBRANCH   1  24
TORSDOF 8


