MODEL 1
REMARK VINA RESULT:      -7.6      0.000      0.000
REMARK SMILES F[C@@]12CC=[NH+][C@@H]1CC[C@@H](c1cnc3oc[nH+]c3c1)[C@H]2Cl
REMARK SMILES IDX 1 1 2 2 3 3 4 4 5 5 6 6 7 7 8 8 9 9 19 10 20 11 10 13 11 14
REMARK SMILES IDX 18 15 12 16 17 17 13 18 16 19 14 20 15 21
REMARK H PARENT 5 12 16 22
ROOT
ATOM      1  F   UNL     1      45.185 131.843  22.974  1.00  0.00    -0.234 F 
ATOM      2  C   UNL     1      44.208 131.378  22.102  1.00  0.00     0.197 C 
ATOM      3  C   UNL     1      43.727 130.029  22.661  1.00  0.00     0.148 C 
ATOM      4  C   UNL     1      42.619 130.459  23.559  1.00  0.00     0.275 C 
ATOM      5  N   UNL     1      42.252 131.666  23.350  1.00  0.00    -0.246 N 
ATOM      6  C   UNL     1      42.960 132.286  22.260  1.00  0.00     0.297 C 
ATOM      7  C   UNL     1      42.019 132.322  21.033  1.00  0.00     0.080 C 
ATOM      8  C   UNL     1      42.772 132.426  19.711  1.00  0.00     0.017 C 
ATOM      9  C   UNL     1      43.742 131.242  19.570  1.00  0.00     0.043 C 
ATOM     10  C   UNL     1      44.819 131.298  20.675  1.00  0.00     0.133 C 
ATOM     11  Cl  UNL     1      45.942 132.678  20.409  1.00  0.00    -0.119 Cl
ATOM     12  H   UNL     1      41.463 132.108  23.846  1.00  0.00     0.445 HD
ENDROOT
BRANCH   9  13
ATOM     13  C   UNL     1      44.358 131.118  18.184  1.00  0.00    -0.018 A 
ATOM     14  C   UNL     1      43.665 131.671  17.068  1.00  0.00     0.119 A 
ATOM     15  C   UNL     1      45.571 130.418  17.953  1.00  0.00     0.091 A 
ATOM     16  N   UNL     1      44.164 131.554  15.799  1.00  0.00    -0.215 NA
ATOM     17  C   UNL     1      46.022 130.338  16.642  1.00  0.00     0.269 A 
ATOM     18  C   UNL     1      45.332 130.892  15.620  1.00  0.00     0.297 A 
ATOM     19  N   UNL     1      47.123 129.749  16.156  1.00  0.00    -0.175 N 
ATOM     20  O   UNL     1      45.960 130.675  14.492  1.00  0.00    -0.384 OA
ATOM     21  C   UNL     1      47.043 129.984  14.821  1.00  0.00     0.522 A 
ATOM     22  H   UNL     1      47.866 129.231  16.675  1.00  0.00     0.457 HD
ENDBRANCH   9  13
TORSDOF 1
ENDMDL
MODEL 2
REMARK VINA RESULT:      -7.0      0.868      1.454
REMARK SMILES F[C@@]12CC=[NH+][C@@H]1CC[C@@H](c1cnc3oc[nH+]c3c1)[C@H]2Cl
REMARK SMILES IDX 1 1 2 2 3 3 4 4 5 5 6 6 7 7 8 8 9 9 19 10 20 11 10 13 11 14
REMARK SMILES IDX 18 15 12 16 17 17 13 18 16 19 14 20 15 21
REMARK H PARENT 5 12 16 22
ROOT
ATOM      1  F   UNL     1      45.099 131.815  23.211  1.00  0.00    -0.234 F 
ATOM      2  C   UNL     1      44.227 131.358  22.230  1.00  0.00     0.197 C 
ATOM      3  C   UNL     1      43.638 130.036  22.748  1.00  0.00     0.148 C 
ATOM      4  C   UNL     1      42.438 130.516  23.489  1.00  0.00     0.275 C 
ATOM      5  N   UNL     1      42.138 131.728  23.213  1.00  0.00    -0.246 N 
ATOM      6  C   UNL     1      42.997 132.304  22.212  1.00  0.00     0.297 C 
ATOM      7  C   UNL     1      42.221 132.339  20.874  1.00  0.00     0.080 C 
ATOM      8  C   UNL     1      43.139 132.393  19.657  1.00  0.00     0.017 C 
ATOM      9  C   UNL     1      44.082 131.179  19.663  1.00  0.00     0.043 C 
ATOM     10  C   UNL     1      45.011 131.229  20.894  1.00  0.00     0.133 C 
ATOM     11  Cl  UNL     1      46.201 132.571  20.749  1.00  0.00    -0.119 Cl
ATOM     12  H   UNL     1      41.307 132.202  23.597  1.00  0.00     0.445 HD
ENDROOT
BRANCH   9  13
ATOM     13  C   UNL     1      44.865 131.008  18.369  1.00  0.00    -0.018 A 
ATOM     14  C   UNL     1      45.678 129.849  18.201  1.00  0.00     0.119 A 
ATOM     15  C   UNL     1      44.863 131.992  17.347  1.00  0.00     0.091 A 
ATOM     16  N   UNL     1      46.425 129.671  17.069  1.00  0.00    -0.215 NA
ATOM     17  C   UNL     1      45.643 131.748  16.224  1.00  0.00     0.269 A 
ATOM     18  C   UNL     1      46.387 130.624  16.108  1.00  0.00     0.297 A 
ATOM     19  N   UNL     1      45.815 132.498  15.127  1.00  0.00    -0.175 N 
ATOM     20  O   UNL     1      47.029 130.634  14.968  1.00  0.00    -0.384 OA
ATOM     21  C   UNL     1      46.681 131.768  14.377  1.00  0.00     0.522 A 
ATOM     22  H   UNL     1      45.389 133.424  14.900  1.00  0.00     0.457 HD
ENDBRANCH   9  13
TORSDOF 1
ENDMDL
MODEL 3
REMARK VINA RESULT:      -6.9      1.009      1.109
REMARK SMILES F[C@@]12CC=[NH+][C@@H]1CC[C@@H](c1cnc3oc[nH+]c3c1)[C@H]2Cl
REMARK SMILES IDX 1 1 2 2 3 3 4 4 5 5 6 6 7 7 8 8 9 9 19 10 20 11 10 13 11 14
REMARK SMILES IDX 18 15 12 16 17 17 13 18 16 19 14 20 15 21
REMARK H PARENT 5 12 16 22
ROOT
ATOM      1  F   UNL     1      45.297 132.311  21.975  1.00  0.00    -0.234 F 
ATOM      2  C   UNL     1      44.560 131.463  21.157  1.00  0.00     0.197 C 
ATOM      3  C   UNL     1      44.608 130.072  21.810  1.00  0.00     0.148 C 
ATOM      4  C   UNL     1      43.418 130.124  22.706  1.00  0.00     0.275 C 
ATOM      5  N   UNL     1      42.634 131.096  22.431  1.00  0.00    -0.246 N 
ATOM      6  C   UNL     1      43.065 131.858  21.288  1.00  0.00     0.297 C 
ATOM      7  C   UNL     1      42.178 131.465  20.084  1.00  0.00     0.080 C 
ATOM      8  C   UNL     1      42.840 131.750  18.740  1.00  0.00     0.017 C 
ATOM      9  C   UNL     1      44.178 130.997  18.650  1.00  0.00     0.043 C 
ATOM     10  C   UNL     1      45.158 131.517  19.723  1.00  0.00     0.133 C 
ATOM     11  Cl  UNL     1      45.696 133.192  19.346  1.00  0.00    -0.119 Cl
ATOM     12  H   UNL     1      41.738 131.249  22.917  1.00  0.00     0.445 HD
ENDROOT
BRANCH   9  13
ATOM     13  C   UNL     1      44.797 131.017  17.260  1.00  0.00    -0.018 A 
ATOM     14  C   UNL     1      44.114 131.696  16.209  1.00  0.00     0.119 A 
ATOM     15  C   UNL     1      46.002 130.331  16.957  1.00  0.00     0.091 A 
ATOM     16  N   UNL     1      44.616 131.710  14.936  1.00  0.00    -0.215 NA
ATOM     17  C   UNL     1      46.456 130.387  15.646  1.00  0.00     0.269 A 
ATOM     18  C   UNL     1      45.776 131.057  14.688  1.00  0.00     0.297 A 
ATOM     19  N   UNL     1      47.551 129.840  15.101  1.00  0.00    -0.175 N 
ATOM     20  O   UNL     1      46.405 130.955  13.545  1.00  0.00    -0.384 OA
ATOM     21  C   UNL     1      47.479 130.219  13.799  1.00  0.00     0.522 A 
ATOM     22  H   UNL     1      48.286 129.260  15.563  1.00  0.00     0.457 HD
ENDBRANCH   9  13
TORSDOF 1
ENDMDL
MODEL 4
REMARK VINA RESULT:      -6.2      3.426      6.931
REMARK SMILES F[C@@]12CC=[NH+][C@@H]1CC[C@@H](c1cnc3oc[nH+]c3c1)[C@H]2Cl
REMARK SMILES IDX 1 1 2 2 3 3 4 4 5 5 6 6 7 7 8 8 9 9 19 10 20 11 10 13 11 14
REMARK SMILES IDX 18 15 12 16 17 17 13 18 16 19 14 20 15 21
REMARK H PARENT 5 12 16 22
ROOT
ATOM      1  F   UNL     1      46.307 128.658  14.541  1.00  0.00    -0.234 F 
ATOM      2  C   UNL     1      46.232 129.973  14.987  1.00  0.00     0.197 C 
ATOM      3  C   UNL     1      47.593 130.618  14.681  1.00  0.00     0.148 C 
ATOM      4  C   UNL     1      47.367 131.148  13.307  1.00  0.00     0.275 C 
ATOM      5  N   UNL     1      46.130 131.171  12.982  1.00  0.00    -0.246 N 
ATOM      6  C   UNL     1      45.263 130.738  14.046  1.00  0.00     0.297 C 
ATOM      7  C   UNL     1      44.602 131.990  14.669  1.00  0.00     0.080 C 
ATOM      8  C   UNL     1      44.120 131.758  16.097  1.00  0.00     0.017 C 
ATOM      9  C   UNL     1      45.301 131.318  16.979  1.00  0.00     0.043 C 
ATOM     10  C   UNL     1      45.854 129.961  16.494  1.00  0.00     0.133 C 
ATOM     11  Cl  UNL     1      44.683 128.634  16.823  1.00  0.00    -0.119 Cl
ATOM     12  H   UNL     1      45.792 131.556  12.087  1.00  0.00     0.445 HD
ENDROOT
BRANCH   9  13
ATOM     13  C   UNL     1      44.978 131.300  18.466  1.00  0.00    -0.018 A 
ATOM     14  C   UNL     1      45.901 130.691  19.366  1.00  0.00     0.119 A 
ATOM     15  C   UNL     1      43.761 131.814  18.984  1.00  0.00     0.091 A 
ATOM     16  N   UNL     1      45.637 130.622  20.707  1.00  0.00    -0.215 NA
ATOM     17  C   UNL     1      43.557 131.713  20.354  1.00  0.00     0.269 A 
ATOM     18  C   UNL     1      44.472 131.137  21.166  1.00  0.00     0.297 A 
ATOM     19  N   UNL     1      42.513 132.116  21.091  1.00  0.00    -0.175 N 
ATOM     20  O   UNL     1      44.044 131.161  22.403  1.00  0.00    -0.384 OA
ATOM     21  C   UNL     1      42.859 131.754  22.353  1.00  0.00     0.522 A 
ATOM     22  H   UNL     1      41.640 132.593  20.774  1.00  0.00     0.457 HD
ENDBRANCH   9  13
TORSDOF 1
ENDMDL
MODEL 5
REMARK VINA RESULT:      -6.2      3.474      6.824
REMARK SMILES F[C@@]12CC=[NH+][C@@H]1CC[C@@H](c1cnc3oc[nH+]c3c1)[C@H]2Cl
REMARK SMILES IDX 1 1 2 2 3 3 4 4 5 5 6 6 7 7 8 8 9 9 19 10 20 11 10 13 11 14
REMARK SMILES IDX 18 15 12 16 17 17 13 18 16 19 14 20 15 21
REMARK H PARENT 5 12 16 22
ROOT
ATOM      1  F   UNL     1      46.626 128.733  14.541  1.00  0.00    -0.234 F 
ATOM      2  C   UNL     1      46.349 130.054  14.873  1.00  0.00     0.197 C 
ATOM      3  C   UNL     1      47.663 130.834  14.704  1.00  0.00     0.148 C 
ATOM      4  C   UNL     1      47.578 131.251  13.276  1.00  0.00     0.275 C 
ATOM      5  N   UNL     1      46.404 131.111  12.788  1.00  0.00    -0.246 N 
ATOM      6  C   UNL     1      45.447 130.644  13.757  1.00  0.00     0.297 C 
ATOM      7  C   UNL     1      44.575 131.846  14.190  1.00  0.00     0.080 C 
ATOM      8  C   UNL     1      43.924 131.646  15.555  1.00  0.00     0.017 C 
ATOM      9  C   UNL     1      45.009 131.399  16.616  1.00  0.00     0.043 C 
ATOM     10  C   UNL     1      45.766 130.089  16.314  1.00  0.00     0.133 C 
ATOM     11  Cl  UNL     1      44.709 128.658  16.583  1.00  0.00    -0.119 Cl
ATOM     12  H   UNL     1      46.155 131.400  11.830  1.00  0.00     0.445 HD
ENDROOT
BRANCH   9  13
ATOM     13  C   UNL     1      44.484 131.433  18.045  1.00  0.00    -0.018 A 
ATOM     14  C   UNL     1      43.130 131.816  18.275  1.00  0.00     0.119 A 
ATOM     15  C   UNL     1      45.312 131.156  19.163  1.00  0.00     0.091 A 
ATOM     16  N   UNL     1      42.626 131.893  19.544  1.00  0.00    -0.215 NA
ATOM     17  C   UNL     1      44.736 131.252  20.423  1.00  0.00     0.269 A 
ATOM     18  C   UNL     1      43.441 131.607  20.586  1.00  0.00     0.297 A 
ATOM     19  N   UNL     1      45.285 131.042  21.628  1.00  0.00    -0.175 N 
ATOM     20  O   UNL     1      43.145 131.629  21.861  1.00  0.00    -0.384 OA
ATOM     21  C   UNL     1      44.262 131.286  22.488  1.00  0.00     0.522 A 
ATOM     22  H   UNL     1      46.264 130.759  21.855  1.00  0.00     0.457 HD
ENDBRANCH   9  13
TORSDOF 1
ENDMDL
MODEL 6
REMARK VINA RESULT:      -5.0      1.601      2.007
REMARK SMILES F[C@@]12CC=[NH+][C@@H]1CC[C@@H](c1cnc3oc[nH+]c3c1)[C@H]2Cl
REMARK SMILES IDX 1 1 2 2 3 3 4 4 5 5 6 6 7 7 8 8 9 9 19 10 20 11 10 13 11 14
REMARK SMILES IDX 18 15 12 16 17 17 13 18 16 19 14 20 15 21
REMARK H PARENT 5 12 16 22
ROOT
ATOM      1  F   UNL     1      43.759 129.574  23.583  1.00  0.00    -0.234 F 
ATOM      2  C   UNL     1      43.806 130.777  22.887  1.00  0.00     0.197 C 
ATOM      3  C   UNL     1      42.495 131.516  23.200  1.00  0.00     0.148 C 
ATOM      4  C   UNL     1      42.874 132.289  24.416  1.00  0.00     0.275 C 
ATOM      5  N   UNL     1      44.139 132.330  24.602  1.00  0.00    -0.246 N 
ATOM      6  C   UNL     1      44.880 131.673  23.559  1.00  0.00     0.297 C 
ATOM      7  C   UNL     1      45.489 132.759  22.642  1.00  0.00     0.080 C 
ATOM      8  C   UNL     1      45.812 132.244  21.243  1.00  0.00     0.017 C 
ATOM      9  C   UNL     1      44.538 131.686  20.589  1.00  0.00     0.043 C 
ATOM     10  C   UNL     1      44.020 130.466  21.379  1.00  0.00     0.133 C 
ATOM     11  Cl  UNL     1      45.129 129.061  21.194  1.00  0.00    -0.119 Cl
ATOM     12  H   UNL     1      44.577 132.866  25.367  1.00  0.00     0.445 HD
ENDROOT
BRANCH   9  13
ATOM     13  C   UNL     1      44.699 131.375  19.107  1.00  0.00    -0.018 A 
ATOM     14  C   UNL     1      43.668 131.765  18.203  1.00  0.00     0.119 A 
ATOM     15  C   UNL     1      45.812 130.655  18.601  1.00  0.00     0.091 A 
ATOM     16  N   UNL     1      43.755 131.476  16.868  1.00  0.00    -0.215 NA
ATOM     17  C   UNL     1      45.838 130.396  17.237  1.00  0.00     0.269 A 
ATOM     18  C   UNL     1      44.839 130.801  16.419  1.00  0.00     0.297 A 
ATOM     19  N   UNL     1      46.760 129.750  16.511  1.00  0.00    -0.175 N 
ATOM     20  O   UNL     1      45.096 130.432  15.190  1.00  0.00    -0.384 OA
ATOM     21  C   UNL     1      46.259 129.798  15.249  1.00  0.00     0.522 A 
ATOM     22  H   UNL     1      47.651 129.312  16.833  1.00  0.00     0.457 HD
ENDBRANCH   9  13
TORSDOF 1
ENDMDL
MODEL 7
REMARK VINA RESULT:      -4.9      3.491      6.818
REMARK SMILES F[C@@]12CC=[NH+][C@@H]1CC[C@@H](c1cnc3oc[nH+]c3c1)[C@H]2Cl
REMARK SMILES IDX 1 1 2 2 3 3 4 4 5 5 6 6 7 7 8 8 9 9 19 10 20 11 10 13 11 14
REMARK SMILES IDX 18 15 12 16 17 17 13 18 16 19 14 20 15 21
REMARK H PARENT 5 12 16 22
ROOT
ATOM      1  F   UNL     1      44.941 129.204  14.054  1.00  0.00    -0.234 F 
ATOM      2  C   UNL     1      45.772 129.914  14.913  1.00  0.00     0.197 C 
ATOM      3  C   UNL     1      47.104 129.150  14.966  1.00  0.00     0.148 C 
ATOM      4  C   UNL     1      47.852 129.779  13.841  1.00  0.00     0.275 C 
ATOM      5  N   UNL     1      47.315 130.867  13.437  1.00  0.00    -0.246 N 
ATOM      6  C   UNL     1      46.159 131.242  14.209  1.00  0.00     0.297 C 
ATOM      7  C   UNL     1      46.568 132.390  15.161  1.00  0.00     0.080 C 
ATOM      8  C   UNL     1      45.654 132.508  16.376  1.00  0.00     0.017 C 
ATOM      9  C   UNL     1      45.652 131.182  17.154  1.00  0.00     0.043 C 
ATOM     10  C   UNL     1      45.057 130.052  16.287  1.00  0.00     0.133 C 
ATOM     11  Cl  UNL     1      43.292 130.292  16.039  1.00  0.00    -0.119 Cl
ATOM     12  H   UNL     1      47.730 131.458  12.701  1.00  0.00     0.445 HD
ENDROOT
BRANCH   9  13
ATOM     13  C   UNL     1      44.970 131.272  18.512  1.00  0.00    -0.018 A 
ATOM     14  C   UNL     1      43.744 131.991  18.624  1.00  0.00     0.119 A 
ATOM     15  C   UNL     1      45.542 130.716  19.686  1.00  0.00     0.091 A 
ATOM     16  N   UNL     1      43.114 132.127  19.830  1.00  0.00    -0.215 NA
ATOM     17  C   UNL     1      44.849 130.889  20.877  1.00  0.00     0.269 A 
ATOM     18  C   UNL     1      43.682 131.571  20.926  1.00  0.00     0.297 A 
ATOM     19  N   UNL     1      45.160 130.468  22.111  1.00  0.00    -0.175 N 
ATOM     20  O   UNL     1      43.236 131.597  22.156  1.00  0.00    -0.384 OA
ATOM     21  C   UNL     1      44.132 130.929  22.870  1.00  0.00     0.522 A 
ATOM     22  H   UNL     1      45.992 129.919  22.419  1.00  0.00     0.457 HD
ENDBRANCH   9  13
TORSDOF 1
ENDMDL
MODEL 8
REMARK VINA RESULT:      -4.6      1.487      2.012
REMARK SMILES F[C@@]12CC=[NH+][C@@H]1CC[C@@H](c1cnc3oc[nH+]c3c1)[C@H]2Cl
REMARK SMILES IDX 1 1 2 2 3 3 4 4 5 5 6 6 7 7 8 8 9 9 19 10 20 11 10 13 11 14
REMARK SMILES IDX 18 15 12 16 17 17 13 18 16 19 14 20 15 21
REMARK H PARENT 5 12 16 22
ROOT
ATOM      1  F   UNL     1      45.060 132.717  21.286  1.00  0.00    -0.234 F 
ATOM      2  C   UNL     1      44.351 131.787  20.535  1.00  0.00     0.197 C 
ATOM      3  C   UNL     1      44.207 130.533  21.412  1.00  0.00     0.148 C 
ATOM      4  C   UNL     1      42.932 130.817  22.129  1.00  0.00     0.275 C 
ATOM      5  N   UNL     1      42.269 131.774  21.599  1.00  0.00    -0.246 N 
ATOM      6  C   UNL     1      42.889 132.293  20.408  1.00  0.00     0.297 C 
ATOM      7  C   UNL     1      42.115 131.751  19.184  1.00  0.00     0.080 C 
ATOM      8  C   UNL     1      42.947 131.753  17.906  1.00  0.00     0.017 C 
ATOM      9  C   UNL     1      44.218 130.913  18.114  1.00  0.00     0.043 C 
ATOM     10  C   UNL     1      45.110 131.550  19.199  1.00  0.00     0.133 C 
ATOM     11  Cl  UNL     1      45.827 133.095  18.618  1.00  0.00    -0.119 Cl
ATOM     12  H   UNL     1      41.339 132.067  21.936  1.00  0.00     0.445 HD
ENDROOT
BRANCH   9  13
ATOM     13  C   UNL     1      44.990 130.648  16.829  1.00  0.00    -0.018 A 
ATOM     14  C   UNL     1      45.071 129.313  16.334  1.00  0.00     0.119 A 
ATOM     15  C   UNL     1      45.685 131.673  16.137  1.00  0.00     0.091 A 
ATOM     16  N   UNL     1      45.783 129.023  15.202  1.00  0.00    -0.215 NA
ATOM     17  C   UNL     1      46.387 131.311  14.995  1.00  0.00     0.269 A 
ATOM     18  C   UNL     1      46.421 130.030  14.561  1.00  0.00     0.297 A 
ATOM     19  N   UNL     1      47.114 132.072  14.166  1.00  0.00    -0.175 N 
ATOM     20  O   UNL     1      47.148 129.951  13.475  1.00  0.00    -0.384 OA
ATOM     21  C   UNL     1      47.565 131.187  13.239  1.00  0.00     0.522 A 
ATOM     22  H   UNL     1      47.293 133.099  14.216  1.00  0.00     0.457 HD
ENDBRANCH   9  13
TORSDOF 1
ENDMDL


