MODEL 1
REMARK VINA RESULT:      -9.5      0.000      0.000
REMARK SMILES CC(=O)n1nc2cc(-c3cnc(F)cc3C)ccc2c1C
REMARK SMILES IDX 4 1 5 2 6 3 7 4 8 5 17 6 18 7 19 8 20 9 21 10 2 11 1 12 3 13
REMARK SMILES IDX 9 14 10 15 15 16 11 17 14 18 12 19 16 20 13 21
REMARK H PARENT
ROOT
ATOM      1  N   UNL     1      46.345 130.481  15.205  1.00  0.00    -0.204 N 
ATOM      2  N   UNL     1      46.620 130.350  16.501  1.00  0.00    -0.165 NA
ATOM      3  C   UNL     1      45.540 130.781  17.176  1.00  0.00     0.094 A 
ATOM      4  C   UNL     1      45.369 130.830  18.556  1.00  0.00     0.039 A 
ATOM      5  C   UNL     1      44.145 131.331  19.055  1.00  0.00    -0.014 A 
ATOM      6  C   UNL     1      43.131 131.744  18.150  1.00  0.00     0.009 A 
ATOM      7  C   UNL     1      43.338 131.680  16.760  1.00  0.00     0.013 A 
ATOM      8  C   UNL     1      44.565 131.192  16.310  1.00  0.00     0.023 A 
ATOM      9  C   UNL     1      45.092 130.994  15.049  1.00  0.00     0.052 A 
ATOM     10  C   UNL     1      44.416 131.287  13.742  1.00  0.00     0.067 C 
ENDROOT
BRANCH   1  11
ATOM     11  C   UNL     1      47.279 130.113  14.175  1.00  0.00     0.243 C 
ATOM     12  C   UNL     1      47.634 131.088  13.095  1.00  0.00     0.117 C 
ATOM     13  O   UNL     1      47.811 128.972  14.166  1.00  0.00    -0.273 OA
ENDBRANCH   1  11
BRANCH   5  14
ATOM     14  C   UNL     1      43.914 131.390  20.516  1.00  0.00     0.003 A 
ATOM     15  C   UNL     1      44.811 130.733  21.373  1.00  0.00     0.123 A 
ATOM     16  C   UNL     1      42.824 132.094  21.082  1.00  0.00    -0.037 A 
ATOM     17  N   UNL     1      44.614 130.744  22.717  1.00  0.00    -0.228 NA
ATOM     18  C   UNL     1      42.646 132.070  22.474  1.00  0.00     0.064 A 
ATOM     19  C   UNL     1      43.560 131.388  23.278  1.00  0.00     0.213 A 
ATOM     20  C   UNL     1      41.839 132.857  20.234  1.00  0.00     0.045 C 
ATOM     21  F   UNL     1      43.399 131.370  24.624  1.00  0.00    -0.185 F 
ENDBRANCH   5  14
TORSDOF 2
ENDMDL
MODEL 2
REMARK VINA RESULT:      -9.3      3.900      7.367
REMARK SMILES CC(=O)n1nc2cc(-c3cnc(F)cc3C)ccc2c1C
REMARK SMILES IDX 4 1 5 2 6 3 7 4 8 5 17 6 18 7 19 8 20 9 21 10 2 11 1 12 3 13
REMARK SMILES IDX 9 14 10 15 15 16 11 17 14 18 12 19 16 20 13 21
REMARK H PARENT
ROOT
ATOM      1  N   UNL     1      44.276 131.269  21.612  1.00  0.00    -0.204 N 
ATOM      2  N   UNL     1      45.282 130.911  20.819  1.00  0.00    -0.165 NA
ATOM      3  C   UNL     1      44.894 131.163  19.556  1.00  0.00     0.094 A 
ATOM      4  C   UNL     1      45.620 130.948  18.389  1.00  0.00     0.039 A 
ATOM      5  C   UNL     1      45.011 131.280  17.158  1.00  0.00    -0.014 A 
ATOM      6  C   UNL     1      43.703 131.835  17.146  1.00  0.00     0.009 A 
ATOM      7  C   UNL     1      42.998 132.038  18.346  1.00  0.00     0.013 A 
ATOM      8  C   UNL     1      43.631 131.685  19.538  1.00  0.00     0.023 A 
ATOM      9  C   UNL     1      43.245 131.749  20.862  1.00  0.00     0.052 A 
ATOM     10  C   UNL     1      41.933 132.255  21.387  1.00  0.00     0.067 C 
ENDROOT
BRANCH   1  11
ATOM     11  C   UNL     1      44.336 131.142  23.045  1.00  0.00     0.243 C 
ATOM     12  C   UNL     1      44.321 129.788  23.682  1.00  0.00     0.117 C 
ATOM     13  O   UNL     1      44.403 132.163  23.779  1.00  0.00    -0.273 OA
ENDBRANCH   1  11
BRANCH   5  14
ATOM     14  C   UNL     1      45.750 131.080  15.892  1.00  0.00     0.003 A 
ATOM     15  C   UNL     1      46.438 132.166  15.327  1.00  0.00     0.123 A 
ATOM     16  C   UNL     1      45.795 129.829  15.231  1.00  0.00    -0.037 A 
ATOM     17  N   UNL     1      47.104 132.025  14.153  1.00  0.00    -0.228 NA
ATOM     18  C   UNL     1      46.482 129.727  14.012  1.00  0.00     0.064 A 
ATOM     19  C   UNL     1      47.136 130.843  13.488  1.00  0.00     0.213 A 
ATOM     20  C   UNL     1      45.117 128.605  15.790  1.00  0.00     0.045 C 
ATOM     21  F   UNL     1      47.809 130.747  12.315  1.00  0.00    -0.185 F 
ENDBRANCH   5  14
TORSDOF 2
ENDMDL
MODEL 3
REMARK VINA RESULT:      -9.1      3.793      7.277
REMARK SMILES CC(=O)n1nc2cc(-c3cnc(F)cc3C)ccc2c1C
REMARK SMILES IDX 4 1 5 2 6 3 7 4 8 5 17 6 18 7 19 8 20 9 21 10 2 11 1 12 3 13
REMARK SMILES IDX 9 14 10 15 15 16 11 17 14 18 12 19 16 20 13 21
REMARK H PARENT
ROOT
ATOM      1  N   UNL     1      44.046 131.365  21.721  1.00  0.00    -0.204 N 
ATOM      2  N   UNL     1      45.052 130.879  20.998  1.00  0.00    -0.165 NA
ATOM      3  C   UNL     1      44.731 131.067  19.706  1.00  0.00     0.094 A 
ATOM      4  C   UNL     1      45.482 130.716  18.588  1.00  0.00     0.039 A 
ATOM      5  C   UNL     1      44.945 131.002  17.312  1.00  0.00    -0.014 A 
ATOM      6  C   UNL     1      43.684 131.647  17.207  1.00  0.00     0.009 A 
ATOM      7  C   UNL     1      42.952 131.988  18.358  1.00  0.00     0.013 A 
ATOM      8  C   UNL     1      43.512 131.676  19.597  1.00  0.00     0.023 A 
ATOM      9  C   UNL     1      43.083 131.864  20.897  1.00  0.00     0.052 A 
ATOM     10  C   UNL     1      41.795 132.499  21.329  1.00  0.00     0.067 C 
ENDROOT
BRANCH   1  11
ATOM     11  C   UNL     1      44.044 131.337  23.160  1.00  0.00     0.243 C 
ATOM     12  C   UNL     1      43.663 130.087  23.889  1.00  0.00     0.117 C 
ATOM     13  O   UNL     1      44.362 132.360  23.824  1.00  0.00    -0.273 OA
ENDBRANCH   1  11
BRANCH   5  14
ATOM     14  C   UNL     1      45.714 130.657  16.095  1.00  0.00     0.003 A 
ATOM     15  C   UNL     1      46.905 129.926  16.228  1.00  0.00     0.123 A 
ATOM     16  C   UNL     1      45.287 131.034  14.799  1.00  0.00    -0.037 A 
ATOM     17  N   UNL     1      47.649 129.616  15.135  1.00  0.00    -0.228 NA
ATOM     18  C   UNL     1      46.092 130.708  13.696  1.00  0.00     0.064 A 
ATOM     19  C   UNL     1      47.274 129.992  13.886  1.00  0.00     0.213 A 
ATOM     20  C   UNL     1      44.002 131.786  14.567  1.00  0.00     0.045 C 
ATOM     21  F   UNL     1      48.049 129.666  12.824  1.00  0.00    -0.185 F 
ENDBRANCH   5  14
TORSDOF 2
ENDMDL
MODEL 4
REMARK VINA RESULT:      -9.0      0.718      1.524
REMARK SMILES CC(=O)n1nc2cc(-c3cnc(F)cc3C)ccc2c1C
REMARK SMILES IDX 4 1 5 2 6 3 7 4 8 5 17 6 18 7 19 8 20 9 21 10 2 11 1 12 3 13
REMARK SMILES IDX 9 14 10 15 15 16 11 17 14 18 12 19 16 20 13 21
REMARK H PARENT
ROOT
ATOM      1  N   UNL     1      46.255 130.498  15.218  1.00  0.00    -0.204 N 
ATOM      2  N   UNL     1      46.512 130.357  16.516  1.00  0.00    -0.165 NA
ATOM      3  C   UNL     1      45.432 130.805  17.180  1.00  0.00     0.094 A 
ATOM      4  C   UNL     1      45.245 130.852  18.559  1.00  0.00     0.039 A 
ATOM      5  C   UNL     1      44.025 131.373  19.045  1.00  0.00    -0.014 A 
ATOM      6  C   UNL     1      43.030 131.809  18.130  1.00  0.00     0.009 A 
ATOM      7  C   UNL     1      43.253 131.747  16.742  1.00  0.00     0.013 A 
ATOM      8  C   UNL     1      44.476 131.238  16.305  1.00  0.00     0.023 A 
ATOM      9  C   UNL     1      45.015 131.036  15.049  1.00  0.00     0.052 A 
ATOM     10  C   UNL     1      44.360 131.346  13.736  1.00  0.00     0.067 C 
ENDROOT
BRANCH   1  11
ATOM     11  C   UNL     1      47.195 130.117  14.197  1.00  0.00     0.243 C 
ATOM     12  C   UNL     1      47.611 131.102  13.150  1.00  0.00     0.117 C 
ATOM     13  O   UNL     1      47.680 128.955  14.171  1.00  0.00    -0.273 OA
ENDBRANCH   1  11
BRANCH   5  14
ATOM     14  C   UNL     1      43.778 131.431  20.503  1.00  0.00     0.003 A 
ATOM     15  C   UNL     1      42.677 132.163  20.977  1.00  0.00     0.123 A 
ATOM     16  C   UNL     1      44.608 130.768  21.439  1.00  0.00    -0.037 A 
ATOM     17  N   UNL     1      42.436 132.259  22.310  1.00  0.00    -0.228 NA
ATOM     18  C   UNL     1      44.334 130.905  22.808  1.00  0.00     0.064 A 
ATOM     19  C   UNL     1      43.235 131.657  23.225  1.00  0.00     0.213 A 
ATOM     20  C   UNL     1      45.785 129.931  21.011  1.00  0.00     0.045 C 
ATOM     21  F   UNL     1      42.961 131.783  24.546  1.00  0.00    -0.185 F 
ENDBRANCH   5  14
TORSDOF 2
ENDMDL
MODEL 5
REMARK VINA RESULT:      -8.6      3.790      7.282
REMARK SMILES CC(=O)n1nc2cc(-c3cnc(F)cc3C)ccc2c1C
REMARK SMILES IDX 4 1 5 2 6 3 7 4 8 5 17 6 18 7 19 8 20 9 21 10 2 11 1 12 3 13
REMARK SMILES IDX 9 14 10 15 15 16 11 17 14 18 12 19 16 20 13 21
REMARK H PARENT
ROOT
ATOM      1  N   UNL     1      44.313 131.104  21.751  1.00  0.00    -0.204 N 
ATOM      2  N   UNL     1      45.310 130.636  21.004  1.00  0.00    -0.165 NA
ATOM      3  C   UNL     1      44.992 130.890  19.723  1.00  0.00     0.094 A 
ATOM      4  C   UNL     1      45.736 130.581  18.589  1.00  0.00     0.039 A 
ATOM      5  C   UNL     1      45.204 130.936  17.329  1.00  0.00    -0.014 A 
ATOM      6  C   UNL     1      43.954 131.607  17.255  1.00  0.00     0.009 A 
ATOM      7  C   UNL     1      43.228 131.903  18.423  1.00  0.00     0.013 A 
ATOM      8  C   UNL     1      43.783 131.525  19.645  1.00  0.00     0.023 A 
ATOM      9  C   UNL     1      43.358 131.657  20.952  1.00  0.00     0.052 A 
ATOM     10  C   UNL     1      42.080 132.292  21.416  1.00  0.00     0.067 C 
ENDROOT
BRANCH   1  11
ATOM     11  C   UNL     1      44.310 131.008  23.187  1.00  0.00     0.243 C 
ATOM     12  C   UNL     1      44.330 132.247  24.026  1.00  0.00     0.117 C 
ATOM     13  O   UNL     1      44.291 129.884  23.756  1.00  0.00    -0.273 OA
ENDBRANCH   1  11
BRANCH   5  14
ATOM     14  C   UNL     1      45.967 130.637  16.096  1.00  0.00     0.003 A 
ATOM     15  C   UNL     1      46.316 129.306  15.819  1.00  0.00     0.123 A 
ATOM     16  C   UNL     1      46.351 131.647  15.181  1.00  0.00    -0.037 A 
ATOM     17  N   UNL     1      47.039 129.000  14.711  1.00  0.00    -0.228 NA
ATOM     18  C   UNL     1      47.110 131.292  14.055  1.00  0.00     0.064 A 
ATOM     19  C   UNL     1      47.443 129.955  13.835  1.00  0.00     0.213 A 
ATOM     20  C   UNL     1      45.983 133.093  15.385  1.00  0.00     0.045 C 
ATOM     21  F   UNL     1      48.167 129.605  12.744  1.00  0.00    -0.185 F 
ENDBRANCH   5  14
TORSDOF 2
ENDMDL
MODEL 6
REMARK VINA RESULT:      -6.9      3.907      7.290
REMARK SMILES CC(=O)n1nc2cc(-c3cnc(F)cc3C)ccc2c1C
REMARK SMILES IDX 4 1 5 2 6 3 7 4 8 5 17 6 18 7 19 8 20 9 21 10 2 11 1 12 3 13
REMARK SMILES IDX 9 14 10 15 15 16 11 17 14 18 12 19 16 20 13 21
REMARK H PARENT
ROOT
ATOM      1  N   UNL     1      44.728 129.849  22.290  1.00  0.00    -0.204 N 
ATOM      2  N   UNL     1      45.410 129.325  21.275  1.00  0.00    -0.165 NA
ATOM      3  C   UNL     1      45.147 130.080  20.194  1.00  0.00     0.094 A 
ATOM      4  C   UNL     1      45.640 129.911  18.904  1.00  0.00     0.039 A 
ATOM      5  C   UNL     1      45.222 130.825  17.910  1.00  0.00    -0.014 A 
ATOM      6  C   UNL     1      44.342 131.886  18.253  1.00  0.00     0.009 A 
ATOM      7  C   UNL     1      43.863 132.026  19.568  1.00  0.00     0.013 A 
ATOM      8  C   UNL     1      44.290 131.095  20.516  1.00  0.00     0.023 A 
ATOM      9  C   UNL     1      44.028 130.937  21.863  1.00  0.00     0.052 A 
ATOM     10  C   UNL     1      43.140 131.802  22.708  1.00  0.00     0.067 C 
ENDROOT
BRANCH   1  11
ATOM     11  C   UNL     1      44.769 129.297  23.618  1.00  0.00     0.243 C 
ATOM     12  C   UNL     1      45.078 127.847  23.823  1.00  0.00     0.117 C 
ATOM     13  O   UNL     1      44.548 130.023  24.624  1.00  0.00    -0.273 OA
ENDBRANCH   1  11
BRANCH   5  14
ATOM     14  C   UNL     1      45.730 130.692  16.526  1.00  0.00     0.003 A 
ATOM     15  C   UNL     1      46.964 130.056  16.313  1.00  0.00     0.123 A 
ATOM     16  C   UNL     1      45.012 131.177  15.407  1.00  0.00    -0.037 A 
ATOM     17  N   UNL     1      47.472 129.941  15.060  1.00  0.00    -0.228 NA
ATOM     18  C   UNL     1      45.578 131.052  14.129  1.00  0.00     0.064 A 
ATOM     19  C   UNL     1      46.815 130.424  13.976  1.00  0.00     0.213 A 
ATOM     20  C   UNL     1      43.665 131.836  15.546  1.00  0.00     0.045 C 
ATOM     21  F   UNL     1      47.361 130.292  12.742  1.00  0.00    -0.185 F 
ENDBRANCH   5  14
TORSDOF 2
ENDMDL
MODEL 7
REMARK VINA RESULT:      -6.8      3.930      7.449
REMARK SMILES CC(=O)n1nc2cc(-c3cnc(F)cc3C)ccc2c1C
REMARK SMILES IDX 4 1 5 2 6 3 7 4 8 5 17 6 18 7 19 8 20 9 21 10 2 11 1 12 3 13
REMARK SMILES IDX 9 14 10 15 15 16 11 17 14 18 12 19 16 20 13 21
REMARK H PARENT
ROOT
ATOM      1  N   UNL     1      43.674 131.721  22.469  1.00  0.00    -0.204 N 
ATOM      2  N   UNL     1      44.626 131.363  21.611  1.00  0.00    -0.165 NA
ATOM      3  C   UNL     1      44.121 131.526  20.375  1.00  0.00     0.094 A 
ATOM      4  C   UNL     1      44.756 131.277  19.162  1.00  0.00     0.039 A 
ATOM      5  C   UNL     1      44.030 131.512  17.974  1.00  0.00    -0.014 A 
ATOM      6  C   UNL     1      42.701 132.007  18.046  1.00  0.00     0.009 A 
ATOM      7  C   UNL     1      42.090 132.247  19.290  1.00  0.00     0.013 A 
ATOM      8  C   UNL     1      42.837 131.990  20.439  1.00  0.00     0.023 A 
ATOM      9  C   UNL     1      42.561 132.112  21.787  1.00  0.00     0.052 A 
ATOM     10  C   UNL     1      41.276 132.588  22.396  1.00  0.00     0.067 C 
ENDROOT
BRANCH   1  11
ATOM     11  C   UNL     1      43.861 131.677  23.895  1.00  0.00     0.243 C 
ATOM     12  C   UNL     1      44.518 130.494  24.534  1.00  0.00     0.117 C 
ATOM     13  O   UNL     1      43.476 132.631  24.623  1.00  0.00    -0.273 OA
ENDBRANCH   1  11
BRANCH   5  14
ATOM     14  C   UNL     1      44.670 131.273  16.660  1.00  0.00     0.003 A 
ATOM     15  C   UNL     1      44.130 131.889  15.519  1.00  0.00     0.123 A 
ATOM     16  C   UNL     1      45.811 130.449  16.513  1.00  0.00    -0.037 A 
ATOM     17  N   UNL     1      44.675 131.670  14.295  1.00  0.00    -0.228 NA
ATOM     18  C   UNL     1      46.336 130.236  15.228  1.00  0.00     0.064 A 
ATOM     19  C   UNL     1      45.751 130.862  14.127  1.00  0.00     0.213 A 
ATOM     20  C   UNL     1      46.474 129.783  17.690  1.00  0.00     0.045 C 
ATOM     21  F   UNL     1      46.260 130.667  12.886  1.00  0.00    -0.185 F 
ENDBRANCH   5  14
TORSDOF 2
ENDMDL


