REMARK SMILES CNCCC[N-]C(=O)Sc1cccc(-c2ccc3c(c2)CC3)c1
REMARK SMILES IDX 5 1 4 2 3 3 2 4 1 5 6 7 7 8 8 9 9 10 10 11 11 12 23 13 12 14
REMARK SMILES IDX 14 15 13 16 15 17 16 18 20 19 17 20 19 21 18 22 21 23 22 24
REMARK H PARENT 2 6
ROOT
ATOM      1  C   UNL     1       1.956  -1.006   2.235  1.00  0.00    -0.116 C 
ENDROOT
BRANCH   1   2
ATOM      2  C   UNL     1       1.149   0.078   1.513  1.00  0.00    -0.004 C 
BRANCH   2   3
ATOM      3  C   UNL     1       1.893   1.414   1.481  1.00  0.00     0.079 C 
BRANCH   3   4
ATOM      4  N   UNL     1       1.094   2.405   0.750  1.00  0.00    -0.320 NA
ATOM      5  C   UNL     1       1.860   3.635   0.553  1.00  0.00     0.101 C 
ATOM      6  H   UNL     1       0.257   2.645   1.333  1.00  0.00     0.122 HD
ENDBRANCH   3   4
ENDBRANCH   2   3
ENDBRANCH   1   2
BRANCH   1   7
ATOM      7  N   UNL     1       1.241  -2.274   2.168  1.00  0.00    -0.643 NA
BRANCH   7   8
ATOM      8  C   UNL     1       0.098  -2.572   2.971  1.00  0.00     0.114 C 
ATOM      9  O   UNL     1      -0.088  -1.985   4.070  1.00  0.00    -0.308 OA
BRANCH   8  10
ATOM     10  S   UNL     1      -1.122  -3.728   2.359  1.00  0.00    -0.071 SA
BRANCH  10  11
ATOM     11  C   UNL     1      -2.043  -2.402   1.577  1.00  0.00     0.014 A 
ATOM     12  C   UNL     1      -3.164  -1.859   2.214  1.00  0.00     0.015 A 
ATOM     13  C   UNL     1      -1.582  -1.843   0.379  1.00  0.00     0.024 A 
ATOM     14  C   UNL     1      -3.811  -0.750   1.666  1.00  0.00     0.002 A 
ATOM     15  C   UNL     1      -2.193  -0.694  -0.152  1.00  0.00    -0.017 A 
ATOM     16  C   UNL     1      -3.322  -0.160   0.496  1.00  0.00     0.009 A 
BRANCH  15  17
ATOM     17  C   UNL     1      -1.600  -0.008  -1.324  1.00  0.00    -0.018 A 
ATOM     18  C   UNL     1      -1.113  -0.779  -2.438  1.00  0.00     0.009 A 
ATOM     19  C   UNL     1      -1.468   1.411  -1.311  1.00  0.00     0.012 A 
ATOM     20  C   UNL     1      -0.483  -0.174  -3.552  1.00  0.00     0.004 A 
ATOM     21  C   UNL     1      -0.844   1.966  -2.408  1.00  0.00    -0.044 A 
ATOM     22  C   UNL     1      -0.366   1.198  -3.495  1.00  0.00    -0.044 A 
ATOM     23  C   UNL     1      -0.364   3.218  -3.056  1.00  0.00     0.040 C 
ATOM     24  C   UNL     1       0.124   2.430  -4.173  1.00  0.00     0.040 C 
ENDBRANCH  15  17
ENDBRANCH  10  11
ENDBRANCH   8  10
ENDBRANCH   7   8
ENDBRANCH   1   7
TORSDOF 8


