REMARK SMILES Nc1cc(F)c(CCC(=O)c2ccccc2)c(F)c1C1CC1
REMARK SMILES IDX 7 1 6 2 2 3 3 4 19 5 4 6 17 7 5 8 18 9 1 10 20 13 21 14
REMARK SMILES IDX 22 15 8 16 9 17 10 18 11 19 12 20 16 21 13 22 15 23 14 24
REMARK H PARENT 1 11 1 12
ROOT
ATOM      1  C   UNL     1       3.006  -1.589   0.895  1.00  0.00     0.050 C 
ENDROOT
BRANCH   1   2
ATOM      2  C   UNL     1       1.500  -1.723   0.893  1.00  0.00     0.024 A 
ATOM      3  C   UNL     1      -1.316  -1.872   0.836  1.00  0.00     0.041 A 
ATOM      4  C   UNL     1      -0.553  -2.390  -0.218  1.00  0.00     0.065 A 
ATOM      5  C   UNL     1      -0.667  -1.224   1.914  1.00  0.00     0.014 A 
ATOM      6  C   UNL     1       0.839  -2.311  -0.199  1.00  0.00     0.131 A 
ATOM      7  C   UNL     1       0.742  -1.198   1.954  1.00  0.00     0.134 A 
ATOM      8  F   UNL     1       1.540  -2.805  -1.251  1.00  0.00    -0.207 F 
ATOM      9  F   UNL     1       1.378  -0.647   3.021  1.00  0.00    -0.206 F 
BRANCH   3  10
ATOM     10  N   UNL     1      -2.741  -2.032   0.802  1.00  0.00    -0.398 N 
ATOM     11  H   UNL     1      -3.207  -2.452  -0.033  1.00  0.00     0.156 HD
ATOM     12  H   UNL     1      -3.344  -1.806   1.623  1.00  0.00     0.156 HD
ENDBRANCH   3  10
BRANCH   5  13
ATOM     13  C   UNL     1      -1.455  -0.623   3.056  1.00  0.00     0.024 C 
ATOM     14  C   UNL     1      -2.408   0.502   2.666  1.00  0.00     0.009 C 
ATOM     15  C   UNL     1      -1.120   0.828   3.392  1.00  0.00     0.009 C 
ENDBRANCH   5  13
ENDBRANCH   1   2
BRANCH   1  16
ATOM     16  C   UNL     1       3.463  -0.168   0.530  1.00  0.00     0.086 C 
BRANCH  16  17
ATOM     17  C   UNL     1       3.049   0.216  -0.871  1.00  0.00     0.163 C 
ATOM     18  O   UNL     1       3.866   0.011  -1.809  1.00  0.00    -0.294 OA
BRANCH  17  19
ATOM     19  C   UNL     1       1.690   0.729  -1.194  1.00  0.00     0.017 A 
ATOM     20  C   UNL     1       1.145   0.492  -2.470  1.00  0.00     0.012 A 
ATOM     21  C   UNL     1       0.913   1.426  -0.246  1.00  0.00     0.012 A 
ATOM     22  C   UNL     1      -0.150   0.918  -2.781  1.00  0.00     0.001 A 
ATOM     23  C   UNL     1      -0.380   1.851  -0.564  1.00  0.00     0.001 A 
ATOM     24  C   UNL     1      -0.913   1.593  -1.828  1.00  0.00     0.000 A 
ENDBRANCH  17  19
ENDBRANCH  16  17
ENDBRANCH   1  16
TORSDOF 6


