REMARK SMILES C=C[C@@H]1CN[C@H](c2c[nH+]c3ocnc3c2)N(/C(S)=[NH+]\c2cccc(SC(F)(F)F)c2)C1
REMARK SMILES IDX 19 1 17 3 18 4 16 6 31 7 6 8 3 9 5 10 4 11 7 13 15 14 8 15
REMARK SMILES IDX 14 16 9 17 13 18 10 19 12 20 11 21 2 23 1 24 20 25 21 26
REMARK SMILES IDX 30 27 22 28 24 29 23 30 25 31 26 32 27 33 28 34 29 35
REMARK H PARENT 19 2 18 5 5 12 9 22
ROOT
ATOM      1  N   UNL     1      -2.229   1.268   0.766  1.00  0.00    -0.235 N 
ATOM      2  H   UNL     1      -3.219   1.510   0.529  1.00  0.00     0.313 HD
ENDROOT
BRANCH   1   3
ATOM      3  C   UNL     1      -1.983   0.073   1.238  1.00  0.00     0.309 C 
BRANCH   3   4
ATOM      4  S   UNL     1      -3.361  -1.062   1.438  1.00  0.00    -0.056 SA
ATOM      5  H   UNL     1      -3.670  -0.543   2.710  1.00  0.00     0.116 HD
ENDBRANCH   3   4
BRANCH   3   6
ATOM      6  N   UNL     1      -0.695  -0.281   1.793  1.00  0.00    -0.235 N 
ATOM      7  C   UNL     1      -0.391   0.347   3.091  1.00  0.00     0.248 C 
ATOM      8  C   UNL     1      -0.135  -1.633   1.536  1.00  0.00     0.284 C 
ATOM      9  C   UNL     1       1.089   0.202   3.462  1.00  0.00     0.067 C 
ATOM     10  N   UNL     1       1.290  -1.694   1.911  1.00  0.00    -0.274 NA
ATOM     11  C   UNL     1       1.506  -1.262   3.293  1.00  0.00     0.097 C 
ATOM     12  H   UNL     1       1.603  -2.692   1.845  1.00  0.00     0.127 HD
BRANCH   8  13
ATOM     13  C   UNL     1      -0.261  -2.022   0.072  1.00  0.00     0.078 A 
ATOM     14  C   UNL     1       0.620  -1.484  -0.896  1.00  0.00     0.055 A 
ATOM     15  C   UNL     1      -1.251  -2.953  -0.347  1.00  0.00     0.319 A 
ATOM     16  C   UNL     1       0.432  -1.863  -2.217  1.00  0.00     0.179 A 
ATOM     17  N   UNL     1      -1.381  -3.293  -1.665  1.00  0.00    -0.177 N 
ATOM     18  N   UNL     1       1.125  -1.486  -3.304  1.00  0.00    -0.209 NA
ATOM     19  C   UNL     1      -0.542  -2.733  -2.567  1.00  0.00     0.399 A 
ATOM     20  C   UNL     1       0.496  -2.181  -4.291  1.00  0.00     0.316 A 
ATOM     21  O   UNL     1      -0.504  -2.931  -3.854  1.00  0.00    -0.391 OA
ATOM     22  H   UNL     1      -2.112  -3.973  -1.970  1.00  0.00     0.457 HD
ENDBRANCH   8  13
BRANCH   9  23
ATOM     23  C   UNL     1       1.957   1.124   2.634  1.00  0.00    -0.026 C 
ATOM     24  C   UNL     1       2.035   2.432   2.904  1.00  0.00     0.004 C 
ENDBRANCH   9  23
ENDBRANCH   3   6
ENDBRANCH   1   3
BRANCH   1  25
ATOM     25  C   UNL     1      -1.255   2.311   0.598  1.00  0.00     0.126 A 
ATOM     26  C   UNL     1      -1.570   3.621   0.986  1.00  0.00     0.052 A 
ATOM     27  C   UNL     1      -0.026   2.062  -0.027  1.00  0.00     0.067 A 
ATOM     28  C   UNL     1      -0.650   4.657   0.795  1.00  0.00     0.006 A 
ATOM     29  C   UNL     1       0.891   3.099  -0.232  1.00  0.00     0.020 A 
ATOM     30  C   UNL     1       0.581   4.397   0.191  1.00  0.00     0.015 A 
BRANCH  29  31
ATOM     31  S   UNL     1       2.474   2.752  -1.002  1.00  0.00    -0.014 SA
BRANCH  31  32
ATOM     32  C   UNL     1       1.873   2.968  -2.709  1.00  0.00     0.446 C 
ATOM     33  F   UNL     1       0.883   2.039  -2.986  1.00  0.00    -0.160 F 
ATOM     34  F   UNL     1       1.373   4.245  -2.877  1.00  0.00    -0.160 F 
ATOM     35  F   UNL     1       2.925   2.779  -3.585  1.00  0.00    -0.160 F 
ENDBRANCH  31  32
ENDBRANCH  29  31
ENDBRANCH   1  25
TORSDOF 8


