REMARK SMILES CC(=O)c1cc(N)c(Nc2ccc(C)[nH+]c2F)cc1F
REMARK SMILES IDX 4 1 5 2 6 3 8 4 18 5 19 6 20 7 2 8 1 9 3 10 7 11 9 14 10 16
REMARK SMILES IDX 11 17 16 18 12 19 15 20 13 21 17 22 14 24
REMARK H PARENT 7 12 7 13 9 15 15 23
ROOT
ATOM      1  C   UNL     1      -1.395  -2.192  -3.032  1.00  0.00     0.055 A 
ATOM      2  C   UNL     1      -0.196  -1.493  -2.801  1.00  0.00     0.042 A 
ATOM      3  C   UNL     1      -0.196  -0.226  -2.200  1.00  0.00     0.056 A 
ATOM      4  C   UNL     1      -1.418   0.346  -1.788  1.00  0.00     0.065 A 
ATOM      5  C   UNL     1      -2.615  -0.335  -2.033  1.00  0.00     0.068 A 
ATOM      6  C   UNL     1      -2.612  -1.593  -2.640  1.00  0.00     0.136 A 
ATOM      7  F   UNL     1      -3.800  -2.227  -2.802  1.00  0.00    -0.206 F 
ENDROOT
BRANCH   1   8
ATOM      8  C   UNL     1      -1.340  -3.531  -3.681  1.00  0.00     0.162 C 
ATOM      9  C   UNL     1      -2.526  -4.147  -4.360  1.00  0.00     0.093 C 
ATOM     10  O   UNL     1      -0.262  -4.185  -3.660  1.00  0.00    -0.294 OA
ENDBRANCH   1   8
BRANCH   3  11
ATOM     11  N   UNL     1       1.043   0.480  -2.054  1.00  0.00    -0.397 N 
ATOM     12  H   UNL     1       1.947   0.025  -2.314  1.00  0.00     0.156 HD
ATOM     13  H   UNL     1       1.076   1.476  -1.747  1.00  0.00     0.156 HD
ENDBRANCH   3  11
BRANCH   4  14
ATOM     14  N   UNL     1      -1.470   1.624  -1.136  1.00  0.00    -0.346 N 
ATOM     15  H   UNL     1      -2.131   2.333  -1.527  1.00  0.00     0.167 HD
BRANCH  14  16
ATOM     16  C   UNL     1      -0.822   1.908   0.119  1.00  0.00     0.144 A 
ATOM     17  C   UNL     1      -0.310   0.883   0.932  1.00  0.00     0.042 A 
ATOM     18  C   UNL     1      -0.708   3.235   0.564  1.00  0.00     0.381 A 
ATOM     19  C   UNL     1       0.305   1.192   2.144  1.00  0.00     0.076 A 
ATOM     20  N   UNL     1      -0.103   3.514   1.752  1.00  0.00    -0.182 N 
ATOM     21  C   UNL     1       0.392   2.528   2.554  1.00  0.00     0.179 A 
ATOM     22  F   UNL     1      -1.185   4.253  -0.196  1.00  0.00    -0.134 F 
ATOM     23  H   UNL     1      -0.020   4.513   2.047  1.00  0.00     0.456 HD
ATOM     24  C   UNL     1       1.084   2.876   3.838  1.00  0.00     0.123 C 
ENDBRANCH  14  16
ENDBRANCH   4  14
TORSDOF 4


