REMARK SMILES Cc1ccnc(F)c1-c1cc2cc(F)ccc2[nH]1
REMARK SMILES IDX 9 1 10 2 11 3 12 4 13 5 14 6 15 7 16 8 17 9 18 10 8 12 2 13
REMARK SMILES IDX 3 14 4 15 6 16 5 17 1 18 7 19
REMARK H PARENT 18 11
ROOT
ATOM      1  C   UNL     1      -1.009   0.386  -0.190  1.00  0.00     0.051 A 
ATOM      2  C   UNL     1      -1.022   1.447   0.716  1.00  0.00     0.037 A 
ATOM      3  C   UNL     1      -0.678   2.554  -0.028  1.00  0.00     0.003 A 
ATOM      4  C   UNL     1      -0.534   3.888   0.347  1.00  0.00     0.049 A 
ATOM      5  C   UNL     1      -0.176   4.815  -0.651  1.00  0.00     0.123 A 
ATOM      6  F   UNL     1      -0.025   6.123  -0.332  1.00  0.00    -0.207 F 
ATOM      7  C   UNL     1       0.023   4.388  -1.984  1.00  0.00     0.041 A 
ATOM      8  C   UNL     1      -0.132   3.033  -2.330  1.00  0.00     0.030 A 
ATOM      9  C   UNL     1      -0.483   2.139  -1.319  1.00  0.00     0.046 A 
ATOM     10  N   UNL     1      -0.684   0.817  -1.433  1.00  0.00    -0.354 N 
ATOM     11  H   UNL     1      -0.631   0.249  -2.308  1.00  0.00     0.167 HD
ENDROOT
BRANCH   1  12
ATOM     12  C   UNL     1      -1.335  -1.019   0.141  1.00  0.00     0.056 A 
ATOM     13  C   UNL     1      -0.498  -2.095  -0.245  1.00  0.00    -0.036 A 
ATOM     14  C   UNL     1      -0.887  -3.407   0.062  1.00  0.00     0.024 A 
ATOM     15  C   UNL     1      -2.066  -3.634   0.770  1.00  0.00     0.114 A 
ATOM     16  C   UNL     1      -2.509  -1.304   0.865  1.00  0.00     0.222 A 
ATOM     17  N   UNL     1      -2.841  -2.589   1.155  1.00  0.00    -0.228 NA
ATOM     18  C   UNL     1       0.798  -1.879  -0.983  1.00  0.00     0.045 C 
ATOM     19  F   UNL     1      -3.343  -0.307   1.252  1.00  0.00    -0.184 F 
ENDBRANCH   1  12
TORSDOF 1


