MODEL 1
REMARK VINA RESULT:      -9.5      0.000      0.000
REMARK SMILES C=C1CC[C@@H](Nc2cccc(N=C=O)c2O)C[C@H]1F
REMARK SMILES IDX 15 1 11 2 10 3 9 4 8 5 7 6 16 7 12 9 13 10 14 11 6 12 5 14
REMARK SMILES IDX 4 15 17 16 3 17 18 18 2 19 19 20 1 21
REMARK H PARENT 16 8 6 13
ROOT
ATOM      1  C   UNL     1      43.424 131.898  19.425  1.00  0.00     0.165 A 
ATOM      2  C   UNL     1      43.664 131.580  20.774  1.00  0.00     0.120 A 
ATOM      3  C   UNL     1      44.866 130.943  21.134  1.00  0.00     0.033 A 
ATOM      4  C   UNL     1      45.817 130.634  20.162  1.00  0.00     0.005 A 
ATOM      5  C   UNL     1      45.586 130.959  18.826  1.00  0.00     0.030 A 
ATOM      6  C   UNL     1      44.393 131.594  18.441  1.00  0.00     0.079 A 
ENDROOT
BRANCH   1   7
ATOM      7  O   UNL     1      42.205 132.495  19.090  1.00  0.00    -0.504 OA
ATOM      8  H   UNL     1      41.476 132.015  18.576  1.00  0.00     0.293 HD
ENDBRANCH   1   7
BRANCH   2   9
ATOM      9  N   UNL     1      42.660 131.908  21.750  1.00  0.00    -0.164 NA
BRANCH   9  10
ATOM     10  C   UNL     1      42.827 131.804  23.008  1.00  0.00     0.240 C 
ATOM     11  O   UNL     1      42.990 131.703  24.230  1.00  0.00    -0.211 OA
ENDBRANCH   9  10
ENDBRANCH   2   9
BRANCH   6  12
ATOM     12  N   UNL     1      44.185 131.975  17.069  1.00  0.00    -0.379 N 
ATOM     13  H   UNL     1      43.671 132.863  16.866  1.00  0.00     0.160 HD
BRANCH  12  14
ATOM     14  C   UNL     1      44.731 131.227  15.933  1.00  0.00     0.082 C 
ATOM     15  C   UNL     1      45.220 129.849  16.405  1.00  0.00     0.029 C 
ATOM     16  C   UNL     1      45.893 132.016  15.308  1.00  0.00     0.067 C 
ATOM     17  C   UNL     1      45.800 129.035  15.242  1.00  0.00     0.035 C 
ATOM     18  C   UNL     1      46.502 131.269  14.112  1.00  0.00     0.194 C 
ATOM     19  C   UNL     1      46.834 129.837  14.484  1.00  0.00    -0.043 C 
ATOM     20  F   UNL     1      47.628 131.957  13.688  1.00  0.00    -0.243 F 
ATOM     21  C   UNL     1      47.920 129.223  13.983  1.00  0.00     0.011 C 
ENDBRANCH  12  14
ENDBRANCH   6  12
TORSDOF 5
ENDMDL
MODEL 2
REMARK VINA RESULT:      -8.3      1.105      1.631
REMARK SMILES C=C1CC[C@@H](Nc2cccc(N=C=O)c2O)C[C@H]1F
REMARK SMILES IDX 15 1 11 2 10 3 9 4 8 5 7 6 16 7 12 9 13 10 14 11 6 12 5 14
REMARK SMILES IDX 4 15 17 16 3 17 18 18 2 19 19 20 1 21
REMARK H PARENT 16 8 6 13
ROOT
ATOM      1  C   UNL     1      43.516 131.671  19.692  1.00  0.00     0.165 A 
ATOM      2  C   UNL     1      43.608 131.580  21.093  1.00  0.00     0.120 A 
ATOM      3  C   UNL     1      44.740 130.980  21.677  1.00  0.00     0.033 A 
ATOM      4  C   UNL     1      45.766 130.484  20.875  1.00  0.00     0.005 A 
ATOM      5  C   UNL     1      45.683 130.583  19.486  1.00  0.00     0.030 A 
ATOM      6  C   UNL     1      44.563 131.177  18.878  1.00  0.00     0.079 A 
ENDROOT
BRANCH   1   7
ATOM      7  O   UNL     1      42.365 132.236  19.137  1.00  0.00    -0.504 OA
ATOM      8  H   UNL     1      41.429 131.936  19.379  1.00  0.00     0.293 HD
ENDBRANCH   1   7
BRANCH   2   9
ATOM      9  N   UNL     1      42.529 132.096  21.890  1.00  0.00    -0.164 NA
BRANCH   9  10
ATOM     10  C   UNL     1      42.465 131.992  23.158  1.00  0.00     0.240 C 
ATOM     11  O   UNL     1      42.402 131.890  24.389  1.00  0.00    -0.211 OA
ENDBRANCH   9  10
ENDBRANCH   2   9
BRANCH   6  12
ATOM     12  N   UNL     1      44.508 131.326  17.448  1.00  0.00    -0.379 N 
ATOM     13  H   UNL     1      43.589 131.546  17.001  1.00  0.00     0.160 HD
BRANCH  12  14
ATOM     14  C   UNL     1      45.691 131.269  16.586  1.00  0.00     0.082 C 
ATOM     15  C   UNL     1      45.594 132.350  15.497  1.00  0.00     0.029 C 
ATOM     16  C   UNL     1      45.793 129.877  15.941  1.00  0.00     0.067 C 
ATOM     17  C   UNL     1      46.817 132.321  14.573  1.00  0.00     0.035 C 
ATOM     18  C   UNL     1      47.019 129.769  15.023  1.00  0.00     0.194 C 
ATOM     19  C   UNL     1      47.063 130.926  14.044  1.00  0.00    -0.043 C 
ATOM     20  F   UNL     1      46.973 128.550  14.366  1.00  0.00    -0.243 F 
ATOM     21  C   UNL     1      47.508 130.757  12.788  1.00  0.00     0.011 C 
ENDBRANCH  12  14
ENDBRANCH   6  12
TORSDOF 5
ENDMDL
MODEL 3
REMARK VINA RESULT:      -8.2      3.678      7.322
REMARK SMILES C=C1CC[C@@H](Nc2cccc(N=C=O)c2O)C[C@H]1F
REMARK SMILES IDX 15 1 11 2 10 3 9 4 8 5 7 6 16 7 12 9 13 10 14 11 6 12 5 14
REMARK SMILES IDX 4 15 17 16 3 17 18 18 2 19 19 20 1 21
REMARK H PARENT 16 8 6 13
ROOT
ATOM      1  C   UNL     1      45.903 130.327  16.510  1.00  0.00     0.165 A 
ATOM      2  C   UNL     1      45.735 130.060  15.140  1.00  0.00     0.120 A 
ATOM      3  C   UNL     1      44.688 130.684  14.434  1.00  0.00     0.033 A 
ATOM      4  C   UNL     1      43.828 131.566  15.087  1.00  0.00     0.005 A 
ATOM      5  C   UNL     1      44.000 131.840  16.443  1.00  0.00     0.030 A 
ATOM      6  C   UNL     1      45.036 131.230  17.170  1.00  0.00     0.079 A 
ENDROOT
BRANCH   1   7
ATOM      7  O   UNL     1      46.926 129.665  17.195  1.00  0.00    -0.504 OA
ATOM      8  H   UNL     1      47.187 129.884  18.148  1.00  0.00     0.293 HD
ENDBRANCH   1   7
BRANCH   2   9
ATOM      9  N   UNL     1      46.637 129.142  14.499  1.00  0.00    -0.164 NA
BRANCH   9  10
ATOM     10  C   UNL     1      47.708 129.491  13.906  1.00  0.00     0.240 C 
ATOM     11  O   UNL     1      48.749 129.830  13.329  1.00  0.00    -0.211 OA
ENDBRANCH   9  10
ENDBRANCH   2   9
BRANCH   6  12
ATOM     12  N   UNL     1      45.242 131.560  18.556  1.00  0.00    -0.379 N 
ATOM     13  H   UNL     1      46.084 132.121  18.819  1.00  0.00     0.160 HD
BRANCH  12  14
ATOM     14  C   UNL     1      44.287 131.223  19.614  1.00  0.00     0.082 C 
ATOM     15  C   UNL     1      43.455 132.464  19.977  1.00  0.00     0.029 C 
ATOM     16  C   UNL     1      45.047 130.715  20.851  1.00  0.00     0.067 C 
ATOM     17  C   UNL     1      42.443 132.151  21.085  1.00  0.00     0.035 C 
ATOM     18  C   UNL     1      44.086 130.351  21.992  1.00  0.00     0.194 C 
ATOM     19  C   UNL     1      43.119 131.487  22.264  1.00  0.00    -0.043 C 
ATOM     20  F   UNL     1      44.833 130.042  23.117  1.00  0.00    -0.243 F 
ATOM     21  C   UNL     1      42.709 131.766  23.513  1.00  0.00     0.011 C 
ENDBRANCH  12  14
ENDBRANCH   6  12
TORSDOF 5
ENDMDL
MODEL 4
REMARK VINA RESULT:      -8.2      1.335      1.796
REMARK SMILES C=C1CC[C@@H](Nc2cccc(N=C=O)c2O)C[C@H]1F
REMARK SMILES IDX 15 1 11 2 10 3 9 4 8 5 7 6 16 7 12 9 13 10 14 11 6 12 5 14
REMARK SMILES IDX 4 15 17 16 3 17 18 18 2 19 19 20 1 21
REMARK H PARENT 16 8 6 13
ROOT
ATOM      1  C   UNL     1      44.703 131.626  19.608  1.00  0.00     0.165 A 
ATOM      2  C   UNL     1      43.795 131.279  20.625  1.00  0.00     0.120 A 
ATOM      3  C   UNL     1      42.412 131.340  20.372  1.00  0.00     0.033 A 
ATOM      4  C   UNL     1      41.943 131.735  19.120  1.00  0.00     0.005 A 
ATOM      5  C   UNL     1      42.841 132.069  18.107  1.00  0.00     0.030 A 
ATOM      6  C   UNL     1      44.226 132.017  18.334  1.00  0.00     0.079 A 
ENDROOT
BRANCH   1   7
ATOM      7  O   UNL     1      46.070 131.594  19.898  1.00  0.00    -0.504 OA
ATOM      8  H   UNL     1      46.482 132.087  20.680  1.00  0.00     0.293 HD
ENDBRANCH   1   7
BRANCH   2   9
ATOM      9  N   UNL     1      44.313 130.881  21.906  1.00  0.00    -0.164 NA
BRANCH   9  10
ATOM     10  C   UNL     1      43.649 130.933  22.992  1.00  0.00     0.240 C 
ATOM     11  O   UNL     1      43.004 130.985  24.046  1.00  0.00    -0.211 OA
ENDBRANCH   9  10
ENDBRANCH   2   9
BRANCH   6  12
ATOM     12  N   UNL     1      45.148 132.310  17.268  1.00  0.00    -0.379 N 
ATOM     13  H   UNL     1      45.710 133.191  17.318  1.00  0.00     0.160 HD
BRANCH  12  14
ATOM     14  C   UNL     1      45.408 131.395  16.154  1.00  0.00     0.082 C 
ATOM     15  C   UNL     1      46.059 130.106  16.680  1.00  0.00     0.029 C 
ATOM     16  C   UNL     1      46.333 132.077  15.133  1.00  0.00     0.067 C 
ATOM     17  C   UNL     1      46.347 129.122  15.540  1.00  0.00     0.035 C 
ATOM     18  C   UNL     1      46.637 131.154  13.944  1.00  0.00     0.194 C 
ATOM     19  C   UNL     1      47.113 129.797  14.424  1.00  0.00    -0.043 C 
ATOM     20  F   UNL     1      47.584 131.767  13.139  1.00  0.00    -0.243 F 
ATOM     21  C   UNL     1      48.054 129.112  13.751  1.00  0.00     0.011 C 
ENDBRANCH  12  14
ENDBRANCH   6  12
TORSDOF 5
ENDMDL
MODEL 5
REMARK VINA RESULT:      -8.1      1.232      1.232
REMARK SMILES C=C1CC[C@@H](Nc2cccc(N=C=O)c2O)C[C@H]1F
REMARK SMILES IDX 15 1 11 2 10 3 9 4 8 5 7 6 16 7 12 9 13 10 14 11 6 12 5 14
REMARK SMILES IDX 4 15 17 16 3 17 18 18 2 19 19 20 1 21
REMARK H PARENT 16 8 6 13
ROOT
ATOM      1  C   UNL     1      43.469 131.753  18.891  1.00  0.00     0.165 A 
ATOM      2  C   UNL     1      43.677 131.514  20.261  1.00  0.00     0.120 A 
ATOM      3  C   UNL     1      44.925 131.032  20.700  1.00  0.00     0.033 A 
ATOM      4  C   UNL     1      45.951 130.798  19.785  1.00  0.00     0.005 A 
ATOM      5  C   UNL     1      45.750 131.045  18.428  1.00  0.00     0.030 A 
ATOM      6  C   UNL     1      44.514 131.526  17.964  1.00  0.00     0.079 A 
ENDROOT
BRANCH   1   7
ATOM      7  O   UNL     1      42.209 132.194  18.477  1.00  0.00    -0.504 OA
ATOM      8  H   UNL     1      41.353 131.958  18.961  1.00  0.00     0.293 HD
ENDBRANCH   1   7
BRANCH   2   9
ATOM      9  N   UNL     1      42.597 131.761  21.176  1.00  0.00    -0.164 NA
BRANCH   9  10
ATOM     10  C   UNL     1      41.782 132.734  21.073  1.00  0.00     0.240 C 
ATOM     11  O   UNL     1      40.990 133.680  20.974  1.00  0.00    -0.211 OA
ENDBRANCH   9  10
ENDBRANCH   2   9
BRANCH   6  12
ATOM     12  N   UNL     1      44.331 131.830  16.569  1.00  0.00    -0.379 N 
ATOM     13  H   UNL     1      43.776 132.678  16.308  1.00  0.00     0.160 HD
BRANCH  12  14
ATOM     14  C   UNL     1      44.954 131.062  15.488  1.00  0.00     0.082 C 
ATOM     15  C   UNL     1      45.564 129.769  16.054  1.00  0.00     0.029 C 
ATOM     16  C   UNL     1      46.044 131.911  14.815  1.00  0.00     0.067 C 
ATOM     17  C   UNL     1      46.228 128.937  14.950  1.00  0.00     0.035 C 
ATOM     18  C   UNL     1      46.730 131.146  13.674  1.00  0.00     0.194 C 
ATOM     19  C   UNL     1      47.190 129.779  14.143  1.00  0.00    -0.043 C 
ATOM     20  F   UNL     1      47.792 131.904  13.208  1.00  0.00    -0.243 F 
ATOM     21  C   UNL     1      48.332 129.236  13.688  1.00  0.00     0.011 C 
ENDBRANCH  12  14
ENDBRANCH   6  12
TORSDOF 5
ENDMDL
MODEL 6
REMARK VINA RESULT:      -8.1      3.649      7.218
REMARK SMILES C=C1CC[C@@H](Nc2cccc(N=C=O)c2O)C[C@H]1F
REMARK SMILES IDX 15 1 11 2 10 3 9 4 8 5 7 6 16 7 12 9 13 10 14 11 6 12 5 14
REMARK SMILES IDX 4 15 17 16 3 17 18 18 2 19 19 20 1 21
REMARK H PARENT 16 8 6 13
ROOT
ATOM      1  C   UNL     1      46.178 130.263  16.207  1.00  0.00     0.165 A 
ATOM      2  C   UNL     1      45.815 130.517  14.873  1.00  0.00     0.120 A 
ATOM      3  C   UNL     1      44.627 131.222  14.599  1.00  0.00     0.033 A 
ATOM      4  C   UNL     1      43.819 131.671  15.642  1.00  0.00     0.005 A 
ATOM      5  C   UNL     1      44.183 131.430  16.966  1.00  0.00     0.030 A 
ATOM      6  C   UNL     1      45.363 130.728  17.266  1.00  0.00     0.079 A 
ENDROOT
BRANCH   1   7
ATOM      7  O   UNL     1      47.342 129.528  16.450  1.00  0.00    -0.504 OA
ATOM      8  H   UNL     1      47.726 128.863  15.790  1.00  0.00     0.293 HD
ENDBRANCH   1   7
BRANCH   2   9
ATOM      9  N   UNL     1      46.668 130.035  13.821  1.00  0.00    -0.164 NA
BRANCH   9  10
ATOM     10  C   UNL     1      47.481 130.768  13.169  1.00  0.00     0.240 C 
ATOM     11  O   UNL     1      48.270 131.481  12.537  1.00  0.00    -0.211 OA
ENDBRANCH   9  10
ENDBRANCH   2   9
BRANCH   6  12
ATOM     12  N   UNL     1      45.762 130.530  18.635  1.00  0.00    -0.379 N 
ATOM     13  H   UNL     1      46.543 129.865  18.840  1.00  0.00     0.160 HD
BRANCH  12  14
ATOM     14  C   UNL     1      45.187 131.276  19.757  1.00  0.00     0.082 C 
ATOM     15  C   UNL     1      45.277 130.435  21.041  1.00  0.00     0.029 C 
ATOM     16  C   UNL     1      43.720 131.619  19.451  1.00  0.00     0.067 C 
ATOM     17  C   UNL     1      44.683 131.184  22.240  1.00  0.00     0.035 C 
ATOM     18  C   UNL     1      43.072 132.401  20.602  1.00  0.00     0.194 C 
ATOM     19  C   UNL     1      43.295 131.695  21.925  1.00  0.00    -0.043 C 
ATOM     20  F   UNL     1      41.722 132.551  20.329  1.00  0.00    -0.243 F 
ATOM     21  C   UNL     1      42.352 131.700  22.883  1.00  0.00     0.011 C 
ENDBRANCH  12  14
ENDBRANCH   6  12
TORSDOF 5
ENDMDL
MODEL 7
REMARK VINA RESULT:      -7.9      1.816      2.539
REMARK SMILES C=C1CC[C@@H](Nc2cccc(N=C=O)c2O)C[C@H]1F
REMARK SMILES IDX 15 1 11 2 10 3 9 4 8 5 7 6 16 7 12 9 13 10 14 11 6 12 5 14
REMARK SMILES IDX 4 15 17 16 3 17 18 18 2 19 19 20 1 21
REMARK H PARENT 16 8 6 13
ROOT
ATOM      1  C   UNL     1      44.191 131.289  19.256  1.00  0.00     0.165 A 
ATOM      2  C   UNL     1      43.834 131.642  20.569  1.00  0.00     0.120 A 
ATOM      3  C   UNL     1      42.627 132.329  20.800  1.00  0.00     0.033 A 
ATOM      4  C   UNL     1      41.787 132.653  19.735  1.00  0.00     0.005 A 
ATOM      5  C   UNL     1      42.134 132.295  18.433  1.00  0.00     0.030 A 
ATOM      6  C   UNL     1      43.333 131.609  18.176  1.00  0.00     0.079 A 
ENDROOT
BRANCH   1   7
ATOM      7  O   UNL     1      45.412 130.642  19.050  1.00  0.00    -0.504 OA
ATOM      8  H   UNL     1      45.498 129.638  18.954  1.00  0.00     0.293 HD
ENDBRANCH   1   7
BRANCH   2   9
ATOM      9  N   UNL     1      44.725 131.297  21.643  1.00  0.00    -0.164 NA
BRANCH   9  10
ATOM     10  C   UNL     1      44.556 130.301  22.419  1.00  0.00     0.240 C 
ATOM     11  O   UNL     1      44.392 129.334  23.172  1.00  0.00    -0.211 OA
ENDBRANCH   9  10
ENDBRANCH   2   9
BRANCH   6  12
ATOM     12  N   UNL     1      43.659 131.194  16.837  1.00  0.00    -0.379 N 
ATOM     13  H   UNL     1      42.879 130.971  16.177  1.00  0.00     0.160 HD
BRANCH  12  14
ATOM     14  C   UNL     1      45.029 131.147  16.319  1.00  0.00     0.082 C 
ATOM     15  C   UNL     1      45.218 132.237  15.252  1.00  0.00     0.029 C 
ATOM     16  C   UNL     1      45.303 129.761  15.713  1.00  0.00     0.067 C 
ATOM     17  C   UNL     1      46.642 132.219  14.684  1.00  0.00     0.035 C 
ATOM     18  C   UNL     1      46.729 129.663  15.152  1.00  0.00     0.194 C 
ATOM     19  C   UNL     1      47.025 130.828  14.229  1.00  0.00    -0.043 C 
ATOM     20  F   UNL     1      46.864 128.450  14.496  1.00  0.00    -0.243 F 
ATOM     21  C   UNL     1      47.788 130.671  13.134  1.00  0.00     0.011 C 
ENDBRANCH  12  14
ENDBRANCH   6  12
TORSDOF 5
ENDMDL
MODEL 8
REMARK VINA RESULT:      -7.5      3.702      7.057
REMARK SMILES C=C1CC[C@@H](Nc2cccc(N=C=O)c2O)C[C@H]1F
REMARK SMILES IDX 15 1 11 2 10 3 9 4 8 5 7 6 16 7 12 9 13 10 14 11 6 12 5 14
REMARK SMILES IDX 4 15 17 16 3 17 18 18 2 19 19 20 1 21
REMARK H PARENT 16 8 6 13
ROOT
ATOM      1  C   UNL     1      45.954 130.372  16.850  1.00  0.00     0.165 A 
ATOM      2  C   UNL     1      45.229 130.641  15.675  1.00  0.00     0.120 A 
ATOM      3  C   UNL     1      44.008 131.337  15.756  1.00  0.00     0.033 A 
ATOM      4  C   UNL     1      43.521 131.763  16.992  1.00  0.00     0.005 A 
ATOM      5  C   UNL     1      44.244 131.507  18.156  1.00  0.00     0.030 A 
ATOM      6  C   UNL     1      45.465 130.814  18.102  1.00  0.00     0.079 A 
ENDROOT
BRANCH   1   7
ATOM      7  O   UNL     1      47.143 129.647  16.745  1.00  0.00    -0.504 OA
ATOM      8  H   UNL     1      47.748 129.457  17.534  1.00  0.00     0.293 HD
ENDBRANCH   1   7
BRANCH   2   9
ATOM      9  N   UNL     1      45.756 130.184  14.418  1.00  0.00    -0.164 NA
BRANCH   9  10
ATOM     10  C   UNL     1      46.685 130.773  13.777  1.00  0.00     0.240 C 
ATOM     11  O   UNL     1      47.588 131.346  13.154  1.00  0.00    -0.211 OA
ENDBRANCH   9  10
ENDBRANCH   2   9
BRANCH   6  12
ATOM     12  N   UNL     1      46.233 130.601  19.301  1.00  0.00    -0.379 N 
ATOM     13  H   UNL     1      47.267 130.474  19.219  1.00  0.00     0.160 HD
BRANCH  12  14
ATOM     14  C   UNL     1      45.653 130.638  20.646  1.00  0.00     0.082 C 
ATOM     15  C   UNL     1      45.350 129.208  21.121  1.00  0.00     0.029 C 
ATOM     16  C   UNL     1      44.362 131.474  20.627  1.00  0.00     0.067 C 
ATOM     17  C   UNL     1      44.739 129.206  22.527  1.00  0.00     0.035 C 
ATOM     18  C   UNL     1      43.713 131.540  22.018  1.00  0.00     0.194 C 
ATOM     19  C   UNL     1      43.561 130.151  22.608  1.00  0.00    -0.043 C 
ATOM     20  F   UNL     1      42.489 132.179  21.905  1.00  0.00    -0.243 F 
ATOM     21  C   UNL     1      42.497 129.829  23.362  1.00  0.00     0.011 C 
ENDBRANCH  12  14
ENDBRANCH   6  12
TORSDOF 5
ENDMDL
MODEL 9
REMARK VINA RESULT:      -7.4      3.616      7.130
REMARK SMILES C=C1CC[C@@H](Nc2cccc(N=C=O)c2O)C[C@H]1F
REMARK SMILES IDX 15 1 11 2 10 3 9 4 8 5 7 6 16 7 12 9 13 10 14 11 6 12 5 14
REMARK SMILES IDX 4 15 17 16 3 17 18 18 2 19 19 20 1 21
REMARK H PARENT 16 8 6 13
ROOT
ATOM      1  C   UNL     1      45.823 131.606  15.646  1.00  0.00     0.165 A 
ATOM      2  C   UNL     1      46.550 130.837  14.720  1.00  0.00     0.120 A 
ATOM      3  C   UNL     1      46.337 129.447  14.653  1.00  0.00     0.033 A 
ATOM      4  C   UNL     1      45.408 128.836  15.493  1.00  0.00     0.005 A 
ATOM      5  C   UNL     1      44.678 129.598  16.404  1.00  0.00     0.030 A 
ATOM      6  C   UNL     1      44.872 130.987  16.492  1.00  0.00     0.079 A 
ENDROOT
BRANCH   1   7
ATOM      7  O   UNL     1      46.081 132.978  15.720  1.00  0.00    -0.504 OA
ATOM      8  H   UNL     1      47.010 133.361  15.839  1.00  0.00     0.293 HD
ENDBRANCH   1   7
BRANCH   2   9
ATOM      9  N   UNL     1      47.504 131.499  13.872  1.00  0.00    -0.164 NA
BRANCH   9  10
ATOM     10  C   UNL     1      47.696 131.204  12.648  1.00  0.00     0.240 C 
ATOM     11  O   UNL     1      47.883 130.916  11.459  1.00  0.00    -0.211 OA
ENDBRANCH   9  10
ENDBRANCH   2   9
BRANCH   6  12
ATOM     12  N   UNL     1      44.076 131.775  17.396  1.00  0.00    -0.379 N 
ATOM     13  H   UNL     1      43.205 132.227  17.035  1.00  0.00     0.160 HD
BRANCH  12  14
ATOM     14  C   UNL     1      44.375 131.911  18.824  1.00  0.00     0.082 C 
ATOM     15  C   UNL     1      45.332 130.791  19.263  1.00  0.00     0.029 C 
ATOM     16  C   UNL     1      43.070 131.837  19.632  1.00  0.00     0.067 C 
ATOM     17  C   UNL     1      45.668 130.899  20.755  1.00  0.00     0.035 C 
ATOM     18  C   UNL     1      43.332 131.972  21.140  1.00  0.00     0.194 C 
ATOM     19  C   UNL     1      44.410 131.004  21.587  1.00  0.00    -0.043 C 
ATOM     20  F   UNL     1      42.143 131.754  21.816  1.00  0.00    -0.243 F 
ATOM     21  C   UNL     1      44.352 130.408  22.790  1.00  0.00     0.011 C 
ENDBRANCH  12  14
ENDBRANCH   6  12
TORSDOF 5
ENDMDL


