MODEL 1
REMARK VINA RESULT:      -9.9      0.000      0.000
REMARK SMILES Nc1cc(F)c[n-]/c1=N\c1cnc2[nH]ccc2c1
REMARK SMILES IDX 8 1 7 2 6 3 4 4 5 5 3 6 2 7 9 8 10 9 11 10 12 11 13 12 18 13
REMARK SMILES IDX 17 14 14 15 16 16 15 17 1 19
REMARK H PARENT 14 18 1 20 1 21
ROOT
ATOM      1  C   UNL     1      44.125 131.728  18.530  1.00  0.00    -0.035 A 
ATOM      2  N   UNL     1      45.164 131.287  19.297  1.00  0.00    -0.438 NA
ATOM      3  C   UNL     1      45.060 131.141  20.643  1.00  0.00     0.018 A 
ATOM      4  C   UNL     1      43.865 131.454  21.289  1.00  0.00     0.121 A 
ATOM      5  F   UNL     1      43.755 131.312  22.632  1.00  0.00    -0.207 F 
ATOM      6  C   UNL     1      42.785 131.919  20.538  1.00  0.00     0.064 A 
ATOM      7  C   UNL     1      42.904 132.066  19.149  1.00  0.00     0.033 A 
ENDROOT
BRANCH   1   8
ATOM      8  N   UNL     1      44.263 131.880  17.242  1.00  0.00    -0.433 NA
BRANCH   8   9
ATOM      9  C   UNL     1      45.156 131.161  16.375  1.00  0.00    -0.022 A 
ATOM     10  C   UNL     1      45.436 129.803  16.662  1.00  0.00     0.117 A 
ATOM     11  N   UNL     1      46.308 129.088  15.889  1.00  0.00    -0.238 NA
ATOM     12  C   UNL     1      46.917 129.701  14.845  1.00  0.00     0.137 A 
ATOM     13  C   UNL     1      45.828 131.790  15.299  1.00  0.00     0.017 A 
ATOM     14  C   UNL     1      46.700 131.014  14.546  1.00  0.00     0.019 A 
ATOM     15  N   UNL     1      47.803 129.146  14.006  1.00  0.00    -0.346 N 
ATOM     16  C   UNL     1      47.490 131.319  13.460  1.00  0.00     0.029 A 
ATOM     17  C   UNL     1      48.158 130.134  13.152  1.00  0.00     0.085 A 
ATOM     18  H   UNL     1      48.153 128.162  14.013  1.00  0.00     0.167 HD
ENDBRANCH   8   9
ENDBRANCH   1   8
BRANCH   7  19
ATOM     19  N   UNL     1      41.788 132.549  18.389  1.00  0.00    -0.399 N 
ATOM     20  H   UNL     1      41.732 133.542  18.069  1.00  0.00     0.156 HD
ATOM     21  H   UNL     1      41.002 131.911  18.136  1.00  0.00     0.156 HD
ENDBRANCH   7  19
TORSDOF 3
ENDMDL
MODEL 2
REMARK VINA RESULT:      -9.2      1.600      2.451
REMARK SMILES Nc1cc(F)c[n-]/c1=N\c1cnc2[nH]ccc2c1
REMARK SMILES IDX 8 1 7 2 6 3 4 4 5 5 3 6 2 7 9 8 10 9 11 10 12 11 13 12 18 13
REMARK SMILES IDX 17 14 14 15 16 16 15 17 1 19
REMARK H PARENT 14 18 1 20 1 21
ROOT
ATOM      1  C   UNL     1      44.238 131.310  19.040  1.00  0.00    -0.035 A 
ATOM      2  N   UNL     1      43.159 131.704  18.303  1.00  0.00    -0.438 NA
ATOM      3  C   UNL     1      42.110 132.369  18.852  1.00  0.00     0.018 A 
ATOM      4  C   UNL     1      42.107 132.663  20.214  1.00  0.00     0.121 A 
ATOM      5  F   UNL     1      41.062 133.325  20.770  1.00  0.00    -0.207 F 
ATOM      6  C   UNL     1      43.188 132.264  21.002  1.00  0.00     0.064 A 
ATOM      7  C   UNL     1      44.265 131.579  20.424  1.00  0.00     0.033 A 
ENDROOT
BRANCH   1   8
ATOM      8  N   UNL     1      45.219 130.652  18.488  1.00  0.00    -0.433 NA
BRANCH   8   9
ATOM      9  C   UNL     1      45.769 130.855  17.175  1.00  0.00    -0.022 A 
ATOM     10  C   UNL     1      45.546 132.095  16.529  1.00  0.00     0.117 A 
ATOM     11  N   UNL     1      46.016 132.322  15.266  1.00  0.00    -0.238 NA
ATOM     12  C   UNL     1      46.692 131.336  14.627  1.00  0.00     0.137 A 
ATOM     13  C   UNL     1      46.449 129.828  16.478  1.00  0.00     0.017 A 
ATOM     14  C   UNL     1      46.908 130.116  15.198  1.00  0.00     0.019 A 
ATOM     15  N   UNL     1      47.201 131.396  13.389  1.00  0.00    -0.346 N 
ATOM     16  C   UNL     1      47.589 129.351  14.277  1.00  0.00     0.029 A 
ATOM     17  C   UNL     1      47.755 130.180  13.168  1.00  0.00     0.085 A 
ATOM     18  H   UNL     1      47.171 132.205  12.729  1.00  0.00     0.167 HD
ENDBRANCH   8   9
ENDBRANCH   1   8
BRANCH   7  19
ATOM     19  N   UNL     1      45.368 131.171  21.244  1.00  0.00    -0.399 N 
ATOM     20  H   UNL     1      45.455 131.480  22.238  1.00  0.00     0.156 HD
ATOM     21  H   UNL     1      46.113 130.549  20.860  1.00  0.00     0.156 HD
ENDBRANCH   7  19
TORSDOF 3
ENDMDL
MODEL 3
REMARK VINA RESULT:      -9.1      2.945      6.430
REMARK SMILES Nc1cc(F)c[n-]/c1=N\c1cnc2[nH]ccc2c1
REMARK SMILES IDX 8 1 7 2 6 3 4 4 5 5 3 6 2 7 9 8 10 9 11 10 12 11 13 12 18 13
REMARK SMILES IDX 17 14 14 15 16 16 15 17 1 19
REMARK H PARENT 14 18 1 20 1 21
ROOT
ATOM      1  C   UNL     1      45.537 130.894  14.973  1.00  0.00    -0.035 A 
ATOM      2  N   UNL     1      46.381 131.776  14.366  1.00  0.00    -0.438 NA
ATOM      3  C   UNL     1      47.522 131.378  13.746  1.00  0.00     0.018 A 
ATOM      4  C   UNL     1      47.869 130.028  13.724  1.00  0.00     0.121 A 
ATOM      5  F   UNL     1      49.007 129.624  13.108  1.00  0.00    -0.207 F 
ATOM      6  C   UNL     1      47.035 129.099  14.346  1.00  0.00     0.064 A 
ATOM      7  C   UNL     1      45.861 129.521  14.982  1.00  0.00     0.033 A 
ENDROOT
BRANCH   1   8
ATOM      8  N   UNL     1      44.461 131.310  15.581  1.00  0.00    -0.433 NA
BRANCH   8   9
ATOM      9  C   UNL     1      44.240 131.387  16.999  1.00  0.00    -0.022 A 
ATOM     10  C   UNL     1      42.964 131.786  17.468  1.00  0.00     0.117 A 
ATOM     11  N   UNL     1      42.717 131.911  18.806  1.00  0.00    -0.238 NA
ATOM     12  C   UNL     1      43.716 131.661  19.687  1.00  0.00     0.137 A 
ATOM     13  C   UNL     1      45.278 131.162  17.935  1.00  0.00     0.017 A 
ATOM     14  C   UNL     1      44.968 131.301  19.282  1.00  0.00     0.019 A 
ATOM     15  N   UNL     1      43.639 131.753  21.022  1.00  0.00    -0.346 N 
ATOM     16  C   UNL     1      45.736 131.156  20.416  1.00  0.00     0.029 A 
ATOM     17  C   UNL     1      44.876 131.442  21.476  1.00  0.00     0.085 A 
ATOM     18  H   UNL     1      42.805 132.015  21.593  1.00  0.00     0.167 HD
ENDBRANCH   8   9
ENDBRANCH   1   8
BRANCH   7  19
ATOM     19  N   UNL     1      45.014 128.557  15.621  1.00  0.00    -0.399 N 
ATOM     20  H   UNL     1      44.070 128.815  15.988  1.00  0.00     0.156 HD
ATOM     21  H   UNL     1      45.326 127.567  15.733  1.00  0.00     0.156 HD
ENDBRANCH   7  19
TORSDOF 3
ENDMDL
MODEL 4
REMARK VINA RESULT:      -8.7      2.767      6.488
REMARK SMILES Nc1cc(F)c[n-]/c1=N\c1cnc2[nH]ccc2c1
REMARK SMILES IDX 8 1 7 2 6 3 4 4 5 5 3 6 2 7 9 8 10 9 11 10 12 11 13 12 18 13
REMARK SMILES IDX 17 14 14 15 16 16 15 17 1 19
REMARK H PARENT 14 18 1 20 1 21
ROOT
ATOM      1  C   UNL     1      44.898 130.995  15.878  1.00  0.00    -0.035 A 
ATOM      2  N   UNL     1      44.834 129.639  15.739  1.00  0.00    -0.438 NA
ATOM      3  C   UNL     1      45.793 128.930  15.089  1.00  0.00     0.018 A 
ATOM      4  C   UNL     1      46.887 129.588  14.529  1.00  0.00     0.121 A 
ATOM      5  F   UNL     1      47.847 128.888  13.878  1.00  0.00    -0.207 F 
ATOM      6  C   UNL     1      46.980 130.976  14.641  1.00  0.00     0.064 A 
ATOM      7  C   UNL     1      45.984 131.696  15.314  1.00  0.00     0.033 A 
ENDROOT
BRANCH   1   8
ATOM      8  N   UNL     1      43.950 131.650  16.487  1.00  0.00    -0.433 NA
BRANCH   8   9
ATOM      9  C   UNL     1      43.653 131.639  17.894  1.00  0.00    -0.022 A 
ATOM     10  C   UNL     1      42.344 131.977  18.316  1.00  0.00     0.117 A 
ATOM     11  N   UNL     1      42.023 132.016  19.644  1.00  0.00    -0.238 NA
ATOM     12  C   UNL     1      42.982 131.741  20.561  1.00  0.00     0.137 A 
ATOM     13  C   UNL     1      44.647 131.386  18.870  1.00  0.00     0.017 A 
ATOM     14  C   UNL     1      44.263 131.437  20.205  1.00  0.00     0.019 A 
ATOM     15  N   UNL     1      42.832 131.752  21.893  1.00  0.00    -0.346 N 
ATOM     16  C   UNL     1      44.974 131.246  21.368  1.00  0.00     0.029 A 
ATOM     17  C   UNL     1      44.052 131.447  22.395  1.00  0.00     0.085 A 
ATOM     18  H   UNL     1      41.962 131.959  22.432  1.00  0.00     0.167 HD
ENDBRANCH   8   9
ENDBRANCH   1   8
BRANCH   7  19
ATOM     19  N   UNL     1      46.089 133.122  15.420  1.00  0.00    -0.399 N 
ATOM     20  H   UNL     1      46.964 133.584  15.757  1.00  0.00     0.156 HD
ATOM     21  H   UNL     1      45.285 133.735  15.158  1.00  0.00     0.156 HD
ENDBRANCH   7  19
TORSDOF 3
ENDMDL
MODEL 5
REMARK VINA RESULT:      -8.7      2.946      6.557
REMARK SMILES Nc1cc(F)c[n-]/c1=N\c1cnc2[nH]ccc2c1
REMARK SMILES IDX 8 1 7 2 6 3 4 4 5 5 3 6 2 7 9 8 10 9 11 10 12 11 13 12 18 13
REMARK SMILES IDX 17 14 14 15 16 16 15 17 1 19
REMARK H PARENT 14 18 1 20 1 21
ROOT
ATOM      1  C   UNL     1      45.406 130.964  15.550  1.00  0.00    -0.035 A 
ATOM      2  N   UNL     1      46.152 131.988  15.043  1.00  0.00    -0.438 NA
ATOM      3  C   UNL     1      47.179 131.778  14.180  1.00  0.00     0.018 A 
ATOM      4  C   UNL     1      47.509 130.481  13.790  1.00  0.00     0.121 A 
ATOM      5  F   UNL     1      48.534 130.265  12.930  1.00  0.00    -0.207 F 
ATOM      6  C   UNL     1      46.775 129.408  14.298  1.00  0.00     0.064 A 
ATOM      7  C   UNL     1      45.717 129.637  15.187  1.00  0.00     0.033 A 
ENDROOT
BRANCH   1   8
ATOM      8  N   UNL     1      44.441 131.195  16.396  1.00  0.00    -0.433 NA
BRANCH   8   9
ATOM      9  C   UNL     1      44.535 131.233  17.829  1.00  0.00    -0.022 A 
ATOM     10  C   UNL     1      45.703 130.725  18.448  1.00  0.00     0.117 A 
ATOM     11  N   UNL     1      45.824 130.705  19.810  1.00  0.00    -0.238 NA
ATOM     12  C   UNL     1      44.800 131.166  20.568  1.00  0.00     0.137 A 
ATOM     13  C   UNL     1      43.465 131.681  18.641  1.00  0.00     0.017 A 
ATOM     14  C   UNL     1      43.644 131.640  20.019  1.00  0.00     0.019 A 
ATOM     15  N   UNL     1      44.757 131.200  21.908  1.00  0.00    -0.346 N 
ATOM     16  C   UNL     1      42.815 131.994  21.060  1.00  0.00     0.029 A 
ATOM     17  C   UNL     1      43.541 131.709  22.216  1.00  0.00     0.085 A 
ATOM     18  H   UNL     1      45.500 130.893  22.574  1.00  0.00     0.167 HD
ENDBRANCH   8   9
ENDBRANCH   1   8
BRANCH   7  19
ATOM     19  N   UNL     1      44.974 128.526  15.706  1.00  0.00    -0.399 N 
ATOM     20  H   UNL     1      44.922 128.333  16.731  1.00  0.00     0.156 HD
ATOM     21  H   UNL     1      44.464 127.882  15.062  1.00  0.00     0.156 HD
ENDBRANCH   7  19
TORSDOF 3
ENDMDL
MODEL 6
REMARK VINA RESULT:      -8.7      2.772      6.575
REMARK SMILES Nc1cc(F)c[n-]/c1=N\c1cnc2[nH]ccc2c1
REMARK SMILES IDX 8 1 7 2 6 3 4 4 5 5 3 6 2 7 9 8 10 9 11 10 12 11 13 12 18 13
REMARK SMILES IDX 17 14 14 15 16 16 15 17 1 19
REMARK H PARENT 14 18 1 20 1 21
ROOT
ATOM      1  C   UNL     1      45.224 130.852  16.140  1.00  0.00    -0.035 A 
ATOM      2  N   UNL     1      45.290 129.501  15.962  1.00  0.00    -0.438 NA
ATOM      3  C   UNL     1      46.146 128.928  15.077  1.00  0.00     0.018 A 
ATOM      4  C   UNL     1      46.989 129.726  14.305  1.00  0.00     0.121 A 
ATOM      5  F   UNL     1      47.845 129.160  13.418  1.00  0.00    -0.207 F 
ATOM      6  C   UNL     1      46.940 131.113  14.452  1.00  0.00     0.064 A 
ATOM      7  C   UNL     1      46.054 131.693  15.369  1.00  0.00     0.033 A 
ENDROOT
BRANCH   1   8
ATOM      8  N   UNL     1      44.375 131.374  16.981  1.00  0.00    -0.433 NA
BRANCH   8   9
ATOM      9  C   UNL     1      44.453 131.355  18.416  1.00  0.00    -0.022 A 
ATOM     10  C   UNL     1      45.621 130.836  19.026  1.00  0.00     0.117 A 
ATOM     11  N   UNL     1      45.727 130.762  20.387  1.00  0.00    -0.238 NA
ATOM     12  C   UNL     1      44.689 131.179  21.153  1.00  0.00     0.137 A 
ATOM     13  C   UNL     1      43.369 131.755  19.233  1.00  0.00     0.017 A 
ATOM     14  C   UNL     1      43.534 131.660  20.610  1.00  0.00     0.019 A 
ATOM     15  N   UNL     1      44.632 131.158  22.491  1.00  0.00    -0.346 N 
ATOM     16  C   UNL     1      42.689 131.961  21.655  1.00  0.00     0.029 A 
ATOM     17  C   UNL     1      43.406 131.638  22.806  1.00  0.00     0.085 A 
ATOM     18  H   UNL     1      45.371 130.832  23.153  1.00  0.00     0.167 HD
ENDBRANCH   8   9
ENDBRANCH   1   8
BRANCH   7  19
ATOM     19  N   UNL     1      46.009 133.119  15.507  1.00  0.00    -0.399 N 
ATOM     20  H   UNL     1      46.711 133.737  15.040  1.00  0.00     0.156 HD
ATOM     21  H   UNL     1      45.267 133.574  16.083  1.00  0.00     0.156 HD
ENDBRANCH   7  19
TORSDOF 3
ENDMDL
MODEL 7
REMARK VINA RESULT:      -8.6      3.010      6.573
REMARK SMILES Nc1cc(F)c[n-]/c1=N\c1cnc2[nH]ccc2c1
REMARK SMILES IDX 8 1 7 2 6 3 4 4 5 5 3 6 2 7 9 8 10 9 11 10 12 11 13 12 18 13
REMARK SMILES IDX 17 14 14 15 16 16 15 17 1 19
REMARK H PARENT 14 18 1 20 1 21
ROOT
ATOM      1  C   UNL     1      45.646 130.802  14.854  1.00  0.00    -0.035 A 
ATOM      2  N   UNL     1      46.475 131.668  14.203  1.00  0.00    -0.438 NA
ATOM      3  C   UNL     1      47.615 131.258  13.589  1.00  0.00     0.018 A 
ATOM      4  C   UNL     1      47.977 129.913  13.619  1.00  0.00     0.121 A 
ATOM      5  F   UNL     1      49.115 129.496  13.010  1.00  0.00    -0.207 F 
ATOM      6  C   UNL     1      47.159 129.000  14.286  1.00  0.00     0.064 A 
ATOM      7  C   UNL     1      45.985 129.435  14.915  1.00  0.00     0.033 A 
ENDROOT
BRANCH   1   8
ATOM      8  N   UNL     1      44.570 131.230  15.453  1.00  0.00    -0.433 NA
BRANCH   8   9
ATOM      9  C   UNL     1      44.382 131.423  16.865  1.00  0.00    -0.022 A 
ATOM     10  C   UNL     1      45.461 131.139  17.739  1.00  0.00     0.117 A 
ATOM     11  N   UNL     1      45.319 131.271  19.092  1.00  0.00    -0.238 NA
ATOM     12  C   UNL     1      44.124 131.665  19.595  1.00  0.00     0.137 A 
ATOM     13  C   UNL     1      43.133 131.801  17.413  1.00  0.00     0.017 A 
ATOM     14  C   UNL     1      43.049 131.922  18.795  1.00  0.00     0.019 A 
ATOM     15  N   UNL     1      43.822 131.825  20.891  1.00  0.00    -0.346 N 
ATOM     16  C   UNL     1      42.001 132.264  19.621  1.00  0.00     0.029 A 
ATOM     17  C   UNL     1      42.520 132.195  20.913  1.00  0.00     0.085 A 
ATOM     18  H   UNL     1      44.453 131.688  21.711  1.00  0.00     0.167 HD
ENDBRANCH   8   9
ENDBRANCH   1   8
BRANCH   7  19
ATOM     19  N   UNL     1      45.155 128.488  15.600  1.00  0.00    -0.399 N 
ATOM     20  H   UNL     1      45.171 128.398  16.641  1.00  0.00     0.156 HD
ATOM     21  H   UNL     1      44.511 127.863  15.068  1.00  0.00     0.156 HD
ENDBRANCH   7  19
TORSDOF 3
ENDMDL
MODEL 8
REMARK VINA RESULT:      -8.2      1.015      1.469
REMARK SMILES Nc1cc(F)c[n-]/c1=N\c1cnc2[nH]ccc2c1
REMARK SMILES IDX 8 1 7 2 6 3 4 4 5 5 3 6 2 7 9 8 10 9 11 10 12 11 13 12 18 13
REMARK SMILES IDX 17 14 14 15 16 16 15 17 1 19
REMARK H PARENT 14 18 1 20 1 21
ROOT
ATOM      1  C   UNL     1      43.964 131.556  18.571  1.00  0.00    -0.035 A 
ATOM      2  N   UNL     1      45.078 131.098  19.212  1.00  0.00    -0.438 NA
ATOM      3  C   UNL     1      45.180 131.081  20.567  1.00  0.00     0.018 A 
ATOM      4  C   UNL     1      44.127 131.550  21.351  1.00  0.00     0.121 A 
ATOM      5  F   UNL     1      44.222 131.537  22.703  1.00  0.00    -0.207 F 
ATOM      6  C   UNL     1      42.977 132.037  20.729  1.00  0.00     0.064 A 
ATOM      7  C   UNL     1      42.884 132.049  19.331  1.00  0.00     0.033 A 
ENDROOT
BRANCH   1   8
ATOM      8  N   UNL     1      43.907 131.581  17.269  1.00  0.00    -0.433 NA
BRANCH   8   9
ATOM      9  C   UNL     1      44.988 131.360  16.349  1.00  0.00    -0.022 A 
ATOM     10  C   UNL     1      45.563 132.477  15.693  1.00  0.00     0.117 A 
ATOM     11  N   UNL     1      46.568 132.315  14.782  1.00  0.00    -0.238 NA
ATOM     12  C   UNL     1      47.004 131.063  14.498  1.00  0.00     0.137 A 
ATOM     13  C   UNL     1      45.437 130.060  16.013  1.00  0.00     0.017 A 
ATOM     14  C   UNL     1      46.463 129.955  15.082  1.00  0.00     0.019 A 
ATOM     15  N   UNL     1      47.965 130.737  13.622  1.00  0.00    -0.346 N 
ATOM     16  C   UNL     1      47.109 128.860  14.552  1.00  0.00     0.029 A 
ATOM     17  C   UNL     1      48.035 129.385  13.652  1.00  0.00     0.085 A 
ATOM     18  H   UNL     1      48.534 131.386  13.035  1.00  0.00     0.167 HD
ENDBRANCH   8   9
ENDBRANCH   1   8
BRANCH   7  19
ATOM     19  N   UNL     1      41.698 132.556  18.704  1.00  0.00    -0.399 N 
ATOM     20  H   UNL     1      41.113 131.960  18.076  1.00  0.00     0.156 HD
ATOM     21  H   UNL     1      41.392 133.541  18.864  1.00  0.00     0.156 HD
ENDBRANCH   7  19
TORSDOF 3
ENDMDL
MODEL 9
REMARK VINA RESULT:      -8.1      2.773      6.471
REMARK SMILES Nc1cc(F)c[n-]/c1=N\c1cnc2[nH]ccc2c1
REMARK SMILES IDX 8 1 7 2 6 3 4 4 5 5 3 6 2 7 9 8 10 9 11 10 12 11 13 12 18 13
REMARK SMILES IDX 17 14 14 15 16 16 15 17 1 19
REMARK H PARENT 14 18 1 20 1 21
ROOT
ATOM      1  C   UNL     1      44.656 131.186  16.118  1.00  0.00    -0.035 A 
ATOM      2  N   UNL     1      45.675 130.586  16.799  1.00  0.00    -0.438 NA
ATOM      3  C   UNL     1      46.693 129.948  16.166  1.00  0.00     0.018 A 
ATOM      4  C   UNL     1      46.716 129.882  14.774  1.00  0.00     0.121 A 
ATOM      5  F   UNL     1      47.728 129.245  14.135  1.00  0.00    -0.207 F 
ATOM      6  C   UNL     1      45.684 130.474  14.045  1.00  0.00     0.064 A 
ATOM      7  C   UNL     1      44.639 131.130  14.709  1.00  0.00     0.033 A 
ENDROOT
BRANCH   1   8
ATOM      8  N   UNL     1      43.680 131.770  16.756  1.00  0.00    -0.433 NA
BRANCH   8   9
ATOM      9  C   UNL     1      43.431 131.745  18.171  1.00  0.00    -0.022 A 
ATOM     10  C   UNL     1      42.149 132.123  18.642  1.00  0.00     0.117 A 
ATOM     11  N   UNL     1      41.875 132.151  19.981  1.00  0.00    -0.238 NA
ATOM     12  C   UNL     1      42.853 131.825  20.861  1.00  0.00     0.137 A 
ATOM     13  C   UNL     1      44.446 131.441  19.108  1.00  0.00     0.017 A 
ATOM     14  C   UNL     1      44.110 131.483  20.456  1.00  0.00     0.019 A 
ATOM     15  N   UNL     1      42.748 131.819  22.197  1.00  0.00    -0.346 N 
ATOM     16  C   UNL     1      44.853 131.246  21.592  1.00  0.00     0.029 A 
ATOM     17  C   UNL     1      43.973 131.462  22.652  1.00  0.00     0.085 A 
ATOM     18  H   UNL     1      41.905 132.048  22.769  1.00  0.00     0.167 HD
ENDBRANCH   8   9
ENDBRANCH   1   8
BRANCH   7  19
ATOM     19  N   UNL     1      43.582 131.730  13.949  1.00  0.00    -0.399 N 
ATOM     20  H   UNL     1      42.783 132.218  14.413  1.00  0.00     0.156 HD
ATOM     21  H   UNL     1      43.590 131.693  12.906  1.00  0.00     0.156 HD
ENDBRANCH   7  19
TORSDOF 3
ENDMDL


