REMARK SMILES C[C@H]1NN(C(=O)C(C)(C)[NH2+]C2CC2)[C@@H](c2cc3ccc(F)cc3[nH]2)O1
REMARK SMILES IDX 5 1 6 2 4 3 2 4 3 5 25 6 14 7 1 8 15 10 16 11 24 12 17 13
REMARK SMILES IDX 23 14 18 15 22 16 19 17 20 18 21 20 7 21 8 22 9 23 10 24
REMARK SMILES IDX 11 27 12 28 13 29
REMARK H PARENT 3 9 24 19 10 25 10 26
ROOT
ATOM      1  C   UNL     1       0.885  -1.437   0.699  1.00  0.00     0.300 C 
ATOM      2  O   UNL     1      -0.064  -1.898   1.390  1.00  0.00    -0.266 OA
ENDROOT
BRANCH   1   3
ATOM      3  N   UNL     1       0.948  -1.779  -0.697  1.00  0.00    -0.236 N 
ATOM      4  C   UNL     1       1.667  -2.461  -2.702  1.00  0.00     0.204 C 
ATOM      5  N   UNL     1       2.129  -2.067  -1.368  1.00  0.00    -0.201 NA
ATOM      6  O   UNL     1       0.261  -2.301  -2.808  1.00  0.00    -0.332 OA
ATOM      7  C   UNL     1      -0.211  -1.989  -1.524  1.00  0.00     0.283 C 
ATOM      8  C   UNL     1       2.358  -1.602  -3.754  1.00  0.00     0.058 C 
ATOM      9  H   UNL     1       2.555  -2.901  -0.901  1.00  0.00     0.151 HD
BRANCH   7  10
ATOM     10  C   UNL     1      -1.048  -0.745  -1.576  1.00  0.00     0.068 A 
ATOM     11  C   UNL     1      -2.382  -0.663  -1.185  1.00  0.00     0.036 A 
ATOM     12  N   UNL     1      -0.571   0.468  -1.944  1.00  0.00    -0.355 N 
ATOM     13  C   UNL     1      -2.710   0.668  -1.327  1.00  0.00     0.000 A 
ATOM     14  C   UNL     1      -1.594   1.321  -1.783  1.00  0.00     0.049 A 
ATOM     15  C   UNL     1      -3.897   1.343  -1.052  1.00  0.00     0.013 A 
ATOM     16  C   UNL     1      -1.588   2.699  -1.995  1.00  0.00     0.065 A 
ATOM     17  C   UNL     1      -3.923   2.734  -1.262  1.00  0.00     0.040 A 
ATOM     18  C   UNL     1      -2.774   3.410  -1.730  1.00  0.00     0.125 A 
ATOM     19  H   UNL     1       0.397   0.698  -2.259  1.00  0.00     0.166 HD
ATOM     20  F   UNL     1      -2.812   4.751  -1.922  1.00  0.00    -0.207 F 
ENDBRANCH   7  10
ENDBRANCH   1   3
BRANCH   1  21
ATOM     21  C   UNL     1       1.935  -0.556   1.379  1.00  0.00     0.171 C 
ATOM     22  C   UNL     1       2.747   0.285   0.355  1.00  0.00     0.090 C 
ATOM     23  C   UNL     1       2.919  -1.489   2.117  1.00  0.00     0.090 C 
BRANCH  21  24
ATOM     24  N   UNL     1       1.291   0.343   2.377  1.00  0.00    -0.332 N 
ATOM     25  H   UNL     1       2.025   0.942   2.824  1.00  0.00     0.347 HD
ATOM     26  H   UNL     1       0.870  -0.232   3.146  1.00  0.00     0.347 HD
BRANCH  24  27
ATOM     27  C   UNL     1       0.282   1.246   1.780  1.00  0.00     0.183 C 
ATOM     28  C   UNL     1      -0.450   2.084   2.822  1.00  0.00     0.071 C 
ATOM     29  C   UNL     1      -1.174   0.948   2.122  1.00  0.00     0.071 C 
ENDBRANCH  24  27
ENDBRANCH  21  24
ENDBRANCH   1  21
TORSDOF 5


