REMARK SMILES C=C1CC[C@@H]([NH2+][C@H]2CCC[C@H]([NH2+]N)[C@@H]2O)C[C@H]1F
REMARK SMILES IDX 7 1 8 2 9 3 10 4 11 5 14 6 6 7 5 10 2 11 3 12 17 13 4 14
REMARK SMILES IDX 16 15 1 16 18 17 15 18 12 20 13 23
REMARK H PARENT 6 8 6 9 15 19 12 21 12 22 13 24 13 25
ROOT
ATOM      1  C   UNL     1       0.254  -0.456   0.419  1.00  0.00     0.218 C 
ATOM      2  C   UNL     1       0.195   0.763   1.379  1.00  0.00     0.068 C 
ATOM      3  C   UNL     1      -0.953   1.733   1.057  1.00  0.00     0.013 C 
ATOM      4  C   UNL     1      -2.300   1.010   0.973  1.00  0.00     0.070 C 
ATOM      5  C   UNL     1      -2.251  -0.154  -0.043  1.00  0.00     0.236 C 
ATOM      6  C   UNL     1      -1.133  -1.154   0.343  1.00  0.00     0.232 C 
ENDROOT
BRANCH   1   7
ATOM      7  N   UNL     1       0.756  -0.085  -0.932  1.00  0.00    -0.339 N 
ATOM      8  H   UNL     1       0.386  -0.747  -1.649  1.00  0.00     0.346 HD
ATOM      9  H   UNL     1       0.375   0.851  -1.197  1.00  0.00     0.346 HD
BRANCH   7  10
ATOM     10  C   UNL     1       2.240  -0.059  -1.012  1.00  0.00     0.186 C 
ATOM     11  C   UNL     1       2.912  -1.036  -3.706  1.00  0.00    -0.043 C 
ATOM     12  C   UNL     1       2.389   0.368  -3.523  1.00  0.00     0.039 C 
ATOM     13  C   UNL     1       2.668  -2.062  -2.622  1.00  0.00     0.198 C 
ATOM     14  C   UNL     1       2.732   0.891  -2.127  1.00  0.00     0.069 C 
ATOM     15  C   UNL     1       2.858  -1.470  -1.212  1.00  0.00     0.107 C 
ATOM     16  C   UNL     1       3.430  -1.414  -4.885  1.00  0.00     0.011 C 
ATOM     17  F   UNL     1       1.396  -2.587  -2.763  1.00  0.00    -0.242 F 
ENDBRANCH   7  10
ENDBRANCH   1   7
BRANCH   6  18
ATOM     18  O   UNL     1      -1.438  -1.749   1.581  1.00  0.00    -0.381 OA
ATOM     19  H   UNL     1      -0.895  -2.578   1.645  1.00  0.00     0.211 HD
ENDBRANCH   6  18
BRANCH   5  20
ATOM     20  N   UNL     1      -3.554  -0.843  -0.124  1.00  0.00    -0.267 N 
ATOM     21  H   UNL     1      -3.878  -1.122   0.832  1.00  0.00     0.370 HD
ATOM     22  H   UNL     1      -3.477  -1.700  -0.724  1.00  0.00     0.370 HD
BRANCH  20  23
ATOM     23  N   UNL     1      -4.514   0.021  -0.692  1.00  0.00    -0.183 NA
ATOM     24  H   UNL     1      -5.451  -0.438  -0.610  1.00  0.00     0.183 HD
ATOM     25  H   UNL     1      -4.319   0.108  -1.718  1.00  0.00     0.183 HD
ENDBRANCH  20  23
ENDBRANCH   5  20
TORSDOF 5


