REMARK SMILES CO[C@@H]1CCC[C@@H](c2cc3cc(F)ccc3[nH]2)N1C(=O)c1ccc(Cl)c(C)c1
REMARK SMILES IDX 3 1 4 2 5 3 6 4 7 5 18 6 2 7 1 8 19 9 20 10 21 11 22 12
REMARK SMILES IDX 28 13 23 14 26 15 24 16 27 17 25 18 8 19 9 20 17 21 10 22
REMARK SMILES IDX 16 23 11 24 15 25 12 26 14 27 13 29
REMARK H PARENT 17 28
ROOT
ATOM      1  C   UNL     1       3.966  -0.440   0.112  1.00  0.00     0.217 C 
ATOM      2  C   UNL     1       4.894   0.778   0.262  1.00  0.00     0.055 C 
ATOM      3  C   UNL     1       4.796   1.751  -0.926  1.00  0.00     0.007 C 
ATOM      4  C   UNL     1       3.425   1.738  -1.620  1.00  0.00     0.032 C 
ATOM      5  C   UNL     1       2.292   1.337  -0.661  1.00  0.00     0.135 C 
ATOM      6  N   UNL     1       2.568   0.003  -0.067  1.00  0.00    -0.304 N 
ENDROOT
BRANCH   1   7
ATOM      7  O   UNL     1       4.066  -1.220   1.296  1.00  0.00    -0.362 OA
ATOM      8  C   UNL     1       4.919  -2.326   1.094  1.00  0.00     0.197 C 
ENDBRANCH   1   7
BRANCH   6   9
ATOM      9  C   UNL     1       1.503  -0.917   0.272  1.00  0.00     0.256 C 
ATOM     10  O   UNL     1       1.651  -2.149   0.043  1.00  0.00    -0.269 OA
BRANCH   9  11
ATOM     11  C   UNL     1       0.228  -0.443   0.849  1.00  0.00     0.040 A 
ATOM     12  C   UNL     1       0.216   0.592   1.795  1.00  0.00     0.015 A 
ATOM     13  C   UNL     1      -0.988  -0.976   0.393  1.00  0.00     0.018 A 
ATOM     14  C   UNL     1      -0.996   1.111   2.254  1.00  0.00     0.021 A 
ATOM     15  C   UNL     1      -2.211  -0.449   0.839  1.00  0.00    -0.032 A 
ATOM     16  C   UNL     1      -2.209   0.607   1.773  1.00  0.00     0.044 A 
ATOM     17  C   UNL     1      -3.502  -0.979   0.279  1.00  0.00     0.046 C 
ATOM     18  Cl  UNL     1      -3.707   1.329   2.348  1.00  0.00    -0.084 Cl
ENDBRANCH   9  11
ENDBRANCH   6   9
BRANCH   5  19
ATOM     19  C   UNL     1       0.983   1.372  -1.417  1.00  0.00     0.039 A 
ATOM     20  C   UNL     1      -0.071   2.241  -1.141  1.00  0.00     0.034 A 
ATOM     21  N   UNL     1       0.634   0.473  -2.369  1.00  0.00    -0.357 N 
ATOM     22  C   UNL     1      -1.101   1.817  -1.950  1.00  0.00     0.003 A 
ATOM     23  C   UNL     1      -0.643   0.750  -2.678  1.00  0.00     0.046 A 
ATOM     24  C   UNL     1      -2.419   2.260  -2.042  1.00  0.00     0.049 A 
ATOM     25  C   UNL     1      -1.474   0.050  -3.551  1.00  0.00     0.029 A 
ATOM     26  C   UNL     1      -3.280   1.579  -2.924  1.00  0.00     0.123 A 
ATOM     27  C   UNL     1      -2.808   0.479  -3.675  1.00  0.00     0.041 A 
ATOM     28  H   UNL     1       1.214  -0.315  -2.736  1.00  0.00     0.166 HD
ATOM     29  F   UNL     1      -4.571   1.974  -3.045  1.00  0.00    -0.207 F 
ENDBRANCH   5  19
TORSDOF 4


