REMARK SMILES C=C1CC[C@@H](c2ccc(C)c(F)c2)[C@@H]2[NH+]=CC[C@H]12
REMARK SMILES IDX 1 1 2 2 3 3 4 4 5 5 14 6 15 7 16 8 17 9 18 10 6 12 7 13
REMARK SMILES IDX 13 14 8 15 11 16 9 17 12 18 10 19
REMARK H PARENT 15 11
ROOT
ATOM      1  C   UNL     1       4.446  -0.222  -0.514  1.00  0.00     0.008 C 
ATOM      2  C   UNL     1       3.168   0.095  -0.250  1.00  0.00    -0.067 C 
ATOM      3  C   UNL     1       2.588  -0.304   1.090  1.00  0.00     0.032 C 
ATOM      4  C   UNL     1       1.302   0.448   1.431  1.00  0.00     0.020 C 
ATOM      5  C   UNL     1       0.329   0.417   0.248  1.00  0.00     0.089 C 
ATOM      6  C   UNL     1       0.908   1.230  -0.929  1.00  0.00     0.272 C 
ATOM      7  N   UNL     1       0.143   0.973  -2.121  1.00  0.00    -0.248 N 
ATOM      8  C   UNL     1       0.785   0.314  -3.005  1.00  0.00     0.272 C 
ATOM      9  C   UNL     1       2.171  -0.019  -2.593  1.00  0.00     0.113 C 
ATOM     10  C   UNL     1       2.352   0.819  -1.316  1.00  0.00     0.093 C 
ATOM     11  H   UNL     1      -0.842   1.254  -2.240  1.00  0.00     0.445 HD
ENDROOT
BRANCH   5  12
ATOM     12  C   UNL     1      -1.043   0.931   0.653  1.00  0.00    -0.035 A 
ATOM     13  C   UNL     1      -1.210   2.224   1.184  1.00  0.00     0.005 A 
ATOM     14  C   UNL     1      -2.176   0.120   0.473  1.00  0.00     0.043 A 
ATOM     15  C   UNL     1      -2.479   2.687   1.538  1.00  0.00     0.007 A 
ATOM     16  C   UNL     1      -3.447   0.583   0.827  1.00  0.00     0.126 A 
ATOM     17  C   UNL     1      -3.605   1.866   1.374  1.00  0.00    -0.015 A 
ATOM     18  F   UNL     1      -4.524  -0.220   0.632  1.00  0.00    -0.207 F 
ATOM     19  C   UNL     1      -4.973   2.374   1.728  1.00  0.00     0.047 C 
ENDBRANCH   5  12
TORSDOF 1


