MODEL 1
REMARK VINA RESULT:      -8.3      0.000      0.000
REMARK SMILES Cc1c(CCC([O-])=C2CCC2)c(F)cc2[nH]c(-c3ncncc3F)cc12
REMARK SMILES IDX 4 1 3 2 2 3 26 4 12 5 25 6 15 7 14 8 17 9 16 10 1 11 13 12
REMARK SMILES IDX 18 14 19 15 23 16 20 17 22 18 21 19 24 20 5 21 6 22 7 23
REMARK SMILES IDX 8 24 9 25 11 26 10 27
REMARK H PARENT 16 13
ROOT
ATOM      1  C   UNL     1      43.029 132.117  22.493  1.00  0.00     0.042 C 
ENDROOT
BRANCH   1   2
ATOM      2  C   UNL     1      43.272 131.949  21.009  1.00  0.00    -0.008 A 
ATOM      3  C   UNL     1      44.542 131.542  20.497  1.00  0.00    -0.036 A 
ATOM      4  C   UNL     1      44.658 131.395  19.103  1.00  0.00     0.003 A 
ATOM      5  C   UNL     1      42.213 132.249  20.107  1.00  0.00     0.128 A 
ATOM      6  C   UNL     1      45.720 130.990  18.311  1.00  0.00     0.039 A 
ATOM      7  C   UNL     1      43.618 131.676  18.256  1.00  0.00     0.049 A 
ATOM      8  C   UNL     1      42.386 132.111  18.722  1.00  0.00     0.066 A 
ATOM      9  C   UNL     1      45.251 131.048  16.997  1.00  0.00     0.068 A 
ATOM     10  N   UNL     1      43.967 131.477  16.974  1.00  0.00    -0.353 N 
ATOM     11  C   UNL     1      45.702 131.221  21.407  1.00  0.00     0.045 C 
ATOM     12  F   UNL     1      41.012 132.674  20.574  1.00  0.00    -0.207 F 
ATOM     13  H   UNL     1      43.364 131.621  16.134  1.00  0.00     0.167 HD
BRANCH   9  14
ATOM     14  C   UNL     1      46.017 130.743  15.768  1.00  0.00     0.126 A 
ATOM     15  N   UNL     1      46.249 129.438  15.456  1.00  0.00    -0.232 NA
ATOM     16  C   UNL     1      46.526 131.745  14.920  1.00  0.00     0.169 A 
ATOM     17  C   UNL     1      46.943 129.085  14.343  1.00  0.00     0.222 A 
ATOM     18  C   UNL     1      47.235 131.358  13.781  1.00  0.00     0.154 A 
ATOM     19  N   UNL     1      47.430 130.043  13.513  1.00  0.00    -0.242 NA
ATOM     20  F   UNL     1      46.386 133.064  15.197  1.00  0.00    -0.203 F 
ENDBRANCH   9  14
ENDBRANCH   1   2
BRANCH   1  21
ATOM     21  C   UNL     1      43.844 131.096  23.294  1.00  0.00     0.023 C 
BRANCH  21  22
ATOM     22  C   UNL     1      43.083 129.811  23.444  1.00  0.00    -0.133 C 
ATOM     23  O   UNL     1      41.710 129.849  23.659  1.00  0.00    -0.875 OA
BRANCH  22  24
ATOM     24  C   UNL     1      43.696 128.635  23.346  1.00  0.00    -0.082 C 
ATOM     25  C   UNL     1      44.849 128.032  22.564  1.00  0.00     0.030 C 
ATOM     26  C   UNL     1      43.563 127.258  23.966  1.00  0.00     0.030 C 
ATOM     27  C   UNL     1      44.703 126.683  23.191  1.00  0.00     0.009 C 
ENDBRANCH  22  24
ENDBRANCH  21  22
ENDBRANCH   1  21
TORSDOF 5
ENDMDL
MODEL 2
REMARK VINA RESULT:      -8.2      0.889      1.098
REMARK SMILES Cc1c(CCC([O-])=C2CCC2)c(F)cc2[nH]c(-c3ncncc3F)cc12
REMARK SMILES IDX 4 1 3 2 2 3 26 4 12 5 25 6 15 7 14 8 17 9 16 10 1 11 13 12
REMARK SMILES IDX 18 14 19 15 23 16 20 17 22 18 21 19 24 20 5 21 6 22 7 23
REMARK SMILES IDX 8 24 9 25 11 26 10 27
REMARK H PARENT 16 13
ROOT
ATOM      1  C   UNL     1      42.806 132.133  22.142  1.00  0.00     0.042 C 
ENDROOT
BRANCH   1   2
ATOM      2  C   UNL     1      43.144 131.922  20.682  1.00  0.00    -0.008 A 
ATOM      3  C   UNL     1      44.454 131.537  20.262  1.00  0.00    -0.036 A 
ATOM      4  C   UNL     1      44.660 131.347  18.884  1.00  0.00     0.003 A 
ATOM      5  C   UNL     1      42.134 132.158  19.708  1.00  0.00     0.128 A 
ATOM      6  C   UNL     1      45.779 130.949  18.172  1.00  0.00     0.039 A 
ATOM      7  C   UNL     1      43.666 131.566  17.966  1.00  0.00     0.049 A 
ATOM      8  C   UNL     1      42.396 131.979  18.342  1.00  0.00     0.066 A 
ATOM      9  C   UNL     1      45.390 130.948  16.832  1.00  0.00     0.068 A 
ATOM     10  N   UNL     1      44.099 131.336  16.716  1.00  0.00    -0.353 N 
ATOM     11  C   UNL     1      45.565 131.284  21.252  1.00  0.00     0.045 C 
ATOM     12  F   UNL     1      40.895 132.561  20.086  1.00  0.00    -0.207 F 
ATOM     13  H   UNL     1      43.544 131.432  15.836  1.00  0.00     0.167 HD
BRANCH   9  14
ATOM     14  C   UNL     1      46.239 130.625  15.662  1.00  0.00     0.126 A 
ATOM     15  N   UNL     1      46.587 129.326  15.452  1.00  0.00    -0.232 NA
ATOM     16  C   UNL     1      46.710 131.607  14.770  1.00  0.00     0.169 A 
ATOM     17  C   UNL     1      47.362 128.958  14.399  1.00  0.00     0.222 A 
ATOM     18  C   UNL     1      47.504 131.205  13.694  1.00  0.00     0.154 A 
ATOM     19  N   UNL     1      47.814 129.895  13.527  1.00  0.00    -0.242 NA
ATOM     20  F   UNL     1      46.455 132.926  14.947  1.00  0.00    -0.203 F 
ENDBRANCH   9  14
ENDBRANCH   1   2
BRANCH   1  21
ATOM     21  C   UNL     1      42.137 130.885  22.728  1.00  0.00     0.023 C 
BRANCH  21  22
ATOM     22  C   UNL     1      43.125 130.076  23.517  1.00  0.00    -0.133 C 
ATOM     23  O   UNL     1      44.356 130.630  23.847  1.00  0.00    -0.875 OA
BRANCH  22  24
ATOM     24  C   UNL     1      42.830 128.846  23.930  1.00  0.00    -0.082 C 
ATOM     25  C   UNL     1      43.569 127.555  24.228  1.00  0.00     0.030 C 
ATOM     26  C   UNL     1      41.584 128.075  24.320  1.00  0.00     0.030 C 
ATOM     27  C   UNL     1      42.329 126.813  24.612  1.00  0.00     0.009 C 
ENDBRANCH  22  24
ENDBRANCH  21  22
ENDBRANCH   1  21
TORSDOF 5
ENDMDL
MODEL 3
REMARK VINA RESULT:      -7.0      1.172      1.302
REMARK SMILES Cc1c(CCC([O-])=C2CCC2)c(F)cc2[nH]c(-c3ncncc3F)cc12
REMARK SMILES IDX 4 1 3 2 2 3 26 4 12 5 25 6 15 7 14 8 17 9 16 10 1 11 13 12
REMARK SMILES IDX 18 14 19 15 23 16 20 17 22 18 21 19 24 20 5 21 6 22 7 23
REMARK SMILES IDX 8 24 9 25 11 26 10 27
REMARK H PARENT 16 13
ROOT
ATOM      1  C   UNL     1      42.987 132.484  21.594  1.00  0.00     0.042 C 
ENDROOT
BRANCH   1   2
ATOM      2  C   UNL     1      43.334 132.156  20.158  1.00  0.00    -0.008 A 
ATOM      3  C   UNL     1      44.685 131.943  19.741  1.00  0.00    -0.036 A 
ATOM      4  C   UNL     1      44.899 131.624  18.389  1.00  0.00     0.003 A 
ATOM      5  C   UNL     1      42.285 132.103  19.198  1.00  0.00     0.128 A 
ATOM      6  C   UNL     1      46.059 131.331  17.690  1.00  0.00     0.039 A 
ATOM      7  C   UNL     1      43.870 131.564  17.486  1.00  0.00     0.049 A 
ATOM      8  C   UNL     1      42.554 131.805  17.854  1.00  0.00     0.066 A 
ATOM      9  C   UNL     1      45.656 131.104  16.373  1.00  0.00     0.068 A 
ATOM     10  N   UNL     1      44.316 131.258  16.257  1.00  0.00    -0.353 N 
ATOM     11  C   UNL     1      45.836 131.997  20.715  1.00  0.00     0.045 C 
ATOM     12  F   UNL     1      41.002 132.340  19.569  1.00  0.00    -0.207 F 
ATOM     13  H   UNL     1      43.740 131.155  15.392  1.00  0.00     0.167 HD
BRANCH   9  14
ATOM     14  C   UNL     1      46.530 130.786  15.221  1.00  0.00     0.126 A 
ATOM     15  N   UNL     1      46.877 129.486  15.010  1.00  0.00    -0.232 NA
ATOM     16  C   UNL     1      47.025 131.771  14.346  1.00  0.00     0.169 A 
ATOM     17  C   UNL     1      47.674 129.122  13.972  1.00  0.00     0.222 A 
ATOM     18  C   UNL     1      47.842 131.374  13.286  1.00  0.00     0.154 A 
ATOM     19  N   UNL     1      48.149 130.063  13.118  1.00  0.00    -0.242 NA
ATOM     20  F   UNL     1      46.771 133.090  14.527  1.00  0.00    -0.203 F 
ENDBRANCH   9  14
ENDBRANCH   1   2
BRANCH   1  21
ATOM     21  C   UNL     1      42.678 131.206  22.381  1.00  0.00     0.023 C 
BRANCH  21  22
ATOM     22  C   UNL     1      43.829 130.841  23.273  1.00  0.00    -0.133 C 
ATOM     23  O   UNL     1      44.760 131.812  23.621  1.00  0.00    -0.875 OA
BRANCH  22  24
ATOM     24  C   UNL     1      43.956 129.610  23.760  1.00  0.00    -0.082 C 
ATOM     25  C   UNL     1      43.187 128.302  23.721  1.00  0.00     0.030 C 
ATOM     26  C   UNL     1      44.947 128.855  24.625  1.00  0.00     0.030 C 
ATOM     27  C   UNL     1      44.177 127.575  24.572  1.00  0.00     0.009 C 
ENDBRANCH  22  24
ENDBRANCH  21  22
ENDBRANCH   1  21
TORSDOF 5
ENDMDL
MODEL 4
REMARK VINA RESULT:      -6.4      1.116      1.273
REMARK SMILES Cc1c(CCC([O-])=C2CCC2)c(F)cc2[nH]c(-c3ncncc3F)cc12
REMARK SMILES IDX 4 1 3 2 2 3 26 4 12 5 25 6 15 7 14 8 17 9 16 10 1 11 13 12
REMARK SMILES IDX 18 14 19 15 23 16 20 17 22 18 21 19 24 20 5 21 6 22 7 23
REMARK SMILES IDX 8 24 9 25 11 26 10 27
REMARK H PARENT 16 13
ROOT
ATOM      1  C   UNL     1      42.840 131.749  21.214  1.00  0.00     0.042 C 
ENDROOT
BRANCH   1   2
ATOM      2  C   UNL     1      43.286 131.630  19.773  1.00  0.00    -0.008 A 
ATOM      3  C   UNL     1      44.602 131.192  19.427  1.00  0.00    -0.036 A 
ATOM      4  C   UNL     1      44.910 131.095  18.059  1.00  0.00     0.003 A 
ATOM      5  C   UNL     1      42.377 132.007  18.745  1.00  0.00     0.128 A 
ATOM      6  C   UNL     1      46.059 130.679  17.406  1.00  0.00     0.039 A 
ATOM      7  C   UNL     1      44.012 131.451  17.086  1.00  0.00     0.049 A 
ATOM      8  C   UNL     1      42.742 131.917  17.394  1.00  0.00     0.066 A 
ATOM      9  C   UNL     1      45.784 130.808  16.044  1.00  0.00     0.068 A 
ATOM     10  N   UNL     1      44.533 131.289  15.859  1.00  0.00    -0.353 N 
ATOM     11  C   UNL     1      45.608 130.789  20.477  1.00  0.00     0.045 C 
ATOM     12  F   UNL     1      41.137 132.461  19.056  1.00  0.00    -0.207 F 
ATOM     13  H   UNL     1      44.060 131.490  14.949  1.00  0.00     0.167 HD
BRANCH   9  14
ATOM     14  C   UNL     1      46.707 130.520  14.922  1.00  0.00     0.126 A 
ATOM     15  N   UNL     1      47.616 129.518  15.071  1.00  0.00    -0.232 NA
ATOM     16  C   UNL     1      46.691 131.249  13.718  1.00  0.00     0.169 A 
ATOM     17  C   UNL     1      48.492 129.199  14.083  1.00  0.00     0.222 A 
ATOM     18  C   UNL     1      47.599 130.902  12.715  1.00  0.00     0.154 A 
ATOM     19  N   UNL     1      48.478 129.889  12.914  1.00  0.00    -0.242 NA
ATOM     20  F   UNL     1      45.855 132.297  13.520  1.00  0.00    -0.203 F 
ENDBRANCH   9  14
ENDBRANCH   1   2
BRANCH   1  21
ATOM     21  C   UNL     1      43.871 131.114  22.154  1.00  0.00     0.023 C 
BRANCH  21  22
ATOM     22  C   UNL     1      43.211 130.128  23.074  1.00  0.00    -0.133 C 
ATOM     23  O   UNL     1      41.882 130.313  23.436  1.00  0.00    -0.875 OA
BRANCH  22  24
ATOM     24  C   UNL     1      43.870 129.065  23.526  1.00  0.00    -0.082 C 
ATOM     25  C   UNL     1      44.867 128.746  24.625  1.00  0.00     0.030 C 
ATOM     26  C   UNL     1      43.977 127.594  23.176  1.00  0.00     0.030 C 
ATOM     27  C   UNL     1      44.956 127.298  24.266  1.00  0.00     0.009 C 
ENDBRANCH  22  24
ENDBRANCH  21  22
ENDBRANCH   1  21
TORSDOF 5
ENDMDL
MODEL 5
REMARK VINA RESULT:      -6.4      1.287      1.679
REMARK SMILES Cc1c(CCC([O-])=C2CCC2)c(F)cc2[nH]c(-c3ncncc3F)cc12
REMARK SMILES IDX 4 1 3 2 2 3 26 4 12 5 25 6 15 7 14 8 17 9 16 10 1 11 13 12
REMARK SMILES IDX 18 14 19 15 23 16 20 17 22 18 21 19 24 20 5 21 6 22 7 23
REMARK SMILES IDX 8 24 9 25 11 26 10 27
REMARK H PARENT 16 13
ROOT
ATOM      1  C   UNL     1      43.783 132.184  23.540  1.00  0.00     0.042 C 
ENDROOT
BRANCH   1   2
ATOM      2  C   UNL     1      43.596 132.075  22.043  1.00  0.00    -0.008 A 
ATOM      3  C   UNL     1      44.694 131.813  21.166  1.00  0.00    -0.036 A 
ATOM      4  C   UNL     1      44.411 131.710  19.793  1.00  0.00     0.003 A 
ATOM      5  C   UNL     1      42.297 132.282  21.501  1.00  0.00     0.128 A 
ATOM      6  C   UNL     1      45.228 131.436  18.708  1.00  0.00     0.039 A 
ATOM      7  C   UNL     1      43.148 131.900  19.296  1.00  0.00     0.049 A 
ATOM      8  C   UNL     1      42.071 132.194  20.120  1.00  0.00     0.066 A 
ATOM      9  C   UNL     1      44.393 131.474  17.590  1.00  0.00     0.068 A 
ATOM     10  N   UNL     1      43.125 131.767  17.960  1.00  0.00    -0.353 N 
ATOM     11  C   UNL     1      46.094 131.594  21.686  1.00  0.00     0.045 C 
ATOM     12  F   UNL     1      41.250 132.570  22.315  1.00  0.00    -0.207 F 
ATOM     13  H   UNL     1      42.291 131.866  17.338  1.00  0.00     0.167 HD
BRANCH   9  14
ATOM     14  C   UNL     1      44.792 131.277  16.178  1.00  0.00     0.126 A 
ATOM     15  N   UNL     1      43.942 131.694  15.200  1.00  0.00    -0.232 NA
ATOM     16  C   UNL     1      46.005 130.665  15.808  1.00  0.00     0.169 A 
ATOM     17  C   UNL     1      44.244 131.547  13.884  1.00  0.00     0.222 A 
ATOM     18  C   UNL     1      46.295 130.525  14.449  1.00  0.00     0.154 A 
ATOM     19  N   UNL     1      45.415 130.967  13.516  1.00  0.00    -0.242 NA
ATOM     20  F   UNL     1      46.873 130.172  16.724  1.00  0.00    -0.203 F 
ENDBRANCH   9  14
ENDBRANCH   1   2
BRANCH   1  21
ATOM     21  C   UNL     1      44.434 130.913  24.099  1.00  0.00     0.023 C 
BRANCH  21  22
ATOM     22  C   UNL     1      43.571 129.715  23.832  1.00  0.00    -0.133 C 
ATOM     23  O   UNL     1      42.190 129.828  23.937  1.00  0.00    -0.875 OA
BRANCH  22  24
ATOM     24  C   UNL     1      44.105 128.552  23.468  1.00  0.00    -0.082 C 
ATOM     25  C   UNL     1      44.142 127.125  23.981  1.00  0.00     0.030 C 
ATOM     26  C   UNL     1      44.974 128.035  22.339  1.00  0.00     0.030 C 
ATOM     27  C   UNL     1      44.996 126.634  22.857  1.00  0.00     0.009 C 
ENDBRANCH  22  24
ENDBRANCH  21  22
ENDBRANCH   1  21
TORSDOF 5
ENDMDL
MODEL 6
REMARK VINA RESULT:      -6.3      1.670      2.115
REMARK SMILES Cc1c(CCC([O-])=C2CCC2)c(F)cc2[nH]c(-c3ncncc3F)cc12
REMARK SMILES IDX 4 1 3 2 2 3 26 4 12 5 25 6 15 7 14 8 17 9 16 10 1 11 13 12
REMARK SMILES IDX 18 14 19 15 23 16 20 17 22 18 21 19 24 20 5 21 6 22 7 23
REMARK SMILES IDX 8 24 9 25 11 26 10 27
REMARK H PARENT 16 13
ROOT
ATOM      1  C   UNL     1      42.859 131.768  21.557  1.00  0.00     0.042 C 
ENDROOT
BRANCH   1   2
ATOM      2  C   UNL     1      43.248 131.659  20.099  1.00  0.00    -0.008 A 
ATOM      3  C   UNL     1      44.572 131.297  19.699  1.00  0.00    -0.036 A 
ATOM      4  C   UNL     1      44.825 131.203  18.320  1.00  0.00     0.003 A 
ATOM      5  C   UNL     1      42.274 131.968  19.109  1.00  0.00     0.128 A 
ATOM      6  C   UNL     1      45.968 130.850  17.621  1.00  0.00     0.039 A 
ATOM      7  C   UNL     1      43.866 131.493  17.385  1.00  0.00     0.049 A 
ATOM      8  C   UNL     1      42.584 131.885  17.744  1.00  0.00     0.066 A 
ATOM      9  C   UNL     1      45.627 130.946  16.271  1.00  0.00     0.068 A 
ATOM     10  N   UNL     1      44.342 131.348  16.138  1.00  0.00    -0.353 N 
ATOM     11  C   UNL     1      45.646 130.968  20.707  1.00  0.00     0.045 C 
ATOM     12  F   UNL     1      41.024 132.351  19.471  1.00  0.00    -0.207 F 
ATOM     13  H   UNL     1      43.819 131.510  15.247  1.00  0.00     0.167 HD
BRANCH   9  14
ATOM     14  C   UNL     1      46.516 130.702  15.112  1.00  0.00     0.126 A 
ATOM     15  N   UNL     1      46.927 131.769  14.374  1.00  0.00    -0.232 NA
ATOM     16  C   UNL     1      46.938 129.413  14.736  1.00  0.00     0.169 A 
ATOM     17  C   UNL     1      47.744 131.618  13.299  1.00  0.00     0.222 A 
ATOM     18  C   UNL     1      47.779 129.282  13.628  1.00  0.00     0.154 A 
ATOM     19  N   UNL     1      48.165 130.381  12.933  1.00  0.00    -0.242 NA
ATOM     20  F   UNL     1      46.522 128.299  15.386  1.00  0.00    -0.203 F 
ENDBRANCH   9  14
ENDBRANCH   1   2
BRANCH   1  21
ATOM     21  C   UNL     1      43.982 131.241  22.458  1.00  0.00     0.023 C 
BRANCH  21  22
ATOM     22  C   UNL     1      43.759 129.795  22.792  1.00  0.00    -0.133 C 
ATOM     23  O   UNL     1      44.704 128.851  22.413  1.00  0.00    -0.875 OA
BRANCH  22  24
ATOM     24  C   UNL     1      42.684 129.407  23.472  1.00  0.00    -0.082 C 
ATOM     25  C   UNL     1      41.421 130.036  24.030  1.00  0.00     0.030 C 
ATOM     26  C   UNL     1      42.148 128.116  24.059  1.00  0.00     0.030 C 
ATOM     27  C   UNL     1      40.909 128.752  24.598  1.00  0.00     0.009 C 
ENDBRANCH  22  24
ENDBRANCH  21  22
ENDBRANCH   1  21
TORSDOF 5
ENDMDL
MODEL 7
REMARK VINA RESULT:      -6.2      1.040      1.095
REMARK SMILES Cc1c(CCC([O-])=C2CCC2)c(F)cc2[nH]c(-c3ncncc3F)cc12
REMARK SMILES IDX 4 1 3 2 2 3 26 4 12 5 25 6 15 7 14 8 17 9 16 10 1 11 13 12
REMARK SMILES IDX 18 14 19 15 23 16 20 17 22 18 21 19 24 20 5 21 6 22 7 23
REMARK SMILES IDX 8 24 9 25 11 26 10 27
REMARK H PARENT 16 13
ROOT
ATOM      1  C   UNL     1      43.593 131.813  23.303  1.00  0.00     0.042 C 
ENDROOT
BRANCH   1   2
ATOM      2  C   UNL     1      43.650 131.757  21.792  1.00  0.00    -0.008 A 
ATOM      3  C   UNL     1      44.788 131.236  21.102  1.00  0.00    -0.036 A 
ATOM      4  C   UNL     1      44.733 131.208  19.697  1.00  0.00     0.003 A 
ATOM      5  C   UNL     1      42.554 132.277  21.049  1.00  0.00     0.128 A 
ATOM      6  C   UNL     1      45.637 130.744  18.755  1.00  0.00     0.039 A 
ATOM      7  C   UNL     1      43.659 131.702  19.004  1.00  0.00     0.049 A 
ATOM      8  C   UNL     1      42.558 132.249  19.646  1.00  0.00     0.066 A 
ATOM      9  C   UNL     1      45.043 130.988  17.515  1.00  0.00     0.068 A 
ATOM     10  N   UNL     1      43.838 131.582  17.679  1.00  0.00    -0.353 N 
ATOM     11  C   UNL     1      45.982 130.681  21.840  1.00  0.00     0.045 C 
ATOM     12  F   UNL     1      41.482 132.809  21.687  1.00  0.00    -0.207 F 
ATOM     13  H   UNL     1      43.175 131.883  16.930  1.00  0.00     0.167 HD
BRANCH   9  14
ATOM     14  C   UNL     1      45.624 130.703  16.183  1.00  0.00     0.126 A 
ATOM     15  N   UNL     1      46.674 129.841  16.105  1.00  0.00    -0.232 NA
ATOM     16  C   UNL     1      45.142 131.296  15.001  1.00  0.00     0.169 A 
ATOM     17  C   UNL     1      47.254 129.532  14.916  1.00  0.00     0.222 A 
ATOM     18  C   UNL     1      45.753 130.963  13.790  1.00  0.00     0.154 A 
ATOM     19  N   UNL     1      46.792 130.092  13.769  1.00  0.00    -0.242 NA
ATOM     20  F   UNL     1      44.140 132.208  15.007  1.00  0.00    -0.203 F 
ENDBRANCH   9  14
ENDBRANCH   1   2
BRANCH   1  21
ATOM     21  C   UNL     1      42.599 130.781  23.847  1.00  0.00     0.023 C 
BRANCH  21  22
ATOM     22  C   UNL     1      42.748 129.473  23.127  1.00  0.00    -0.133 C 
ATOM     23  O   UNL     1      41.862 129.148  22.106  1.00  0.00    -0.875 OA
BRANCH  22  24
ATOM     24  C   UNL     1      43.731 128.630  23.431  1.00  0.00    -0.082 C 
ATOM     25  C   UNL     1      44.383 127.401  22.826  1.00  0.00     0.030 C 
ATOM     26  C   UNL     1      44.728 128.448  24.559  1.00  0.00     0.030 C 
ATOM     27  C   UNL     1      45.360 127.241  23.946  1.00  0.00     0.009 C 
ENDBRANCH  22  24
ENDBRANCH  21  22
ENDBRANCH   1  21
TORSDOF 5
ENDMDL
MODEL 8
REMARK VINA RESULT:      -6.1      1.356      1.664
REMARK SMILES Cc1c(CCC([O-])=C2CCC2)c(F)cc2[nH]c(-c3ncncc3F)cc12
REMARK SMILES IDX 4 1 3 2 2 3 26 4 12 5 25 6 15 7 14 8 17 9 16 10 1 11 13 12
REMARK SMILES IDX 18 14 19 15 23 16 20 17 22 18 21 19 24 20 5 21 6 22 7 23
REMARK SMILES IDX 8 24 9 25 11 26 10 27
REMARK H PARENT 16 13
ROOT
ATOM      1  C   UNL     1      43.181 132.270  23.071  1.00  0.00     0.042 C 
ENDROOT
BRANCH   1   2
ATOM      2  C   UNL     1      43.309 132.143  21.568  1.00  0.00    -0.008 A 
ATOM      3  C   UNL     1      44.511 131.677  20.953  1.00  0.00    -0.036 A 
ATOM      4  C   UNL     1      44.520 131.576  19.551  1.00  0.00     0.003 A 
ATOM      5  C   UNL     1      42.211 132.542  20.755  1.00  0.00     0.128 A 
ATOM      6  C   UNL     1      45.496 131.136  18.671  1.00  0.00     0.039 A 
ATOM      7  C   UNL     1      43.445 131.953  18.790  1.00  0.00     0.049 A 
ATOM      8  C   UNL     1      42.279 132.447  19.358  1.00  0.00     0.066 A 
ATOM      9  C   UNL     1      44.942 131.274  17.397  1.00  0.00     0.068 A 
ATOM     10  N   UNL     1      43.690 131.782  17.481  1.00  0.00    -0.353 N 
ATOM     11  C   UNL     1      45.708 131.250  21.767  1.00  0.00     0.045 C 
ATOM     12  F   UNL     1      41.076 133.023  21.321  1.00  0.00    -0.207 F 
ATOM     13  H   UNL     1      43.041 131.996  16.691  1.00  0.00     0.167 HD
BRANCH   9  14
ATOM     14  C   UNL     1      45.600 130.968  16.106  1.00  0.00     0.126 A 
ATOM     15  N   UNL     1      46.156 131.993  15.403  1.00  0.00    -0.232 NA
ATOM     16  C   UNL     1      45.659 129.667  15.572  1.00  0.00     0.169 A 
ATOM     17  C   UNL     1      46.777 131.784  14.213  1.00  0.00     0.222 A 
ATOM     18  C   UNL     1      46.303 129.477  14.348  1.00  0.00     0.154 A 
ATOM     19  N   UNL     1      46.848 130.532  13.694  1.00  0.00    -0.242 NA
ATOM     20  F   UNL     1      45.076 128.608  16.185  1.00  0.00    -0.203 F 
ENDBRANCH   9  14
ENDBRANCH   1   2
BRANCH   1  21
ATOM     21  C   UNL     1      42.296 131.153  23.635  1.00  0.00     0.023 C 
BRANCH  21  22
ATOM     22  C   UNL     1      42.615 129.842  22.979  1.00  0.00    -0.133 C 
ATOM     23  O   UNL     1      42.127 129.576  21.705  1.00  0.00    -0.875 OA
BRANCH  22  24
ATOM     24  C   UNL     1      43.382 128.940  23.586  1.00  0.00    -0.082 C 
ATOM     25  C   UNL     1      43.197 127.741  24.498  1.00  0.00     0.030 C 
ATOM     26  C   UNL     1      44.863 128.634  23.694  1.00  0.00     0.030 C 
ATOM     27  C   UNL     1      44.661 127.454  24.588  1.00  0.00     0.009 C 
ENDBRANCH  22  24
ENDBRANCH  21  22
ENDBRANCH   1  21
TORSDOF 5
ENDMDL


