REMARK SMILES C=Cc1cccc(-c2ccc3ccn(C(=O)C[C@H](O)CO)c(=O)c3c2)c1
REMARK SMILES IDX 15 1 16 2 14 3 8 4 9 5 25 6 10 7 24 8 11 9 22 10 12 11 13 12
REMARK SMILES IDX 23 13 7 14 3 15 4 16 26 17 5 18 6 19 2 20 1 21 17 22 18 23
REMARK SMILES IDX 19 24 20 26 21 27
REMARK H PARENT 19 25 21 28
ROOT
ATOM      1  C   UNL     1       2.176   0.035   2.588  1.00  0.00     0.236 C 
ATOM      2  O   UNL     1       2.749   1.159   2.590  1.00  0.00    -0.274 OA
ENDROOT
BRANCH   1   3
ATOM      3  N   UNL     1       1.364  -0.355   1.458  1.00  0.00    -0.253 N 
ATOM      4  C   UNL     1      -1.950   0.672  -1.953  1.00  0.00    -0.018 A 
ATOM      5  C   UNL     1      -1.832  -0.644  -2.431  1.00  0.00     0.009 A 
ATOM      6  C   UNL     1      -1.171   1.071  -0.851  1.00  0.00     0.023 A 
ATOM      7  C   UNL     1      -0.955  -1.545  -1.825  1.00  0.00     0.009 A 
ATOM      8  C   UNL     1      -0.282   0.170  -0.233  1.00  0.00     0.048 A 
ATOM      9  C   UNL     1      -0.179  -1.147  -0.729  1.00  0.00    -0.011 A 
ATOM     10  C   UNL     1       0.506   0.548   0.875  1.00  0.00     0.265 A 
ATOM     11  C   UNL     1       0.699  -2.044  -0.119  1.00  0.00     0.027 A 
ATOM     12  C   UNL     1       1.463  -1.630   0.970  1.00  0.00     0.098 A 
ATOM     13  O   UNL     1       0.408   1.719   1.340  1.00  0.00    -0.268 OA
BRANCH   4  14
ATOM     14  C   UNL     1      -2.883   1.628  -2.601  1.00  0.00    -0.018 A 
ATOM     15  C   UNL     1      -3.380   3.876  -3.437  1.00  0.00    -0.026 A 
ATOM     16  C   UNL     1      -4.647   3.428  -3.842  1.00  0.00     0.008 A 
ATOM     17  C   UNL     1      -2.497   2.962  -2.827  1.00  0.00     0.016 A 
ATOM     18  C   UNL     1      -5.036   2.106  -3.623  1.00  0.00     0.001 A 
ATOM     19  C   UNL     1      -4.163   1.210  -3.004  1.00  0.00     0.009 A 
BRANCH  15  20
ATOM     20  C   UNL     1      -3.011   5.289  -3.702  1.00  0.00     0.000 C 
ATOM     21  C   UNL     1      -2.023   5.933  -3.079  1.00  0.00     0.009 C 
ENDBRANCH  15  20
ENDBRANCH   4  14
ENDBRANCH   1   3
BRANCH   1  22
ATOM     22  C   UNL     1       2.349  -0.867   3.784  1.00  0.00     0.135 C 
BRANCH  22  23
ATOM     23  C   UNL     1       0.993  -1.262   4.401  1.00  0.00     0.149 C 
BRANCH  23  24
ATOM     24  O   UNL     1       0.335  -0.117   4.883  1.00  0.00    -0.390 OA
ATOM     25  H   UNL     1      -0.154   0.282   4.117  1.00  0.00     0.211 HD
ENDBRANCH  23  24
BRANCH  23  26
ATOM     26  C   UNL     1       1.185  -2.242   5.566  1.00  0.00     0.188 C 
BRANCH  26  27
ATOM     27  O   UNL     1       1.752  -3.446   5.122  1.00  0.00    -0.394 OA
ATOM     28  H   UNL     1       1.034  -3.941   4.649  1.00  0.00     0.210 HD
ENDBRANCH  26  27
ENDBRANCH  23  26
ENDBRANCH  22  23
ENDBRANCH   1  22
TORSDOF 8


