MODEL 1
REMARK VINA RESULT:      -3.2      0.000      0.000
REMARK SMILES CC(C)(C)COC(=O)N(c1ccc2cc[nH]c2c1)c1c2o[nH]cc-2cc(-n2nc3ccccc3n2)c1=O
REMARK SMILES IDX 6 1 5 2 2 3 1 4 3 5 4 6 7 7 8 8 9 9 10 10 11 11 18 12 12 13
REMARK SMILES IDX 17 14 13 15 16 16 14 17 15 18 19 20 20 21 36 22 21 23 24 24
REMARK SMILES IDX 26 25 22 26 23 27 25 28 37 29 27 31 28 32 35 33 29 34 34 35
REMARK SMILES IDX 30 36 33 37 31 38 32 39
REMARK H PARENT 16 19 22 30
ROOT
ATOM      1  O   UNL     1      44.514 129.673  22.051  1.00  0.00    -0.448 OA
ENDROOT
BRANCH   1   2
ATOM      2  C   UNL     1      45.522 128.680  22.221  1.00  0.00     0.241 C 
BRANCH   2   3
ATOM      3  C   UNL     1      45.113 127.676  23.322  1.00  0.00    -0.004 C 
ATOM      4  C   UNL     1      46.290 126.715  23.592  1.00  0.00     0.014 C 
ATOM      5  C   UNL     1      44.769 128.432  24.624  1.00  0.00     0.014 C 
ATOM      6  C   UNL     1      43.888 126.862  22.860  1.00  0.00     0.014 C 
ENDBRANCH   2   3
ENDBRANCH   1   2
BRANCH   1   7
ATOM      7  C   UNL     1      44.720 131.024  22.346  1.00  0.00     0.419 C 
ATOM      8  O   UNL     1      44.487 131.463  23.508  1.00  0.00    -0.224 OA
BRANCH   7   9
ATOM      9  N   UNL     1      45.217 131.905  21.322  1.00  0.00    -0.238 N 
BRANCH   9  10
ATOM     10  C   UNL     1      46.285 132.841  21.580  1.00  0.00     0.055 A 
ATOM     11  C   UNL     1      46.254 134.141  21.012  1.00  0.00     0.027 A 
ATOM     12  C   UNL     1      47.376 132.470  22.407  1.00  0.00     0.053 A 
ATOM     13  C   UNL     1      47.278 135.068  21.276  1.00  0.00     0.012 A 
ATOM     14  C   UNL     1      48.374 133.413  22.643  1.00  0.00     0.047 A 
ATOM     15  C   UNL     1      48.324 134.667  22.099  1.00  0.00    -0.000 A 
ATOM     16  N   UNL     1      49.471 133.268  23.405  1.00  0.00    -0.361 N 
ATOM     17  C   UNL     1      49.438 135.350  22.533  1.00  0.00     0.028 A 
ATOM     18  C   UNL     1      50.123 134.452  23.345  1.00  0.00     0.083 A 
ATOM     19  H   UNL     1      49.764 132.420  23.939  1.00  0.00     0.166 HD
ENDBRANCH   9  10
BRANCH   9  20
ATOM     20  C   UNL     1      44.643 131.817  20.009  1.00  0.00     0.148 A 
ATOM     21  C   UNL     1      43.316 132.158  19.791  1.00  0.00     0.192 A 
ATOM     22  C   UNL     1      45.409 131.408  18.890  1.00  0.00     0.234 A 
ATOM     23  O   UNL     1      42.401 132.566  20.634  1.00  0.00    -0.380 OA
ATOM     24  C   UNL     1      42.731 132.083  18.496  1.00  0.00     0.044 A 
ATOM     25  C   UNL     1      44.831 131.354  17.576  1.00  0.00     0.136 A 
ATOM     26  N   UNL     1      41.273 132.764  20.001  1.00  0.00    -0.229 N 
ATOM     27  C   UNL     1      41.427 132.479  18.685  1.00  0.00     0.132 A 
ATOM     28  C   UNL     1      43.462 131.687  17.390  1.00  0.00     0.048 A 
ATOM     29  O   UNL     1      46.619 131.100  19.068  1.00  0.00    -0.285 OA
ATOM     30  H   UNL     1      40.391 133.090  20.453  1.00  0.00     0.208 HD
BRANCH  25  31
ATOM     31  N   UNL     1      45.625 130.991  16.426  1.00  0.00    -0.146 N 
ATOM     32  N   UNL     1      45.813 131.798  15.380  1.00  0.00    -0.148 NA
ATOM     33  N   UNL     1      46.287 129.838  16.305  1.00  0.00    -0.148 NA
ATOM     34  C   UNL     1      46.627 131.121  14.558  1.00  0.00     0.113 A 
ATOM     35  C   UNL     1      46.917 129.921  15.124  1.00  0.00     0.113 A 
ATOM     36  C   UNL     1      47.155 131.510  13.331  1.00  0.00     0.032 A 
ATOM     37  C   UNL     1      47.763 128.998  14.517  1.00  0.00     0.032 A 
ATOM     38  C   UNL     1      48.016 130.603  12.679  1.00  0.00     0.002 A 
ATOM     39  C   UNL     1      48.320 129.353  13.271  1.00  0.00     0.002 A 
ENDBRANCH  25  31
ENDBRANCH   9  20
ENDBRANCH   7   9
ENDBRANCH   1   7
TORSDOF 7
ENDMDL
MODEL 2
REMARK VINA RESULT:      -2.4      1.441      4.451
REMARK SMILES CC(C)(C)COC(=O)N(c1ccc2cc[nH]c2c1)c1c2o[nH]cc-2cc(-n2nc3ccccc3n2)c1=O
REMARK SMILES IDX 6 1 5 2 2 3 1 4 3 5 4 6 7 7 8 8 9 9 10 10 11 11 18 12 12 13
REMARK SMILES IDX 17 14 13 15 16 16 14 17 15 18 19 20 20 21 36 22 21 23 24 24
REMARK SMILES IDX 26 25 22 26 23 27 25 28 37 29 27 31 28 32 35 33 29 34 34 35
REMARK SMILES IDX 30 36 33 37 31 38 32 39
REMARK H PARENT 16 19 22 30
ROOT
ATOM      1  O   UNL     1      46.614 133.219  22.289  1.00  0.00    -0.448 OA
ENDROOT
BRANCH   1   2
ATOM      2  C   UNL     1      48.028 133.296  22.132  1.00  0.00     0.241 C 
BRANCH   2   3
ATOM      3  C   UNL     1      48.662 134.064  23.314  1.00  0.00    -0.004 C 
ATOM      4  C   UNL     1      47.737 133.955  24.543  1.00  0.00     0.014 C 
ATOM      5  C   UNL     1      50.038 133.457  23.660  1.00  0.00     0.014 C 
ATOM      6  C   UNL     1      48.835 135.550  22.939  1.00  0.00     0.014 C 
ENDBRANCH   2   3
ENDBRANCH   1   2
BRANCH   1   7
ATOM      7  C   UNL     1      45.729 133.204  21.205  1.00  0.00     0.419 C 
ATOM      8  O   UNL     1      45.592 134.232  20.484  1.00  0.00    -0.224 OA
BRANCH   7   9
ATOM      9  N   UNL     1      44.992 132.004  20.910  1.00  0.00    -0.238 N 
BRANCH   9  10
ATOM     10  C   UNL     1      44.735 131.004  21.920  1.00  0.00     0.055 A 
ATOM     11  C   UNL     1      44.150 131.371  23.160  1.00  0.00     0.027 A 
ATOM     12  C   UNL     1      45.063 129.646  21.680  1.00  0.00     0.053 A 
ATOM     13  C   UNL     1      43.875 130.402  24.141  1.00  0.00     0.012 A 
ATOM     14  C   UNL     1      44.781 128.714  22.677  1.00  0.00     0.047 A 
ATOM     15  C   UNL     1      44.205 129.080  23.862  1.00  0.00    -0.000 A 
ATOM     16  N   UNL     1      44.994 127.388  22.640  1.00  0.00    -0.361 N 
ATOM     17  C   UNL     1      44.045 127.936  24.614  1.00  0.00     0.028 A 
ATOM     18  C   UNL     1      44.542 126.907  23.821  1.00  0.00     0.083 A 
ATOM     19  H   UNL     1      45.418 126.836  21.862  1.00  0.00     0.166 HD
ENDBRANCH   9  10
BRANCH   9  20
ATOM     20  C   UNL     1      44.482 131.825  19.580  1.00  0.00     0.148 A 
ATOM     21  C   UNL     1      43.139 132.037  19.302  1.00  0.00     0.192 A 
ATOM     22  C   UNL     1      45.326 131.455  18.505  1.00  0.00     0.234 A 
ATOM     23  O   UNL     1      42.158 132.385  20.095  1.00  0.00    -0.380 OA
ATOM     24  C   UNL     1      42.616 131.870  17.989  1.00  0.00     0.044 A 
ATOM     25  C   UNL     1      44.808 131.309  17.173  1.00  0.00     0.136 A 
ATOM     26  N   UNL     1      41.043 132.459  19.415  1.00  0.00    -0.229 N 
ATOM     27  C   UNL     1      41.275 132.151  18.116  1.00  0.00     0.132 A 
ATOM     28  C   UNL     1      43.424 131.511  16.925  1.00  0.00     0.048 A 
ATOM     29  O   UNL     1      46.551 131.265  18.738  1.00  0.00    -0.285 OA
ATOM     30  H   UNL     1      40.118 132.717  19.823  1.00  0.00     0.208 HD
BRANCH  25  31
ATOM     31  N   UNL     1      45.677 130.986  16.066  1.00  0.00    -0.146 N 
ATOM     32  N   UNL     1      46.077 131.883  15.162  1.00  0.00    -0.148 NA
ATOM     33  N   UNL     1      46.205 129.779  15.854  1.00  0.00    -0.148 NA
ATOM     34  C   UNL     1      46.892 131.207  14.338  1.00  0.00     0.113 A 
ATOM     35  C   UNL     1      46.970 129.919  14.762  1.00  0.00     0.113 A 
ATOM     36  C   UNL     1      47.598 131.669  13.231  1.00  0.00     0.032 A 
ATOM     37  C   UNL     1      47.762 128.973  14.119  1.00  0.00     0.032 A 
ATOM     38  C   UNL     1      48.411 130.742  12.549  1.00  0.00     0.002 A 
ATOM     39  C   UNL     1      48.494 129.399  12.992  1.00  0.00     0.002 A 
ENDBRANCH  25  31
ENDBRANCH   9  20
ENDBRANCH   7   9
ENDBRANCH   1   7
TORSDOF 7
ENDMDL
MODEL 3
REMARK VINA RESULT:      -2.2      1.125      1.505
REMARK SMILES CC(C)(C)COC(=O)N(c1ccc2cc[nH]c2c1)c1c2o[nH]cc-2cc(-n2nc3ccccc3n2)c1=O
REMARK SMILES IDX 6 1 5 2 2 3 1 4 3 5 4 6 7 7 8 8 9 9 10 10 11 11 18 12 12 13
REMARK SMILES IDX 17 14 13 15 16 16 14 17 15 18 19 20 20 21 36 22 21 23 24 24
REMARK SMILES IDX 26 25 22 26 23 27 25 28 37 29 27 31 28 32 35 33 29 34 34 35
REMARK SMILES IDX 30 36 33 37 31 38 32 39
REMARK H PARENT 16 19 22 30
ROOT
ATOM      1  O   UNL     1      45.287 128.928  22.827  1.00  0.00    -0.448 OA
ENDROOT
BRANCH   1   2
ATOM      2  C   UNL     1      45.058 127.766  22.035  1.00  0.00     0.241 C 
BRANCH   2   3
ATOM      3  C   UNL     1      45.723 126.530  22.681  1.00  0.00    -0.004 C 
ATOM      4  C   UNL     1      45.803 126.739  24.208  1.00  0.00     0.014 C 
ATOM      5  C   UNL     1      44.888 125.266  22.387  1.00  0.00     0.014 C 
ATOM      6  C   UNL     1      47.148 126.349  22.119  1.00  0.00     0.014 C 
ENDBRANCH   2   3
ENDBRANCH   1   2
BRANCH   1   7
ATOM      7  C   UNL     1      44.479 130.068  22.755  1.00  0.00     0.419 C 
ATOM      8  O   UNL     1      43.414 130.136  23.430  1.00  0.00    -0.224 OA
BRANCH   7   9
ATOM      9  N   UNL     1      44.883 131.169  21.920  1.00  0.00    -0.238 N 
BRANCH   9  10
ATOM     10  C   UNL     1      45.837 132.154  22.374  1.00  0.00     0.055 A 
ATOM     11  C   UNL     1      45.834 132.586  23.726  1.00  0.00     0.027 A 
ATOM     12  C   UNL     1      46.787 132.696  21.472  1.00  0.00     0.053 A 
ATOM     13  C   UNL     1      46.773 133.528  24.183  1.00  0.00     0.012 A 
ATOM     14  C   UNL     1      47.699 133.630  21.959  1.00  0.00     0.047 A 
ATOM     15  C   UNL     1      47.693 134.027  23.268  1.00  0.00    -0.000 A 
ATOM     16  N   UNL     1      48.683 134.243  21.279  1.00  0.00    -0.361 N 
ATOM     17  C   UNL     1      48.718 134.934  23.428  1.00  0.00     0.028 A 
ATOM     18  C   UNL     1      49.312 135.039  22.175  1.00  0.00     0.083 A 
ATOM     19  H   UNL     1      48.920 134.130  20.269  1.00  0.00     0.166 HD
ENDBRANCH   9  10
BRANCH   9  20
ATOM     20  C   UNL     1      44.335 131.259  20.597  1.00  0.00     0.148 A 
ATOM     21  C   UNL     1      43.029 131.686  20.398  1.00  0.00     0.192 A 
ATOM     22  C   UNL     1      45.106 130.945  19.451  1.00  0.00     0.234 A 
ATOM     23  O   UNL     1      42.116 132.039  21.266  1.00  0.00    -0.380 OA
ATOM     24  C   UNL     1      42.471 131.787  19.093  1.00  0.00     0.044 A 
ATOM     25  C   UNL     1      44.555 131.069  18.130  1.00  0.00     0.136 A 
ATOM     26  N   UNL     1      41.012 132.361  20.642  1.00  0.00    -0.229 N 
ATOM     27  C   UNL     1      41.182 132.222  19.305  1.00  0.00     0.132 A 
ATOM     28  C   UNL     1      43.207 131.487  17.961  1.00  0.00     0.048 A 
ATOM     29  O   UNL     1      46.297 130.561  19.612  1.00  0.00    -0.285 OA
ATOM     30  H   UNL     1      40.137 132.675  21.114  1.00  0.00     0.208 HD
BRANCH  25  31
ATOM     31  N   UNL     1      45.356 130.802  16.959  1.00  0.00    -0.146 N 
ATOM     32  N   UNL     1      45.799 131.758  16.140  1.00  0.00    -0.148 NA
ATOM     33  N   UNL     1      45.775 129.588  16.597  1.00  0.00    -0.148 NA
ATOM     34  C   UNL     1      46.526 131.116  15.215  1.00  0.00     0.113 A 
ATOM     35  C   UNL     1      46.512 129.787  15.495  1.00  0.00     0.113 A 
ATOM     36  C   UNL     1      47.231 131.639  14.135  1.00  0.00     0.032 A 
ATOM     37  C   UNL     1      47.200 128.857  14.722  1.00  0.00     0.032 A 
ATOM     38  C   UNL     1      47.941 130.731  13.324  1.00  0.00     0.002 A 
ATOM     39  C   UNL     1      47.927 129.345  13.617  1.00  0.00     0.002 A 
ENDBRANCH  25  31
ENDBRANCH   9  20
ENDBRANCH   7   9
ENDBRANCH   1   7
TORSDOF 7
ENDMDL
MODEL 4
REMARK VINA RESULT:      -1.9      2.496      6.414
REMARK SMILES CC(C)(C)COC(=O)N(c1ccc2cc[nH]c2c1)c1c2o[nH]cc-2cc(-n2nc3ccccc3n2)c1=O
REMARK SMILES IDX 6 1 5 2 2 3 1 4 3 5 4 6 7 7 8 8 9 9 10 10 11 11 18 12 12 13
REMARK SMILES IDX 17 14 13 15 16 16 14 17 15 18 19 20 20 21 36 22 21 23 24 24
REMARK SMILES IDX 26 25 22 26 23 27 25 28 37 29 27 31 28 32 35 33 29 34 34 35
REMARK SMILES IDX 30 36 33 37 31 38 32 39
REMARK H PARENT 16 19 22 30
ROOT
ATOM      1  O   UNL     1      45.628 131.677  18.353  1.00  0.00    -0.448 OA
ENDROOT
BRANCH   1   2
ATOM      2  C   UNL     1      45.637 130.476  17.587  1.00  0.00     0.241 C 
BRANCH   2   3
ATOM      3  C   UNL     1      45.514 130.795  16.079  1.00  0.00    -0.004 C 
ATOM      4  C   UNL     1      46.414 129.826  15.283  1.00  0.00     0.014 C 
ATOM      5  C   UNL     1      44.051 130.619  15.621  1.00  0.00     0.014 C 
ATOM      6  C   UNL     1      45.967 132.244  15.812  1.00  0.00     0.014 C 
ENDBRANCH   2   3
ENDBRANCH   1   2
BRANCH   1   7
ATOM      7  C   UNL     1      44.817 131.855  19.479  1.00  0.00     0.419 C 
ATOM      8  O   UNL     1      43.571 132.010  19.345  1.00  0.00    -0.224 OA
BRANCH   7   9
ATOM      9  N   UNL     1      45.412 131.842  20.789  1.00  0.00    -0.238 N 
BRANCH   9  10
ATOM     10  C   UNL     1      46.446 132.779  21.161  1.00  0.00     0.055 A 
ATOM     11  C   UNL     1      47.529 132.365  21.980  1.00  0.00     0.027 A 
ATOM     12  C   UNL     1      46.390 134.122  20.709  1.00  0.00     0.053 A 
ATOM     13  C   UNL     1      48.553 133.264  22.328  1.00  0.00     0.012 A 
ATOM     14  C   UNL     1      47.419 134.985  21.078  1.00  0.00     0.047 A 
ATOM     15  C   UNL     1      48.463 134.569  21.857  1.00  0.00    -0.000 A 
ATOM     16  N   UNL     1      47.561 136.278  20.742  1.00  0.00    -0.361 N 
ATOM     17  C   UNL     1      49.308 135.644  22.024  1.00  0.00     0.028 A 
ATOM     18  C   UNL     1      48.717 136.685  21.314  1.00  0.00     0.083 A 
ATOM     19  H   UNL     1      46.917 136.855  20.156  1.00  0.00     0.166 HD
ENDBRANCH   9  10
BRANCH   9  20
ATOM     20  C   UNL     1      44.935 130.885  21.746  1.00  0.00     0.148 A 
ATOM     21  C   UNL     1      44.119 131.280  22.797  1.00  0.00     0.192 A 
ATOM     22  C   UNL     1      45.254 129.509  21.643  1.00  0.00     0.234 A 
ATOM     23  O   UNL     1      43.673 132.468  23.118  1.00  0.00    -0.380 OA
ATOM     24  C   UNL     1      43.632 130.346  23.752  1.00  0.00     0.044 A 
ATOM     25  C   UNL     1      44.745 128.557  22.591  1.00  0.00     0.136 A 
ATOM     26  N   UNL     1      42.940 132.389  24.198  1.00  0.00    -0.229 N 
ATOM     27  C   UNL     1      42.885 131.105  24.625  1.00  0.00     0.132 A 
ATOM     28  C   UNL     1      43.930 128.997  23.669  1.00  0.00     0.048 A 
ATOM     29  O   UNL     1      45.990 129.130  20.691  1.00  0.00    -0.285 OA
ATOM     30  H   UNL     1      42.472 133.203  24.655  1.00  0.00     0.208 HD
BRANCH  25  31
ATOM     31  N   UNL     1      45.023 127.147  22.456  1.00  0.00    -0.146 N 
ATOM     32  N   UNL     1      46.259 126.648  22.378  1.00  0.00    -0.148 NA
ATOM     33  N   UNL     1      44.088 126.195  22.441  1.00  0.00    -0.148 NA
ATOM     34  C   UNL     1      46.094 125.319  22.304  1.00  0.00     0.113 A 
ATOM     35  C   UNL     1      44.765 125.042  22.343  1.00  0.00     0.113 A 
ATOM     36  C   UNL     1      47.060 124.320  22.225  1.00  0.00     0.032 A 
ATOM     37  C   UNL     1      44.277 123.740  22.307  1.00  0.00     0.032 A 
ATOM     38  C   UNL     1      46.608 122.985  22.184  1.00  0.00     0.002 A 
ATOM     39  C   UNL     1      45.222 122.696  22.226  1.00  0.00     0.002 A 
ENDBRANCH  25  31
ENDBRANCH   9  20
ENDBRANCH   7   9
ENDBRANCH   1   7
TORSDOF 7
ENDMDL
MODEL 5
REMARK VINA RESULT:      -1.5      1.740      5.002
REMARK SMILES CC(C)(C)COC(=O)N(c1ccc2cc[nH]c2c1)c1c2o[nH]cc-2cc(-n2nc3ccccc3n2)c1=O
REMARK SMILES IDX 6 1 5 2 2 3 1 4 3 5 4 6 7 7 8 8 9 9 10 10 11 11 18 12 12 13
REMARK SMILES IDX 17 14 13 15 16 16 14 17 15 18 19 20 20 21 36 22 21 23 24 24
REMARK SMILES IDX 26 25 22 26 23 27 25 28 37 29 27 31 28 32 35 33 29 34 34 35
REMARK SMILES IDX 30 36 33 37 31 38 32 39
REMARK H PARENT 16 19 22 30
ROOT
ATOM      1  O   UNL     1      45.443 132.440  23.383  1.00  0.00    -0.448 OA
ENDROOT
BRANCH   1   2
ATOM      2  C   UNL     1      46.328 132.306  22.274  1.00  0.00     0.241 C 
BRANCH   2   3
ATOM      3  C   UNL     1      47.229 133.555  22.147  1.00  0.00    -0.004 C 
ATOM      4  C   UNL     1      47.493 134.134  23.553  1.00  0.00     0.014 C 
ATOM      5  C   UNL     1      48.576 133.171  21.497  1.00  0.00     0.014 C 
ATOM      6  C   UNL     1      46.526 134.622  21.283  1.00  0.00     0.014 C 
ENDBRANCH   2   3
ENDBRANCH   1   2
BRANCH   1   7
ATOM      7  C   UNL     1      44.319 131.626  23.561  1.00  0.00     0.419 C 
ATOM      8  O   UNL     1      43.629 131.718  24.614  1.00  0.00    -0.224 OA
BRANCH   7   9
ATOM      9  N   UNL     1      43.947 130.698  22.526  1.00  0.00    -0.238 N 
BRANCH   9  10
ATOM     10  C   UNL     1      43.879 129.276  22.772  1.00  0.00     0.055 A 
ATOM     11  C   UNL     1      42.742 128.711  23.407  1.00  0.00     0.027 A 
ATOM     12  C   UNL     1      44.948 128.431  22.378  1.00  0.00     0.053 A 
ATOM     13  C   UNL     1      42.656 127.326  23.629  1.00  0.00     0.012 A 
ATOM     14  C   UNL     1      44.829 127.064  22.619  1.00  0.00     0.047 A 
ATOM     15  C   UNL     1      43.722 126.532  23.220  1.00  0.00    -0.000 A 
ATOM     16  N   UNL     1      45.713 126.101  22.309  1.00  0.00    -0.361 N 
ATOM     17  C   UNL     1      43.909 125.169  23.296  1.00  0.00     0.028 A 
ATOM     18  C   UNL     1      45.153 124.939  22.717  1.00  0.00     0.083 A 
ATOM     19  H   UNL     1      46.641 126.218  21.845  1.00  0.00     0.166 HD
ENDBRANCH   9  10
BRANCH   9  20
ATOM     20  C   UNL     1      43.611 131.217  21.231  1.00  0.00     0.148 A 
ATOM     21  C   UNL     1      42.535 132.079  21.070  1.00  0.00     0.192 A 
ATOM     22  C   UNL     1      44.372 130.895  20.081  1.00  0.00     0.234 A 
ATOM     23  O   UNL     1      41.683 132.538  21.952  1.00  0.00    -0.380 OA
ATOM     24  C   UNL     1      42.190 132.609  19.796  1.00  0.00     0.044 A 
ATOM     25  C   UNL     1      44.043 131.446  18.796  1.00  0.00     0.136 A 
ATOM     26  N   UNL     1      40.814 133.319  21.363  1.00  0.00    -0.229 N 
ATOM     27  C   UNL     1      41.084 133.393  20.038  1.00  0.00     0.132 A 
ATOM     28  C   UNL     1      42.921 132.307  18.660  1.00  0.00     0.048 A 
ATOM     29  O   UNL     1      45.357 130.118  20.209  1.00  0.00    -0.285 OA
ATOM     30  H   UNL     1      40.031 133.806  21.852  1.00  0.00     0.208 HD
BRANCH  25  31
ATOM     31  N   UNL     1      44.850 131.162  17.633  1.00  0.00    -0.146 N 
ATOM     32  N   UNL     1      45.007 132.019  16.622  1.00  0.00    -0.148 NA
ATOM     33  N   UNL     1      45.557 130.042  17.465  1.00  0.00    -0.148 NA
ATOM     34  C   UNL     1      45.847 131.408  15.774  1.00  0.00     0.113 A 
ATOM     35  C   UNL     1      46.184 130.198  16.290  1.00  0.00     0.113 A 
ATOM     36  C   UNL     1      46.360 131.869  14.565  1.00  0.00     0.032 A 
ATOM     37  C   UNL     1      47.065 129.335  15.646  1.00  0.00     0.032 A 
ATOM     38  C   UNL     1      47.256 131.024  13.878  1.00  0.00     0.002 A 
ATOM     39  C   UNL     1      47.608 129.763  14.417  1.00  0.00     0.002 A 
ENDBRANCH  25  31
ENDBRANCH   9  20
ENDBRANCH   7   9
ENDBRANCH   1   7
TORSDOF 7
ENDMDL
MODEL 6
REMARK VINA RESULT:      -0.8      1.934      6.716
REMARK SMILES CC(C)(C)COC(=O)N(c1ccc2cc[nH]c2c1)c1c2o[nH]cc-2cc(-n2nc3ccccc3n2)c1=O
REMARK SMILES IDX 6 1 5 2 2 3 1 4 3 5 4 6 7 7 8 8 9 9 10 10 11 11 18 12 12 13
REMARK SMILES IDX 17 14 13 15 16 16 14 17 15 18 19 20 20 21 36 22 21 23 24 24
REMARK SMILES IDX 26 25 22 26 23 27 25 28 37 29 27 31 28 32 35 33 29 34 34 35
REMARK SMILES IDX 30 36 33 37 31 38 32 39
REMARK H PARENT 16 19 22 30
ROOT
ATOM      1  O   UNL     1      44.373 128.554  21.895  1.00  0.00    -0.448 OA
ENDROOT
BRANCH   1   2
ATOM      2  C   UNL     1      44.469 127.199  22.324  1.00  0.00     0.241 C 
BRANCH   2   3
ATOM      3  C   UNL     1      43.987 127.058  23.785  1.00  0.00    -0.004 C 
ATOM      4  C   UNL     1      42.669 126.256  23.808  1.00  0.00     0.014 C 
ATOM      5  C   UNL     1      45.048 126.312  24.622  1.00  0.00     0.014 C 
ATOM      6  C   UNL     1      43.741 128.455  24.392  1.00  0.00     0.014 C 
ENDBRANCH   2   3
ENDBRANCH   1   2
BRANCH   1   7
ATOM      7  C   UNL     1      45.449 129.252  21.335  1.00  0.00     0.419 C 
ATOM      8  O   UNL     1      46.573 128.689  21.207  1.00  0.00    -0.224 OA
BRANCH   7   9
ATOM      9  N   UNL     1      45.259 130.607  20.890  1.00  0.00    -0.238 N 
BRANCH   9  10
ATOM     10  C   UNL     1      44.805 130.909  19.552  1.00  0.00     0.055 A 
ATOM     11  C   UNL     1      43.577 131.591  19.348  1.00  0.00     0.027 A 
ATOM     12  C   UNL     1      45.585 130.528  18.431  1.00  0.00     0.053 A 
ATOM     13  C   UNL     1      43.138 131.910  18.051  1.00  0.00     0.012 A 
ATOM     14  C   UNL     1      45.115 130.857  17.161  1.00  0.00     0.047 A 
ATOM     15  C   UNL     1      43.936 131.526  16.980  1.00  0.00    -0.000 A 
ATOM     16  N   UNL     1      45.708 130.606  15.981  1.00  0.00    -0.361 N 
ATOM     17  C   UNL     1      43.770 131.709  15.624  1.00  0.00     0.028 A 
ATOM     18  C   UNL     1      44.891 131.129  15.038  1.00  0.00     0.083 A 
ATOM     19  H   UNL     1      46.613 130.112  15.819  1.00  0.00     0.166 HD
ENDBRANCH   9  10
BRANCH   9  20
ATOM     20  C   UNL     1      45.504 131.672  21.820  1.00  0.00     0.148 A 
ATOM     21  C   UNL     1      44.607 131.938  22.846  1.00  0.00     0.192 A 
ATOM     22  C   UNL     1      46.671 132.470  21.745  1.00  0.00     0.234 A 
ATOM     23  O   UNL     1      43.472 131.359  23.144  1.00  0.00    -0.380 OA
ATOM     24  C   UNL     1      44.836 132.985  23.781  1.00  0.00     0.044 A 
ATOM     25  C   UNL     1      46.919 133.513  22.701  1.00  0.00     0.136 A 
ATOM     26  N   UNL     1      42.941 131.938  24.190  1.00  0.00    -0.229 N 
ATOM     27  C   UNL     1      43.743 132.943  24.617  1.00  0.00     0.132 A 
ATOM     28  C   UNL     1      45.971 133.775  23.726  1.00  0.00     0.048 A 
ATOM     29  O   UNL     1      47.501 132.239  20.823  1.00  0.00    -0.285 OA
ATOM     30  H   UNL     1      42.033 131.659  24.622  1.00  0.00     0.208 HD
BRANCH  25  31
ATOM     31  N   UNL     1      48.135 134.291  22.658  1.00  0.00    -0.146 N 
ATOM     32  N   UNL     1      48.381 135.218  21.730  1.00  0.00    -0.148 NA
ATOM     33  N   UNL     1      49.116 134.200  23.559  1.00  0.00    -0.148 NA
ATOM     34  C   UNL     1      49.575 135.733  22.058  1.00  0.00     0.113 A 
ATOM     35  C   UNL     1      50.025 135.109  23.178  1.00  0.00     0.113 A 
ATOM     36  C   UNL     1      50.293 136.748  21.434  1.00  0.00     0.032 A 
ATOM     37  C   UNL     1      51.235 135.443  23.778  1.00  0.00     0.032 A 
ATOM     38  C   UNL     1      51.526 137.117  22.009  1.00  0.00     0.002 A 
ATOM     39  C   UNL     1      51.995 136.467  23.177  1.00  0.00     0.002 A 
ENDBRANCH  25  31
ENDBRANCH   9  20
ENDBRANCH   7   9
ENDBRANCH   1   7
TORSDOF 7
ENDMDL


