REMARK SMILES Cc1nnc(-c2cc3c(N)cc(F)c(F)c3[nH]2)o1
REMARK SMILES IDX 6 1 7 2 8 3 9 4 11 5 12 6 13 7 14 8 15 9 16 10 17 11 5 13
REMARK SMILES IDX 2 14 3 15 18 16 4 17 1 18 10 19
REMARK H PARENT 17 12 10 20 10 21
ROOT
ATOM      1  C   UNL     1       0.331   1.063  -0.674  1.00  0.00     0.105 A 
ATOM      2  C   UNL     1       0.428   0.468   0.580  1.00  0.00     0.044 A 
ATOM      3  C   UNL     1       1.779   0.458   0.869  1.00  0.00     0.026 A 
ATOM      4  C   UNL     1       2.481  -0.013   1.986  1.00  0.00     0.044 A 
ATOM      5  C   UNL     1       3.885   0.124   1.981  1.00  0.00     0.068 A 
ATOM      6  C   UNL     1       4.546   0.718   0.883  1.00  0.00     0.163 A 
ATOM      7  F   UNL     1       5.896   0.841   0.897  1.00  0.00    -0.204 F 
ATOM      8  C   UNL     1       3.812   1.181  -0.223  1.00  0.00     0.182 A 
ATOM      9  F   UNL     1       4.435   1.752  -1.284  1.00  0.00    -0.201 F 
ATOM     10  C   UNL     1       2.425   1.035  -0.198  1.00  0.00     0.087 A 
ATOM     11  N   UNL     1       1.550   1.408  -1.147  1.00  0.00    -0.348 N 
ATOM     12  H   UNL     1       1.768   1.869  -2.059  1.00  0.00     0.167 HD
ENDROOT
BRANCH   1  13
ATOM     13  C   UNL     1      -0.923   1.293  -1.401  1.00  0.00     0.264 A 
ATOM     14  C   UNL     1      -2.940   1.341  -1.895  1.00  0.00     0.214 A 
ATOM     15  N   UNL     1      -2.285   1.898  -2.932  1.00  0.00    -0.113 NA
ATOM     16  O   UNL     1      -2.111   0.962  -0.953  1.00  0.00    -0.420 OA
ATOM     17  N   UNL     1      -1.000   1.870  -2.615  1.00  0.00    -0.106 NA
ATOM     18  C   UNL     1      -4.417   1.146  -1.846  1.00  0.00     0.113 C 
ENDBRANCH   1  13
BRANCH   4  19
ATOM     19  N   UNL     1       1.810  -0.613   3.097  1.00  0.00    -0.398 N 
ATOM     20  H   UNL     1       2.352  -0.958   3.921  1.00  0.00     0.156 HD
ATOM     21  H   UNL     1       0.772  -0.720   3.112  1.00  0.00     0.156 HD
ENDBRANCH   4  19
TORSDOF 2


