REMARK SMILES NC(=O)c1ccc(C2CC2)c(F)c1CCC(=O)c1ccccc1
REMARK SMILES IDX 14 1 13 2 4 3 5 4 6 5 11 6 7 7 12 8 2 9 1 10 3 13 8 14 9 15
REMARK SMILES IDX 10 16 15 17 16 18 17 19 18 20 19 21 23 22 20 23 22 24 21 25
REMARK H PARENT 1 11 1 12
ROOT
ATOM      1  C   UNL     1      -1.849  -0.539   1.654  1.00  0.00     0.047 C 
ENDROOT
BRANCH   1   2
ATOM      2  C   UNL     1      -1.141  -0.857   0.350  1.00  0.00     0.001 A 
ATOM      3  C   UNL     1      -1.016  -2.186  -0.142  1.00  0.00     0.045 A 
ATOM      4  C   UNL     1      -0.331  -2.408  -1.348  1.00  0.00     0.014 A 
ATOM      5  C   UNL     1       0.239  -1.350  -2.053  1.00  0.00     0.008 A 
ATOM      6  C   UNL     1      -0.583   0.206  -0.393  1.00  0.00     0.130 A 
ATOM      7  C   UNL     1       0.139  -0.042  -1.571  1.00  0.00    -0.009 A 
ATOM      8  F   UNL     1      -0.735   1.488   0.034  1.00  0.00    -0.206 F 
BRANCH   3   9
ATOM      9  C   UNL     1      -1.593  -3.362   0.555  1.00  0.00     0.249 C 
ATOM     10  N   UNL     1      -2.265  -4.385  -0.183  1.00  0.00    -0.366 N 
ATOM     11  H   UNL     1      -2.634  -5.229   0.308  1.00  0.00     0.159 HD
ATOM     12  H   UNL     1      -2.437  -4.286  -1.208  1.00  0.00     0.159 HD
ATOM     13  O   UNL     1      -1.475  -3.486   1.802  1.00  0.00    -0.270 OA
ENDBRANCH   3   9
BRANCH   7  14
ATOM     14  C   UNL     1       0.728   1.093  -2.366  1.00  0.00     0.022 C 
ATOM     15  C   UNL     1       2.224   0.975  -2.636  1.00  0.00     0.009 C 
ATOM     16  C   UNL     1       1.718   1.976  -1.616  1.00  0.00     0.009 C 
ENDBRANCH   7  14
ENDBRANCH   1   2
BRANCH   1  17
ATOM     17  C   UNL     1      -0.898  -0.559   2.864  1.00  0.00     0.086 C 
BRANCH  17  18
ATOM     18  C   UNL     1       0.080   0.589   2.845  1.00  0.00     0.163 C 
ATOM     19  O   UNL     1      -0.317   1.700   3.293  1.00  0.00    -0.294 OA
BRANCH  18  20
ATOM     20  C   UNL     1       1.466   0.479   2.299  1.00  0.00     0.017 A 
ATOM     21  C   UNL     1       1.933  -0.693   1.665  1.00  0.00     0.012 A 
ATOM     22  C   UNL     1       2.339   1.582   2.394  1.00  0.00     0.012 A 
ATOM     23  C   UNL     1       3.225  -0.748   1.133  1.00  0.00     0.001 A 
ATOM     24  C   UNL     1       3.633   1.517   1.868  1.00  0.00     0.001 A 
ATOM     25  C   UNL     1       4.074   0.354   1.235  1.00  0.00     0.000 A 
ENDBRANCH  18  20
ENDBRANCH  17  18
ENDBRANCH   1  17
TORSDOF 6


