MODEL 1
REMARK VINA RESULT:     -10.0      0.000      0.000
REMARK SMILES Cc1ccc(-c2ccc(NC3CC(=O)C3)c(C=O)c2)cc1
REMARK SMILES IDX 6 1 7 2 8 3 9 4 16 5 19 6 5 7 2 8 3 9 21 10 4 11 20 12 1 13
REMARK SMILES IDX 17 14 18 15 10 16 11 18 12 19 15 20 13 21 14 22
REMARK H PARENT 10 17
ROOT
ATOM      1  C   UNL     1      45.014 131.238  18.340  1.00  0.00    -0.018 A 
ATOM      2  C   UNL     1      45.700 130.869  19.507  1.00  0.00     0.011 A 
ATOM      3  C   UNL     1      45.098 131.008  20.757  1.00  0.00     0.027 A 
ATOM      4  C   UNL     1      43.796 131.524  20.877  1.00  0.00     0.045 A 
ATOM      5  C   UNL     1      43.108 131.936  19.707  1.00  0.00     0.038 A 
ATOM      6  C   UNL     1      43.719 131.768  18.453  1.00  0.00     0.022 A 
ENDROOT
BRANCH   1   7
ATOM      7  C   UNL     1      45.652 131.079  17.007  1.00  0.00    -0.018 A 
ATOM      8  C   UNL     1      46.851 130.771  14.474  1.00  0.00    -0.051 A 
ATOM      9  C   UNL     1      46.840 129.706  15.386  1.00  0.00     0.004 A 
ATOM     10  C   UNL     1      46.282 131.998  14.843  1.00  0.00     0.004 A 
ATOM     11  C   UNL     1      46.240 129.856  16.639  1.00  0.00     0.009 A 
ATOM     12  C   UNL     1      45.683 132.149  16.096  1.00  0.00     0.009 A 
ATOM     13  C   UNL     1      47.529 130.621  13.144  1.00  0.00     0.044 C 
ENDBRANCH   1   7
BRANCH   5  14
ATOM     14  C   UNL     1      41.779 132.587  19.740  1.00  0.00     0.262 C 
ATOM     15  O   UNL     1      41.438 133.351  20.682  1.00  0.00    -0.298 OA
ENDBRANCH   5  14
BRANCH   4  16
ATOM     16  N   UNL     1      43.161 131.572  22.169  1.00  0.00    -0.381 N 
ATOM     17  H   UNL     1      42.296 132.149  22.276  1.00  0.00     0.160 HD
BRANCH  16  18
ATOM     18  C   UNL     1      43.598 130.748  23.302  1.00  0.00     0.094 C 
ATOM     19  C   UNL     1      42.540 130.606  24.359  1.00  0.00     0.100 C 
ATOM     20  C   UNL     1      43.433 129.275  23.059  1.00  0.00     0.100 C 
ATOM     21  C   UNL     1      42.372 129.115  24.132  1.00  0.00     0.137 C 
ATOM     22  O   UNL     1      41.698 128.211  24.596  1.00  0.00    -0.300 OA
ENDBRANCH  16  18
ENDBRANCH   4  16
TORSDOF 4
ENDMDL
MODEL 2
REMARK VINA RESULT:      -9.9      0.057      1.057
REMARK SMILES Cc1ccc(-c2ccc(NC3CC(=O)C3)c(C=O)c2)cc1
REMARK SMILES IDX 6 1 7 2 8 3 9 4 16 5 19 6 5 7 2 8 3 9 21 10 4 11 20 12 1 13
REMARK SMILES IDX 17 14 18 15 10 16 11 18 12 19 15 20 13 21 14 22
REMARK H PARENT 10 17
ROOT
ATOM      1  C   UNL     1      45.001 131.250  18.338  1.00  0.00    -0.018 A 
ATOM      2  C   UNL     1      45.680 130.874  19.506  1.00  0.00     0.011 A 
ATOM      3  C   UNL     1      45.075 131.016  20.754  1.00  0.00     0.027 A 
ATOM      4  C   UNL     1      43.777 131.543  20.871  1.00  0.00     0.045 A 
ATOM      5  C   UNL     1      43.095 131.960  19.699  1.00  0.00     0.038 A 
ATOM      6  C   UNL     1      43.709 131.789  18.446  1.00  0.00     0.022 A 
ENDROOT
BRANCH   1   7
ATOM      7  C   UNL     1      45.641 131.087  17.007  1.00  0.00    -0.018 A 
ATOM      8  C   UNL     1      46.866 130.784  14.484  1.00  0.00    -0.051 A 
ATOM      9  C   UNL     1      46.194 131.971  14.807  1.00  0.00     0.004 A 
ATOM     10  C   UNL     1      46.903 129.739  15.419  1.00  0.00     0.004 A 
ATOM     11  C   UNL     1      45.592 132.124  16.059  1.00  0.00     0.009 A 
ATOM     12  C   UNL     1      46.301 129.891  16.671  1.00  0.00     0.009 A 
ATOM     13  C   UNL     1      47.478 130.606  13.127  1.00  0.00     0.044 C 
ENDBRANCH   1   7
BRANCH   5  14
ATOM     14  C   UNL     1      41.771 132.622  19.728  1.00  0.00     0.262 C 
ATOM     15  O   UNL     1      41.398 133.315  20.711  1.00  0.00    -0.298 OA
ENDBRANCH   5  14
BRANCH   4  16
ATOM     16  N   UNL     1      43.138 131.594  22.161  1.00  0.00    -0.381 N 
ATOM     17  H   UNL     1      42.258 132.149  22.257  1.00  0.00     0.160 HD
BRANCH  16  18
ATOM     18  C   UNL     1      43.594 130.801  23.308  1.00  0.00     0.094 C 
ATOM     19  C   UNL     1      42.528 130.619  24.349  1.00  0.00     0.100 C 
ATOM     20  C   UNL     1      43.501 129.320  23.075  1.00  0.00     0.100 C 
ATOM     21  C   UNL     1      42.432 129.119  24.133  1.00  0.00     0.137 C 
ATOM     22  O   UNL     1      41.793 128.189  24.595  1.00  0.00    -0.300 OA
ENDBRANCH  16  18
ENDBRANCH   4  16
TORSDOF 4
ENDMDL
MODEL 3
REMARK VINA RESULT:      -7.6      1.432      2.237
REMARK SMILES Cc1ccc(-c2ccc(NC3CC(=O)C3)c(C=O)c2)cc1
REMARK SMILES IDX 6 1 7 2 8 3 9 4 16 5 19 6 5 7 2 8 3 9 21 10 4 11 20 12 1 13
REMARK SMILES IDX 17 14 18 15 10 16 11 18 12 19 15 20 13 21 14 22
REMARK H PARENT 10 17
ROOT
ATOM      1  C   UNL     1      44.887 131.357  17.803  1.00  0.00    -0.018 A 
ATOM      2  C   UNL     1      43.486 131.375  17.847  1.00  0.00     0.011 A 
ATOM      3  C   UNL     1      42.817 131.586  19.053  1.00  0.00     0.027 A 
ATOM      4  C   UNL     1      43.530 131.779  20.249  1.00  0.00     0.045 A 
ATOM      5  C   UNL     1      44.948 131.726  20.221  1.00  0.00     0.038 A 
ATOM      6  C   UNL     1      45.607 131.536  18.995  1.00  0.00     0.022 A 
ENDROOT
BRANCH   1   7
ATOM      7  C   UNL     1      45.599 131.145  16.516  1.00  0.00    -0.018 A 
ATOM      8  C   UNL     1      46.961 130.745  14.079  1.00  0.00    -0.051 A 
ATOM      9  C   UNL     1      46.601 132.038  14.485  1.00  0.00     0.004 A 
ATOM     10  C   UNL     1      46.616 129.650  14.884  1.00  0.00     0.004 A 
ATOM     11  C   UNL     1      45.931 132.237  15.695  1.00  0.00     0.009 A 
ATOM     12  C   UNL     1      45.946 129.849  16.095  1.00  0.00     0.009 A 
ATOM     13  C   UNL     1      47.644 130.529  12.762  1.00  0.00     0.044 C 
ENDBRANCH   1   7
BRANCH   5  14
ATOM     14  C   UNL     1      45.782 131.813  21.441  1.00  0.00     0.262 C 
ATOM     15  O   UNL     1      46.770 132.591  21.515  1.00  0.00    -0.298 OA
ENDBRANCH   5  14
BRANCH   4  16
ATOM     16  N   UNL     1      42.821 132.087  21.465  1.00  0.00    -0.381 N 
ATOM     17  H   UNL     1      41.935 132.636  21.397  1.00  0.00     0.160 HD
BRANCH  16  18
ATOM     18  C   UNL     1      43.218 131.554  22.773  1.00  0.00     0.094 C 
ATOM     19  C   UNL     1      42.099 131.580  23.774  1.00  0.00     0.100 C 
ATOM     20  C   UNL     1      43.138 130.056  22.849  1.00  0.00     0.100 C 
ATOM     21  C   UNL     1      42.016 130.068  23.871  1.00  0.00     0.137 C 
ATOM     22  O   UNL     1      41.354 129.247  24.483  1.00  0.00    -0.300 OA
ENDBRANCH  16  18
ENDBRANCH   4  16
TORSDOF 4
ENDMDL
MODEL 4
REMARK VINA RESULT:      -7.4      3.645      7.855
REMARK SMILES Cc1ccc(-c2ccc(NC3CC(=O)C3)c(C=O)c2)cc1
REMARK SMILES IDX 6 1 7 2 8 3 9 4 16 5 19 6 5 7 2 8 3 9 21 10 4 11 20 12 1 13
REMARK SMILES IDX 17 14 18 15 10 16 11 18 12 19 15 20 13 21 14 22
REMARK H PARENT 10 17
ROOT
ATOM      1  C   UNL     1      44.522 131.495  18.424  1.00  0.00    -0.018 A 
ATOM      2  C   UNL     1      45.876 131.297  18.116  1.00  0.00     0.011 A 
ATOM      3  C   UNL     1      46.317 131.351  16.794  1.00  0.00     0.027 A 
ATOM      4  C   UNL     1      45.417 131.600  15.743  1.00  0.00     0.045 A 
ATOM      5  C   UNL     1      44.040 131.765  16.040  1.00  0.00     0.038 A 
ATOM      6  C   UNL     1      43.615 131.730  17.379  1.00  0.00     0.022 A 
ENDROOT
BRANCH   1   7
ATOM      7  C   UNL     1      44.055 131.449  19.834  1.00  0.00    -0.018 A 
ATOM      8  C   UNL     1      43.159 131.353  22.506  1.00  0.00    -0.051 A 
ATOM      9  C   UNL     1      42.432 132.063  21.541  1.00  0.00     0.004 A 
ATOM     10  C   UNL     1      44.350 130.711  22.136  1.00  0.00     0.004 A 
ATOM     11  C   UNL     1      42.871 132.106  20.216  1.00  0.00     0.009 A 
ATOM     12  C   UNL     1      44.791 130.754  20.810  1.00  0.00     0.009 A 
ATOM     13  C   UNL     1      42.708 131.340  23.936  1.00  0.00     0.044 C 
ENDBRANCH   1   7
BRANCH   5  14
ATOM     14  C   UNL     1      43.003 131.925  14.996  1.00  0.00     0.262 C 
ATOM     15  O   UNL     1      43.088 131.344  13.882  1.00  0.00    -0.298 OA
ENDBRANCH   5  14
BRANCH   4  16
ATOM     16  N   UNL     1      45.909 131.743  14.396  1.00  0.00    -0.381 N 
ATOM     17  H   UNL     1      46.058 132.707  14.022  1.00  0.00     0.160 HD
BRANCH  16  18
ATOM     18  C   UNL     1      46.331 130.601  13.577  1.00  0.00     0.094 C 
ATOM     19  C   UNL     1      47.607 130.862  12.831  1.00  0.00     0.100 C 
ATOM     20  C   UNL     1      47.096 129.568  14.355  1.00  0.00     0.100 C 
ATOM     21  C   UNL     1      48.389 129.813  13.600  1.00  0.00     0.137 C 
ATOM     22  O   UNL     1      49.527 129.373  13.607  1.00  0.00    -0.300 OA
ENDBRANCH  16  18
ENDBRANCH   4  16
TORSDOF 4
ENDMDL
MODEL 5
REMARK VINA RESULT:      -7.3      1.645      2.509
REMARK SMILES Cc1ccc(-c2ccc(NC3CC(=O)C3)c(C=O)c2)cc1
REMARK SMILES IDX 6 1 7 2 8 3 9 4 16 5 19 6 5 7 2 8 3 9 21 10 4 11 20 12 1 13
REMARK SMILES IDX 17 14 18 15 10 16 11 18 12 19 15 20 13 21 14 22
REMARK H PARENT 10 17
ROOT
ATOM      1  C   UNL     1      45.101 131.344  17.457  1.00  0.00    -0.018 A 
ATOM      2  C   UNL     1      43.711 131.530  17.454  1.00  0.00     0.011 A 
ATOM      3  C   UNL     1      43.030 131.805  18.640  1.00  0.00     0.027 A 
ATOM      4  C   UNL     1      43.718 131.897  19.862  1.00  0.00     0.045 A 
ATOM      5  C   UNL     1      45.119 131.674  19.882  1.00  0.00     0.038 A 
ATOM      6  C   UNL     1      45.794 131.421  18.676  1.00  0.00     0.022 A 
ENDROOT
BRANCH   1   7
ATOM      7  C   UNL     1      45.828 131.063  16.192  1.00  0.00    -0.018 A 
ATOM      8  C   UNL     1      47.217 130.534  13.796  1.00  0.00    -0.051 A 
ATOM      9  C   UNL     1      46.778 131.833  14.087  1.00  0.00     0.004 A 
ATOM     10  C   UNL     1      46.938 129.495  14.696  1.00  0.00     0.004 A 
ATOM     11  C   UNL     1      46.094 132.097  15.277  1.00  0.00     0.009 A 
ATOM     12  C   UNL     1      46.254 129.758  15.886  1.00  0.00     0.009 A 
ATOM     13  C   UNL     1      47.916 130.244  12.501  1.00  0.00     0.044 C 
ENDBRANCH   1   7
BRANCH   5  14
ATOM     14  C   UNL     1      45.914 131.646  21.131  1.00  0.00     0.262 C 
ATOM     15  O   UNL     1      46.132 132.689  21.802  1.00  0.00    -0.298 OA
ENDBRANCH   5  14
BRANCH   4  16
ATOM     16  N   UNL     1      43.008 132.273  21.058  1.00  0.00    -0.381 N 
ATOM     17  H   UNL     1      42.751 133.277  21.188  1.00  0.00     0.160 HD
BRANCH  16  18
ATOM     18  C   UNL     1      42.520 131.293  22.035  1.00  0.00     0.094 C 
ATOM     19  C   UNL     1      43.470 130.146  22.230  1.00  0.00     0.100 C 
ATOM     20  C   UNL     1      42.824 131.675  23.456  1.00  0.00     0.100 C 
ATOM     21  C   UNL     1      43.775 130.513  23.671  1.00  0.00     0.137 C 
ATOM     22  O   UNL     1      44.465 130.077  24.578  1.00  0.00    -0.300 OA
ENDBRANCH  16  18
ENDBRANCH   4  16
TORSDOF 4
ENDMDL
MODEL 6
REMARK VINA RESULT:      -7.3      1.506      2.115
REMARK SMILES Cc1ccc(-c2ccc(NC3CC(=O)C3)c(C=O)c2)cc1
REMARK SMILES IDX 6 1 7 2 8 3 9 4 16 5 19 6 5 7 2 8 3 9 21 10 4 11 20 12 1 13
REMARK SMILES IDX 17 14 18 15 10 16 11 18 12 19 15 20 13 21 14 22
REMARK H PARENT 10 17
ROOT
ATOM      1  C   UNL     1      44.851 131.187  17.591  1.00  0.00    -0.018 A 
ATOM      2  C   UNL     1      43.542 131.689  17.586  1.00  0.00     0.011 A 
ATOM      3  C   UNL     1      42.840 131.851  18.780  1.00  0.00     0.027 A 
ATOM      4  C   UNL     1      43.425 131.511  20.012  1.00  0.00     0.045 A 
ATOM      5  C   UNL     1      44.736 130.968  20.025  1.00  0.00     0.038 A 
ATOM      6  C   UNL     1      45.438 130.832  18.815  1.00  0.00     0.022 A 
ENDROOT
BRANCH   1   7
ATOM      7  C   UNL     1      45.602 131.026  16.319  1.00  0.00    -0.018 A 
ATOM      8  C   UNL     1      47.018 130.719  13.899  1.00  0.00    -0.051 A 
ATOM      9  C   UNL     1      46.588 129.593  14.615  1.00  0.00     0.004 A 
ATOM     10  C   UNL     1      46.759 131.999  14.409  1.00  0.00     0.004 A 
ATOM     11  C   UNL     1      45.882 129.745  15.812  1.00  0.00     0.009 A 
ATOM     12  C   UNL     1      46.052 132.152  15.605  1.00  0.00     0.009 A 
ATOM     13  C   UNL     1      47.810 130.555  12.636  1.00  0.00     0.044 C 
ENDBRANCH   1   7
BRANCH   5  14
ATOM     14  C   UNL     1      45.396 130.483  21.259  1.00  0.00     0.262 C 
ATOM     15  O   UNL     1      45.689 129.269  21.420  1.00  0.00    -0.298 OA
ENDBRANCH   5  14
BRANCH   4  16
ATOM     16  N   UNL     1      42.717 131.773  21.239  1.00  0.00    -0.381 N 
ATOM     17  H   UNL     1      41.799 132.268  21.186  1.00  0.00     0.160 HD
BRANCH  16  18
ATOM     18  C   UNL     1      43.165 131.264  22.541  1.00  0.00     0.094 C 
ATOM     19  C   UNL     1      42.190 131.555  23.645  1.00  0.00     0.100 C 
ATOM     20  C   UNL     1      42.839 129.812  22.750  1.00  0.00     0.100 C 
ATOM     21  C   UNL     1      41.860 130.091  23.875  1.00  0.00     0.137 C 
ATOM     22  O   UNL     1      41.142 129.444  24.619  1.00  0.00    -0.300 OA
ENDBRANCH  16  18
ENDBRANCH   4  16
TORSDOF 4
ENDMDL
MODEL 7
REMARK VINA RESULT:      -7.0      1.035      1.557
REMARK SMILES Cc1ccc(-c2ccc(NC3CC(=O)C3)c(C=O)c2)cc1
REMARK SMILES IDX 6 1 7 2 8 3 9 4 16 5 19 6 5 7 2 8 3 9 21 10 4 11 20 12 1 13
REMARK SMILES IDX 17 14 18 15 10 16 11 18 12 19 15 20 13 21 14 22
REMARK H PARENT 10 17
ROOT
ATOM      1  C   UNL     1      45.237 131.123  17.341  1.00  0.00    -0.018 A 
ATOM      2  C   UNL     1      45.920 130.832  18.531  1.00  0.00     0.011 A 
ATOM      3  C   UNL     1      45.282 130.957  19.764  1.00  0.00     0.027 A 
ATOM      4  C   UNL     1      43.944 131.381  19.844  1.00  0.00     0.045 A 
ATOM      5  C   UNL     1      43.254 131.713  18.649  1.00  0.00     0.038 A 
ATOM      6  C   UNL     1      43.905 131.560  17.413  1.00  0.00     0.022 A 
ENDROOT
BRANCH   1   7
ATOM      7  C   UNL     1      45.914 130.978  16.027  1.00  0.00    -0.018 A 
ATOM      8  C   UNL     1      47.208 130.711  13.535  1.00  0.00    -0.051 A 
ATOM      9  C   UNL     1      46.378 131.812  13.787  1.00  0.00     0.004 A 
ATOM     10  C   UNL     1      47.369 129.730  14.525  1.00  0.00     0.004 A 
ATOM     11  C   UNL     1      45.741 131.948  15.024  1.00  0.00     0.009 A 
ATOM     12  C   UNL     1      46.733 129.865  15.762  1.00  0.00     0.009 A 
ATOM     13  C   UNL     1      47.859 130.546  12.194  1.00  0.00     0.044 C 
ENDBRANCH   1   7
BRANCH   5  14
ATOM     14  C   UNL     1      41.882 132.268  18.638  1.00  0.00     0.262 C 
ATOM     15  O   UNL     1      41.561 133.227  17.887  1.00  0.00    -0.298 OA
ENDBRANCH   5  14
BRANCH   4  16
ATOM     16  N   UNL     1      43.277 131.414  21.121  1.00  0.00    -0.381 N 
ATOM     17  H   UNL     1      42.288 131.748  21.156  1.00  0.00     0.160 HD
BRANCH  16  18
ATOM     18  C   UNL     1      43.879 130.879  22.347  1.00  0.00     0.094 C 
ATOM     19  C   UNL     1      43.025 131.107  23.561  1.00  0.00     0.100 C 
ATOM     20  C   UNL     1      43.616 129.412  22.543  1.00  0.00     0.100 C 
ATOM     21  C   UNL     1      42.762 129.628  23.778  1.00  0.00     0.137 C 
ATOM     22  O   UNL     1      42.148 128.937  24.574  1.00  0.00    -0.300 OA
ENDBRANCH  16  18
ENDBRANCH   4  16
TORSDOF 4
ENDMDL


