MODEL 1
REMARK VINA RESULT:      -8.1      0.000      0.000
REMARK SMILES C=Cc1ccc(-c2cnc3oc[nH+]c3c2)c(N=[N+]=[N-])c1F
REMARK SMILES IDX 3 1 4 2 5 3 6 4 16 5 20 6 21 7 2 8 1 9 17 10 18 11 19 12
REMARK SMILES IDX 7 13 8 14 15 15 9 16 14 17 10 18 13 19 11 20 12 21
REMARK H PARENT 13 22
ROOT
ATOM      1  C   UNL     1      43.533 131.520  20.085  1.00  0.00     0.010 A 
ATOM      2  C   UNL     1      44.857 131.049  20.093  1.00  0.00     0.012 A 
ATOM      3  C   UNL     1      45.575 130.934  18.905  1.00  0.00     0.010 A 
ATOM      4  C   UNL     1      44.999 131.298  17.679  1.00  0.00    -0.004 A 
ATOM      5  C   UNL     1      43.669 131.774  17.648  1.00  0.00     0.082 A 
ATOM      6  C   UNL     1      42.946 131.891  18.859  1.00  0.00     0.140 A 
ATOM      7  F   UNL     1      41.666 132.344  18.852  1.00  0.00    -0.206 F 
ENDROOT
BRANCH   1   8
ATOM      8  C   UNL     1      42.748 131.668  21.338  1.00  0.00     0.003 C 
ATOM      9  C   UNL     1      43.140 131.195  22.521  1.00  0.00     0.009 C 
ENDBRANCH   1   8
BRANCH   5  10
ATOM     10  N   UNL     1      43.074 132.091  16.377  1.00  0.00    -0.057 NA
BRANCH  10  11
ATOM     11  N   UNL     1      43.333 131.487  15.336  1.00  0.00     0.005 N 
ATOM     12  N   UNL     1      43.590 130.888  14.291  1.00  0.00    -0.003 NA
ENDBRANCH  10  11
ENDBRANCH   5  10
BRANCH   4  13
ATOM     13  C   UNL     1      45.806 131.174  16.442  1.00  0.00     0.007 A 
ATOM     14  C   UNL     1      46.036 132.304  15.607  1.00  0.00     0.124 A 
ATOM     15  C   UNL     1      46.384 129.931  16.092  1.00  0.00     0.095 A 
ATOM     16  N   UNL     1      46.792 132.193  14.471  1.00  0.00    -0.215 NA
ATOM     17  C   UNL     1      47.138 129.886  14.927  1.00  0.00     0.270 A 
ATOM     18  C   UNL     1      47.322 130.987  14.159  1.00  0.00     0.297 A 
ATOM     19  N   UNL     1      47.782 128.853  14.367  1.00  0.00    -0.175 N 
ATOM     20  O   UNL     1      48.064 130.686  13.126  1.00  0.00    -0.384 OA
ATOM     21  C   UNL     1      48.341 129.394  13.254  1.00  0.00     0.522 A 
ATOM     22  H   UNL     1      47.840 127.867  14.703  1.00  0.00     0.457 HD
ENDBRANCH   4  13
TORSDOF 4
ENDMDL
MODEL 2
REMARK VINA RESULT:      -7.8      2.445      3.129
REMARK SMILES C=Cc1ccc(-c2cnc3oc[nH+]c3c2)c(N=[N+]=[N-])c1F
REMARK SMILES IDX 3 1 4 2 5 3 6 4 16 5 20 6 21 7 2 8 1 9 17 10 18 11 19 12
REMARK SMILES IDX 7 13 8 14 15 15 9 16 14 17 10 18 13 19 11 20 12 21
REMARK H PARENT 13 22
ROOT
ATOM      1  C   UNL     1      42.315 132.496  19.819  1.00  0.00     0.010 A 
ATOM      2  C   UNL     1      41.927 132.530  18.469  1.00  0.00     0.012 A 
ATOM      3  C   UNL     1      42.769 132.034  17.477  1.00  0.00     0.010 A 
ATOM      4  C   UNL     1      44.014 131.478  17.803  1.00  0.00    -0.004 A 
ATOM      5  C   UNL     1      44.425 131.433  19.154  1.00  0.00     0.082 A 
ATOM      6  C   UNL     1      43.563 131.936  20.158  1.00  0.00     0.140 A 
ATOM      7  F   UNL     1      43.938 131.906  21.462  1.00  0.00    -0.206 F 
ENDROOT
BRANCH   1   8
ATOM      8  C   UNL     1      41.431 133.003  20.900  1.00  0.00     0.003 C 
ATOM      9  C   UNL     1      41.549 132.655  22.182  1.00  0.00     0.009 C 
ENDBRANCH   1   8
BRANCH   5  10
ATOM     10  N   UNL     1      45.729 130.910  19.468  1.00  0.00    -0.057 NA
BRANCH  10  11
ATOM     11  N   UNL     1      45.917 129.983  20.255  1.00  0.00     0.005 N 
ATOM     12  N   UNL     1      46.111 129.053  21.039  1.00  0.00    -0.003 NA
ENDBRANCH  10  11
ENDBRANCH   5  10
BRANCH   4  13
ATOM     13  C   UNL     1      44.871 130.948  16.716  1.00  0.00     0.007 A 
ATOM     14  C   UNL     1      44.918 129.551  16.443  1.00  0.00     0.124 A 
ATOM     15  C   UNL     1      45.632 131.831  15.915  1.00  0.00     0.095 A 
ATOM     16  N   UNL     1      45.698 129.061  15.430  1.00  0.00    -0.215 NA
ATOM     17  C   UNL     1      46.403 131.270  14.906  1.00  0.00     0.270 A 
ATOM     18  C   UNL     1      46.422 129.933  14.689  1.00  0.00     0.297 A 
ATOM     19  N   UNL     1      47.211 131.867  14.018  1.00  0.00    -0.175 N 
ATOM     20  O   UNL     1      47.219 129.660  13.689  1.00  0.00    -0.384 OA
ATOM     21  C   UNL     1      47.695 130.831  13.286  1.00  0.00     0.522 A 
ATOM     22  H   UNL     1      47.420 132.884  13.914  1.00  0.00     0.457 HD
ENDBRANCH   4  13
TORSDOF 4
ENDMDL
MODEL 3
REMARK VINA RESULT:      -7.7      2.959      3.746
REMARK SMILES C=Cc1ccc(-c2cnc3oc[nH+]c3c2)c(N=[N+]=[N-])c1F
REMARK SMILES IDX 3 1 4 2 5 3 6 4 16 5 20 6 21 7 2 8 1 9 17 10 18 11 19 12
REMARK SMILES IDX 7 13 8 14 15 15 9 16 14 17 10 18 13 19 11 20 12 21
REMARK H PARENT 13 22
ROOT
ATOM      1  C   UNL     1      42.945 131.825  22.253  1.00  0.00     0.010 A 
ATOM      2  C   UNL     1      42.374 132.485  21.151  1.00  0.00     0.012 A 
ATOM      3  C   UNL     1      42.866 132.275  19.865  1.00  0.00     0.010 A 
ATOM      4  C   UNL     1      43.932 131.392  19.640  1.00  0.00    -0.004 A 
ATOM      5  C   UNL     1      44.522 130.718  20.732  1.00  0.00     0.082 A 
ATOM      6  C   UNL     1      44.015 130.934  22.036  1.00  0.00     0.140 A 
ATOM      7  F   UNL     1      44.568 130.299  23.101  1.00  0.00    -0.206 F 
ENDROOT
BRANCH   1   8
ATOM      8  C   UNL     1      42.431 132.018  23.633  1.00  0.00     0.003 C 
ATOM      9  C   UNL     1      43.142 132.558  24.623  1.00  0.00     0.009 C 
ENDBRANCH   1   8
BRANCH   5  10
ATOM     10  N   UNL     1      45.651 129.859  20.491  1.00  0.00    -0.057 NA
BRANCH  10  11
ATOM     11  N   UNL     1      45.814 128.777  21.056  1.00  0.00     0.005 N 
ATOM     12  N   UNL     1      45.981 127.693  21.616  1.00  0.00    -0.003 NA
ENDBRANCH  10  11
ENDBRANCH   5  10
BRANCH   4  13
ATOM     13  C   UNL     1      44.413 131.188  18.252  1.00  0.00     0.007 A 
ATOM     14  C   UNL     1      43.665 131.676  17.144  1.00  0.00     0.124 A 
ATOM     15  C   UNL     1      45.642 130.528  18.016  1.00  0.00     0.095 A 
ATOM     16  N   UNL     1      44.115 131.500  15.863  1.00  0.00    -0.215 NA
ATOM     17  C   UNL     1      46.040 130.380  16.694  1.00  0.00     0.270 A 
ATOM     18  C   UNL     1      45.290 130.855  15.671  1.00  0.00     0.297 A 
ATOM     19  N   UNL     1      47.139 129.798  16.195  1.00  0.00    -0.175 N 
ATOM     20  O   UNL     1      45.878 130.592  14.533  1.00  0.00    -0.384 OA
ATOM     21  C   UNL     1      46.996 129.952  14.853  1.00  0.00     0.522 A 
ATOM     22  H   UNL     1      47.919 129.335  16.711  1.00  0.00     0.457 HD
ENDBRANCH   4  13
TORSDOF 4
ENDMDL
MODEL 4
REMARK VINA RESULT:      -7.6      2.077      2.813
REMARK SMILES C=Cc1ccc(-c2cnc3oc[nH+]c3c2)c(N=[N+]=[N-])c1F
REMARK SMILES IDX 3 1 4 2 5 3 6 4 16 5 20 6 21 7 2 8 1 9 17 10 18 11 19 12
REMARK SMILES IDX 7 13 8 14 15 15 9 16 14 17 10 18 13 19 11 20 12 21
REMARK H PARENT 13 22
ROOT
ATOM      1  C   UNL     1      44.494 130.121  22.193  1.00  0.00     0.010 A 
ATOM      2  C   UNL     1      45.560 129.462  21.558  1.00  0.00     0.012 A 
ATOM      3  C   UNL     1      45.846 129.705  20.216  1.00  0.00     0.010 A 
ATOM      4  C   UNL     1      45.084 130.621  19.474  1.00  0.00    -0.004 A 
ATOM      5  C   UNL     1      44.007 131.294  20.093  1.00  0.00     0.082 A 
ATOM      6  C   UNL     1      43.725 131.044  21.457  1.00  0.00     0.140 A 
ATOM      7  F   UNL     1      42.693 131.678  22.071  1.00  0.00    -0.206 F 
ENDROOT
BRANCH   1   8
ATOM      8  C   UNL     1      44.176 129.893  23.626  1.00  0.00     0.003 C 
ATOM      9  C   UNL     1      43.089 129.252  24.055  1.00  0.00     0.009 C 
ENDBRANCH   1   8
BRANCH   5  10
ATOM     10  N   UNL     1      43.202 132.188  19.304  1.00  0.00    -0.057 NA
BRANCH  10  11
ATOM     11  N   UNL     1      42.222 132.788  19.745  1.00  0.00     0.005 N 
ATOM     12  N   UNL     1      41.237 133.384  20.183  1.00  0.00    -0.003 NA
ENDBRANCH  10  11
ENDBRANCH   5  10
BRANCH   4  13
ATOM     13  C   UNL     1      45.434 130.859  18.054  1.00  0.00     0.007 A 
ATOM     14  C   UNL     1      45.196 132.127  17.449  1.00  0.00     0.124 A 
ATOM     15  C   UNL     1      46.037 129.834  17.288  1.00  0.00     0.095 A 
ATOM     16  N   UNL     1      45.530 132.352  16.142  1.00  0.00    -0.215 NA
ATOM     17  C   UNL     1      46.349 130.128  15.967  1.00  0.00     0.270 A 
ATOM     18  C   UNL     1      46.096 131.347  15.433  1.00  0.00     0.297 A 
ATOM     19  N   UNL     1      46.912 129.351  15.031  1.00  0.00    -0.175 N 
ATOM     20  O   UNL     1      46.482 131.370  14.184  1.00  0.00    -0.384 OA
ATOM     21  C   UNL     1      46.974 130.161  13.943  1.00  0.00     0.522 A 
ATOM     22  H   UNL     1      47.228 128.360  15.116  1.00  0.00     0.457 HD
ENDBRANCH   4  13
TORSDOF 4
ENDMDL
MODEL 5
REMARK VINA RESULT:      -7.3      1.584      2.104
REMARK SMILES C=Cc1ccc(-c2cnc3oc[nH+]c3c2)c(N=[N+]=[N-])c1F
REMARK SMILES IDX 3 1 4 2 5 3 6 4 16 5 20 6 21 7 2 8 1 9 17 10 18 11 19 12
REMARK SMILES IDX 7 13 8 14 15 15 9 16 14 17 10 18 13 19 11 20 12 21
REMARK H PARENT 13 22
ROOT
ATOM      1  C   UNL     1      44.417 130.732  21.765  1.00  0.00     0.010 A 
ATOM      2  C   UNL     1      45.616 130.159  21.307  1.00  0.00     0.012 A 
ATOM      3  C   UNL     1      45.976 130.247  19.964  1.00  0.00     0.010 A 
ATOM      4  C   UNL     1      45.158 130.919  19.044  1.00  0.00    -0.004 A 
ATOM      5  C   UNL     1      43.948 131.502  19.483  1.00  0.00     0.082 A 
ATOM      6  C   UNL     1      43.591 131.411  20.849  1.00  0.00     0.140 A 
ATOM      7  F   UNL     1      42.431 131.963  21.292  1.00  0.00    -0.206 F 
ENDROOT
BRANCH   1   8
ATOM      8  C   UNL     1      44.016 130.667  23.194  1.00  0.00     0.003 C 
ATOM      9  C   UNL     1      44.545 131.431  24.150  1.00  0.00     0.009 C 
ENDBRANCH   1   8
BRANCH   5  10
ATOM     10  N   UNL     1      43.094 132.140  18.516  1.00  0.00    -0.057 NA
BRANCH  10  11
ATOM     11  N   UNL     1      41.875 131.971  18.471  1.00  0.00     0.005 N 
ATOM     12  N   UNL     1      40.656 131.806  18.421  1.00  0.00    -0.003 NA
ENDBRANCH  10  11
ENDBRANCH   5  10
BRANCH   4  13
ATOM     13  C   UNL     1      45.588 131.000  17.628  1.00  0.00     0.007 A 
ATOM     14  C   UNL     1      45.421 132.204  16.885  1.00  0.00     0.124 A 
ATOM     15  C   UNL     1      46.199 129.887  17.005  1.00  0.00     0.095 A 
ATOM     16  N   UNL     1      45.830 132.285  15.582  1.00  0.00    -0.215 NA
ATOM     17  C   UNL     1      46.589 130.035  15.680  1.00  0.00     0.270 A 
ATOM     18  C   UNL     1      46.401 131.198  15.012  1.00  0.00     0.297 A 
ATOM     19  N   UNL     1      47.176 129.152  14.861  1.00  0.00    -0.175 N 
ATOM     20  O   UNL     1      46.852 131.082  13.790  1.00  0.00    -0.384 OA
ATOM     21  C   UNL     1      47.319 129.843  13.701  1.00  0.00     0.522 A 
ATOM     22  H   UNL     1      47.455 128.167  15.062  1.00  0.00     0.457 HD
ENDBRANCH   4  13
TORSDOF 4
ENDMDL
MODEL 6
REMARK VINA RESULT:      -7.2      3.153      6.306
REMARK SMILES C=Cc1ccc(-c2cnc3oc[nH+]c3c2)c(N=[N+]=[N-])c1F
REMARK SMILES IDX 3 1 4 2 5 3 6 4 16 5 20 6 21 7 2 8 1 9 17 10 18 11 19 12
REMARK SMILES IDX 7 13 8 14 15 15 9 16 14 17 10 18 13 19 11 20 12 21
REMARK H PARENT 13 22
ROOT
ATOM      1  C   UNL     1      46.811 129.846  14.997  1.00  0.00     0.010 A 
ATOM      2  C   UNL     1      47.114 129.543  16.335  1.00  0.00     0.012 A 
ATOM      3  C   UNL     1      46.304 130.010  17.368  1.00  0.00     0.010 A 
ATOM      4  C   UNL     1      45.164 130.780  17.095  1.00  0.00    -0.004 A 
ATOM      5  C   UNL     1      44.841 131.097  15.756  1.00  0.00     0.082 A 
ATOM      6  C   UNL     1      45.666 130.616  14.712  1.00  0.00     0.140 A 
ATOM      7  F   UNL     1      45.376 130.910  13.419  1.00  0.00    -0.206 F 
ENDROOT
BRANCH   1   8
ATOM      8  C   UNL     1      47.647 129.348  13.874  1.00  0.00     0.003 C 
ATOM      9  C   UNL     1      48.514 130.104  13.200  1.00  0.00     0.009 C 
ENDBRANCH   1   8
BRANCH   5  10
ATOM     10  N   UNL     1      43.700 131.934  15.496  1.00  0.00    -0.057 NA
BRANCH  10  11
ATOM     11  N   UNL     1      43.058 131.900  14.446  1.00  0.00     0.005 N 
ATOM     12  N   UNL     1      42.414 131.859  13.398  1.00  0.00    -0.003 NA
ENDBRANCH  10  11
ENDBRANCH   5  10
BRANCH   4  13
ATOM     13  C   UNL     1      44.323 131.243  18.225  1.00  0.00     0.007 A 
ATOM     14  C   UNL     1      43.050 131.835  17.988  1.00  0.00     0.124 A 
ATOM     15  C   UNL     1      44.767 131.074  19.557  1.00  0.00     0.095 A 
ATOM     16  N   UNL     1      42.267 132.250  19.031  1.00  0.00    -0.215 NA
ATOM     17  C   UNL     1      43.926 131.519  20.568  1.00  0.00     0.270 A 
ATOM     18  C   UNL     1      42.725 132.084  20.294  1.00  0.00     0.297 A 
ATOM     19  N   UNL     1      44.099 131.487  21.897  1.00  0.00    -0.175 N 
ATOM     20  O   UNL     1      42.128 132.414  21.410  1.00  0.00    -0.384 OA
ATOM     21  C   UNL     1      42.962 132.053  22.377  1.00  0.00     0.522 A 
ATOM     22  H   UNL     1      44.913 131.119  22.436  1.00  0.00     0.457 HD
ENDBRANCH   4  13
TORSDOF 4
ENDMDL
MODEL 7
REMARK VINA RESULT:      -7.1      2.555      3.112
REMARK SMILES C=Cc1ccc(-c2cnc3oc[nH+]c3c2)c(N=[N+]=[N-])c1F
REMARK SMILES IDX 3 1 4 2 5 3 6 4 16 5 20 6 21 7 2 8 1 9 17 10 18 11 19 12
REMARK SMILES IDX 7 13 8 14 15 15 9 16 14 17 10 18 13 19 11 20 12 21
REMARK H PARENT 13 22
ROOT
ATOM      1  C   UNL     1      42.459 132.301  20.892  1.00  0.00     0.010 A 
ATOM      2  C   UNL     1      41.882 132.632  19.654  1.00  0.00     0.012 A 
ATOM      3  C   UNL     1      42.528 132.310  18.463  1.00  0.00     0.010 A 
ATOM      4  C   UNL     1      43.760 131.639  18.472  1.00  0.00    -0.004 A 
ATOM      5  C   UNL     1      44.358 131.297  19.706  1.00  0.00     0.082 A 
ATOM      6  C   UNL     1      43.694 131.624  20.912  1.00  0.00     0.140 A 
ATOM      7  F   UNL     1      44.251 131.306  22.109  1.00  0.00    -0.206 F 
ENDROOT
BRANCH   1   8
ATOM      8  C   UNL     1      41.785 132.617  22.178  1.00  0.00     0.003 C 
ATOM      9  C   UNL     1      41.977 131.933  23.306  1.00  0.00     0.009 C 
ENDBRANCH   1   8
BRANCH   5  10
ATOM     10  N   UNL     1      45.647 130.657  19.700  1.00  0.00    -0.057 NA
BRANCH  10  11
ATOM     11  N   UNL     1      45.916 129.665  20.376  1.00  0.00     0.005 N 
ATOM     12  N   UNL     1      46.188 128.669  21.048  1.00  0.00    -0.003 NA
ENDBRANCH  10  11
ENDBRANCH   5  10
BRANCH   4  13
ATOM     13  C   UNL     1      44.404 131.303  17.180  1.00  0.00     0.007 A 
ATOM     14  C   UNL     1      43.808 131.695  15.947  1.00  0.00     0.124 A 
ATOM     15  C   UNL     1      45.639 130.613  17.159  1.00  0.00     0.095 A 
ATOM     16  N   UNL     1      44.409 131.397  14.754  1.00  0.00    -0.215 NA
ATOM     17  C   UNL     1      46.193 130.341  15.916  1.00  0.00     0.270 A 
ATOM     18  C   UNL     1      45.585 130.726  14.768  1.00  0.00     0.297 A 
ATOM     19  N   UNL     1      47.334 129.705  15.612  1.00  0.00    -0.175 N 
ATOM     20  O   UNL     1      46.304 130.354  13.742  1.00  0.00    -0.384 OA
ATOM     21  C   UNL     1      47.361 129.736  14.254  1.00  0.00     0.522 A 
ATOM     22  H   UNL     1      48.034 129.285  16.261  1.00  0.00     0.457 HD
ENDBRANCH   4  13
TORSDOF 4
ENDMDL
MODEL 8
REMARK VINA RESULT:      -7.0      1.161      1.737
REMARK SMILES C=Cc1ccc(-c2cnc3oc[nH+]c3c2)c(N=[N+]=[N-])c1F
REMARK SMILES IDX 3 1 4 2 5 3 6 4 16 5 20 6 21 7 2 8 1 9 17 10 18 11 19 12
REMARK SMILES IDX 7 13 8 14 15 15 9 16 14 17 10 18 13 19 11 20 12 21
REMARK H PARENT 13 22
ROOT
ATOM      1  C   UNL     1      44.183 131.672  21.093  1.00  0.00     0.010 A 
ATOM      2  C   UNL     1      45.496 131.230  20.858  1.00  0.00     0.012 A 
ATOM      3  C   UNL     1      45.915 130.906  19.569  1.00  0.00     0.010 A 
ATOM      4  C   UNL     1      45.041 131.025  18.479  1.00  0.00    -0.004 A 
ATOM      5  C   UNL     1      43.716 131.467  18.693  1.00  0.00     0.082 A 
ATOM      6  C   UNL     1      43.299 131.798  20.004  1.00  0.00     0.140 A 
ATOM      7  F   UNL     1      42.030 132.223  20.233  1.00  0.00    -0.206 F 
ENDROOT
BRANCH   1   8
ATOM      8  C   UNL     1      43.714 132.040  22.454  1.00  0.00     0.003 C 
ATOM      9  C   UNL     1      43.743 131.213  23.500  1.00  0.00     0.009 C 
ENDBRANCH   1   8
BRANCH   5  10
ATOM     10  N   UNL     1      42.815 131.532  17.572  1.00  0.00    -0.057 NA
BRANCH  10  11
ATOM     11  N   UNL     1      43.177 131.792  16.425  1.00  0.00     0.005 N 
ATOM     12  N   UNL     1      43.532 132.050  15.274  1.00  0.00    -0.003 NA
ENDBRANCH  10  11
ENDBRANCH   5  10
BRANCH   4  13
ATOM     13  C   UNL     1      45.534 130.683  17.123  1.00  0.00     0.007 A 
ATOM     14  C   UNL     1      45.348 129.376  16.590  1.00  0.00     0.124 A 
ATOM     15  C   UNL     1      46.171 131.666  16.330  1.00  0.00     0.095 A 
ATOM     16  N   UNL     1      45.791 129.063  15.334  1.00  0.00    -0.215 NA
ATOM     17  C   UNL     1      46.598 131.283  15.066  1.00  0.00     0.270 A 
ATOM     18  C   UNL     1      46.406 130.024  14.604  1.00  0.00     0.297 A 
ATOM     19  N   UNL     1      47.225 132.001  14.124  1.00  0.00    -0.175 N 
ATOM     20  O   UNL     1      46.893 129.918  13.395  1.00  0.00    -0.384 OA
ATOM     21  C   UNL     1      47.389 131.115  13.108  1.00  0.00     0.522 A 
ATOM     22  H   UNL     1      47.520 133.001  14.161  1.00  0.00     0.457 HD
ENDBRANCH   4  13
TORSDOF 4
ENDMDL
MODEL 9
REMARK VINA RESULT:      -6.9      3.077      6.337
REMARK SMILES C=Cc1ccc(-c2cnc3oc[nH+]c3c2)c(N=[N+]=[N-])c1F
REMARK SMILES IDX 3 1 4 2 5 3 6 4 16 5 20 6 21 7 2 8 1 9 17 10 18 11 19 12
REMARK SMILES IDX 7 13 8 14 15 15 9 16 14 17 10 18 13 19 11 20 12 21
REMARK H PARENT 13 22
ROOT
ATOM      1  C   UNL     1      47.276 129.928  14.343  1.00  0.00     0.010 A 
ATOM      2  C   UNL     1      47.568 129.505  15.651  1.00  0.00     0.012 A 
ATOM      3  C   UNL     1      46.780 129.917  16.723  1.00  0.00     0.010 A 
ATOM      4  C   UNL     1      45.672 130.752  16.520  1.00  0.00    -0.004 A 
ATOM      5  C   UNL     1      45.359 131.191  15.213  1.00  0.00     0.082 A 
ATOM      6  C   UNL     1      46.162 130.765  14.129  1.00  0.00     0.140 A 
ATOM      7  F   UNL     1      45.882 131.176  12.865  1.00  0.00    -0.206 F 
ENDROOT
BRANCH   1   8
ATOM      8  C   UNL     1      48.089 129.492  13.179  1.00  0.00     0.003 C 
ATOM      9  C   UNL     1      49.387 129.197  13.248  1.00  0.00     0.009 C 
ENDBRANCH   1   8
BRANCH   5  10
ATOM     10  N   UNL     1      44.252 132.091  15.028  1.00  0.00    -0.057 NA
BRANCH  10  11
ATOM     11  N   UNL     1      43.329 131.881  14.241  1.00  0.00     0.005 N 
ATOM     12  N   UNL     1      42.411 131.668  13.448  1.00  0.00    -0.003 NA
ENDBRANCH  10  11
ENDBRANCH   5  10
BRANCH   4  13
ATOM     13  C   UNL     1      44.852 131.154  17.688  1.00  0.00     0.007 A 
ATOM     14  C   UNL     1      45.344 130.985  19.014  1.00  0.00     0.124 A 
ATOM     15  C   UNL     1      43.578 131.738  17.495  1.00  0.00     0.095 A 
ATOM     16  N   UNL     1      44.594 131.368  20.092  1.00  0.00    -0.215 NA
ATOM     17  C   UNL     1      42.868 132.102  18.632  1.00  0.00     0.270 A 
ATOM     18  C   UNL     1      43.374 131.915  19.874  1.00  0.00     0.297 A 
ATOM     19  N   UNL     1      41.655 132.662  18.736  1.00  0.00    -0.175 N 
ATOM     20  O   UNL     1      42.519 132.338  20.768  1.00  0.00    -0.384 OA
ATOM     21  C   UNL     1      41.479 132.789  20.077  1.00  0.00     0.522 A 
ATOM     22  H   UNL     1      40.999 132.934  17.971  1.00  0.00     0.457 HD
ENDBRANCH   4  13
TORSDOF 4
ENDMDL


