REMARK SMILES C=Cc1cc(-c2cccc3[nH+]coc23)cc(O/C(S)=[NH+]/[C@H](C)CC)c1F
REMARK SMILES IDX 18 1 19 2 17 4 16 5 15 6 25 7 5 8 3 9 4 10 26 11 6 12 7 13
REMARK SMILES IDX 14 14 8 15 10 16 13 17 9 18 11 19 12 20 2 22 1 23 20 24
REMARK SMILES IDX 21 26 22 27 23 28 24 29
REMARK H PARENT 19 3 11 21 20 25
ROOT
ATOM      1  C   UNL     1      -1.854  -1.262   0.752  1.00  0.00     0.401 C 
ENDROOT
BRANCH   1   2
ATOM      2  S   UNL     1      -2.976  -1.908   1.999  1.00  0.00    -0.031 SA
ATOM      3  H   UNL     1      -3.920  -2.286   1.026  1.00  0.00     0.118 HD
ENDBRANCH   1   2
BRANCH   1   4
ATOM      4  O   UNL     1      -2.008   0.083   0.387  1.00  0.00    -0.397 OA
BRANCH   4   5
ATOM      5  C   UNL     1      -0.962   0.947   0.028  1.00  0.00     0.171 A 
ATOM      6  C   UNL     1       0.341   0.773   0.522  1.00  0.00     0.059 A 
ATOM      7  C   UNL     1      -1.242   2.030  -0.813  1.00  0.00     0.173 A 
ATOM      8  C   UNL     1       1.373   1.645   0.142  1.00  0.00    -0.010 A 
ATOM      9  C   UNL     1      -0.230   2.931  -1.187  1.00  0.00     0.014 A 
ATOM     10  C   UNL     1       1.081   2.719  -0.715  1.00  0.00     0.020 A 
ATOM     11  F   UNL     1      -2.513   2.202  -1.261  1.00  0.00    -0.202 F 
BRANCH   8  12
ATOM     12  C   UNL     1       2.752   1.431   0.644  1.00  0.00     0.032 A 
ATOM     13  C   UNL     1       3.000   1.079   1.994  1.00  0.00     0.013 A 
ATOM     14  C   UNL     1       3.871   1.554  -0.190  1.00  0.00     0.212 A 
ATOM     15  C   UNL     1       4.320   0.874   2.457  1.00  0.00     0.008 A 
ATOM     16  C   UNL     1       5.141   1.356   0.264  1.00  0.00     0.249 A 
ATOM     17  O   UNL     1       3.924   1.841  -1.469  1.00  0.00    -0.403 OA
ATOM     18  C   UNL     1       5.414   1.013   1.584  1.00  0.00     0.083 A 
ATOM     19  N   UNL     1       6.004   1.527  -0.748  1.00  0.00    -0.176 N 
ATOM     20  C   UNL     1       5.205   1.826  -1.801  1.00  0.00     0.521 A 
ATOM     21  H   UNL     1       7.044   1.443  -0.734  1.00  0.00     0.457 HD
ENDBRANCH   8  12
BRANCH   9  22
ATOM     22  C   UNL     1      -0.566   4.058  -2.095  1.00  0.00     0.003 C 
ATOM     23  C   UNL     1       0.150   5.179  -2.187  1.00  0.00     0.009 C 
ENDBRANCH   9  22
ENDBRANCH   4   5
ENDBRANCH   1   4
BRANCH   1  24
ATOM     24  N   UNL     1      -0.954  -2.014   0.171  1.00  0.00    -0.202 N 
ATOM     25  H   UNL     1      -0.380  -1.595  -0.596  1.00  0.00     0.450 HD
BRANCH  24  26
ATOM     26  C   UNL     1      -0.684  -3.415   0.531  1.00  0.00     0.259 C 
ATOM     27  C   UNL     1       0.240  -3.459   1.754  1.00  0.00     0.087 C 
BRANCH  26  28
ATOM     28  C   UNL     1      -0.033  -4.165  -0.649  1.00  0.00     0.072 C 
ATOM     29  C   UNL     1      -0.978  -4.279  -1.844  1.00  0.00     0.011 C 
ENDBRANCH  26  28
ENDBRANCH  24  26
ENDBRANCH   1  24
TORSDOF 8


