REMARK SMILES Cc1cc([NH2+]N)c([O-])c(-n2nc3cc(-c4ccc(O)cc4)ccc3[nH+]2)c1
REMARK SMILES IDX 10 1 11 2 12 3 13 4 14 5 22 6 23 7 24 8 25 9 9 11 2 12 3 13
REMARK SMILES IDX 26 14 4 15 7 16 1 17 8 18 5 19 6 22 15 25 16 26 21 27 17 28
REMARK SMILES IDX 20 29 18 30 19 31
REMARK H PARENT 25 10 5 20 5 21 6 23 6 24 19 32
ROOT
ATOM      1  N   UNL     1      -1.563  -0.082   1.032  1.00  0.00    -0.013 N 
ATOM      2  N   UNL     1      -0.378  -0.114   0.423  1.00  0.00     0.054 NA
ATOM      3  C   UNL     1       0.281  -1.139   0.990  1.00  0.00     0.250 A 
ATOM      4  C   UNL     1       1.564  -1.606   0.724  1.00  0.00     0.072 A 
ATOM      5  C   UNL     1       2.032  -2.716   1.473  1.00  0.00    -0.014 A 
ATOM      6  C   UNL     1       1.184  -3.303   2.457  1.00  0.00     0.013 A 
ATOM      7  C   UNL     1      -0.109  -2.797   2.694  1.00  0.00     0.059 A 
ATOM      8  C   UNL     1      -0.516  -1.711   1.930  1.00  0.00     0.198 A 
ATOM      9  N   UNL     1      -1.676  -1.041   1.951  1.00  0.00    -0.161 N 
ATOM     10  H   UNL     1      -2.494  -1.211   2.577  1.00  0.00     0.340 HD
ENDROOT
BRANCH   1  11
ATOM     11  C   UNL     1      -2.599   0.870   0.720  1.00  0.00     0.126 A 
ATOM     12  C   UNL     1      -4.970   1.425   0.572  1.00  0.00    -0.043 A 
ATOM     13  C   UNL     1      -4.642   2.691   0.074  1.00  0.00     0.072 A 
ATOM     14  C   UNL     1      -3.949   0.516   0.879  1.00  0.00     0.037 A 
ATOM     15  C   UNL     1      -3.300   3.074  -0.080  1.00  0.00     0.143 A 
ATOM     16  C   UNL     1      -2.278   2.155   0.235  1.00  0.00    -0.011 A 
ATOM     17  C   UNL     1      -6.408   1.014   0.696  1.00  0.00     0.044 C 
ATOM     18  O   UNL     1      -0.947   2.530   0.075  1.00  0.00    -0.867 OA
BRANCH  15  19
ATOM     19  N   UNL     1      -2.978   4.377  -0.608  1.00  0.00    -0.240 N 
ATOM     20  H   UNL     1      -2.139   4.765  -0.117  1.00  0.00     0.376 HD
ATOM     21  H   UNL     1      -3.775   5.047  -0.480  1.00  0.00     0.376 HD
BRANCH  19  22
ATOM     22  N   UNL     1      -2.689   4.247  -1.981  1.00  0.00    -0.178 NA
ATOM     23  H   UNL     1      -3.586   4.071  -2.493  1.00  0.00     0.183 HD
ATOM     24  H   UNL     1      -2.331   5.170  -2.323  1.00  0.00     0.183 HD
ENDBRANCH  19  22
ENDBRANCH  15  19
ENDBRANCH   1  11
BRANCH   5  25
ATOM     25  C   UNL     1       3.393  -3.260   1.234  1.00  0.00    -0.018 A 
ATOM     26  C   UNL     1       4.478  -2.395   1.002  1.00  0.00     0.012 A 
ATOM     27  C   UNL     1       3.618  -4.649   1.233  1.00  0.00     0.012 A 
ATOM     28  C   UNL     1       5.759  -2.909   0.777  1.00  0.00     0.047 A 
ATOM     29  C   UNL     1       4.900  -5.159   1.007  1.00  0.00     0.047 A 
ATOM     30  C   UNL     1       5.973  -4.293   0.778  1.00  0.00     0.115 A 
BRANCH  30  31
ATOM     31  O   UNL     1       7.244  -4.816   0.555  1.00  0.00    -0.508 OA
ATOM     32  H   UNL     1       8.042  -4.214   0.386  1.00  0.00     0.293 HD
ENDBRANCH  30  31
ENDBRANCH   5  25
TORSDOF 5


