REMARK SMILES C=Cc1cc(-c2cnc3cc[nH+]n3c2)ccc1CC[NH3+]
REMARK SMILES IDX 18 1 17 2 3 3 4 4 5 5 16 6 15 7 2 8 1 9 6 10 7 11 14 12 8 13
REMARK SMILES IDX 13 14 9 15 12 16 10 17 11 18 19 20 20 21
REMARK H PARENT 12 19 20 22 20 23 20 24
ROOT
ATOM      1  C   UNL     1       0.525   2.023   3.223  1.00  0.00     0.097 C 
ENDROOT
BRANCH   1   2
ATOM      2  C   UNL     1       0.366   1.106   2.028  1.00  0.00    -0.035 A 
ATOM      3  C   UNL     1      -0.718   0.196   1.904  1.00  0.00    -0.022 A 
ATOM      4  C   UNL     1      -0.805  -0.609   0.750  1.00  0.00     0.017 A 
ATOM      5  C   UNL     1       0.167  -0.541  -0.262  1.00  0.00    -0.015 A 
ATOM      6  C   UNL     1       1.331   1.167   1.010  1.00  0.00     0.005 A 
ATOM      7  C   UNL     1       1.236   0.353  -0.118  1.00  0.00     0.009 A 
BRANCH   3   8
ATOM      8  C   UNL     1      -1.770   0.107   2.952  1.00  0.00     0.000 C 
ATOM      9  C   UNL     1      -2.418  -1.023   3.240  1.00  0.00     0.009 C 
ENDBRANCH   3   8
BRANCH   5  10
ATOM     10  C   UNL     1       0.060  -1.400  -1.469  1.00  0.00     0.022 A 
ATOM     11  C   UNL     1       0.392  -0.901  -2.755  1.00  0.00     0.124 A 
ATOM     12  C   UNL     1      -0.375  -2.738  -1.372  1.00  0.00     0.169 A 
ATOM     13  N   UNL     1       0.292  -1.696  -3.861  1.00  0.00    -0.233 NA
ATOM     14  N   UNL     1      -0.449  -3.468  -2.510  1.00  0.00    -0.111 N 
ATOM     15  C   UNL     1      -0.130  -2.973  -3.708  1.00  0.00     0.199 A 
ATOM     16  N   UNL     1      -0.823  -4.727  -2.642  1.00  0.00    -0.125 N 
ATOM     17  C   UNL     1      -0.298  -3.937  -4.678  1.00  0.00     0.126 A 
ATOM     18  C   UNL     1      -0.742  -5.045  -3.955  1.00  0.00     0.337 A 
ATOM     19  H   UNL     1      -1.125  -5.354  -1.863  1.00  0.00     0.488 HD
ENDBRANCH   5  10
ENDBRANCH   1   2
BRANCH   1  20
ATOM     20  C   UNL     1      -0.258   3.337   3.054  1.00  0.00     0.263 C 
BRANCH  20  21
ATOM     21  N   UNL     1       0.313   4.184   2.005  1.00  0.00    -0.357 N 
ATOM     22  H   UNL     1      -0.181   5.106   2.006  1.00  0.00     0.344 HD
ATOM     23  H   UNL     1       0.181   3.739   1.068  1.00  0.00     0.344 HD
ATOM     24  H   UNL     1       1.330   4.348   2.183  1.00  0.00     0.344 HD
ENDBRANCH  20  21
ENDBRANCH   1  20
TORSDOF 5


