REMARK SMILES F[C@@]12CC=N[C@@H]1CC[C@@H](c1cnc3ocnc3c1)[C@H]2Cl
REMARK SMILES IDX 1 1 2 2 3 3 4 4 5 5 6 6 7 7 8 8 9 9 19 10 20 11 10 12 11 13
REMARK SMILES IDX 18 14 12 15 17 16 13 17 16 18 14 19 15 20
REMARK H PARENT
ROOT
ATOM      1  F   UNL     1       0.764  -2.010   0.339  1.00  0.00    -0.239 F 
ATOM      2  C   UNL     1       1.909  -1.319  -0.028  1.00  0.00     0.154 C 
ATOM      3  C   UNL     1       3.134  -2.192   0.312  1.00  0.00     0.092 C 
ATOM      4  C   UNL     1       3.649  -2.586  -1.022  1.00  0.00     0.081 C 
ATOM      5  N   UNL     1       3.024  -2.052  -1.997  1.00  0.00    -0.291 NA
ATOM      6  C   UNL     1       1.953  -1.191  -1.576  1.00  0.00     0.144 C 
ATOM      7  C   UNL     1       2.218   0.242  -2.064  1.00  0.00     0.031 C 
ATOM      8  C   UNL     1       1.184   1.221  -1.492  1.00  0.00     0.012 C 
ATOM      9  C   UNL     1       1.013   1.115   0.055  1.00  0.00     0.042 C 
ATOM     10  C   UNL     1       1.948   0.052   0.699  1.00  0.00     0.128 C 
ATOM     11  Cl  UNL     1       1.644  -0.143   2.456  1.00  0.00    -0.119 Cl
ENDROOT
BRANCH   9  12
ATOM     12  C   UNL     1      -0.447   0.960   0.469  1.00  0.00    -0.022 A 
ATOM     13  C   UNL     1      -0.976   1.783   1.506  1.00  0.00     0.119 A 
ATOM     14  C   UNL     1      -1.296  -0.007  -0.126  1.00  0.00     0.040 A 
ATOM     15  N   UNL     1      -2.273   1.651   1.918  1.00  0.00    -0.219 NA
ATOM     16  C   UNL     1      -2.602  -0.090   0.336  1.00  0.00     0.129 A 
ATOM     17  C   UNL     1      -3.052   0.718   1.322  1.00  0.00     0.246 A 
ATOM     18  N   UNL     1      -3.585  -0.913  -0.065  1.00  0.00    -0.215 NA
ATOM     19  O   UNL     1      -4.301   0.445   1.573  1.00  0.00    -0.425 OA
ATOM     20  C   UNL     1      -4.617  -0.534   0.739  1.00  0.00     0.311 A 
ENDBRANCH   9  12
TORSDOF 1


