REMARK SMILES CCOCCOC(=O)N(c1cc2ccccc2[nH]1)c1ccc(-c2ccc(C)cc2)cc1C=O
REMARK SMILES IDX 6 1 5 2 4 3 3 4 2 5 1 6 7 7 8 8 9 9 10 10 11 11 18 12 12 13
REMARK SMILES IDX 17 14 13 15 16 16 14 17 15 18 19 20 20 21 31 22 21 23 30 24
REMARK SMILES IDX 22 25 32 26 33 27 23 28 24 29 29 30 25 31 28 32 26 33 27 34
REMARK H PARENT 18 19
ROOT
ATOM      1  O   UNL     1      -3.122   0.299   0.358  1.00  0.00    -0.446 OA
ENDROOT
BRANCH   1   2
ATOM      2  C   UNL     1      -4.467   0.554  -0.032  1.00  0.00     0.263 C 
BRANCH   2   3
ATOM      3  C   UNL     1      -5.413  -0.154   0.928  1.00  0.00     0.201 C 
BRANCH   3   4
ATOM      4  O   UNL     1      -5.126  -1.536   0.923  1.00  0.00    -0.378 OA
BRANCH   4   5
ATOM      5  C   UNL     1      -5.957  -2.196   1.854  1.00  0.00     0.157 C 
ATOM      6  C   UNL     1      -5.610  -3.676   1.866  1.00  0.00     0.035 C 
ENDBRANCH   4   5
ENDBRANCH   3   4
ENDBRANCH   2   3
ENDBRANCH   1   2
BRANCH   1   7
ATOM      7  C   UNL     1      -2.017   0.758  -0.363  1.00  0.00     0.420 C 
ATOM      8  O   UNL     1      -2.182   1.509  -1.364  1.00  0.00    -0.223 OA
BRANCH   7   9
ATOM      9  N   UNL     1      -0.688   0.388   0.048  1.00  0.00    -0.231 N 
BRANCH   9  10
ATOM     10  C   UNL     1      -0.469  -0.698   0.971  1.00  0.00     0.121 A 
ATOM     11  C   UNL     1      -1.278  -1.829   1.097  1.00  0.00     0.056 A 
ATOM     12  N   UNL     1       0.606  -0.772   1.794  1.00  0.00    -0.341 N 
ATOM     13  C   UNL     1      -0.657  -2.600   2.053  1.00  0.00     0.002 A 
ATOM     14  C   UNL     1       0.474  -1.936   2.452  1.00  0.00     0.047 A 
ATOM     15  C   UNL     1      -1.006  -3.841   2.581  1.00  0.00     0.010 A 
ATOM     16  C   UNL     1       1.334  -2.466   3.413  1.00  0.00     0.027 A 
ATOM     17  C   UNL     1      -0.159  -4.401   3.555  1.00  0.00     0.001 A 
ATOM     18  C   UNL     1       1.006  -3.716   3.969  1.00  0.00     0.002 A 
ATOM     19  H   UNL     1       1.377  -0.075   1.899  1.00  0.00     0.168 HD
ENDBRANCH   9  10
BRANCH   9  20
ATOM     20  C   UNL     1       0.432   1.180  -0.387  1.00  0.00     0.064 A 
ATOM     21  C   UNL     1       0.528   2.511   0.040  1.00  0.00     0.028 A 
ATOM     22  C   UNL     1       1.444   0.634  -1.209  1.00  0.00     0.039 A 
ATOM     23  C   UNL     1       1.619   3.299  -0.327  1.00  0.00     0.011 A 
ATOM     24  C   UNL     1       2.542   1.437  -1.570  1.00  0.00     0.022 A 
ATOM     25  C   UNL     1       2.639   2.770  -1.133  1.00  0.00    -0.018 A 
BRANCH  22  26
ATOM     26  C   UNL     1       1.348  -0.754  -1.716  1.00  0.00     0.262 C 
ATOM     27  O   UNL     1       2.290  -1.273  -2.371  1.00  0.00    -0.298 OA
ENDBRANCH  22  26
BRANCH  25  28
ATOM     28  C   UNL     1       3.801   3.609  -1.524  1.00  0.00    -0.018 A 
ATOM     29  C   UNL     1       4.406   4.471  -0.592  1.00  0.00     0.009 A 
ATOM     30  C   UNL     1       4.309   3.561  -2.835  1.00  0.00     0.009 A 
ATOM     31  C   UNL     1       5.499   5.261  -0.960  1.00  0.00     0.004 A 
ATOM     32  C   UNL     1       5.401   4.352  -3.203  1.00  0.00     0.004 A 
ATOM     33  C   UNL     1       6.012   5.195  -2.264  1.00  0.00    -0.051 A 
ATOM     34  C   UNL     1       7.159   6.073  -2.669  1.00  0.00     0.044 C 
ENDBRANCH  25  28
ENDBRANCH   9  20
ENDBRANCH   7   9
ENDBRANCH   1   7
TORSDOF 10


