REMARK SMILES O=C([C@@H]1[C@@H]2CCCO[C@@H]21)N(c1ccc2cc[nH]c2c1)c1cccc2cnoc12
REMARK SMILES IDX 10 1 2 2 1 3 3 4 4 5 9 6 5 7 8 8 6 9 7 10 11 11 12 12 19 13
REMARK SMILES IDX 13 14 18 15 14 16 17 17 15 18 16 19 20 21 21 22 28 23 22 24
REMARK SMILES IDX 27 25 24 26 23 27 26 28 25 29
REMARK H PARENT 17 20
ROOT
ATOM      1  N   UNL     1      -0.564  -0.084   0.733  1.00  0.00    -0.277 N 
ENDROOT
BRANCH   1   2
ATOM      2  C   UNL     1       0.716  -0.123   1.400  1.00  0.00     0.237 C 
ATOM      3  O   UNL     1       0.997  -1.089   2.160  1.00  0.00    -0.274 OA
BRANCH   2   4
ATOM      4  C   UNL     1       1.700   1.015   1.283  1.00  0.00     0.114 C 
ATOM      5  C   UNL     1       2.223   1.409  -0.110  1.00  0.00     0.034 C 
ATOM      6  C   UNL     1       3.119   0.642   0.868  1.00  0.00     0.135 C 
ATOM      7  C   UNL     1       1.923   0.563  -1.362  1.00  0.00     0.009 C 
ATOM      8  O   UNL     1       3.300  -0.718   0.527  1.00  0.00    -0.377 OA
ATOM      9  C   UNL     1       3.197  -0.132  -1.860  1.00  0.00     0.029 C 
ATOM     10  C   UNL     1       3.992  -0.783  -0.703  1.00  0.00     0.160 C 
ENDBRANCH   2   4
ENDBRANCH   1   2
BRANCH   1  11
ATOM     11  C   UNL     1      -1.129   1.174   0.315  1.00  0.00     0.051 A 
ATOM     12  C   UNL     1      -1.239   2.251   1.233  1.00  0.00     0.027 A 
ATOM     13  C   UNL     1      -1.584   1.337  -1.013  1.00  0.00     0.053 A 
ATOM     14  C   UNL     1      -1.782   3.484   0.831  1.00  0.00     0.012 A 
ATOM     15  C   UNL     1      -2.116   2.571  -1.378  1.00  0.00     0.047 A 
ATOM     16  C   UNL     1      -2.210   3.607  -0.488  1.00  0.00    -0.000 A 
ATOM     17  N   UNL     1      -2.591   2.932  -2.581  1.00  0.00    -0.361 N 
ATOM     18  C   UNL     1      -2.771   4.674  -1.154  1.00  0.00     0.028 A 
ATOM     19  C   UNL     1      -2.993   4.216  -2.449  1.00  0.00     0.083 A 
ATOM     20  H   UNL     1      -2.641   2.344  -3.443  1.00  0.00     0.166 HD
ENDBRANCH   1  11
BRANCH   1  21
ATOM     21  C   UNL     1      -1.281  -1.307   0.461  1.00  0.00     0.095 A 
ATOM     22  C   UNL     1      -2.686  -1.384   0.621  1.00  0.00     0.031 A 
ATOM     23  C   UNL     1      -0.632  -2.460  -0.000  1.00  0.00     0.190 A 
ATOM     24  C   UNL     1      -3.381  -2.582   0.335  1.00  0.00     0.003 A 
ATOM     25  O   UNL     1       0.639  -2.649  -0.255  1.00  0.00    -0.354 OA
ATOM     26  C   UNL     1      -1.311  -3.611  -0.275  1.00  0.00     0.044 A 
ATOM     27  C   UNL     1      -2.689  -3.719  -0.121  1.00  0.00     0.014 A 
ATOM     28  N   UNL     1       0.841  -3.868  -0.681  1.00  0.00    -0.087 NA
ATOM     29  C   UNL     1      -0.356  -4.500  -0.707  1.00  0.00     0.166 A 
ENDBRANCH   1  21
TORSDOF 4


