REMARK SMILES Cc1ccc(-c2ccc(OC(=O)c3n[nH]cc3C=O)cc2)c2cn[nH]c12
REMARK SMILES IDX 10 1 9 2 6 3 7 4 21 5 8 6 20 7 5 8 2 9 3 10 26 11 4 12 25 13
REMARK SMILES IDX 22 14 24 15 23 16 1 17 11 19 12 20 13 21 14 22 17 23 15 24
REMARK SMILES IDX 16 25 18 27 19 28
REMARK H PARENT 25 18 15 26
ROOT
ATOM      1  O   UNL     1      -2.255   1.735  -2.101  1.00  0.00    -0.422 OA
ENDROOT
BRANCH   1   2
ATOM      2  C   UNL     1      -1.491   1.039  -1.152  1.00  0.00     0.131 A 
ATOM      3  C   UNL     1      -0.011  -0.316   0.828  1.00  0.00    -0.017 A 
ATOM      4  C   UNL     1       0.063  -0.720  -0.515  1.00  0.00     0.012 A 
ATOM      5  C   UNL     1      -0.854   0.753   1.174  1.00  0.00     0.012 A 
ATOM      6  C   UNL     1      -0.672  -0.051  -1.498  1.00  0.00     0.048 A 
ATOM      7  C   UNL     1      -1.588   1.421   0.190  1.00  0.00     0.048 A 
BRANCH   3   8
ATOM      8  C   UNL     1       0.758  -1.029   1.874  1.00  0.00    -0.007 A 
ATOM      9  C   UNL     1       2.237  -2.419   3.889  1.00  0.00    -0.025 A 
ATOM     10  C   UNL     1       0.866  -2.136   4.066  1.00  0.00     0.006 A 
ATOM     11  C   UNL     1       2.830  -1.983   2.700  1.00  0.00     0.069 A 
ATOM     12  C   UNL     1       0.136  -1.448   3.072  1.00  0.00     0.010 A 
ATOM     13  N   UNL     1       4.113  -2.093   2.316  1.00  0.00    -0.278 N 
ATOM     14  C   UNL     1       2.123  -1.319   1.734  1.00  0.00     0.028 A 
ATOM     15  N   UNL     1       4.252  -1.508   1.133  1.00  0.00    -0.183 NA
ATOM     16  C   UNL     1       3.048  -1.021   0.751  1.00  0.00     0.144 A 
ATOM     17  C   UNL     1       3.030  -3.134   4.942  1.00  0.00     0.046 C 
ATOM     18  H   UNL     1       4.892  -2.544   2.845  1.00  0.00     0.190 HD
ENDBRANCH   3   8
ENDBRANCH   1   2
BRANCH   1  19
ATOM     19  C   UNL     1      -1.929   1.889  -3.453  1.00  0.00     0.364 C 
ATOM     20  O   UNL     1      -0.751   1.684  -3.854  1.00  0.00    -0.244 OA
BRANCH  19  21
ATOM     21  C   UNL     1      -2.939   2.358  -4.418  1.00  0.00     0.181 A 
ATOM     22  N   UNL     1      -2.647   2.607  -5.711  1.00  0.00    -0.168 NA
ATOM     23  C   UNL     1      -4.289   2.618  -4.199  1.00  0.00     0.067 A 
ATOM     24  N   UNL     1      -3.756   3.013  -6.309  1.00  0.00    -0.284 N 
ATOM     25  C   UNL     1      -4.769   3.032  -5.426  1.00  0.00     0.117 A 
ATOM     26  H   UNL     1      -3.817   3.273  -7.317  1.00  0.00     0.189 HD
BRANCH  23  27
ATOM     27  C   UNL     1      -5.080   2.482  -2.966  1.00  0.00     0.264 C 
ATOM     28  O   UNL     1      -6.302   2.784  -2.961  1.00  0.00    -0.298 OA
ENDBRANCH  23  27
ENDBRANCH  19  21
ENDBRANCH   1  19
TORSDOF 5


