MODEL 1
REMARK VINA RESULT:      -4.8      0.000      0.000
REMARK SMILES CC(=O)c1ccc(-c2ccc(OC(=O)[C@@H]3C[C@H]3C=O)cc2)c2c[n-]nc12
REMARK SMILES IDX 12 1 11 2 8 3 9 4 21 5 10 6 20 7 7 8 4 9 5 10 26 11 6 12
REMARK SMILES IDX 25 13 22 14 24 15 23 16 2 17 1 18 3 19 13 20 14 21 15 22
REMARK SMILES IDX 16 23 17 24 18 25 19 26
REMARK H PARENT
ROOT
ATOM      1  O   UNL     1      42.958 125.487  24.434  1.00  0.00    -0.426 OA
ENDROOT
BRANCH   1   2
ATOM      2  C   UNL     1      44.282 125.362  23.987  1.00  0.00     0.130 A 
ATOM      3  C   UNL     1      46.961 125.204  23.123  1.00  0.00    -0.018 A 
ATOM      4  C   UNL     1      46.162 124.050  23.174  1.00  0.00     0.012 A 
ATOM      5  C   UNL     1      46.416 126.431  23.534  1.00  0.00     0.012 A 
ATOM      6  C   UNL     1      44.834 124.127  23.603  1.00  0.00     0.048 A 
ATOM      7  C   UNL     1      45.088 126.506  23.965  1.00  0.00     0.048 A 
BRANCH   3   8
ATOM      8  C   UNL     1      48.370 125.117  22.677  1.00  0.00    -0.011 A 
ATOM      9  C   UNL     1      51.099 124.963  21.807  1.00  0.00     0.042 A 
ATOM     10  C   UNL     1      50.737 125.713  22.953  1.00  0.00     0.014 A 
ATOM     11  C   UNL     1      50.058 124.304  21.134  1.00  0.00     0.058 A 
ATOM     12  C   UNL     1      49.395 125.784  23.381  1.00  0.00     0.010 A 
ATOM     13  N   UNL     1      50.144 123.508  20.052  1.00  0.00    -0.367 NA
ATOM     14  C   UNL     1      48.757 124.380  21.550  1.00  0.00    -0.014 A 
ATOM     15  N   UNL     1      48.921 123.071  19.775  1.00  0.00    -0.581 NA
ATOM     16  C   UNL     1      48.053 123.582  20.676  1.00  0.00    -0.113 A 
BRANCH   9  17
ATOM     17  C   UNL     1      52.512 124.873  21.345  1.00  0.00     0.161 C 
ATOM     18  C   UNL     1      53.550 125.860  21.789  1.00  0.00     0.093 C 
ATOM     19  O   UNL     1      52.861 123.952  20.558  1.00  0.00    -0.294 OA
ENDBRANCH   9  17
ENDBRANCH   3   8
ENDBRANCH   1   2
BRANCH   1  20
ATOM     20  C   UNL     1      41.817 125.341  23.635  1.00  0.00     0.315 C 
ATOM     21  O   UNL     1      41.152 126.346  23.263  1.00  0.00    -0.251 OA
BRANCH  20  22
ATOM     22  C   UNL     1      41.320 123.970  23.310  1.00  0.00     0.110 C 
ATOM     23  C   UNL     1      40.751 123.831  21.902  1.00  0.00     0.028 C 
ATOM     24  C   UNL     1      39.813 123.876  23.100  1.00  0.00     0.068 C 
BRANCH  24  25
ATOM     25  C   UNL     1      39.229 122.553  23.489  1.00  0.00     0.228 C 
ATOM     26  O   UNL     1      38.822 122.375  24.625  1.00  0.00    -0.303 OA
ENDBRANCH  24  25
ENDBRANCH  20  22
ENDBRANCH   1  20
TORSDOF 6
ENDMDL
MODEL 2
REMARK VINA RESULT:      -4.7      8.054      9.088
REMARK SMILES CC(=O)c1ccc(-c2ccc(OC(=O)[C@@H]3C[C@H]3C=O)cc2)c2c[n-]nc12
REMARK SMILES IDX 12 1 11 2 8 3 9 4 21 5 10 6 20 7 7 8 4 9 5 10 26 11 6 12
REMARK SMILES IDX 25 13 22 14 24 15 23 16 2 17 1 18 3 19 13 20 14 21 15 22
REMARK SMILES IDX 16 23 17 24 18 25 19 26
REMARK H PARENT
ROOT
ATOM      1  O   UNL     1      41.993 132.456  21.712  1.00  0.00    -0.426 OA
ENDROOT
BRANCH   1   2
ATOM      2  C   UNL     1      42.709 132.146  20.546  1.00  0.00     0.130 A 
ATOM      3  C   UNL     1      44.231 131.528  18.255  1.00  0.00    -0.018 A 
ATOM      4  C   UNL     1      42.838 131.353  18.251  1.00  0.00     0.012 A 
ATOM      5  C   UNL     1      44.858 131.989  19.425  1.00  0.00     0.012 A 
ATOM      6  C   UNL     1      42.082 131.658  19.386  1.00  0.00     0.048 A 
ATOM      7  C   UNL     1      44.101 132.292  20.560  1.00  0.00     0.048 A 
BRANCH   3   8
ATOM      8  C   UNL     1      45.030 131.196  17.053  1.00  0.00    -0.011 A 
ATOM      9  C   UNL     1      46.585 130.564  14.728  1.00  0.00     0.042 A 
ATOM     10  C   UNL     1      47.115 130.397  16.030  1.00  0.00     0.014 A 
ATOM     11  C   UNL     1      45.268 131.045  14.643  1.00  0.00     0.058 A 
ATOM     12  C   UNL     1      46.347 130.705  17.173  1.00  0.00     0.010 A 
ATOM     13  N   UNL     1      44.533 131.254  13.535  1.00  0.00    -0.367 NA
ATOM     14  C   UNL     1      44.529 131.346  15.754  1.00  0.00    -0.014 A 
ATOM     15  N   UNL     1      43.335 131.678  13.922  1.00  0.00    -0.581 NA
ATOM     16  C   UNL     1      43.300 131.740  15.271  1.00  0.00    -0.113 A 
BRANCH   9  17
ATOM     17  C   UNL     1      47.380 130.238  13.512  1.00  0.00     0.161 C 
ATOM     18  C   UNL     1      48.406 129.144  13.511  1.00  0.00     0.093 C 
ATOM     19  O   UNL     1      47.203 130.891  12.448  1.00  0.00    -0.294 OA
ENDBRANCH   9  17
ENDBRANCH   3   8
ENDBRANCH   1   2
BRANCH   1  20
ATOM     20  C   UNL     1      41.724 131.563  22.757  1.00  0.00     0.315 C 
ATOM     21  O   UNL     1      40.990 131.898  23.726  1.00  0.00    -0.251 OA
BRANCH  20  22
ATOM     22  C   UNL     1      42.406 130.233  22.779  1.00  0.00     0.110 C 
ATOM     23  C   UNL     1      42.711 129.712  24.179  1.00  0.00     0.028 C 
ATOM     24  C   UNL     1      43.835 130.262  23.312  1.00  0.00     0.068 C 
BRANCH  24  25
ATOM     25  C   UNL     1      44.727 129.222  22.708  1.00  0.00     0.228 C 
ATOM     26  O   UNL     1      45.115 129.343  21.558  1.00  0.00    -0.303 OA
ENDBRANCH  24  25
ENDBRANCH  20  22
ENDBRANCH   1  20
TORSDOF 6
ENDMDL
MODEL 3
REMARK VINA RESULT:      -4.6      2.995      9.040
REMARK SMILES CC(=O)c1ccc(-c2ccc(OC(=O)[C@@H]3C[C@H]3C=O)cc2)c2c[n-]nc12
REMARK SMILES IDX 12 1 11 2 8 3 9 4 21 5 10 6 20 7 7 8 4 9 5 10 26 11 6 12
REMARK SMILES IDX 25 13 22 14 24 15 23 16 2 17 1 18 3 19 13 20 14 21 15 22
REMARK SMILES IDX 16 23 17 24 18 25 19 26
REMARK H PARENT
ROOT
ATOM      1  O   UNL     1      50.518 123.761  22.494  1.00  0.00    -0.426 OA
ENDROOT
BRANCH   1   2
ATOM      2  C   UNL     1      49.183 124.125  22.725  1.00  0.00     0.130 A 
ATOM      3  C   UNL     1      46.472 124.798  23.112  1.00  0.00    -0.018 A 
ATOM      4  C   UNL     1      47.423 125.078  24.107  1.00  0.00     0.012 A 
ATOM      5  C   UNL     1      46.886 124.154  21.934  1.00  0.00     0.012 A 
ATOM      6  C   UNL     1      48.767 124.744  23.917  1.00  0.00     0.048 A 
ATOM      7  C   UNL     1      48.230 123.818  21.747  1.00  0.00     0.048 A 
BRANCH   3   8
ATOM      8  C   UNL     1      45.048 125.146  23.320  1.00  0.00    -0.011 A 
ATOM      9  C   UNL     1      42.286 125.816  23.709  1.00  0.00     0.042 A 
ATOM     10  C   UNL     1      42.702 124.468  23.580  1.00  0.00     0.014 A 
ATOM     11  C   UNL     1      43.294 126.792  23.642  1.00  0.00     0.058 A 
ATOM     12  C   UNL     1      44.061 124.140  23.392  1.00  0.00     0.010 A 
ATOM     13  N   UNL     1      43.165 128.125  23.770  1.00  0.00    -0.367 NA
ATOM     14  C   UNL     1      44.611 126.469  23.455  1.00  0.00    -0.014 A 
ATOM     15  N   UNL     1      44.378 128.658  23.675  1.00  0.00    -0.581 NA
ATOM     16  C   UNL     1      45.282 127.672  23.487  1.00  0.00    -0.113 A 
BRANCH   9  17
ATOM     17  C   UNL     1      40.857 126.178  23.913  1.00  0.00     0.161 C 
ATOM     18  C   UNL     1      40.259 127.405  23.294  1.00  0.00     0.093 C 
ATOM     19  O   UNL     1      40.116 125.446  24.625  1.00  0.00    -0.294 OA
ENDBRANCH   9  17
ENDBRANCH   3   8
ENDBRANCH   1   2
BRANCH   1  20
ATOM     20  C   UNL     1      51.268 124.112  21.365  1.00  0.00     0.315 C 
ATOM     21  O   UNL     1      51.714 125.282  21.219  1.00  0.00    -0.251 OA
BRANCH  20  22
ATOM     22  C   UNL     1      51.448 123.115  20.266  1.00  0.00     0.110 C 
ATOM     23  C   UNL     1      52.745 123.279  19.482  1.00  0.00     0.028 C 
ATOM     24  C   UNL     1      51.423 123.709  18.862  1.00  0.00     0.068 C 
BRANCH  24  25
ATOM     25  C   UNL     1      50.888 122.776  17.820  1.00  0.00     0.228 C 
ATOM     26  O   UNL     1      51.614 122.383  16.921  1.00  0.00    -0.303 OA
ENDBRANCH  24  25
ENDBRANCH  20  22
ENDBRANCH   1  20
TORSDOF 6
ENDMDL
MODEL 4
REMARK VINA RESULT:      -4.0      7.789      8.722
REMARK SMILES CC(=O)c1ccc(-c2ccc(OC(=O)[C@@H]3C[C@H]3C=O)cc2)c2c[n-]nc12
REMARK SMILES IDX 12 1 11 2 8 3 9 4 21 5 10 6 20 7 7 8 4 9 5 10 26 11 6 12
REMARK SMILES IDX 25 13 22 14 24 15 23 16 2 17 1 18 3 19 13 20 14 21 15 22
REMARK SMILES IDX 16 23 17 24 18 25 19 26
REMARK H PARENT
ROOT
ATOM      1  O   UNL     1      42.078 131.392  22.028  1.00  0.00    -0.426 OA
ENDROOT
BRANCH   1   2
ATOM      2  C   UNL     1      42.803 131.298  20.831  1.00  0.00     0.130 A 
ATOM      3  C   UNL     1      44.319 131.043  18.467  1.00  0.00    -0.018 A 
ATOM      4  C   UNL     1      43.072 131.690  18.445  1.00  0.00     0.012 A 
ATOM      5  C   UNL     1      44.786 130.503  19.676  1.00  0.00     0.012 A 
ATOM      6  C   UNL     1      42.319 131.816  19.616  1.00  0.00     0.048 A 
ATOM      7  C   UNL     1      44.031 130.628  20.846  1.00  0.00     0.048 A 
BRANCH   3   8
ATOM      8  C   UNL     1      45.110 130.904  17.223  1.00  0.00    -0.011 A 
ATOM      9  C   UNL     1      46.650 130.645  14.817  1.00  0.00     0.042 A 
ATOM     10  C   UNL     1      47.215 130.354  16.083  1.00  0.00     0.014 A 
ATOM     11  C   UNL     1      45.307 131.057  14.809  1.00  0.00     0.058 A 
ATOM     12  C   UNL     1      46.455 130.478  17.265  1.00  0.00     0.010 A 
ATOM     13  N   UNL     1      44.539 131.355  13.745  1.00  0.00    -0.367 NA
ATOM     14  C   UNL     1      44.575 131.180  15.959  1.00  0.00    -0.014 A 
ATOM     15  N   UNL     1      43.328 131.661  14.196  1.00  0.00    -0.581 NA
ATOM     16  C   UNL     1      43.317 131.558  15.544  1.00  0.00    -0.113 A 
BRANCH   9  17
ATOM     17  C   UNL     1      47.437 130.514  13.561  1.00  0.00     0.161 C 
ATOM     18  C   UNL     1      47.918 129.182  13.068  1.00  0.00     0.093 C 
ATOM     19  O   UNL     1      47.719 131.539  12.882  1.00  0.00    -0.294 OA
ENDBRANCH   9  17
ENDBRANCH   3   8
ENDBRANCH   1   2
BRANCH   1  20
ATOM     20  C   UNL     1      42.626 131.678  23.285  1.00  0.00     0.315 C 
ATOM     21  O   UNL     1      43.191 132.782  23.512  1.00  0.00    -0.251 OA
BRANCH  20  22
ATOM     22  C   UNL     1      42.639 130.616  24.337  1.00  0.00     0.110 C 
ATOM     23  C   UNL     1      44.021 130.041  24.625  1.00  0.00     0.028 C 
ATOM     24  C   UNL     1      43.009 129.227  23.830  1.00  0.00     0.068 C 
BRANCH  24  25
ATOM     25  C   UNL     1      42.364 128.113  24.595  1.00  0.00     0.228 C 
ATOM     26  O   UNL     1      41.509 127.423  24.064  1.00  0.00    -0.303 OA
ENDBRANCH  24  25
ENDBRANCH  20  22
ENDBRANCH   1  20
TORSDOF 6
ENDMDL
MODEL 5
REMARK VINA RESULT:      -3.9      7.761      8.797
REMARK SMILES CC(=O)c1ccc(-c2ccc(OC(=O)[C@@H]3C[C@H]3C=O)cc2)c2c[n-]nc12
REMARK SMILES IDX 12 1 11 2 8 3 9 4 21 5 10 6 20 7 7 8 4 9 5 10 26 11 6 12
REMARK SMILES IDX 25 13 22 14 24 15 23 16 2 17 1 18 3 19 13 20 14 21 15 22
REMARK SMILES IDX 16 23 17 24 18 25 19 26
REMARK H PARENT
ROOT
ATOM      1  O   UNL     1      42.290 132.658  21.479  1.00  0.00    -0.426 OA
ENDROOT
BRANCH   1   2
ATOM      2  C   UNL     1      43.003 132.368  20.307  1.00  0.00     0.130 A 
ATOM      3  C   UNL     1      44.519 131.774  18.005  1.00  0.00    -0.018 A 
ATOM      4  C   UNL     1      43.116 131.772  17.952  1.00  0.00     0.012 A 
ATOM      5  C   UNL     1      45.155 132.048  19.227  1.00  0.00     0.012 A 
ATOM      6  C   UNL     1      42.363 132.066  19.092  1.00  0.00     0.048 A 
ATOM      7  C   UNL     1      44.401 132.339  20.367  1.00  0.00     0.048 A 
BRANCH   3   8
ATOM      8  C   UNL     1      45.313 131.454  16.797  1.00  0.00    -0.011 A 
ATOM      9  C   UNL     1      46.842 130.842  14.449  1.00  0.00     0.042 A 
ATOM     10  C   UNL     1      46.853 132.142  15.011  1.00  0.00     0.014 A 
ATOM     11  C   UNL     1      46.054 129.881  15.103  1.00  0.00     0.058 A 
ATOM     12  C   UNL     1      46.103 132.440  16.169  1.00  0.00     0.010 A 
ATOM     13  N   UNL     1      45.905 128.581  14.791  1.00  0.00    -0.367 NA
ATOM     14  C   UNL     1      45.325 130.176  16.223  1.00  0.00    -0.014 A 
ATOM     15  N   UNL     1      45.098 128.040  15.697  1.00  0.00    -0.581 NA
ATOM     16  C   UNL     1      44.730 128.988  16.587  1.00  0.00    -0.113 A 
BRANCH   9  17
ATOM     17  C   UNL     1      47.632 130.510  13.231  1.00  0.00     0.161 C 
ATOM     18  C   UNL     1      47.540 131.336  11.983  1.00  0.00     0.093 C 
ATOM     19  O   UNL     1      48.401 129.511  13.231  1.00  0.00    -0.294 OA
ENDBRANCH   9  17
ENDBRANCH   3   8
ENDBRANCH   1   2
BRANCH   1  20
ATOM     20  C   UNL     1      42.177 131.810  22.588  1.00  0.00     0.315 C 
ATOM     21  O   UNL     1      41.688 132.223  23.675  1.00  0.00    -0.251 OA
BRANCH  20  22
ATOM     22  C   UNL     1      42.744 130.429  22.516  1.00  0.00     0.110 C 
ATOM     23  C   UNL     1      43.161 129.855  23.865  1.00  0.00     0.028 C 
ATOM     24  C   UNL     1      44.221 130.331  22.881  1.00  0.00     0.068 C 
BRANCH  24  25
ATOM     25  C   UNL     1      44.949 129.235  22.167  1.00  0.00     0.228 C 
ATOM     26  O   UNL     1      44.553 128.084  22.248  1.00  0.00    -0.303 OA
ENDBRANCH  24  25
ENDBRANCH  20  22
ENDBRANCH   1  20
TORSDOF 6
ENDMDL
MODEL 6
REMARK VINA RESULT:      -3.2      7.680      8.699
REMARK SMILES CC(=O)c1ccc(-c2ccc(OC(=O)[C@@H]3C[C@H]3C=O)cc2)c2c[n-]nc12
REMARK SMILES IDX 12 1 11 2 8 3 9 4 21 5 10 6 20 7 7 8 4 9 5 10 26 11 6 12
REMARK SMILES IDX 25 13 22 14 24 15 23 16 2 17 1 18 3 19 13 20 14 21 15 22
REMARK SMILES IDX 16 23 17 24 18 25 19 26
REMARK H PARENT
ROOT
ATOM      1  O   UNL     1      42.318 131.948  21.774  1.00  0.00    -0.426 OA
ENDROOT
BRANCH   1   2
ATOM      2  C   UNL     1      43.083 131.824  20.605  1.00  0.00     0.130 A 
ATOM      3  C   UNL     1      44.550 131.624  18.205  1.00  0.00    -0.018 A 
ATOM      4  C   UNL     1      45.166 131.356  19.438  1.00  0.00     0.012 A 
ATOM      5  C   UNL     1      43.202 132.020  18.187  1.00  0.00     0.012 A 
ATOM      6  C   UNL     1      44.440 131.456  20.629  1.00  0.00     0.048 A 
ATOM      7  C   UNL     1      42.478 132.121  19.378  1.00  0.00     0.048 A 
BRANCH   3   8
ATOM      8  C   UNL     1      45.324 131.526  16.946  1.00  0.00    -0.011 A 
ATOM      9  C   UNL     1      46.811 131.341  14.501  1.00  0.00     0.042 A 
ATOM     10  C   UNL     1      46.506 132.597  15.079  1.00  0.00     0.014 A 
ATOM     11  C   UNL     1      46.354 130.206  15.190  1.00  0.00     0.058 A 
ATOM     12  C   UNL     1      45.777 132.687  16.284  1.00  0.00     0.010 A 
ATOM     13  N   UNL     1      46.542 128.912  14.871  1.00  0.00    -0.367 NA
ATOM     14  C   UNL     1      45.644 130.297  16.356  1.00  0.00    -0.014 A 
ATOM     15  N   UNL     1      45.969 128.176  15.817  1.00  0.00    -0.581 NA
ATOM     16  C   UNL     1      45.416 128.994  16.740  1.00  0.00    -0.113 A 
BRANCH   9  17
ATOM     17  C   UNL     1      47.583 131.230  13.233  1.00  0.00     0.161 C 
ATOM     18  C   UNL     1      47.466 130.031  12.341  1.00  0.00     0.093 C 
ATOM     19  O   UNL     1      48.364 132.158  12.886  1.00  0.00    -0.294 OA
ENDBRANCH   9  17
ENDBRANCH   3   8
ENDBRANCH   1   2
BRANCH   1  20
ATOM     20  C   UNL     1      42.785 131.716  23.074  1.00  0.00     0.315 C 
ATOM     21  O   UNL     1      43.256 132.654  23.773  1.00  0.00    -0.251 OA
BRANCH  20  22
ATOM     22  C   UNL     1      42.827 130.317  23.600  1.00  0.00     0.110 C 
ATOM     23  C   UNL     1      43.928 130.069  24.624  1.00  0.00     0.028 C 
ATOM     24  C   UNL     1      44.072 129.530  23.208  1.00  0.00     0.068 C 
BRANCH  24  25
ATOM     25  C   UNL     1      43.839 128.058  23.072  1.00  0.00     0.228 C 
ATOM     26  O   UNL     1      44.773 127.311  22.829  1.00  0.00    -0.303 OA
ENDBRANCH  24  25
ENDBRANCH  20  22
ENDBRANCH   1  20
TORSDOF 6
ENDMDL
MODEL 7
REMARK VINA RESULT:      -2.3      7.507      8.418
REMARK SMILES CC(=O)c1ccc(-c2ccc(OC(=O)[C@@H]3C[C@H]3C=O)cc2)c2c[n-]nc12
REMARK SMILES IDX 12 1 11 2 8 3 9 4 21 5 10 6 20 7 7 8 4 9 5 10 26 11 6 12
REMARK SMILES IDX 25 13 22 14 24 15 23 16 2 17 1 18 3 19 13 20 14 21 15 22
REMARK SMILES IDX 16 23 17 24 18 25 19 26
REMARK H PARENT
ROOT
ATOM      1  O   UNL     1      43.517 131.649  22.263  1.00  0.00    -0.426 OA
ENDROOT
BRANCH   1   2
ATOM      2  C   UNL     1      44.083 131.417  21.001  1.00  0.00     0.130 A 
ATOM      3  C   UNL     1      45.302 130.916  18.508  1.00  0.00    -0.018 A 
ATOM      4  C   UNL     1      43.921 131.159  18.588  1.00  0.00     0.012 A 
ATOM      5  C   UNL     1      46.061 130.900  19.690  1.00  0.00     0.012 A 
ATOM      6  C   UNL     1      43.315 131.406  19.823  1.00  0.00     0.048 A 
ATOM      7  C   UNL     1      45.453 131.145  20.924  1.00  0.00     0.048 A 
BRANCH   3   8
ATOM      8  C   UNL     1      45.939 130.646  17.199  1.00  0.00    -0.011 A 
ATOM      9  C   UNL     1      47.185 130.129  14.668  1.00  0.00     0.042 A 
ATOM     10  C   UNL     1      47.561 129.411  15.829  1.00  0.00     0.014 A 
ATOM     11  C   UNL     1      46.175 131.092  14.825  1.00  0.00     0.058 A 
ATOM     12  C   UNL     1      46.944 129.664  17.073  1.00  0.00     0.010 A 
ATOM     13  N   UNL     1      45.622 131.874  13.880  1.00  0.00    -0.367 NA
ATOM     14  C   UNL     1      45.583 131.337  16.034  1.00  0.00    -0.014 A 
ATOM     15  N   UNL     1      44.682 132.609  14.464  1.00  0.00    -0.581 NA
ATOM     16  C   UNL     1      44.632 132.300  15.779  1.00  0.00    -0.113 A 
BRANCH   9  17
ATOM     17  C   UNL     1      47.822 129.870  13.348  1.00  0.00     0.161 C 
ATOM     18  C   UNL     1      47.732 130.856  12.222  1.00  0.00     0.093 C 
ATOM     19  O   UNL     1      48.455 128.797  13.152  1.00  0.00    -0.294 OA
ENDBRANCH   9  17
ENDBRANCH   3   8
ENDBRANCH   1   2
BRANCH   1  20
ATOM     20  C   UNL     1      43.606 130.784  23.361  1.00  0.00     0.315 C 
ATOM     21  O   UNL     1      44.281 131.095  24.380  1.00  0.00    -0.251 OA
BRANCH  20  22
ATOM     22  C   UNL     1      42.983 129.428  23.279  1.00  0.00     0.110 C 
ATOM     23  C   UNL     1      42.898 128.700  24.615  1.00  0.00     0.028 C 
ATOM     24  C   UNL     1      43.932 128.275  23.582  1.00  0.00     0.068 C 
BRANCH  24  25
ATOM     25  C   UNL     1      43.603 127.012  22.849  1.00  0.00     0.228 C 
ATOM     26  O   UNL     1      44.488 126.375  22.302  1.00  0.00    -0.303 OA
ENDBRANCH  24  25
ENDBRANCH  20  22
ENDBRANCH   1  20
TORSDOF 6
ENDMDL


