REMARK SMILES c1cc(-c2ccc([C@@H]3CO3)cn2)c2occc2c1
REMARK SMILES IDX 4 1 5 2 6 3 7 4 11 5 12 6 3 7 1 8 2 9 18 10 17 11 13 12
REMARK SMILES IDX 16 13 14 14 15 15 8 16 9 17 10 18
REMARK H PARENT
ROOT
ATOM      1  C   UNL     1      -0.674  -0.716  -0.489  1.00  0.00     0.074 A 
ATOM      2  C   UNL     1      -0.682  -1.972   0.143  1.00  0.00     0.029 A 
ATOM      3  C   UNL     1      -1.844  -2.746   0.123  1.00  0.00     0.010 A 
ATOM      4  C   UNL     1      -2.995  -2.268  -0.514  1.00  0.00     0.001 A 
ATOM      5  C   UNL     1      -2.943  -1.025  -1.155  1.00  0.00     0.118 A 
ATOM      6  N   UNL     1      -1.801  -0.288  -1.124  1.00  0.00    -0.256 NA
ENDROOT
BRANCH   1   7
ATOM      7  C   UNL     1       0.538   0.143  -0.496  1.00  0.00     0.043 A 
ATOM      8  C   UNL     1       2.632   0.940   0.522  1.00  0.00     0.002 A 
ATOM      9  C   UNL     1       1.495   0.103   0.549  1.00  0.00     0.014 A 
ATOM     10  C   UNL     1       2.835   1.834  -0.542  1.00  0.00     0.012 A 
ATOM     11  C   UNL     1       1.881   1.863  -1.553  1.00  0.00     0.021 A 
ATOM     12  C   UNL     1       0.775   1.055  -1.535  1.00  0.00     0.143 A 
ATOM     13  C   UNL     1       1.812   2.620  -2.699  1.00  0.00     0.050 A 
ATOM     14  O   UNL     1       0.042   1.274  -2.602  1.00  0.00    -0.464 OA
ATOM     15  C   UNL     1       0.638   2.209  -3.319  1.00  0.00     0.196 A 
ENDBRANCH   1   7
BRANCH   4  16
ATOM     16  C   UNL     1      -4.239  -3.103  -0.576  1.00  0.00     0.176 C 
ATOM     17  C   UNL     1      -5.430  -2.548   0.108  1.00  0.00     0.198 C 
ATOM     18  O   UNL     1      -4.634  -3.546   0.702  1.00  0.00    -0.368 OA
ENDBRANCH   4  16
TORSDOF 2


