REMARK SMILES NNc1cc(-c2ccc3[nH]ccc3c2)n[n-]c1=O
REMARK SMILES IDX 3 1 4 2 5 3 15 4 16 5 17 6 18 7 2 8 1 10 6 13 7 14 14 15
REMARK SMILES IDX 8 16 13 17 9 18 12 19 10 20 11 21
REMARK H PARENT 2 9 1 11 1 12 10 22
ROOT
ATOM      1  C   UNL     1       2.594   0.624   2.207  1.00  0.00     0.077 A 
ATOM      2  C   UNL     1       1.753   0.202   1.166  1.00  0.00     0.056 A 
ATOM      3  C   UNL     1       0.870  -0.870   1.371  1.00  0.00     0.051 A 
ATOM      4  N   UNL     1       0.841  -1.465   2.594  1.00  0.00    -0.365 NA
ATOM      5  N   UNL     1       1.635  -1.070   3.590  1.00  0.00    -0.539 NA
ATOM      6  C   UNL     1       2.513  -0.047   3.437  1.00  0.00     0.116 A 
ATOM      7  O   UNL     1       3.245   0.289   4.406  1.00  0.00    -0.312 OA
ENDROOT
BRANCH   1   8
ATOM      8  N   UNL     1       3.517   1.721   2.034  1.00  0.00    -0.322 N 
ATOM      9  H   UNL     1       4.127   2.013   2.830  1.00  0.00     0.181 HD
BRANCH   8  10
ATOM     10  N   UNL     1       3.646   2.427   0.827  1.00  0.00    -0.250 NA
ATOM     11  H   UNL     1       3.906   1.744   0.079  1.00  0.00     0.143 HD
ATOM     12  H   UNL     1       2.717   2.846   0.595  1.00  0.00     0.143 HD
ENDBRANCH   8  10
ENDBRANCH   1   8
BRANCH   3  13
ATOM     13  C   UNL     1      -0.041  -1.353   0.304  1.00  0.00    -0.001 A 
ATOM     14  C   UNL     1       0.313  -1.253  -1.071  1.00  0.00     0.012 A 
ATOM     15  C   UNL     1      -1.276  -1.948   0.657  1.00  0.00     0.020 A 
ATOM     16  C   UNL     1      -0.554  -1.721  -2.076  1.00  0.00     0.027 A 
ATOM     17  C   UNL     1      -2.108  -2.399  -0.365  1.00  0.00     0.000 A 
ATOM     18  C   UNL     1      -1.762  -2.288  -1.683  1.00  0.00     0.045 A 
ATOM     19  C   UNL     1      -3.346  -3.001  -0.313  1.00  0.00     0.028 A 
ATOM     20  N   UNL     1      -2.723  -2.793  -2.474  1.00  0.00    -0.361 N 
ATOM     21  C   UNL     1      -3.694  -3.231  -1.640  1.00  0.00     0.083 A 
ATOM     22  H   UNL     1      -2.723  -2.842  -3.517  1.00  0.00     0.166 HD
ENDBRANCH   3  13
TORSDOF 3


