MODEL 1
REMARK VINA RESULT:      -9.0      0.000      0.000
REMARK SMILES O=C=Nc1cc(O)c(F)cc1Nc1ccc2cc[nH]c2c1
REMARK SMILES IDX 6 1 5 2 4 3 11 4 10 5 8 6 9 7 7 8 3 10 2 11 1 12 12 13 13 15
REMARK SMILES IDX 14 16 21 17 15 18 20 19 16 20 19 21 17 22 18 23
REMARK H PARENT 7 9 12 14 19 24
ROOT
ATOM      1  C   UNL     1      42.077 132.509  20.314  1.00  0.00     0.153 A 
ATOM      2  C   UNL     1      43.029 131.890  21.134  1.00  0.00     0.080 A 
ATOM      3  C   UNL     1      44.144 131.244  20.582  1.00  0.00     0.104 A 
ATOM      4  C   UNL     1      44.270 131.177  19.168  1.00  0.00     0.069 A 
ATOM      5  C   UNL     1      43.324 131.820  18.358  1.00  0.00     0.071 A 
ATOM      6  C   UNL     1      42.234 132.480  18.926  1.00  0.00     0.167 A 
ATOM      7  F   UNL     1      41.320 133.083  18.125  1.00  0.00    -0.203 F 
ENDROOT
BRANCH   1   8
ATOM      8  O   UNL     1      40.977 133.159  20.870  1.00  0.00    -0.505 OA
ATOM      9  H   UNL     1      40.830 134.154  20.743  1.00  0.00     0.293 HD
ENDBRANCH   1   8
BRANCH   3  10
ATOM     10  N   UNL     1      45.110 130.694  21.495  1.00  0.00    -0.166 NA
BRANCH  10  11
ATOM     11  C   UNL     1      44.938 129.639  22.186  1.00  0.00     0.240 C 
ATOM     12  O   UNL     1      44.769 128.615  22.859  1.00  0.00    -0.211 OA
ENDBRANCH  10  11
ENDBRANCH   3  10
BRANCH   4  13
ATOM     13  N   UNL     1      45.324 130.441  18.529  1.00  0.00    -0.354 N 
ATOM     14  H   UNL     1      45.882 129.789  19.126  1.00  0.00     0.167 HD
BRANCH  13  15
ATOM     15  C   UNL     1      45.780 130.709  17.190  1.00  0.00     0.041 A 
ATOM     16  C   UNL     1      45.507 131.948  16.544  1.00  0.00     0.027 A 
ATOM     17  C   UNL     1      46.522 129.719  16.508  1.00  0.00     0.052 A 
ATOM     18  C   UNL     1      45.956 132.189  15.234  1.00  0.00     0.012 A 
ATOM     19  C   UNL     1      46.951 129.992  15.211  1.00  0.00     0.047 A 
ATOM     20  C   UNL     1      46.677 131.184  14.598  1.00  0.00    -0.001 A 
ATOM     21  N   UNL     1      47.658 129.189  14.399  1.00  0.00    -0.361 N 
ATOM     22  C   UNL     1      47.233 131.137  13.338  1.00  0.00     0.028 A 
ATOM     23  C   UNL     1      47.832 129.884  13.252  1.00  0.00     0.083 A 
ATOM     24  H   UNL     1      48.002 128.225  14.606  1.00  0.00     0.166 HD
ENDBRANCH  13  15
ENDBRANCH   4  13
TORSDOF 5
ENDMDL
MODEL 2
REMARK VINA RESULT:      -8.3      1.342      1.350
REMARK SMILES O=C=Nc1cc(O)c(F)cc1Nc1ccc2cc[nH]c2c1
REMARK SMILES IDX 6 1 5 2 4 3 11 4 10 5 8 6 9 7 7 8 3 10 2 11 1 12 12 13 13 15
REMARK SMILES IDX 14 16 21 17 15 18 20 19 16 20 19 21 17 22 18 23
REMARK H PARENT 7 9 12 14 19 24
ROOT
ATOM      1  C   UNL     1      41.986 132.692  19.932  1.00  0.00     0.153 A 
ATOM      2  C   UNL     1      43.036 132.355  20.796  1.00  0.00     0.080 A 
ATOM      3  C   UNL     1      44.200 131.742  20.310  1.00  0.00     0.104 A 
ATOM      4  C   UNL     1      44.280 131.413  18.930  1.00  0.00     0.069 A 
ATOM      5  C   UNL     1      43.233 131.777  18.071  1.00  0.00     0.071 A 
ATOM      6  C   UNL     1      42.094 132.410  18.568  1.00  0.00     0.167 A 
ATOM      7  F   UNL     1      41.083 132.739  17.724  1.00  0.00    -0.203 F 
ENDROOT
BRANCH   1   8
ATOM      8  O   UNL     1      40.838 133.312  20.419  1.00  0.00    -0.505 OA
ATOM      9  H   UNL     1      40.180 132.819  21.013  1.00  0.00     0.293 HD
ENDBRANCH   1   8
BRANCH   3  10
ATOM     10  N   UNL     1      45.258 131.492  21.252  1.00  0.00    -0.166 NA
BRANCH  10  11
ATOM     11  C   UNL     1      46.381 132.091  21.259  1.00  0.00     0.240 C 
ATOM     12  O   UNL     1      47.472 132.673  21.269  1.00  0.00    -0.211 OA
ENDBRANCH  10  11
ENDBRANCH   3  10
BRANCH   4  13
ATOM     13  N   UNL     1      45.389 130.689  18.380  1.00  0.00    -0.354 N 
ATOM     14  H   UNL     1      45.962 130.116  19.041  1.00  0.00     0.167 HD
BRANCH  13  15
ATOM     15  C   UNL     1      45.872 130.875  17.037  1.00  0.00     0.041 A 
ATOM     16  C   UNL     1      45.690 132.106  16.344  1.00  0.00     0.027 A 
ATOM     17  C   UNL     1      46.548 129.813  16.397  1.00  0.00     0.052 A 
ATOM     18  C   UNL     1      46.164 132.268  15.030  1.00  0.00     0.012 A 
ATOM     19  C   UNL     1      47.004 130.008  15.096  1.00  0.00     0.047 A 
ATOM     20  C   UNL     1      46.817 131.193  14.438  1.00  0.00    -0.001 A 
ATOM     21  N   UNL     1      47.659 129.129  14.319  1.00  0.00    -0.361 N 
ATOM     22  C   UNL     1      47.378 131.062  13.186  1.00  0.00     0.028 A 
ATOM     23  C   UNL     1      47.889 129.769  13.150  1.00  0.00     0.083 A 
ATOM     24  H   UNL     1      47.935 128.152  14.564  1.00  0.00     0.166 HD
ENDBRANCH  13  15
ENDBRANCH   4  13
TORSDOF 5
ENDMDL
MODEL 3
REMARK VINA RESULT:      -8.2      2.145      3.425
REMARK SMILES O=C=Nc1cc(O)c(F)cc1Nc1ccc2cc[nH]c2c1
REMARK SMILES IDX 6 1 5 2 4 3 11 4 10 5 8 6 9 7 7 8 3 10 2 11 1 12 12 13 13 15
REMARK SMILES IDX 14 16 21 17 15 18 20 19 16 20 19 21 17 22 18 23
REMARK H PARENT 7 9 12 14 19 24
ROOT
ATOM      1  C   UNL     1      44.588 130.808  21.632  1.00  0.00     0.153 A 
ATOM      2  C   UNL     1      43.474 131.544  21.210  1.00  0.00     0.080 A 
ATOM      3  C   UNL     1      43.292 131.863  19.857  1.00  0.00     0.104 A 
ATOM      4  C   UNL     1      44.288 131.476  18.919  1.00  0.00     0.069 A 
ATOM      5  C   UNL     1      45.387 130.720  19.350  1.00  0.00     0.071 A 
ATOM      6  C   UNL     1      45.537 130.389  20.697  1.00  0.00     0.167 A 
ATOM      7  F   UNL     1      46.617 129.671  21.097  1.00  0.00    -0.203 F 
ENDROOT
BRANCH   1   8
ATOM      8  O   UNL     1      44.756 130.484  22.977  1.00  0.00    -0.505 OA
ATOM      9  H   UNL     1      44.130 129.843  23.450  1.00  0.00     0.293 HD
ENDBRANCH   1   8
BRANCH   3  10
ATOM     10  N   UNL     1      42.086 132.561  19.498  1.00  0.00    -0.166 NA
BRANCH  10  11
ATOM     11  C   UNL     1      41.344 133.195  20.313  1.00  0.00     0.240 C 
ATOM     12  O   UNL     1      40.620 133.809  21.107  1.00  0.00    -0.211 OA
ENDBRANCH  10  11
ENDBRANCH   3  10
BRANCH   4  13
ATOM     13  N   UNL     1      44.226 131.860  17.538  1.00  0.00    -0.354 N 
ATOM     14  H   UNL     1      43.463 132.518  17.257  1.00  0.00     0.167 HD
BRANCH  13  15
ATOM     15  C   UNL     1      45.008 131.234  16.504  1.00  0.00     0.041 A 
ATOM     16  C   UNL     1      44.983 129.825  16.302  1.00  0.00     0.027 A 
ATOM     17  C   UNL     1      45.813 132.041  15.670  1.00  0.00     0.052 A 
ATOM     18  C   UNL     1      45.758 129.231  15.290  1.00  0.00     0.012 A 
ATOM     19  C   UNL     1      46.568 131.419  14.679  1.00  0.00     0.047 A 
ATOM     20  C   UNL     1      46.541 130.063  14.497  1.00  0.00    -0.001 A 
ATOM     21  N   UNL     1      47.393 132.002  13.793  1.00  0.00    -0.361 N 
ATOM     22  C   UNL     1      47.387 129.769  13.450  1.00  0.00     0.028 A 
ATOM     23  C   UNL     1      47.897 130.997  13.041  1.00  0.00     0.083 A 
ATOM     24  H   UNL     1      47.605 133.020  13.703  1.00  0.00     0.166 HD
ENDBRANCH  13  15
ENDBRANCH   4  13
TORSDOF 5
ENDMDL
MODEL 4
REMARK VINA RESULT:      -7.6      1.032      1.137
REMARK SMILES O=C=Nc1cc(O)c(F)cc1Nc1ccc2cc[nH]c2c1
REMARK SMILES IDX 6 1 5 2 4 3 11 4 10 5 8 6 9 7 7 8 3 10 2 11 1 12 12 13 13 15
REMARK SMILES IDX 14 16 21 17 15 18 20 19 16 20 19 21 17 22 18 23
REMARK H PARENT 7 9 12 14 19 24
ROOT
ATOM      1  C   UNL     1      42.614 131.902  21.539  1.00  0.00     0.153 A 
ATOM      2  C   UNL     1      43.396 130.865  22.062  1.00  0.00     0.080 A 
ATOM      3  C   UNL     1      44.453 130.316  21.323  1.00  0.00     0.104 A 
ATOM      4  C   UNL     1      44.690 130.790  20.005  1.00  0.00     0.069 A 
ATOM      5  C   UNL     1      43.917 131.845  19.500  1.00  0.00     0.071 A 
ATOM      6  C   UNL     1      42.886 132.397  20.260  1.00  0.00     0.167 A 
ATOM      7  F   UNL     1      42.137 133.406  19.748  1.00  0.00    -0.203 F 
ENDROOT
BRANCH   1   8
ATOM      8  O   UNL     1      41.572 132.451  22.283  1.00  0.00    -0.505 OA
ATOM      9  H   UNL     1      40.678 131.981  22.370  1.00  0.00     0.293 HD
ENDBRANCH   1   8
BRANCH   3  10
ATOM     10  N   UNL     1      45.250 129.302  21.961  1.00  0.00    -0.166 NA
BRANCH  10  11
ATOM     11  C   UNL     1      44.784 128.341  22.654  1.00  0.00     0.240 C 
ATOM     12  O   UNL     1      44.334 127.405  23.325  1.00  0.00    -0.211 OA
ENDBRANCH  10  11
ENDBRANCH   3  10
BRANCH   4  13
ATOM     13  N   UNL     1      45.682 130.204  19.149  1.00  0.00    -0.354 N 
ATOM     14  H   UNL     1      46.409 129.604  19.600  1.00  0.00     0.167 HD
BRANCH  13  15
ATOM     15  C   UNL     1      45.850 130.565  17.765  1.00  0.00     0.041 A 
ATOM     16  C   UNL     1      45.310 131.774  17.240  1.00  0.00     0.027 A 
ATOM     17  C   UNL     1      46.573 129.701  16.914  1.00  0.00     0.052 A 
ATOM     18  C   UNL     1      45.479 132.107  15.885  1.00  0.00     0.012 A 
ATOM     19  C   UNL     1      46.722 130.062  15.577  1.00  0.00     0.047 A 
ATOM     20  C   UNL     1      46.193 131.223  15.082  1.00  0.00    -0.001 A 
ATOM     21  N   UNL     1      47.364 129.382  14.614  1.00  0.00    -0.361 N 
ATOM     22  C   UNL     1      46.512 131.283  13.743  1.00  0.00     0.028 A 
ATOM     23  C   UNL     1      47.238 130.124  13.491  1.00  0.00     0.083 A 
ATOM     24  H   UNL     1      47.859 128.467  14.709  1.00  0.00     0.166 HD
ENDBRANCH  13  15
ENDBRANCH   4  13
TORSDOF 5
ENDMDL
MODEL 5
REMARK VINA RESULT:      -7.3      2.345      3.825
REMARK SMILES O=C=Nc1cc(O)c(F)cc1Nc1ccc2cc[nH]c2c1
REMARK SMILES IDX 6 1 5 2 4 3 11 4 10 5 8 6 9 7 7 8 3 10 2 11 1 12 12 13 13 15
REMARK SMILES IDX 14 16 21 17 15 18 20 19 16 20 19 21 17 22 18 23
REMARK H PARENT 7 9 12 14 19 24
ROOT
ATOM      1  C   UNL     1      43.411 129.160  23.284  1.00  0.00     0.153 A 
ATOM      2  C   UNL     1      42.849 130.382  22.892  1.00  0.00     0.080 A 
ATOM      3  C   UNL     1      43.425 131.142  21.865  1.00  0.00     0.104 A 
ATOM      4  C   UNL     1      44.625 130.683  21.258  1.00  0.00     0.069 A 
ATOM      5  C   UNL     1      45.165 129.448  21.642  1.00  0.00     0.071 A 
ATOM      6  C   UNL     1      44.564 128.692  22.648  1.00  0.00     0.167 A 
ATOM      7  F   UNL     1      45.111 127.507  23.019  1.00  0.00    -0.203 F 
ENDROOT
BRANCH   1   8
ATOM      8  O   UNL     1      42.828 128.404  24.298  1.00  0.00    -0.505 OA
ATOM      9  H   UNL     1      41.950 128.677  24.725  1.00  0.00     0.293 HD
ENDBRANCH   1   8
BRANCH   3  10
ATOM     10  N   UNL     1      42.747 132.350  21.476  1.00  0.00    -0.166 NA
BRANCH  10  11
ATOM     11  C   UNL     1      42.038 132.480  20.427  1.00  0.00     0.240 C 
ATOM     12  O   UNL     1      41.351 132.608  19.406  1.00  0.00    -0.211 OA
ENDBRANCH  10  11
ENDBRANCH   3  10
BRANCH   4  13
ATOM     13  N   UNL     1      45.330 131.458  20.278  1.00  0.00    -0.354 N 
ATOM     14  H   UNL     1      45.822 132.319  20.611  1.00  0.00     0.167 HD
BRANCH  13  15
ATOM     15  C   UNL     1      45.219 131.235  18.860  1.00  0.00     0.041 A 
ATOM     16  C   UNL     1      44.097 131.703  18.118  1.00  0.00     0.027 A 
ATOM     17  C   UNL     1      46.252 130.542  18.192  1.00  0.00     0.052 A 
ATOM     18  C   UNL     1      44.004 131.471  16.734  1.00  0.00     0.012 A 
ATOM     19  C   UNL     1      46.127 130.330  16.821  1.00  0.00     0.047 A 
ATOM     20  C   UNL     1      45.041 130.779  16.119  1.00  0.00    -0.001 A 
ATOM     21  N   UNL     1      46.989 129.695  16.010  1.00  0.00    -0.361 N 
ATOM     22  C   UNL     1      45.220 130.411  14.803  1.00  0.00     0.028 A 
ATOM     23  C   UNL     1      46.438 129.742  14.776  1.00  0.00     0.083 A 
ATOM     24  H   UNL     1      47.898 129.254  16.275  1.00  0.00     0.166 HD
ENDBRANCH  13  15
ENDBRANCH   4  13
TORSDOF 5
ENDMDL
MODEL 6
REMARK VINA RESULT:      -7.2      1.927      2.564
REMARK SMILES O=C=Nc1cc(O)c(F)cc1Nc1ccc2cc[nH]c2c1
REMARK SMILES IDX 6 1 5 2 4 3 11 4 10 5 8 6 9 7 7 8 3 10 2 11 1 12 12 13 13 15
REMARK SMILES IDX 14 16 21 17 15 18 20 19 16 20 19 21 17 22 18 23
REMARK H PARENT 7 9 12 14 19 24
ROOT
ATOM      1  C   UNL     1      42.803 130.498  22.911  1.00  0.00     0.153 A 
ATOM      2  C   UNL     1      43.663 129.392  22.906  1.00  0.00     0.080 A 
ATOM      3  C   UNL     1      44.732 129.315  22.003  1.00  0.00     0.104 A 
ATOM      4  C   UNL     1      44.903 130.354  21.048  1.00  0.00     0.069 A 
ATOM      5  C   UNL     1      44.050 131.467  21.078  1.00  0.00     0.071 A 
ATOM      6  C   UNL     1      43.008 131.538  22.001  1.00  0.00     0.167 A 
ATOM      7  F   UNL     1      42.182 132.615  22.004  1.00  0.00    -0.203 F 
ENDROOT
BRANCH   1   8
ATOM      8  O   UNL     1      41.749 130.573  23.819  1.00  0.00    -0.505 OA
ATOM      9  H   UNL     1      41.090 129.811  23.930  1.00  0.00     0.293 HD
ENDBRANCH   1   8
BRANCH   3  10
ATOM     10  N   UNL     1      45.609 128.179  22.110  1.00  0.00    -0.166 NA
BRANCH  10  11
ATOM     11  C   UNL     1      45.223 126.970  22.192  1.00  0.00     0.240 C 
ATOM     12  O   UNL     1      44.851 125.792  22.274  1.00  0.00    -0.211 OA
ENDBRANCH  10  11
ENDBRANCH   3  10
BRANCH   4  13
ATOM     13  N   UNL     1      45.906 130.293  20.024  1.00  0.00    -0.354 N 
ATOM     14  H   UNL     1      46.899 130.187  20.331  1.00  0.00     0.167 HD
BRANCH  13  15
ATOM     15  C   UNL     1      45.642 130.579  18.637  1.00  0.00     0.041 A 
ATOM     16  C   UNL     1      44.623 131.493  18.246  1.00  0.00     0.027 A 
ATOM     17  C   UNL     1      46.420 129.941  17.646  1.00  0.00     0.052 A 
ATOM     18  C   UNL     1      44.377 131.755  16.887  1.00  0.00     0.012 A 
ATOM     19  C   UNL     1      46.149 130.224  16.309  1.00  0.00     0.047 A 
ATOM     20  C   UNL     1      45.163 131.099  15.945  1.00  0.00    -0.001 A 
ATOM     21  N   UNL     1      46.766 129.723  15.227  1.00  0.00    -0.361 N 
ATOM     22  C   UNL     1      45.150 131.157  14.568  1.00  0.00     0.028 A 
ATOM     23  C   UNL     1      46.159 130.290  14.160  1.00  0.00     0.083 A 
ATOM     24  H   UNL     1      47.552 129.036  15.209  1.00  0.00     0.166 HD
ENDBRANCH  13  15
ENDBRANCH   4  13
TORSDOF 5
ENDMDL
MODEL 7
REMARK VINA RESULT:      -6.9      2.226      3.618
REMARK SMILES O=C=Nc1cc(O)c(F)cc1Nc1ccc2cc[nH]c2c1
REMARK SMILES IDX 6 1 5 2 4 3 11 4 10 5 8 6 9 7 7 8 3 10 2 11 1 12 12 13 13 15
REMARK SMILES IDX 14 16 21 17 15 18 20 19 16 20 19 21 17 22 18 23
REMARK H PARENT 7 9 12 14 19 24
ROOT
ATOM      1  C   UNL     1      43.873 129.960  22.450  1.00  0.00     0.153 A 
ATOM      2  C   UNL     1      43.031 130.961  21.950  1.00  0.00     0.080 A 
ATOM      3  C   UNL     1      43.330 131.619  20.749  1.00  0.00     0.104 A 
ATOM      4  C   UNL     1      44.535 131.296  20.068  1.00  0.00     0.069 A 
ATOM      5  C   UNL     1      45.358 130.276  20.566  1.00  0.00     0.071 A 
ATOM      6  C   UNL     1      45.031 129.614  21.749  1.00  0.00     0.167 A 
ATOM      7  F   UNL     1      45.849 128.641  22.225  1.00  0.00    -0.203 F 
ENDROOT
BRANCH   1   8
ATOM      8  O   UNL     1      43.564 129.301  23.639  1.00  0.00    -0.505 OA
ATOM      9  H   UNL     1      43.179 128.364  23.640  1.00  0.00     0.293 HD
ENDBRANCH   1   8
BRANCH   3  10
ATOM     10  N   UNL     1      42.378 132.585  20.269  1.00  0.00    -0.166 NA
BRANCH  10  11
ATOM     11  C   UNL     1      41.914 132.622  19.084  1.00  0.00     0.240 C 
ATOM     12  O   UNL     1      41.461 132.659  17.933  1.00  0.00    -0.211 OA
ENDBRANCH  10  11
ENDBRANCH   3  10
BRANCH   4  13
ATOM     13  N   UNL     1      44.962 132.002  18.894  1.00  0.00    -0.354 N 
ATOM     14  H   UNL     1      44.768 133.029  18.855  1.00  0.00     0.167 HD
BRANCH  13  15
ATOM     15  C   UNL     1      45.437 131.347  17.703  1.00  0.00     0.041 A 
ATOM     16  C   UNL     1      45.618 129.936  17.651  1.00  0.00     0.027 A 
ATOM     17  C   UNL     1      45.723 132.126  16.560  1.00  0.00     0.052 A 
ATOM     18  C   UNL     1      46.089 129.315  16.481  1.00  0.00     0.012 A 
ATOM     19  C   UNL     1      46.188 131.478  15.418  1.00  0.00     0.047 A 
ATOM     20  C   UNL     1      46.364 130.121  15.382  1.00  0.00    -0.001 A 
ATOM     21  N   UNL     1      46.518 132.034  14.241  1.00  0.00    -0.361 N 
ATOM     22  C   UNL     1      46.828 129.799  14.125  1.00  0.00     0.028 A 
ATOM     23  C   UNL     1      46.910 131.011  13.447  1.00  0.00     0.083 A 
ATOM     24  H   UNL     1      46.481 133.046  13.987  1.00  0.00     0.166 HD
ENDBRANCH  13  15
ENDBRANCH   4  13
TORSDOF 5
ENDMDL
MODEL 8
REMARK VINA RESULT:      -6.8      2.167      3.251
REMARK SMILES O=C=Nc1cc(O)c(F)cc1Nc1ccc2cc[nH]c2c1
REMARK SMILES IDX 6 1 5 2 4 3 11 4 10 5 8 6 9 7 7 8 3 10 2 11 1 12 12 13 13 15
REMARK SMILES IDX 14 16 21 17 15 18 20 19 16 20 19 21 17 22 18 23
REMARK H PARENT 7 9 12 14 19 24
ROOT
ATOM      1  C   UNL     1      44.937 131.474  21.256  1.00  0.00     0.153 A 
ATOM      2  C   UNL     1      43.701 132.058  20.956  1.00  0.00     0.080 A 
ATOM      3  C   UNL     1      43.185 132.022  19.652  1.00  0.00     0.104 A 
ATOM      4  C   UNL     1      43.963 131.430  18.621  1.00  0.00     0.069 A 
ATOM      5  C   UNL     1      45.188 130.828  18.938  1.00  0.00     0.071 A 
ATOM      6  C   UNL     1      45.673 130.850  20.246  1.00  0.00     0.167 A 
ATOM      7  F   UNL     1      46.870 130.277  20.531  1.00  0.00    -0.203 F 
ENDROOT
BRANCH   1   8
ATOM      8  O   UNL     1      45.438 131.503  22.556  1.00  0.00    -0.505 OA
ATOM      9  H   UNL     1      46.418 131.328  22.750  1.00  0.00     0.293 HD
ENDBRANCH   1   8
BRANCH   3  10
ATOM     10  N   UNL     1      41.877 132.584  19.442  1.00  0.00    -0.166 NA
BRANCH  10  11
ATOM     11  C   UNL     1      41.190 133.178  20.333  1.00  0.00     0.240 C 
ATOM     12  O   UNL     1      40.520 133.757  21.197  1.00  0.00    -0.211 OA
ENDBRANCH  10  11
ENDBRANCH   3  10
BRANCH   4  13
ATOM     13  N   UNL     1      43.552 131.452  17.246  1.00  0.00    -0.354 N 
ATOM     14  H   UNL     1      42.525 131.482  17.054  1.00  0.00     0.167 HD
BRANCH  13  15
ATOM     15  C   UNL     1      44.451 131.222  16.145  1.00  0.00     0.041 A 
ATOM     16  C   UNL     1      44.166 131.708  14.837  1.00  0.00     0.027 A 
ATOM     17  C   UNL     1      45.644 130.502  16.373  1.00  0.00     0.052 A 
ATOM     18  C   UNL     1      45.054 131.469  13.774  1.00  0.00     0.012 A 
ATOM     19  C   UNL     1      46.500 130.283  15.297  1.00  0.00     0.047 A 
ATOM     20  C   UNL     1      46.213 130.750  14.043  1.00  0.00    -0.001 A 
ATOM     21  N   UNL     1      47.670 129.624  15.304  1.00  0.00    -0.361 N 
ATOM     22  C   UNL     1      47.247 130.370  13.215  1.00  0.00     0.028 A 
ATOM     23  C   UNL     1      48.131 129.674  14.034  1.00  0.00     0.083 A 
ATOM     24  H   UNL     1      48.132 129.165  16.121  1.00  0.00     0.166 HD
ENDBRANCH  13  15
ENDBRANCH   4  13
TORSDOF 5
ENDMDL
MODEL 9
REMARK VINA RESULT:      -6.8      2.590      3.973
REMARK SMILES O=C=Nc1cc(O)c(F)cc1Nc1ccc2cc[nH]c2c1
REMARK SMILES IDX 6 1 5 2 4 3 11 4 10 5 8 6 9 7 7 8 3 10 2 11 1 12 12 13 13 15
REMARK SMILES IDX 14 16 21 17 15 18 20 19 16 20 19 21 17 22 18 23
REMARK H PARENT 7 9 12 14 19 24
ROOT
ATOM      1  C   UNL     1      43.189 129.772  22.986  1.00  0.00     0.153 A 
ATOM      2  C   UNL     1      42.617 130.804  22.231  1.00  0.00     0.080 A 
ATOM      3  C   UNL     1      43.307 131.375  21.152  1.00  0.00     0.104 A 
ATOM      4  C   UNL     1      44.626 130.929  20.866  1.00  0.00     0.069 A 
ATOM      5  C   UNL     1      45.179 129.880  21.613  1.00  0.00     0.071 A 
ATOM      6  C   UNL     1      44.467 129.306  22.667  1.00  0.00     0.167 A 
ATOM      7  F   UNL     1      45.025 128.303  23.390  1.00  0.00    -0.203 F 
ENDROOT
BRANCH   1   8
ATOM      8  O   UNL     1      42.493 129.201  24.049  1.00  0.00    -0.505 OA
ATOM      9  H   UNL     1      41.935 128.363  23.929  1.00  0.00     0.293 HD
ENDBRANCH   1   8
BRANCH   3  10
ATOM     10  N   UNL     1      42.621 132.381  20.386  1.00  0.00    -0.166 NA
BRANCH  10  11
ATOM     11  C   UNL     1      41.633 133.065  20.804  1.00  0.00     0.240 C 
ATOM     12  O   UNL     1      40.672 133.727  21.213  1.00  0.00    -0.211 OA
ENDBRANCH  10  11
ENDBRANCH   3  10
BRANCH   4  13
ATOM     13  N   UNL     1      45.434 131.539  19.849  1.00  0.00    -0.354 N 
ATOM     14  H   UNL     1      45.960 132.404  20.110  1.00  0.00     0.167 HD
BRANCH  13  15
ATOM     15  C   UNL     1      45.389 131.154  18.462  1.00  0.00     0.041 A 
ATOM     16  C   UNL     1      46.201 130.100  17.956  1.00  0.00     0.027 A 
ATOM     17  C   UNL     1      44.514 131.837  17.589  1.00  0.00     0.052 A 
ATOM     18  C   UNL     1      46.148 129.742  16.597  1.00  0.00     0.012 A 
ATOM     19  C   UNL     1      44.487 131.456  16.250  1.00  0.00     0.047 A 
ATOM     20  C   UNL     1      45.276 130.445  15.773  1.00  0.00    -0.001 A 
ATOM     21  N   UNL     1      43.734 131.978  15.267  1.00  0.00    -0.361 N 
ATOM     22  C   UNL     1      45.016 130.319  14.426  1.00  0.00     0.028 A 
ATOM     23  C   UNL     1      44.055 131.286  14.150  1.00  0.00     0.083 A 
ATOM     24  H   UNL     1      43.045 132.757  15.346  1.00  0.00     0.166 HD
ENDBRANCH  13  15
ENDBRANCH   4  13
TORSDOF 5
ENDMDL


