REMARK SMILES O=C(C(=O)[C@H]1CCc2nc(-c3ccc4[nH]ccc4c3)[nH+]cc2[C@@H]1F)c1ccccc1
REMARK SMILES IDX 5 1 6 2 7 3 8 4 9 5 10 6 20 7 21 8 22 9 23 10 24 11 3 13
REMARK SMILES IDX 4 14 2 15 1 16 25 17 26 18 30 19 27 20 29 21 28 22 11 23
REMARK SMILES IDX 12 24 19 25 13 26 18 27 14 28 17 29 15 30 16 31
REMARK H PARENT 20 12 15 32
ROOT
ATOM      1  C   UNL     1       0.956   0.738  -1.870  1.00  0.00     0.104 C 
ATOM      2  C   UNL     1       2.166   0.255  -1.054  1.00  0.00     0.024 C 
ATOM      3  C   UNL     1       1.736  -0.824  -0.056  1.00  0.00     0.086 C 
ATOM      4  C   UNL     1       0.533  -0.413   0.749  1.00  0.00     0.162 A 
ATOM      5  N   UNL     1       0.262  -1.081   1.901  1.00  0.00    -0.045 NA
ATOM      6  C   UNL     1      -0.834  -0.798   2.655  1.00  0.00     0.328 A 
ATOM      7  N   UNL     1      -1.685   0.191   2.253  1.00  0.00    -0.243 N 
ATOM      8  C   UNL     1      -1.465   0.877   1.101  1.00  0.00     0.208 A 
ATOM      9  C   UNL     1      -0.359   0.578   0.296  1.00  0.00     0.073 A 
ATOM     10  C   UNL     1      -0.082   1.401  -0.943  1.00  0.00     0.215 C 
ATOM     11  F   UNL     1      -1.260   1.595  -1.648  1.00  0.00    -0.241 F 
ATOM     12  H   UNL     1      -2.506   0.463   2.838  1.00  0.00     0.312 HD
ENDROOT
BRANCH   1  13
ATOM     13  C   UNL     1       1.387   1.702  -2.953  1.00  0.00     0.209 C 
ATOM     14  O   UNL     1       2.165   2.651  -2.660  1.00  0.00    -0.290 OA
BRANCH  13  15
ATOM     15  C   UNL     1       0.847   1.597  -4.328  1.00  0.00     0.228 C 
ATOM     16  O   UNL     1      -0.196   0.915  -4.526  1.00  0.00    -0.285 OA
BRANCH  15  17
ATOM     17  C   UNL     1       1.478   2.290  -5.477  1.00  0.00     0.026 A 
ATOM     18  C   UNL     1       2.872   2.475  -5.541  1.00  0.00     0.012 A 
ATOM     19  C   UNL     1       0.682   2.741  -6.546  1.00  0.00     0.012 A 
ATOM     20  C   UNL     1       3.451   3.118  -6.640  1.00  0.00     0.001 A 
ATOM     21  C   UNL     1       1.265   3.384  -7.642  1.00  0.00     0.001 A 
ATOM     22  C   UNL     1       2.648   3.575  -7.688  1.00  0.00     0.000 A 
ENDBRANCH  15  17
ENDBRANCH  13  15
ENDBRANCH   1  13
BRANCH   6  23
ATOM     23  C   UNL     1      -1.070  -1.559   3.907  1.00  0.00     0.069 A 
ATOM     24  C   UNL     1      -2.388  -1.774   4.397  1.00  0.00     0.019 A 
ATOM     25  C   UNL     1       0.029  -2.102   4.614  1.00  0.00     0.027 A 
ATOM     26  C   UNL     1      -2.606  -2.503   5.581  1.00  0.00     0.027 A 
ATOM     27  C   UNL     1      -0.226  -2.817   5.781  1.00  0.00     0.000 A 
ATOM     28  C   UNL     1      -1.496  -3.009   6.250  1.00  0.00     0.045 A 
ATOM     29  C   UNL     1       0.636  -3.440   6.658  1.00  0.00     0.028 A 
ATOM     30  N   UNL     1      -1.483  -3.728   7.384  1.00  0.00    -0.361 N 
ATOM     31  C   UNL     1      -0.181  -3.993   7.638  1.00  0.00     0.083 A 
ATOM     32  H   UNL     1      -2.306  -4.023   7.955  1.00  0.00     0.166 HD
ENDBRANCH   6  23
TORSDOF 4


