REMARK SMILES Cc1ccc([NH2+]c2cccc(N=[N+]=[N-])c2[O-])cc1
REMARK SMILES IDX 9 1 10 2 11 3 15 4 16 5 7 6 8 7 12 8 13 9 14 10 6 11 5 14
REMARK SMILES IDX 4 15 17 16 3 17 18 18 2 19 1 20
REMARK H PARENT 6 12 6 13
ROOT
ATOM      1  C   UNL     1       1.422  -1.876   2.175  1.00  0.00     0.007 A 
ATOM      2  C   UNL     1       0.931  -1.168   3.271  1.00  0.00     0.010 A 
ATOM      3  C   UNL     1       0.513   0.161   3.135  1.00  0.00     0.036 A 
ATOM      4  C   UNL     1       0.595   0.785   1.867  1.00  0.00    -0.035 A 
ATOM      5  O   UNL     1       0.189   2.106   1.702  1.00  0.00    -0.868 OA
ATOM      6  C   UNL     1       1.095   0.070   0.755  1.00  0.00     0.127 A 
ATOM      7  C   UNL     1       1.502  -1.264   0.925  1.00  0.00     0.067 A 
ENDROOT
BRANCH   3   8
ATOM      8  N   UNL     1       0.015   0.828   4.307  1.00  0.00    -0.061 NA
BRANCH   8   9
ATOM      9  N   UNL     1      -0.388   1.991   4.307  1.00  0.00     0.005 N 
ATOM     10  N   UNL     1      -0.792   3.153   4.315  1.00  0.00    -0.003 NA
ENDBRANCH   8   9
ENDBRANCH   3   8
BRANCH   6  11
ATOM     11  N   UNL     1       1.155   0.677  -0.554  1.00  0.00    -0.282 N 
ATOM     12  H   UNL     1       1.352   1.702  -0.475  1.00  0.00     0.358 HD
ATOM     13  H   UNL     1       1.948   0.269  -1.104  1.00  0.00     0.358 HD
BRANCH  11  14
ATOM     14  C   UNL     1      -0.086   0.454  -1.255  1.00  0.00     0.134 A 
ATOM     15  C   UNL     1      -1.107   1.421  -1.228  1.00  0.00     0.068 A 
ATOM     16  C   UNL     1      -0.301  -0.746  -1.955  1.00  0.00     0.068 A 
ATOM     17  C   UNL     1      -2.318   1.191  -1.887  1.00  0.00     0.009 A 
ATOM     18  C   UNL     1      -1.513  -0.975  -2.613  1.00  0.00     0.009 A 
ATOM     19  C   UNL     1      -2.535  -0.015  -2.570  1.00  0.00    -0.051 A 
ATOM     20  C   UNL     1      -3.820  -0.245  -3.308  1.00  0.00     0.044 C 
ENDBRANCH  11  14
ENDBRANCH   6  11
TORSDOF 4


