REMARK SMILES C=Cc1ccc([C@H]2CCC[C@]3(Cl)C=CO[C@H]23)nc1
REMARK SMILES IDX 3 1 4 2 5 3 6 4 17 5 18 6 2 7 1 8 7 9 8 10 16 11 9 12 15 13
REMARK SMILES IDX 11 14 10 15 14 16 13 17 12 18
REMARK H PARENT
ROOT
ATOM      1  C   UNL     1       1.402   1.643   2.976  1.00  0.00    -0.008 A 
ATOM      2  C   UNL     1       2.228   0.736   2.296  1.00  0.00     0.011 A 
ATOM      3  C   UNL     1       1.709  -0.071   1.283  1.00  0.00     0.025 A 
ATOM      4  C   UNL     1       0.353   0.029   0.947  1.00  0.00     0.047 A 
ATOM      5  N   UNL     1      -0.430   0.934   1.598  1.00  0.00    -0.260 NA
ATOM      6  C   UNL     1       0.051   1.729   2.590  1.00  0.00     0.119 A 
ENDROOT
BRANCH   1   7
ATOM      7  C   UNL     1       1.994   2.488   4.043  1.00  0.00     0.002 C 
ATOM      8  C   UNL     1       1.284   3.168   4.943  1.00  0.00     0.009 C 
ENDBRANCH   1   7
BRANCH   4   9
ATOM      9  C   UNL     1      -0.231  -0.807  -0.169  1.00  0.00     0.081 C 
ATOM     10  C   UNL     1      -1.514  -1.506   0.289  1.00  0.00     0.014 C 
ATOM     11  C   UNL     1      -0.437   0.062  -1.441  1.00  0.00     0.206 C 
ATOM     12  C   UNL     1      -2.050  -2.382  -0.839  1.00  0.00     0.003 C 
ATOM     13  O   UNL     1       0.812   0.121  -2.119  1.00  0.00    -0.495 OA
ATOM     14  C   UNL     1      -1.376  -0.559  -2.520  1.00  0.00     0.103 C 
ATOM     15  C   UNL     1      -2.485  -1.507  -2.010  1.00  0.00     0.031 C 
ATOM     16  C   UNL     1       0.809  -0.731  -3.211  1.00  0.00     0.185 C 
ATOM     17  C   UNL     1      -0.396  -1.219  -3.435  1.00  0.00     0.038 C 
ATOM     18  Cl  UNL     1      -2.155   0.756  -3.457  1.00  0.00    -0.111 Cl
ENDBRANCH   4   9
TORSDOF 2


