REMARK SMILES S/C(=[NH+]/c1ccccc1Cl)N1CCC[C@@H](Cc2cc3ccccc3[nH]2)C1
REMARK SMILES IDX 11 1 12 2 13 3 14 4 15 5 26 6 2 7 1 8 3 10 4 12 5 13 9 14
REMARK SMILES IDX 6 15 8 16 7 17 10 18 16 19 17 20 18 21 25 22 19 23 24 24
REMARK SMILES IDX 20 25 23 26 21 27 22 28
REMARK H PARENT 1 9 3 11 25 29
ROOT
ATOM      1  N   UNL     1       1.197  -0.876   1.057  1.00  0.00    -0.256 N 
ATOM      2  C   UNL     1      -0.025  -0.922   1.865  1.00  0.00     0.237 C 
ATOM      3  C   UNL     1      -1.226  -0.548   0.994  1.00  0.00     0.046 C 
ATOM      4  C   UNL     1      -0.991   0.790   0.279  1.00  0.00     0.012 C 
ATOM      5  C   UNL     1       0.316   0.765  -0.548  1.00  0.00     0.037 C 
ATOM      6  C   UNL     1       1.500   0.375   0.356  1.00  0.00     0.241 C 
ENDROOT
BRANCH   1   7
ATOM      7  C   UNL     1       1.877  -2.093   0.701  1.00  0.00     0.308 C 
BRANCH   7   8
ATOM      8  S   UNL     1       1.950  -2.580  -1.025  1.00  0.00    -0.056 SA
ATOM      9  H   UNL     1       0.719  -3.256  -0.937  1.00  0.00     0.116 HD
ENDBRANCH   7   8
BRANCH   7  10
ATOM     10  N   UNL     1       2.390  -2.880   1.607  1.00  0.00    -0.234 N 
ATOM     11  H   UNL     1       2.782  -3.801   1.303  1.00  0.00     0.313 HD
BRANCH  10  12
ATOM     12  C   UNL     1       2.454  -2.566   3.010  1.00  0.00     0.144 A 
ATOM     13  C   UNL     1       2.968  -1.330   3.444  1.00  0.00     0.053 A 
ATOM     14  C   UNL     1       2.053  -3.518   3.967  1.00  0.00     0.087 A 
ATOM     15  C   UNL     1       3.047  -1.038   4.808  1.00  0.00     0.004 A 
ATOM     16  C   UNL     1       2.136  -3.217   5.332  1.00  0.00     0.025 A 
ATOM     17  C   UNL     1       2.629  -1.979   5.751  1.00  0.00     0.002 A 
ATOM     18  Cl  UNL     1       1.406  -5.079   3.478  1.00  0.00    -0.080 Cl
ENDBRANCH  10  12
ENDBRANCH   7  10
ENDBRANCH   1   7
BRANCH   5  19
ATOM     19  C   UNL     1       0.589   2.124  -1.222  1.00  0.00     0.061 C 
BRANCH  19  20
ATOM     20  C   UNL     1      -0.440   2.442  -2.266  1.00  0.00     0.016 A 
ATOM     21  C   UNL     1      -1.495   3.337  -2.107  1.00  0.00     0.031 A 
ATOM     22  N   UNL     1      -0.491   1.837  -3.476  1.00  0.00    -0.358 N 
ATOM     23  C   UNL     1      -2.202   3.263  -3.287  1.00  0.00    -0.000 A 
ATOM     24  C   UNL     1      -1.570   2.349  -4.090  1.00  0.00     0.046 A 
ATOM     25  C   UNL     1      -3.356   3.928  -3.696  1.00  0.00     0.010 A 
ATOM     26  C   UNL     1      -2.049   2.037  -5.362  1.00  0.00     0.026 A 
ATOM     27  C   UNL     1      -3.862   3.635  -4.976  1.00  0.00     0.001 A 
ATOM     28  C   UNL     1      -3.212   2.694  -5.805  1.00  0.00     0.002 A 
ATOM     29  H   UNL     1       0.165   1.114  -3.849  1.00  0.00     0.166 HD
ENDBRANCH  19  20
ENDBRANCH   5  19
TORSDOF 6


