REMARK SMILES Cc1ccc(-c2cc([O-])c(F)c(C(=O)[O-])c2)c2ocnc12
REMARK SMILES IDX 6 1 7 2 8 3 9 4 10 5 11 6 12 7 16 8 5 9 2 10 3 11 21 12 4 13
REMARK SMILES IDX 20 14 17 15 19 16 18 17 1 18 13 19 14 20 15 21
REMARK H PARENT
ROOT
ATOM      1  C   UNL     1       0.522   0.377   1.102  1.00  0.00    -0.014 A 
ATOM      2  C   UNL     1       0.941   1.644   1.538  1.00  0.00     0.003 A 
ATOM      3  C   UNL     1       1.031   1.929   2.902  1.00  0.00    -0.071 A 
ATOM      4  O   UNL     1       1.450   3.187   3.316  1.00  0.00    -0.870 OA
ATOM      5  C   UNL     1       0.704   0.954   3.850  1.00  0.00     0.124 A 
ATOM      6  F   UNL     1       0.803   1.266   5.167  1.00  0.00    -0.207 F 
ATOM      7  C   UNL     1       0.284  -0.327   3.436  1.00  0.00     0.033 A 
ATOM      8  C   UNL     1       0.199  -0.602   2.057  1.00  0.00     0.021 A 
ENDROOT
BRANCH   1   9
ATOM      9  C   UNL     1       0.430   0.071  -0.347  1.00  0.00     0.027 A 
ATOM     10  C   UNL     1       0.234  -0.498  -3.140  1.00  0.00    -0.021 A 
ATOM     11  C   UNL     1       0.789  -1.442  -2.251  1.00  0.00     0.006 A 
ATOM     12  C   UNL     1      -0.193   0.717  -2.598  1.00  0.00     0.113 A 
ATOM     13  C   UNL     1       0.879  -1.165  -0.868  1.00  0.00     0.013 A 
ATOM     14  N   UNL     1      -0.745   1.762  -3.241  1.00  0.00    -0.216 NA
ATOM     15  C   UNL     1      -0.103   0.985  -1.264  1.00  0.00     0.162 A 
ATOM     16  C   UNL     1      -0.972   2.637  -2.229  1.00  0.00     0.309 A 
ATOM     17  O   UNL     1      -0.594   2.177  -1.049  1.00  0.00    -0.443 OA
ATOM     18  C   UNL     1       0.162  -0.764  -4.614  1.00  0.00     0.047 C 
ENDBRANCH   1   9
BRANCH   7  19
ATOM     19  C   UNL     1      -0.069  -1.377   4.423  1.00  0.00     0.074 C 
ATOM     20  O   UNL     1      -0.439  -2.518   4.037  1.00  0.00    -0.545 OA
ATOM     21  O   UNL     1       0.001  -1.125   5.788  1.00  0.00    -0.545 OA
ENDBRANCH   7  19
TORSDOF 2


