REMARK SMILES Fc1ccc2[nH+]c(-c3ccc[nH+]c3F)ccc2c1
REMARK SMILES IDX 1 1 2 2 3 3 4 4 5 5 6 6 7 7 15 8 16 9 17 10 18 11 8 13 9 14
REMARK SMILES IDX 13 15 10 16 12 17 11 18 14 19
REMARK H PARENT 6 12 12 20
ROOT
ATOM      1  F   UNL     1       4.977  -2.178  -3.140  1.00  0.00    -0.207 F 
ATOM      2  C   UNL     1       3.891  -1.540  -2.638  1.00  0.00     0.124 A 
ATOM      3  C   UNL     1       2.697  -1.519  -3.364  1.00  0.00     0.046 A 
ATOM      4  C   UNL     1       1.573  -0.863  -2.853  1.00  0.00     0.083 A 
ATOM      5  C   UNL     1       1.637  -0.219  -1.607  1.00  0.00     0.211 A 
ATOM      6  N   UNL     1       0.545   0.424  -1.100  1.00  0.00    -0.204 N 
ATOM      7  C   UNL     1       0.582   1.058   0.111  1.00  0.00     0.220 A 
ATOM      8  C   UNL     1       1.767   1.045   0.864  1.00  0.00     0.081 A 
ATOM      9  C   UNL     1       2.897   0.396   0.369  1.00  0.00     0.022 A 
ATOM     10  C   UNL     1       2.846  -0.243  -0.873  1.00  0.00     0.049 A 
ATOM     11  C   UNL     1       3.968  -0.904  -1.395  1.00  0.00     0.054 A 
ATOM     12  H   UNL     1      -0.349   0.411  -1.642  1.00  0.00     0.454 HD
ENDROOT
BRANCH   7  13
ATOM     13  C   UNL     1      -0.622   1.750   0.631  1.00  0.00     0.150 A 
ATOM     14  C   UNL     1      -1.026   1.570   1.963  1.00  0.00     0.031 A 
ATOM     15  C   UNL     1      -1.384   2.601  -0.192  1.00  0.00     0.371 A 
ATOM     16  C   UNL     1      -2.164   2.217   2.445  1.00  0.00     0.072 A 
ATOM     17  N   UNL     1      -2.491   3.222   0.303  1.00  0.00    -0.186 N 
ATOM     18  C   UNL     1      -2.892   3.046   1.591  1.00  0.00     0.309 A 
ATOM     19  F   UNL     1      -1.007   2.842  -1.474  1.00  0.00    -0.135 F 
ATOM     20  H   UNL     1      -3.043   3.853  -0.318  1.00  0.00     0.456 HD
ENDBRANCH   7  13
TORSDOF 1


