REMARK SMILES CC(=O)c1ccc(-c2ccc([O-])cc2)c2c[n-]nc12
REMARK SMILES IDX 4 1 5 2 6 3 7 4 15 5 16 6 17 7 18 8 19 9 2 10 1 11 3 12 8 13
REMARK SMILES IDX 9 14 14 15 10 16 13 17 11 18 12 19
REMARK H PARENT
ROOT
ATOM      1  C   UNL     1       1.996  -1.437   1.546  1.00  0.00     0.042 A 
ATOM      2  C   UNL     1       0.891  -1.197   2.398  1.00  0.00     0.014 A 
ATOM      3  C   UNL     1      -0.263  -0.533   1.932  1.00  0.00     0.010 A 
ATOM      4  C   UNL     1      -0.353  -0.090   0.596  1.00  0.00    -0.011 A 
ATOM      5  C   UNL     1       0.755  -0.331  -0.226  1.00  0.00    -0.014 A 
ATOM      6  C   UNL     1       1.030   0.009  -1.532  1.00  0.00    -0.113 A 
ATOM      7  N   UNL     1       2.272  -0.431  -1.831  1.00  0.00    -0.581 NA
ATOM      8  N   UNL     1       2.792  -1.028  -0.764  1.00  0.00    -0.367 NA
ATOM      9  C   UNL     1       1.879  -0.973   0.223  1.00  0.00     0.058 A 
ENDROOT
BRANCH   1  10
ATOM     10  C   UNL     1       3.202  -2.138   2.067  1.00  0.00     0.161 C 
ATOM     11  C   UNL     1       4.326  -2.578   1.178  1.00  0.00     0.093 C 
ATOM     12  O   UNL     1       3.296  -2.374   3.302  1.00  0.00    -0.294 OA
ENDBRANCH   1  10
BRANCH   4  13
ATOM     13  C   UNL     1      -1.571   0.598   0.106  1.00  0.00    -0.018 A 
ATOM     14  C   UNL     1      -2.188   0.196  -1.091  1.00  0.00     0.008 A 
ATOM     15  C   UNL     1      -2.140   1.645   0.851  1.00  0.00     0.008 A 
ATOM     16  C   UNL     1      -3.342   0.842  -1.543  1.00  0.00    -0.008 A 
ATOM     17  C   UNL     1      -3.295   2.290   0.397  1.00  0.00    -0.008 A 
ATOM     18  C   UNL     1      -3.895   1.889  -0.801  1.00  0.00    -0.109 A 
ATOM     19  O   UNL     1      -5.042   2.531  -1.251  1.00  0.00    -0.872 OA
ENDBRANCH   4  13
TORSDOF 2


