REMARK SMILES S/C(=[NH+]/c1ccccc1Cl)N1CCC[C@@H](Cc2cc3ccccc3[nH]2)C1
REMARK SMILES IDX 11 1 12 2 13 3 14 4 15 5 26 6 2 7 1 8 3 10 4 12 5 13 9 14
REMARK SMILES IDX 6 15 8 16 7 17 10 18 16 19 17 20 18 21 25 22 19 23 24 24
REMARK SMILES IDX 20 25 23 26 21 27 22 28
REMARK H PARENT 1 9 3 11 25 29
ROOT
ATOM      1  N   UNL     1       0.151  -3.026   0.924  1.00  0.00    -0.256 N 
ATOM      2  C   UNL     1       0.548  -3.761  -0.279  1.00  0.00     0.237 C 
ATOM      3  C   UNL     1       1.171  -2.809  -1.303  1.00  0.00     0.046 C 
ATOM      4  C   UNL     1       2.285  -1.969  -0.664  1.00  0.00     0.012 C 
ATOM      5  C   UNL     1       1.799  -1.202   0.588  1.00  0.00     0.037 C 
ATOM      6  C   UNL     1       1.150  -2.181   1.587  1.00  0.00     0.241 C 
ENDROOT
BRANCH   1   7
ATOM      7  C   UNL     1      -0.916  -3.554   1.725  1.00  0.00     0.308 C 
BRANCH   7   8
ATOM      8  S   UNL     1      -0.648  -5.069   2.644  1.00  0.00    -0.056 SA
ATOM      9  H   UNL     1      -0.133  -4.366   3.749  1.00  0.00     0.116 HD
ENDBRANCH   7   8
BRANCH   7  10
ATOM     10  N   UNL     1      -2.042  -2.912   1.853  1.00  0.00    -0.234 N 
ATOM     11  H   UNL     1      -2.761  -3.268   2.522  1.00  0.00     0.313 HD
BRANCH  10  12
ATOM     12  C   UNL     1      -2.342  -1.713   1.127  1.00  0.00     0.144 A 
ATOM     13  C   UNL     1      -2.509  -1.760  -0.267  1.00  0.00     0.053 A 
ATOM     14  C   UNL     1      -2.508  -0.492   1.804  1.00  0.00     0.087 A 
ATOM     15  C   UNL     1      -2.818  -0.597  -0.979  1.00  0.00     0.004 A 
ATOM     16  C   UNL     1      -2.811   0.670   1.085  1.00  0.00     0.025 A 
ATOM     17  C   UNL     1      -2.964   0.618  -0.304  1.00  0.00     0.002 A 
ATOM     18  Cl  UNL     1      -2.301  -0.394   3.547  1.00  0.00    -0.080 Cl
ENDBRANCH  10  12
ENDBRANCH   7  10
ENDBRANCH   1   7
BRANCH   5  19
ATOM     19  C   UNL     1       0.838  -0.039   0.256  1.00  0.00     0.061 C 
BRANCH  19  20
ATOM     20  C   UNL     1       1.486   1.006  -0.601  1.00  0.00     0.016 A 
ATOM     21  C   UNL     1       2.417   1.942  -0.157  1.00  0.00     0.031 A 
ATOM     22  N   UNL     1       1.271   1.123  -1.932  1.00  0.00    -0.358 N 
ATOM     23  C   UNL     1       2.765   2.654  -1.283  1.00  0.00    -0.000 A 
ATOM     24  C   UNL     1       2.056   2.135  -2.336  1.00  0.00     0.046 A 
ATOM     25  C   UNL     1       3.658   3.711  -1.448  1.00  0.00     0.010 A 
ATOM     26  C   UNL     1       2.192   2.638  -3.629  1.00  0.00     0.026 A 
ATOM     27  C   UNL     1       3.815   4.241  -2.742  1.00  0.00     0.001 A 
ATOM     28  C   UNL     1       3.085   3.707  -3.828  1.00  0.00     0.002 A 
ATOM     29  H   UNL     1       0.635   0.543  -2.524  1.00  0.00     0.166 HD
ENDBRANCH  19  20
ENDBRANCH   5  19
TORSDOF 6


