REMARK SMILES CC(=O)c1ccc([NH2+]c2ccc3[nH]ccc3c2)c2c1CCC2
REMARK SMILES IDX 4 1 5 2 6 3 7 4 18 5 19 6 20 7 21 8 22 9 2 10 1 11 3 12 8 13
REMARK SMILES IDX 9 16 10 17 17 18 11 19 16 20 12 21 15 22 13 23 14 24
REMARK H PARENT 8 14 8 15 13 25
ROOT
ATOM      1  C   UNL     1      -2.443   0.084  -0.720  1.00  0.00     0.021 A 
ATOM      2  C   UNL     1      -2.249  -0.429   0.576  1.00  0.00     0.018 A 
ATOM      3  C   UNL     1      -1.530   0.294   1.536  1.00  0.00     0.069 A 
ATOM      4  C   UNL     1      -0.993   1.560   1.232  1.00  0.00     0.138 A 
ATOM      5  C   UNL     1      -1.223   2.081  -0.058  1.00  0.00     0.017 A 
ATOM      6  C   UNL     1      -1.918   1.361  -1.010  1.00  0.00    -0.028 A 
ATOM      7  C   UNL     1      -2.072   2.139  -2.269  1.00  0.00     0.037 C 
ATOM      8  C   UNL     1      -1.508   3.527  -1.937  1.00  0.00     0.010 C 
ATOM      9  C   UNL     1      -0.830   3.423  -0.565  1.00  0.00     0.042 C 
ENDROOT
BRANCH   1  10
ATOM     10  C   UNL     1      -3.211  -0.719  -1.702  1.00  0.00     0.160 C 
ATOM     11  C   UNL     1      -2.831  -0.788  -3.148  1.00  0.00     0.093 C 
ATOM     12  O   UNL     1      -4.208  -1.382  -1.308  1.00  0.00    -0.295 OA
ENDBRANCH   1  10
BRANCH   4  13
ATOM     13  N   UNL     1      -0.237   2.284   2.229  1.00  0.00    -0.281 N 
ATOM     14  H   UNL     1      -0.771   2.281   3.129  1.00  0.00     0.358 HD
ATOM     15  H   UNL     1      -0.108   3.286   1.964  1.00  0.00     0.358 HD
BRANCH  13  16
ATOM     16  C   UNL     1       1.054   1.669   2.412  1.00  0.00     0.135 A 
ATOM     17  C   UNL     1       2.125   1.973   1.528  1.00  0.00     0.070 A 
ATOM     18  C   UNL     1       1.258   0.733   3.454  1.00  0.00     0.078 A 
ATOM     19  C   UNL     1       3.381   1.359   1.679  1.00  0.00     0.033 A 
ATOM     20  C   UNL     1       2.514   0.145   3.573  1.00  0.00     0.005 A 
ATOM     21  C   UNL     1       3.539   0.446   2.718  1.00  0.00     0.046 A 
ATOM     22  C   UNL     1       2.989  -0.783   4.475  1.00  0.00     0.028 A 
ATOM     23  N   UNL     1       4.644  -0.248   3.034  1.00  0.00    -0.361 N 
ATOM     24  C   UNL     1       4.313  -1.001   4.108  1.00  0.00     0.083 A 
ATOM     25  H   UNL     1       5.571  -0.217   2.553  1.00  0.00     0.166 HD
ENDBRANCH  13  16
ENDBRANCH   4  13
TORSDOF 3


