REMARK SMILES [O-]c1c(Nc2ccc(/C(O)=C/Cc3c(F)cccc3F)cc2)ccc2cc[nH]c12
REMARK SMILES IDX 9 1 10 2 11 4 12 5 13 6 14 7 19 8 16 9 18 10 17 11 15 12
REMARK SMILES IDX 20 13 8 14 7 15 21 16 6 17 22 18 5 19 4 20 3 22 23 23 2 24
REMARK SMILES IDX 24 25 29 26 25 27 28 28 26 29 27 30 1 31
REMARK H PARENT 10 3 4 21 28 32
ROOT
ATOM      1  C   UNL     1      -2.283  -0.831  -0.442  1.00  0.00     0.119 C 
ENDROOT
BRANCH   1   2
ATOM      2  O   UNL     1      -2.765  -1.659   0.574  1.00  0.00    -0.508 OA
ATOM      3  H   UNL     1      -2.291  -1.745   1.465  1.00  0.00     0.293 HD
ENDBRANCH   1   2
BRANCH   1   4
ATOM      4  C   UNL     1      -2.993  -0.692  -1.572  1.00  0.00     0.025 C 
BRANCH   4   5
ATOM      5  C   UNL     1      -4.319  -1.367  -1.785  1.00  0.00     0.073 C 
BRANCH   5   6
ATOM      6  C   UNL     1      -5.402  -0.701  -0.971  1.00  0.00     0.027 A 
ATOM      7  C   UNL     1      -5.970  -1.349   0.145  1.00  0.00     0.129 A 
ATOM      8  C   UNL     1      -5.846   0.591  -1.312  1.00  0.00     0.129 A 
ATOM      9  C   UNL     1      -6.960  -0.712   0.899  1.00  0.00     0.040 A 
ATOM     10  C   UNL     1      -6.837   1.220  -0.551  1.00  0.00     0.040 A 
ATOM     11  C   UNL     1      -7.393   0.570   0.552  1.00  0.00     0.006 A 
ATOM     12  F   UNL     1      -5.571  -2.596   0.503  1.00  0.00    -0.207 F 
ATOM     13  F   UNL     1      -5.318   1.243  -2.379  1.00  0.00    -0.207 F 
ENDBRANCH   5   6
ENDBRANCH   4   5
ENDBRANCH   1   4
BRANCH   1  14
ATOM     14  C   UNL     1      -0.989  -0.125  -0.264  1.00  0.00     0.016 A 
ATOM     15  C   UNL     1       0.079  -0.769   0.382  1.00  0.00     0.014 A 
ATOM     16  C   UNL     1      -0.816   1.198  -0.711  1.00  0.00     0.014 A 
ATOM     17  C   UNL     1       1.300  -0.112   0.563  1.00  0.00     0.027 A 
ATOM     18  C   UNL     1       0.405   1.854  -0.528  1.00  0.00     0.027 A 
ATOM     19  C   UNL     1       1.478   1.201   0.093  1.00  0.00     0.038 A 
BRANCH  19  20
ATOM     20  N   UNL     1       2.716   1.905   0.288  1.00  0.00    -0.356 N 
ATOM     21  H   UNL     1       2.683   2.947   0.366  1.00  0.00     0.166 HD
BRANCH  20  22
ATOM     22  C   UNL     1       3.988   1.264   0.475  1.00  0.00     0.033 A 
ATOM     23  C   UNL     1       4.860   1.744   1.483  1.00  0.00     0.026 A 
ATOM     24  C   UNL     1       4.407   0.202  -0.365  1.00  0.00    -0.060 A 
ATOM     25  C   UNL     1       6.119   1.152   1.690  1.00  0.00     0.012 A 
ATOM     26  C   UNL     1       5.659  -0.367  -0.129  1.00  0.00     0.039 A 
ATOM     27  C   UNL     1       6.482   0.092   0.864  1.00  0.00    -0.001 A 
ATOM     28  N   UNL     1       6.239  -1.378  -0.797  1.00  0.00    -0.362 N 
ATOM     29  C   UNL     1       7.634  -0.662   0.829  1.00  0.00     0.028 A 
ATOM     30  C   UNL     1       7.446  -1.564  -0.214  1.00  0.00     0.083 A 
ATOM     31  O   UNL     1       3.613  -0.253  -1.413  1.00  0.00    -0.870 OA
ATOM     32  H   UNL     1       5.846  -1.914  -1.602  1.00  0.00     0.166 HD
ENDBRANCH  20  22
ENDBRANCH  19  20
ENDBRANCH   1  14
TORSDOF 7


