REMARK SMILES CC(=O)c1ccc(-c2nccc(C)c2F)cc1F
REMARK SMILES IDX 4 1 5 2 6 3 7 4 16 5 17 6 18 7 2 8 1 9 3 10 8 11 9 12 14 13
REMARK SMILES IDX 10 14 12 15 11 16 15 17 13 18
REMARK H PARENT
ROOT
ATOM      1  C   UNL     1      -1.572  -3.183   0.057  1.00  0.00     0.053 A 
ATOM      2  C   UNL     1      -2.683  -2.431  -0.367  1.00  0.00     0.015 A 
ATOM      3  C   UNL     1      -2.623  -1.037  -0.430  1.00  0.00     0.011 A 
ATOM      4  C   UNL     1      -1.448  -0.358  -0.079  1.00  0.00     0.006 A 
ATOM      5  C   UNL     1      -0.344  -1.100   0.371  1.00  0.00     0.050 A 
ATOM      6  C   UNL     1      -0.399  -2.496   0.438  1.00  0.00     0.134 A 
ATOM      7  F   UNL     1       0.686  -3.156   0.914  1.00  0.00    -0.206 F 
ENDROOT
BRANCH   1   8
ATOM      8  C   UNL     1      -1.677  -4.668   0.102  1.00  0.00     0.162 C 
ATOM      9  C   UNL     1      -0.472  -5.560   0.121  1.00  0.00     0.093 C 
ATOM     10  O   UNL     1      -2.816  -5.208   0.132  1.00  0.00    -0.294 OA
ENDBRANCH   1   8
BRANCH   4  11
ATOM     11  C   UNL     1      -1.407   1.122  -0.137  1.00  0.00     0.106 A 
ATOM     12  N   UNL     1      -2.512   1.827   0.237  1.00  0.00    -0.253 NA
ATOM     13  C   UNL     1      -0.269   1.818  -0.592  1.00  0.00     0.152 A 
ATOM     14  C   UNL     1      -2.551   3.184   0.206  1.00  0.00     0.112 A 
ATOM     15  C   UNL     1      -0.281   3.222  -0.617  1.00  0.00    -0.012 A 
ATOM     16  C   UNL     1      -1.438   3.906  -0.221  1.00  0.00     0.026 A 
ATOM     17  F   UNL     1       0.818   1.146  -1.052  1.00  0.00    -0.204 F 
ATOM     18  C   UNL     1       0.910   3.981  -1.127  1.00  0.00     0.047 C 
ENDBRANCH   4  11
TORSDOF 2


