REMARK SMILES Cc1ccc(Nc2cccc(N)c2Oc2[nH+]cc(C=O)cc2C)cc1
REMARK SMILES IDX 7 1 8 2 9 3 10 4 11 5 13 6 6 7 5 9 2 10 3 11 25 12 4 13
REMARK SMILES IDX 24 14 1 15 14 16 15 17 16 18 22 19 17 20 21 21 18 22 23 24
REMARK SMILES IDX 19 25 20 26 12 27
REMARK H PARENT 6 8 16 23 12 28 12 29
ROOT
ATOM      1  C   UNL     1      -1.310  -1.243   1.348  1.00  0.00     0.084 A 
ATOM      2  C   UNL     1      -1.763  -2.174   2.292  1.00  0.00     0.030 A 
ATOM      3  C   UNL     1      -2.737  -1.819   3.224  1.00  0.00     0.005 A 
ATOM      4  C   UNL     1      -3.272  -0.531   3.222  1.00  0.00     0.029 A 
ATOM      5  C   UNL     1      -2.857   0.407   2.268  1.00  0.00     0.077 A 
ATOM      6  C   UNL     1      -1.898   0.048   1.301  1.00  0.00     0.180 A 
ENDROOT
BRANCH   1   7
ATOM      7  N   UNL     1      -0.262  -1.632   0.446  1.00  0.00    -0.352 N 
ATOM      8  H   UNL     1      -0.340  -2.566  -0.017  1.00  0.00     0.167 HD
BRANCH   7   9
ATOM      9  C   UNL     1       0.925  -0.855   0.212  1.00  0.00     0.038 A 
ATOM     10  C   UNL     1       3.247   0.655  -0.296  1.00  0.00    -0.051 A 
ATOM     11  C   UNL     1       2.550   0.815   0.911  1.00  0.00     0.005 A 
ATOM     12  C   UNL     1       2.797  -0.289  -1.231  1.00  0.00     0.005 A 
ATOM     13  C   UNL     1       1.393   0.072   1.161  1.00  0.00     0.026 A 
ATOM     14  C   UNL     1       1.646  -1.040  -0.976  1.00  0.00     0.026 A 
ATOM     15  C   UNL     1       4.500   1.436  -0.554  1.00  0.00     0.044 C 
ENDBRANCH   7   9
ENDBRANCH   1   7
BRANCH   6  16
ATOM     16  O   UNL     1      -1.540   0.991   0.326  1.00  0.00    -0.401 OA
BRANCH  16  17
ATOM     17  C   UNL     1      -1.445   0.734  -1.052  1.00  0.00     0.374 A 
ATOM     18  N   UNL     1      -2.068  -0.344  -1.614  1.00  0.00    -0.179 N 
ATOM     19  C   UNL     1      -0.704   1.611  -1.864  1.00  0.00     0.062 A 
ATOM     20  C   UNL     1      -1.942  -0.636  -2.936  1.00  0.00     0.321 A 
ATOM     21  C   UNL     1      -0.550   1.310  -3.223  1.00  0.00     0.031 A 
ATOM     22  C   UNL     1      -1.168   0.181  -3.772  1.00  0.00     0.079 A 
ATOM     23  H   UNL     1      -2.666  -0.970  -1.030  1.00  0.00     0.457 HD
ATOM     24  C   UNL     1      -0.014   2.810  -1.277  1.00  0.00     0.055 C 
BRANCH  22  25
ATOM     25  C   UNL     1      -1.002  -0.125  -5.204  1.00  0.00     0.266 C 
ATOM     26  O   UNL     1      -1.548  -1.135  -5.721  1.00  0.00    -0.298 OA
ENDBRANCH  22  25
ENDBRANCH  16  17
ENDBRANCH   6  16
BRANCH   5  27
ATOM     27  N   UNL     1      -3.436   1.718   2.270  1.00  0.00    -0.396 N 
ATOM     28  H   UNL     1      -3.153   2.440   1.571  1.00  0.00     0.156 HD
ATOM     29  H   UNL     1      -4.155   1.981   2.980  1.00  0.00     0.156 HD
ENDBRANCH   5  27
TORSDOF 6


