REMARK SMILES CC1=N[C@]2(F)C[C@@H]([C@H]3O[C@@H]3C(=O)c3ccc(F)cc3)CC[C@@H]2C1
REMARK SMILES IDX 8 1 9 2 10 3 7 4 2 5 23 6 3 7 22 8 4 9 21 10 6 11 20 12 1 13
REMARK SMILES IDX 5 14 11 15 12 16 13 17 14 18 19 19 15 20 18 21 16 22 17 23
REMARK H PARENT
ROOT
ATOM      1  C   UNL     1      -0.948   1.438  -0.278  1.00  0.00     0.159 C 
ATOM      2  O   UNL     1       0.152   2.289  -0.054  1.00  0.00    -0.361 OA
ATOM      3  C   UNL     1       0.134   1.595  -1.283  1.00  0.00     0.219 C 
ENDROOT
BRANCH   1   4
ATOM      4  C   UNL     1      -0.883   0.173   0.591  1.00  0.00     0.026 C 
ATOM      5  C   UNL     1      -0.294  -3.606   1.819  1.00  0.00     0.014 C 
ATOM      6  C   UNL     1      -1.319  -3.294   2.860  1.00  0.00     0.059 C 
ATOM      7  N   UNL     1      -0.503  -3.009   0.707  1.00  0.00    -0.255 NA
ATOM      8  C   UNL     1      -1.998  -2.052   2.258  1.00  0.00     0.055 C 
ATOM      9  C   UNL     1      -1.723  -2.249   0.745  1.00  0.00     0.203 C 
ATOM     10  C   UNL     1      -1.354  -0.774   2.856  1.00  0.00     0.010 C 
ATOM     11  C   UNL     1      -1.636  -0.966  -0.103  1.00  0.00     0.072 C 
ATOM     12  C   UNL     1      -1.521   0.447   1.957  1.00  0.00     0.007 C 
ATOM     13  C   UNL     1       0.878  -4.508   2.031  1.00  0.00     0.061 C 
ATOM     14  F   UNL     1      -2.734  -3.038   0.217  1.00  0.00    -0.218 F 
ENDBRANCH   1   4
BRANCH   3  15
ATOM     15  C   UNL     1      -0.162   2.519  -2.428  1.00  0.00     0.194 C 
ATOM     16  O   UNL     1      -1.237   2.357  -3.066  1.00  0.00    -0.291 OA
BRANCH  15  17
ATOM     17  C   UNL     1       0.792   3.580  -2.843  1.00  0.00     0.021 A 
ATOM     18  C   UNL     1       2.050   3.718  -2.222  1.00  0.00     0.015 A 
ATOM     19  C   UNL     1       0.449   4.471  -3.879  1.00  0.00     0.015 A 
ATOM     20  C   UNL     1       2.935   4.723  -2.626  1.00  0.00     0.040 A 
ATOM     21  C   UNL     1       1.339   5.472  -4.279  1.00  0.00     0.040 A 
ATOM     22  C   UNL     1       2.580   5.599  -3.653  1.00  0.00     0.123 A 
ATOM     23  F   UNL     1       3.440   6.573  -4.040  1.00  0.00    -0.207 F 
ENDBRANCH  15  17
ENDBRANCH   3  15
TORSDOF 3


