REMARK SMILES C=Cc1cc(-c2cccc3ncoc23)cc(OC(=S)[NH2+][C@H](C)CC)c1F
REMARK SMILES IDX 18 1 19 2 17 3 16 4 3 5 4 6 25 7 5 8 15 9 26 10 2 11 1 12
REMARK SMILES IDX 6 13 7 14 14 15 8 16 13 17 10 18 9 19 12 20 11 21 20 22
REMARK SMILES IDX 21 25 22 26 23 27 24 28
REMARK H PARENT 20 23 20 24
ROOT
ATOM      1  C   UNL     1      -0.809  -1.291   1.825  1.00  0.00     0.365 C 
ATOM      2  S   UNL     1       0.269  -2.522   1.641  1.00  0.00     0.027 S 
ENDROOT
BRANCH   1   3
ATOM      3  O   UNL     1      -1.745  -0.994   0.822  1.00  0.00    -0.401 OA
BRANCH   3   4
ATOM      4  C   UNL     1      -1.520  -1.105  -0.558  1.00  0.00     0.171 A 
ATOM      5  C   UNL     1      -2.421  -1.496  -2.790  1.00  0.00     0.014 A 
ATOM      6  C   UNL     1      -1.137  -1.316  -3.327  1.00  0.00     0.020 A 
ATOM      7  C   UNL     1      -2.603  -1.399  -1.395  1.00  0.00     0.173 A 
ATOM      8  C   UNL     1      -0.048  -0.993  -2.501  1.00  0.00    -0.010 A 
ATOM      9  C   UNL     1      -0.252  -0.883  -1.117  1.00  0.00     0.059 A 
ATOM     10  F   UNL     1      -3.811  -1.650  -0.830  1.00  0.00    -0.202 F 
BRANCH   5  11
ATOM     11  C   UNL     1      -3.530  -1.821  -3.717  1.00  0.00     0.003 C 
ATOM     12  C   UNL     1      -4.782  -1.399  -3.541  1.00  0.00     0.009 C 
ENDBRANCH   5  11
BRANCH   8  13
ATOM     13  C   UNL     1       1.298  -0.768  -3.084  1.00  0.00     0.027 A 
ATOM     14  C   UNL     1       1.799  -1.591  -4.122  1.00  0.00     0.013 A 
ATOM     15  C   UNL     1       2.136   0.263  -2.639  1.00  0.00     0.162 A 
ATOM     16  C   UNL     1       3.087  -1.369  -4.662  1.00  0.00     0.003 A 
ATOM     17  O   UNL     1       1.918   1.168  -1.722  1.00  0.00    -0.443 OA
ATOM     18  C   UNL     1       3.377   0.473  -3.162  1.00  0.00     0.110 A 
ATOM     19  C   UNL     1       3.893  -0.323  -4.179  1.00  0.00     0.032 A 
ATOM     20  C   UNL     1       3.007   1.916  -1.679  1.00  0.00     0.309 A 
ATOM     21  N   UNL     1       3.960   1.526  -2.565  1.00  0.00    -0.217 NA
ENDBRANCH   8  13
ENDBRANCH   3   4
ENDBRANCH   1   3
BRANCH   1  22
ATOM     22  N   UNL     1      -0.863  -0.561   3.064  1.00  0.00    -0.269 N 
ATOM     23  H   UNL     1      -1.854  -0.598   3.390  1.00  0.00     0.356 HD
ATOM     24  H   UNL     1      -0.270  -1.024   3.794  1.00  0.00     0.356 HD
BRANCH  22  25
ATOM     25  C   UNL     1      -0.435   0.843   2.875  1.00  0.00     0.187 C 
ATOM     26  C   UNL     1       1.075   0.924   2.578  1.00  0.00     0.075 C 
BRANCH  25  27
ATOM     27  C   UNL     1      -0.753   1.693   4.130  1.00  0.00     0.062 C 
ATOM     28  C   UNL     1      -2.246   1.991   4.287  1.00  0.00     0.010 C 
ENDBRANCH  25  27
ENDBRANCH  22  25
ENDBRANCH   1  22
TORSDOF 7


