REMARK SMILES Cc1c(Br)cccc1N/C(S)=[N+]1\CCC[C@H](c2ccc3cc(F)ccc3n2)[C@@H]1F
REMARK SMILES IDX 12 1 13 2 14 3 15 4 16 5 28 6 29 7 10 8 9 9 11 11 8 13 7 14
REMARK SMILES IDX 2 15 6 16 3 17 5 18 1 19 4 20 17 21 27 22 18 23 26 24 19 25
REMARK SMILES IDX 25 26 20 27 24 28 21 29 22 30 23 31
REMARK H PARENT 9 10 11 12
ROOT
ATOM      1  N   UNL     1       0.093   1.118   0.090  1.00  0.00    -0.224 N 
ATOM      2  C   UNL     1       0.822   1.975  -0.875  1.00  0.00     0.240 C 
ATOM      3  C   UNL     1       1.326   1.161  -2.072  1.00  0.00     0.047 C 
ATOM      4  C   UNL     1       0.192   0.367  -2.716  1.00  0.00     0.021 C 
ATOM      5  C   UNL     1      -0.466  -0.546  -1.670  1.00  0.00     0.116 C 
ATOM      6  C   UNL     1      -0.987   0.274  -0.473  1.00  0.00     0.363 C 
ATOM      7  F   UNL     1      -2.038   1.091  -0.856  1.00  0.00    -0.196 F 
ENDROOT
BRANCH   1   8
ATOM      8  C   UNL     1       0.292   1.230   1.391  1.00  0.00     0.310 C 
ATOM      9  N   UNL     1       1.177   2.230   1.924  1.00  0.00    -0.235 N 
ATOM     10  H   UNL     1       1.081   3.210   1.574  1.00  0.00     0.313 HD
BRANCH   8  11
ATOM     11  S   UNL     1      -0.575   0.197   2.594  1.00  0.00    -0.056 SA
ATOM     12  H   UNL     1      -1.643   1.109   2.683  1.00  0.00     0.116 HD
ENDBRANCH   8  11
BRANCH   9  13
ATOM     13  C   UNL     1       2.113   1.953   2.982  1.00  0.00     0.129 A 
ATOM     14  C   UNL     1       2.777   0.714   3.010  1.00  0.00     0.052 A 
ATOM     15  C   UNL     1       2.417   2.930   3.963  1.00  0.00     0.010 A 
ATOM     16  C   UNL     1       3.738   0.445   3.982  1.00  0.00     0.006 A 
ATOM     17  C   UNL     1       3.423   2.655   4.922  1.00  0.00     0.025 A 
ATOM     18  C   UNL     1       4.065   1.413   4.927  1.00  0.00     0.016 A 
ATOM     19  C   UNL     1       1.700   4.258   3.962  1.00  0.00     0.050 C 
ATOM     20  Br  UNL     1       3.981   3.939   6.236  1.00  0.00    -0.050 Br
ENDBRANCH   9  13
ENDBRANCH   1   8
BRANCH   5  21
ATOM     21  C   UNL     1      -1.547  -1.419  -2.271  1.00  0.00     0.051 A 
ATOM     22  N   UNL     1      -1.485  -2.766  -2.076  1.00  0.00    -0.252 NA
ATOM     23  C   UNL     1      -2.623  -0.878  -3.000  1.00  0.00     0.025 A 
ATOM     24  C   UNL     1      -2.425  -3.615  -2.571  1.00  0.00     0.071 A 
ATOM     25  C   UNL     1      -3.603  -1.726  -3.520  1.00  0.00     0.012 A 
ATOM     26  C   UNL     1      -2.316  -4.992  -2.347  1.00  0.00     0.032 A 
ATOM     27  C   UNL     1      -3.514  -3.106  -3.311  1.00  0.00     0.003 A 
ATOM     28  C   UNL     1      -3.285  -5.862  -2.857  1.00  0.00     0.041 A 
ATOM     29  C   UNL     1      -4.482  -3.985  -3.819  1.00  0.00     0.049 A 
ATOM     30  C   UNL     1      -4.365  -5.361  -3.591  1.00  0.00     0.123 A 
ATOM     31  F   UNL     1      -5.301  -6.210  -4.082  1.00  0.00    -0.207 F 
ENDBRANCH   5  21
TORSDOF 4


