MODEL 1
REMARK VINA RESULT:      -9.8      0.000      0.000
REMARK SMILES CC(=O)c1ccc(/C(O)=N/[C@@H]2C=CCC2)c(F)c1[O-]
REMARK SMILES IDX 7 1 6 2 5 3 4 4 18 5 19 6 16 7 17 8 8 9 9 10 10 12 11 13
REMARK SMILES IDX 12 14 15 15 13 16 14 17 2 18 3 19 1 20
REMARK H PARENT 9 11
ROOT
ATOM      1  C   UNL     1      45.077 131.379  17.786  1.00  0.00     0.071 A 
ATOM      2  C   UNL     1      45.680 131.013  18.998  1.00  0.00     0.017 A 
ATOM      3  C   UNL     1      44.958 131.047  20.192  1.00  0.00     0.012 A 
ATOM      4  C   UNL     1      43.606 131.441  20.207  1.00  0.00     0.012 A 
ATOM      5  C   UNL     1      42.994 131.790  18.982  1.00  0.00    -0.060 A 
ATOM      6  O   UNL     1      41.651 132.154  18.932  1.00  0.00    -0.870 OA
ATOM      7  C   UNL     1      43.724 131.758  17.786  1.00  0.00     0.128 A 
ATOM      8  F   UNL     1      43.086 132.047  16.622  1.00  0.00    -0.207 F 
ENDROOT
BRANCH   1   9
ATOM      9  C   UNL     1      45.865 131.344  16.533  1.00  0.00     0.217 C 
BRANCH   9  10
ATOM     10  O   UNL     1      46.028 132.496  15.758  1.00  0.00    -0.493 OA
ATOM     11  H   UNL     1      45.293 133.184  15.660  1.00  0.00     0.295 HD
ENDBRANCH   9  10
BRANCH   9  12
ATOM     12  N   UNL     1      46.422 130.230  16.161  1.00  0.00    -0.244 NA
BRANCH  12  13
ATOM     13  C   UNL     1      46.398 129.722  14.790  1.00  0.00     0.132 C 
ATOM     14  C   UNL     1      47.763 129.289  14.396  1.00  0.00    -0.005 C 
ATOM     15  C   UNL     1      46.046 130.832  13.782  1.00  0.00     0.036 C 
ATOM     16  C   UNL     1      48.208 129.929  13.329  1.00  0.00    -0.029 C 
ATOM     17  C   UNL     1      47.227 130.915  12.809  1.00  0.00     0.029 C 
ENDBRANCH  12  13
ENDBRANCH   9  12
ENDBRANCH   1   9
BRANCH   4  18
ATOM     18  C   UNL     1      42.849 131.483  21.491  1.00  0.00     0.159 C 
ATOM     19  O   UNL     1      42.038 132.422  21.717  1.00  0.00    -0.295 OA
ATOM     20  C   UNL     1      43.045 130.446  22.557  1.00  0.00     0.093 C 
ENDBRANCH   4  18
TORSDOF 5
ENDMDL
MODEL 2
REMARK VINA RESULT:      -9.5      1.065      1.106
REMARK SMILES CC(=O)c1ccc(/C(O)=N/[C@@H]2C=CCC2)c(F)c1[O-]
REMARK SMILES IDX 7 1 6 2 5 3 4 4 18 5 19 6 16 7 17 8 8 9 9 10 10 12 11 13
REMARK SMILES IDX 12 14 15 15 13 16 14 17 2 18 3 19 1 20
REMARK H PARENT 9 11
ROOT
ATOM      1  C   UNL     1      44.855 131.248  17.948  1.00  0.00     0.071 A 
ATOM      2  C   UNL     1      45.799 130.692  18.824  1.00  0.00     0.017 A 
ATOM      3  C   UNL     1      45.568 130.670  20.200  1.00  0.00     0.012 A 
ATOM      4  C   UNL     1      44.379 131.195  20.741  1.00  0.00     0.012 A 
ATOM      5  C   UNL     1      43.418 131.736  19.856  1.00  0.00    -0.060 A 
ATOM      6  O   UNL     1      42.211 132.239  20.332  1.00  0.00    -0.870 OA
ATOM      7  C   UNL     1      43.657 131.760  18.476  1.00  0.00     0.128 A 
ATOM      8  F   UNL     1      42.687 132.238  17.653  1.00  0.00    -0.207 F 
ENDROOT
BRANCH   1   9
ATOM      9  C   UNL     1      45.125 131.270  16.493  1.00  0.00     0.217 C 
BRANCH   9  10
ATOM     10  O   UNL     1      44.308 131.999  15.625  1.00  0.00    -0.493 OA
ATOM     11  H   UNL     1      43.300 131.909  15.635  1.00  0.00     0.295 HD
ENDBRANCH   9  10
BRANCH   9  12
ATOM     12  N   UNL     1      46.145 130.614  16.024  1.00  0.00    -0.244 NA
BRANCH  12  13
ATOM     13  C   UNL     1      46.227 130.100  14.658  1.00  0.00     0.132 C 
ATOM     14  C   UNL     1      47.435 129.247  14.519  1.00  0.00    -0.005 C 
ATOM     15  C   UNL     1      46.444 131.234  13.639  1.00  0.00     0.036 C 
ATOM     16  C   UNL     1      48.256 129.682  13.579  1.00  0.00    -0.029 C 
ATOM     17  C   UNL     1      47.755 130.912  12.914  1.00  0.00     0.029 C 
ENDBRANCH  12  13
ENDBRANCH   9  12
ENDBRANCH   1   9
BRANCH   4  18
ATOM     18  C   UNL     1      44.148 131.174  22.214  1.00  0.00     0.159 C 
ATOM     19  O   UNL     1      44.734 132.007  22.959  1.00  0.00    -0.295 OA
ATOM     20  C   UNL     1      43.253 130.157  22.859  1.00  0.00     0.093 C 
ENDBRANCH   4  18
TORSDOF 5
ENDMDL
MODEL 3
REMARK VINA RESULT:      -9.4      1.287      1.581
REMARK SMILES CC(=O)c1ccc(/C(O)=N/[C@@H]2C=CCC2)c(F)c1[O-]
REMARK SMILES IDX 7 1 6 2 5 3 4 4 18 5 19 6 16 7 17 8 8 9 9 10 10 12 11 13
REMARK SMILES IDX 12 14 15 15 13 16 14 17 2 18 3 19 1 20
REMARK H PARENT 9 11
ROOT
ATOM      1  C   UNL     1      44.725 131.445  18.300  1.00  0.00     0.071 A 
ATOM      2  C   UNL     1      45.740 130.800  19.022  1.00  0.00     0.017 A 
ATOM      3  C   UNL     1      45.620 130.605  20.398  1.00  0.00     0.012 A 
ATOM      4  C   UNL     1      44.477 131.041  21.093  1.00  0.00     0.012 A 
ATOM      5  C   UNL     1      43.445 131.672  20.362  1.00  0.00    -0.060 A 
ATOM      6  O   UNL     1      42.277 132.094  20.991  1.00  0.00    -0.870 OA
ATOM      7  C   UNL     1      43.571 131.870  18.980  1.00  0.00     0.128 A 
ATOM      8  F   UNL     1      42.535 132.431  18.303  1.00  0.00    -0.207 F 
ENDROOT
BRANCH   1   9
ATOM      9  C   UNL     1      44.877 131.651  16.842  1.00  0.00     0.217 C 
BRANCH   9  10
ATOM     10  O   UNL     1      45.699 132.665  16.344  1.00  0.00    -0.493 OA
ATOM     11  H   UNL     1      45.633 133.619  16.673  1.00  0.00     0.295 HD
ENDBRANCH   9  10
BRANCH   9  12
ATOM     12  N   UNL     1      44.246 130.865  16.019  1.00  0.00    -0.244 NA
BRANCH  12  13
ATOM     13  C   UNL     1      44.897 130.124  14.939  1.00  0.00     0.132 C 
ATOM     14  C   UNL     1      46.101 129.432  15.465  1.00  0.00    -0.005 C 
ATOM     15  C   UNL     1      45.447 131.070  13.855  1.00  0.00     0.036 C 
ATOM     16  C   UNL     1      47.207 129.793  14.839  1.00  0.00    -0.029 C 
ATOM     17  C   UNL     1      46.954 130.800  13.778  1.00  0.00     0.029 C 
ENDBRANCH  12  13
ENDBRANCH   9  12
ENDBRANCH   1   9
BRANCH   4  18
ATOM     18  C   UNL     1      44.366 130.835  22.566  1.00  0.00     0.159 C 
ATOM     19  O   UNL     1      44.397 131.824  23.348  1.00  0.00    -0.295 OA
ATOM     20  C   UNL     1      44.250 129.464  23.165  1.00  0.00     0.093 C 
ENDBRANCH   4  18
TORSDOF 5
ENDMDL
MODEL 4
REMARK VINA RESULT:      -9.2      1.305      1.590
REMARK SMILES CC(=O)c1ccc(/C(O)=N/[C@@H]2C=CCC2)c(F)c1[O-]
REMARK SMILES IDX 7 1 6 2 5 3 4 4 18 5 19 6 16 7 17 8 8 9 9 10 10 12 11 13
REMARK SMILES IDX 12 14 15 15 13 16 14 17 2 18 3 19 1 20
REMARK H PARENT 9 11
ROOT
ATOM      1  C   UNL     1      44.540 131.128  17.372  1.00  0.00     0.071 A 
ATOM      2  C   UNL     1      45.585 130.553  18.111  1.00  0.00     0.017 A 
ATOM      3  C   UNL     1      45.590 130.614  19.505  1.00  0.00     0.012 A 
ATOM      4  C   UNL     1      44.544 131.247  20.203  1.00  0.00     0.012 A 
ATOM      5  C   UNL     1      43.481 131.808  19.460  1.00  0.00    -0.060 A 
ATOM      6  O   UNL     1      42.404 132.415  20.099  1.00  0.00    -0.870 OA
ATOM      7  C   UNL     1      43.482 131.747  18.060  1.00  0.00     0.128 A 
ATOM      8  F   UNL     1      42.417 132.249  17.383  1.00  0.00    -0.207 F 
ENDROOT
BRANCH   1   9
ATOM      9  C   UNL     1      44.559 131.059  15.894  1.00  0.00     0.217 C 
BRANCH   9  10
ATOM     10  O   UNL     1      43.705 131.858  15.129  1.00  0.00    -0.493 OA
ATOM     11  H   UNL     1      42.698 131.780  15.194  1.00  0.00     0.295 HD
ENDBRANCH   9  10
BRANCH   9  12
ATOM     12  N   UNL     1      45.394 130.255  15.304  1.00  0.00    -0.244 NA
BRANCH  12  13
ATOM     13  C   UNL     1      46.807 130.563  15.085  1.00  0.00     0.132 C 
ATOM     14  C   UNL     1      46.937 131.529  13.963  1.00  0.00    -0.005 C 
ATOM     15  C   UNL     1      47.590 129.324  14.610  1.00  0.00     0.036 C 
ATOM     16  C   UNL     1      47.684 131.062  12.978  1.00  0.00    -0.029 C 
ATOM     17  C   UNL     1      48.192 129.694  13.251  1.00  0.00     0.029 C 
ENDBRANCH  12  13
ENDBRANCH   9  12
ENDBRANCH   1   9
BRANCH   4  18
ATOM     18  C   UNL     1      44.567 131.315  21.693  1.00  0.00     0.159 C 
ATOM     19  O   UNL     1      45.229 132.216  22.276  1.00  0.00    -0.295 OA
ATOM     20  C   UNL     1      43.844 130.310  22.540  1.00  0.00     0.093 C 
ENDBRANCH   4  18
TORSDOF 5
ENDMDL
MODEL 5
REMARK VINA RESULT:      -9.0      1.130      1.139
REMARK SMILES CC(=O)c1ccc(/C(O)=N/[C@@H]2C=CCC2)c(F)c1[O-]
REMARK SMILES IDX 7 1 6 2 5 3 4 4 18 5 19 6 16 7 17 8 8 9 9 10 10 12 11 13
REMARK SMILES IDX 12 14 15 15 13 16 14 17 2 18 3 19 1 20
REMARK H PARENT 9 11
ROOT
ATOM      1  C   UNL     1      45.089 131.020  17.964  1.00  0.00     0.071 A 
ATOM      2  C   UNL     1      45.473 130.995  19.313  1.00  0.00     0.017 A 
ATOM      3  C   UNL     1      44.601 131.435  20.310  1.00  0.00     0.012 A 
ATOM      4  C   UNL     1      43.314 131.904  19.987  1.00  0.00     0.012 A 
ATOM      5  C   UNL     1      42.919 131.909  18.630  1.00  0.00    -0.060 A 
ATOM      6  O   UNL     1      41.646 132.331  18.257  1.00  0.00    -0.870 OA
ATOM      7  C   UNL     1      43.800 131.471  17.632  1.00  0.00     0.128 A 
ATOM      8  F   UNL     1      43.366 131.439  16.345  1.00  0.00    -0.207 F 
ENDROOT
BRANCH   1   9
ATOM      9  C   UNL     1      46.033 130.558  16.922  1.00  0.00     0.217 C 
BRANCH   9  10
ATOM     10  O   UNL     1      46.866 129.458  17.148  1.00  0.00    -0.493 OA
ATOM     11  H   UNL     1      47.258 129.261  18.059  1.00  0.00     0.295 HD
ENDBRANCH   9  10
BRANCH   9  12
ATOM     12  N   UNL     1      46.073 131.176  15.778  1.00  0.00    -0.244 NA
BRANCH  12  13
ATOM     13  C   UNL     1      46.131 130.497  14.485  1.00  0.00     0.132 C 
ATOM     14  C   UNL     1      47.119 129.390  14.548  1.00  0.00    -0.005 C 
ATOM     15  C   UNL     1      46.673 131.425  13.381  1.00  0.00     0.036 C 
ATOM     16  C   UNL     1      48.082 129.518  13.652  1.00  0.00    -0.029 C 
ATOM     17  C   UNL     1      47.924 130.739  12.822  1.00  0.00     0.029 C 
ENDBRANCH  12  13
ENDBRANCH   9  12
ENDBRANCH   1   9
BRANCH   4  18
ATOM     18  C   UNL     1      42.395 132.380  21.062  1.00  0.00     0.159 C 
ATOM     19  O   UNL     1      41.409 133.111  20.774  1.00  0.00    -0.295 OA
ATOM     20  C   UNL     1      42.626 132.042  22.505  1.00  0.00     0.093 C 
ENDBRANCH   4  18
TORSDOF 5
ENDMDL
MODEL 6
REMARK VINA RESULT:      -9.0      1.558      2.143
REMARK SMILES CC(=O)c1ccc(/C(O)=N/[C@@H]2C=CCC2)c(F)c1[O-]
REMARK SMILES IDX 7 1 6 2 5 3 4 4 18 5 19 6 16 7 17 8 8 9 9 10 10 12 11 13
REMARK SMILES IDX 12 14 15 15 13 16 14 17 2 18 3 19 1 20
REMARK H PARENT 9 11
ROOT
ATOM      1  C   UNL     1      44.079 131.371  17.120  1.00  0.00     0.071 A 
ATOM      2  C   UNL     1      42.769 131.743  17.456  1.00  0.00     0.017 A 
ATOM      3  C   UNL     1      42.386 131.874  18.791  1.00  0.00     0.012 A 
ATOM      4  C   UNL     1      43.307 131.647  19.832  1.00  0.00     0.012 A 
ATOM      5  C   UNL     1      44.632 131.293  19.493  1.00  0.00    -0.060 A 
ATOM      6  O   UNL     1      45.593 131.089  20.479  1.00  0.00    -0.870 OA
ATOM      7  C   UNL     1      45.011 131.158  18.150  1.00  0.00     0.128 A 
ATOM      8  F   UNL     1      46.307 130.871  17.862  1.00  0.00    -0.207 F 
ENDROOT
BRANCH   1   9
ATOM      9  C   UNL     1      44.461 131.228  15.697  1.00  0.00     0.217 C 
BRANCH   9  10
ATOM     10  O   UNL     1      43.915 132.068  14.722  1.00  0.00    -0.493 OA
ATOM     11  H   UNL     1      43.915 131.822  13.741  1.00  0.00     0.295 HD
ENDBRANCH   9  10
BRANCH   9  12
ATOM     12  N   UNL     1      45.326 130.318  15.357  1.00  0.00    -0.244 NA
BRANCH  12  13
ATOM     13  C   UNL     1      46.747 130.584  15.141  1.00  0.00     0.132 C 
ATOM     14  C   UNL     1      46.909 131.530  14.007  1.00  0.00    -0.005 C 
ATOM     15  C   UNL     1      47.497 129.318  14.688  1.00  0.00     0.036 C 
ATOM     16  C   UNL     1      47.647 131.030  13.032  1.00  0.00    -0.029 C 
ATOM     17  C   UNL     1      48.116 129.652  13.326  1.00  0.00     0.029 C 
ENDBRANCH  12  13
ENDBRANCH   9  12
ENDBRANCH   1   9
BRANCH   4  18
ATOM     18  C   UNL     1      42.882 131.781  21.255  1.00  0.00     0.159 C 
ATOM     19  O   UNL     1      42.102 132.711  21.598  1.00  0.00    -0.295 OA
ATOM     20  C   UNL     1      43.385 130.852  22.321  1.00  0.00     0.093 C 
ENDBRANCH   4  18
TORSDOF 5
ENDMDL
MODEL 7
REMARK VINA RESULT:      -8.8      1.846      2.246
REMARK SMILES CC(=O)c1ccc(/C(O)=N/[C@@H]2C=CCC2)c(F)c1[O-]
REMARK SMILES IDX 7 1 6 2 5 3 4 4 18 5 19 6 16 7 17 8 8 9 9 10 10 12 11 13
REMARK SMILES IDX 12 14 15 15 13 16 14 17 2 18 3 19 1 20
REMARK H PARENT 9 11
ROOT
ATOM      1  C   UNL     1      44.263 131.497  17.462  1.00  0.00     0.071 A 
ATOM      2  C   UNL     1      43.088 131.965  18.068  1.00  0.00     0.017 A 
ATOM      3  C   UNL     1      42.909 131.864  19.448  1.00  0.00     0.012 A 
ATOM      4  C   UNL     1      43.906 131.298  20.266  1.00  0.00     0.012 A 
ATOM      5  C   UNL     1      45.098 130.846  19.658  1.00  0.00    -0.060 A 
ATOM      6  O   UNL     1      46.131 130.309  20.421  1.00  0.00    -0.870 OA
ATOM      7  C   UNL     1      45.272 130.946  18.271  1.00  0.00     0.128 A 
ATOM      8  F   UNL     1      46.454 130.551  17.729  1.00  0.00    -0.207 F 
ENDROOT
BRANCH   1   9
ATOM      9  C   UNL     1      44.428 131.606  15.995  1.00  0.00     0.217 C 
BRANCH   9  10
ATOM     10  O   UNL     1      43.329 131.858  15.169  1.00  0.00    -0.493 OA
ATOM     11  H   UNL     1      43.098 132.791  14.854  1.00  0.00     0.295 HD
ENDBRANCH   9  10
BRANCH   9  12
ATOM     12  N   UNL     1      45.613 131.481  15.476  1.00  0.00    -0.244 NA
BRANCH  12  13
ATOM     13  C   UNL     1      45.907 130.663  14.300  1.00  0.00     0.132 C 
ATOM     14  C   UNL     1      46.499 129.370  14.729  1.00  0.00    -0.005 C 
ATOM     15  C   UNL     1      46.996 131.305  13.420  1.00  0.00     0.036 C 
ATOM     16  C   UNL     1      47.697 129.165  14.211  1.00  0.00    -0.029 C 
ATOM     17  C   UNL     1      48.137 130.285  13.341  1.00  0.00     0.029 C 
ENDBRANCH  12  13
ENDBRANCH   9  12
ENDBRANCH   1   9
BRANCH   4  18
ATOM     18  C   UNL     1      43.697 131.187  21.738  1.00  0.00     0.159 C 
ATOM     19  O   UNL     1      42.910 130.318  22.203  1.00  0.00    -0.295 OA
ATOM     20  C   UNL     1      44.379 132.110  22.705  1.00  0.00     0.093 C 
ENDBRANCH   4  18
TORSDOF 5
ENDMDL
MODEL 8
REMARK VINA RESULT:      -8.8      1.732      2.348
REMARK SMILES CC(=O)c1ccc(/C(O)=N/[C@@H]2C=CCC2)c(F)c1[O-]
REMARK SMILES IDX 7 1 6 2 5 3 4 4 18 5 19 6 16 7 17 8 8 9 9 10 10 12 11 13
REMARK SMILES IDX 12 14 15 15 13 16 14 17 2 18 3 19 1 20
REMARK H PARENT 9 11
ROOT
ATOM      1  C   UNL     1      44.130 131.484  19.215  1.00  0.00     0.071 A 
ATOM      2  C   UNL     1      45.209 130.873  19.871  1.00  0.00     0.017 A 
ATOM      3  C   UNL     1      45.228 130.763  21.262  1.00  0.00     0.012 A 
ATOM      4  C   UNL     1      44.162 131.255  22.039  1.00  0.00     0.012 A 
ATOM      5  C   UNL     1      43.066 131.852  21.377  1.00  0.00    -0.060 A 
ATOM      6  O   UNL     1      41.969 132.325  22.093  1.00  0.00    -0.870 OA
ATOM      7  C   UNL     1      43.053 131.964  19.980  1.00  0.00     0.128 A 
ATOM      8  F   UNL     1      41.958 132.494  19.376  1.00  0.00    -0.207 F 
ENDROOT
BRANCH   1   9
ATOM      9  C   UNL     1      44.135 131.598  17.739  1.00  0.00     0.217 C 
BRANCH   9  10
ATOM     10  O   UNL     1      43.037 132.131  17.059  1.00  0.00    -0.493 OA
ATOM     11  H   UNL     1      42.724 133.082  17.208  1.00  0.00     0.295 HD
ENDBRANCH   9  10
BRANCH   9  12
ATOM     12  N   UNL     1      45.183 131.210  17.074  1.00  0.00    -0.244 NA
BRANCH  12  13
ATOM     13  C   UNL     1      45.191 130.971  15.631  1.00  0.00     0.132 C 
ATOM     14  C   UNL     1      45.747 129.622  15.354  1.00  0.00    -0.005 C 
ATOM     15  C   UNL     1      46.148 131.932  14.903  1.00  0.00     0.036 C 
ATOM     16  C   UNL     1      46.811 129.664  14.571  1.00  0.00    -0.029 C 
ATOM     17  C   UNL     1      47.171 131.050  14.180  1.00  0.00     0.029 C 
ENDBRANCH  12  13
ENDBRANCH   9  12
ENDBRANCH   1   9
BRANCH   4  18
ATOM     18  C   UNL     1      44.199 131.141  23.526  1.00  0.00     0.159 C 
ATOM     19  O   UNL     1      44.015 130.023  24.079  1.00  0.00    -0.295 OA
ATOM     20  C   UNL     1      44.420 132.336  24.405  1.00  0.00     0.093 C 
ENDBRANCH   4  18
TORSDOF 5
ENDMDL
MODEL 9
REMARK VINA RESULT:      -8.7      1.839      2.327
REMARK SMILES CC(=O)c1ccc(/C(O)=N/[C@@H]2C=CCC2)c(F)c1[O-]
REMARK SMILES IDX 7 1 6 2 5 3 4 4 18 5 19 6 16 7 17 8 8 9 9 10 10 12 11 13
REMARK SMILES IDX 12 14 15 15 13 16 14 17 2 18 3 19 1 20
REMARK H PARENT 9 11
ROOT
ATOM      1  C   UNL     1      44.299 131.569  18.083  1.00  0.00     0.071 A 
ATOM      2  C   UNL     1      43.042 132.001  18.532  1.00  0.00     0.017 A 
ATOM      3  C   UNL     1      42.651 131.800  19.856  1.00  0.00     0.012 A 
ATOM      4  C   UNL     1      43.510 131.168  20.775  1.00  0.00     0.012 A 
ATOM      5  C   UNL     1      44.784 130.752  20.328  1.00  0.00    -0.060 A 
ATOM      6  O   UNL     1      45.688 130.152  21.201  1.00  0.00    -0.870 OA
ATOM      7  C   UNL     1      45.172 130.952  18.996  1.00  0.00     0.128 A 
ATOM      8  F   UNL     1      46.425 130.589  18.617  1.00  0.00    -0.207 F 
ENDROOT
BRANCH   1   9
ATOM      9  C   UNL     1      44.690 131.785  16.672  1.00  0.00     0.217 C 
BRANCH   9  10
ATOM     10  O   UNL     1      45.690 132.703  16.339  1.00  0.00    -0.493 OA
ATOM     11  H   UNL     1      45.675 133.657  16.676  1.00  0.00     0.295 HD
ENDBRANCH   9  10
BRANCH   9  12
ATOM     12  N   UNL     1      44.105 131.097  15.736  1.00  0.00    -0.244 NA
BRANCH  12  13
ATOM     13  C   UNL     1      44.814 130.237  14.790  1.00  0.00     0.132 C 
ATOM     14  C   UNL     1      45.834 129.436  15.515  1.00  0.00    -0.005 C 
ATOM     15  C   UNL     1      45.630 131.061  13.777  1.00  0.00     0.036 C 
ATOM     16  C   UNL     1      47.056 129.638  15.056  1.00  0.00    -0.029 C 
ATOM     17  C   UNL     1      47.087 130.616  13.939  1.00  0.00     0.029 C 
ENDBRANCH  12  13
ENDBRANCH   9  12
ENDBRANCH   1   9
BRANCH   4  18
ATOM     18  C   UNL     1      43.075 130.950  22.184  1.00  0.00     0.159 C 
ATOM     19  O   UNL     1      42.889 129.780  22.616  1.00  0.00    -0.295 OA
ATOM     20  C   UNL     1      42.815 132.096  23.117  1.00  0.00     0.093 C 
ENDBRANCH   4  18
TORSDOF 5
ENDMDL


