REMARK SMILES C[C@H]1C[C@H](c2cccc3ncoc23)[C@@H]([NH2+]c2cccc(N)c2[O-])[C@@H](O)[C@@H]1F
REMARK SMILES IDX 15 1 14 4 2 5 3 6 26 7 4 8 24 9 1 10 27 11 5 12 6 13 13 14
REMARK SMILES IDX 7 15 12 16 9 17 8 18 11 19 10 20 25 21 16 23 17 24 22 25
REMARK SMILES IDX 18 26 20 27 19 28 23 29 21 30
REMARK H PARENT 15 2 15 3 25 22 21 31 21 32
ROOT
ATOM      1  N   UNL     1       1.110  -0.370  -1.207  1.00  0.00    -0.309 N 
ATOM      2  H   UNL     1       0.835  -1.358  -1.413  1.00  0.00     0.352 HD
ATOM      3  H   UNL     1       1.442   0.036  -2.112  1.00  0.00     0.352 HD
ENDROOT
BRANCH   1   4
ATOM      4  C   UNL     1      -0.051   0.396  -0.681  1.00  0.00     0.227 C 
ATOM      5  C   UNL     1      -2.565  -1.137  -1.322  1.00  0.00     0.024 C 
ATOM      6  C   UNL     1      -1.691  -1.528  -0.105  1.00  0.00     0.021 C 
ATOM      7  C   UNL     1      -1.741  -0.420  -2.404  1.00  0.00     0.204 C 
ATOM      8  C   UNL     1      -0.799  -0.383   0.451  1.00  0.00     0.085 C 
ATOM      9  C   UNL     1      -1.034   0.803  -1.810  1.00  0.00     0.207 C 
ATOM     10  C   UNL     1      -3.249  -2.385  -1.899  1.00  0.00     0.011 C 
ATOM     11  F   UNL     1      -2.583   0.000  -3.422  1.00  0.00    -0.244 F 
BRANCH   8  12
ATOM     12  C   UNL     1      -1.474   0.568   1.438  1.00  0.00     0.006 A 
ATOM     13  C   UNL     1      -2.878   0.680   1.624  1.00  0.00     0.008 A 
ATOM     14  C   UNL     1      -0.678   1.385   2.255  1.00  0.00     0.158 A 
ATOM     15  C   UNL     1      -3.415   1.595   2.559  1.00  0.00     0.003 A 
ATOM     16  O   UNL     1       0.625   1.461   2.316  1.00  0.00    -0.443 OA
ATOM     17  C   UNL     1      -1.200   2.264   3.155  1.00  0.00     0.109 A 
ATOM     18  C   UNL     1      -2.570   2.405   3.336  1.00  0.00     0.032 A 
ATOM     19  C   UNL     1       0.898   2.372   3.233  1.00  0.00     0.309 A 
ATOM     20  N   UNL     1      -0.214   2.912   3.797  1.00  0.00    -0.217 NA
ENDBRANCH   8  12
BRANCH   9  21
ATOM     21  O   UNL     1      -0.365   1.498  -2.832  1.00  0.00    -0.384 OA
ATOM     22  H   UNL     1      -0.133   2.392  -2.467  1.00  0.00     0.211 HD
ENDBRANCH   9  21
ENDBRANCH   1   4
BRANCH   1  23
ATOM     23  C   UNL     1       2.225  -0.348  -0.283  1.00  0.00     0.124 A 
ATOM     24  C   UNL     1       2.512  -1.477   0.506  1.00  0.00     0.067 A 
ATOM     25  C   UNL     1       3.030   0.805  -0.150  1.00  0.00    -0.022 A 
ATOM     26  C   UNL     1       3.563  -1.450   1.425  1.00  0.00     0.008 A 
ATOM     27  C   UNL     1       4.086   0.829   0.780  1.00  0.00     0.029 A 
ATOM     28  C   UNL     1       4.343  -0.302   1.565  1.00  0.00     0.025 A 
ATOM     29  O   UNL     1       2.779   1.922  -0.942  1.00  0.00    -0.867 OA
BRANCH  27  30
ATOM     30  N   UNL     1       4.898   1.998   0.933  1.00  0.00    -0.399 N 
ATOM     31  H   UNL     1       5.681   2.015   1.625  1.00  0.00     0.156 HD
ATOM     32  H   UNL     1       4.727   2.858   0.366  1.00  0.00     0.156 HD
ENDBRANCH  27  30
ENDBRANCH   1  23
TORSDOF 5


