REMARK SMILES Cc1ccc(-c2ccc(N(/C(O)=C\C=C(\O)Cl)c3cc4ccccc4[n-]3)c(C=O)c2)cc1
REMARK SMILES IDX 13 1 14 2 15 3 17 4 16 5 11 7 12 8 10 10 18 11 26 12 19 13
REMARK SMILES IDX 25 14 20 15 24 16 21 17 23 18 22 19 9 20 8 21 27 22 7 23
REMARK SMILES IDX 30 24 6 25 28 26 29 27 5 28 4 29 31 30 3 31 32 32 2 33 1 34
REMARK H PARENT 16 6 12 9
ROOT
ATOM      1  C   UNL     1       1.910  -2.291  -2.566  1.00  0.00     0.047 C 
ENDROOT
BRANCH   1   2
ATOM      2  C   UNL     1       0.557  -2.577  -3.094  1.00  0.00     0.063 C 
BRANCH   2   3
ATOM      3  C   UNL     1       0.341  -3.203  -4.260  1.00  0.00     0.184 C 
ATOM      4  Cl  UNL     1       1.657  -3.779  -5.277  1.00  0.00    -0.044 Cl
BRANCH   3   5
ATOM      5  O   UNL     1      -0.962  -3.426  -4.702  1.00  0.00    -0.499 OA
ATOM      6  H   UNL     1      -1.770  -3.127  -4.168  1.00  0.00     0.294 HD
ENDBRANCH   3   5
ENDBRANCH   2   3
ENDBRANCH   1   2
BRANCH   1   7
ATOM      7  C   UNL     1       2.128  -1.805  -1.332  1.00  0.00     0.110 C 
BRANCH   7   8
ATOM      8  O   UNL     1       3.421  -1.446  -0.948  1.00  0.00    -0.511 OA
ATOM      9  H   UNL     1       4.215  -1.544  -1.571  1.00  0.00     0.293 HD
ENDBRANCH   7   8
BRANCH   7  10
ATOM     10  N   UNL     1       1.060  -1.625  -0.388  1.00  0.00    -0.388 N 
BRANCH  10  11
ATOM     11  C   UNL     1       0.294  -2.749   0.087  1.00  0.00    -0.051 A 
ATOM     12  N   UNL     1       0.619  -4.037  -0.195  1.00  0.00    -0.435 NA
ATOM     13  C   UNL     1      -0.854  -2.657   0.872  1.00  0.00     0.008 A 
ATOM     14  C   UNL     1      -0.336  -4.758   0.419  1.00  0.00    -0.034 A 
ATOM     15  C   UNL     1      -1.238  -3.959   1.070  1.00  0.00    -0.023 A 
ATOM     16  C   UNL     1      -0.453  -6.147   0.429  1.00  0.00     0.004 A 
ATOM     17  C   UNL     1      -2.318  -4.487   1.776  1.00  0.00     0.008 A 
ATOM     18  C   UNL     1      -1.532  -6.713   1.132  1.00  0.00     0.000 A 
ATOM     19  C   UNL     1      -2.461  -5.886   1.803  1.00  0.00     0.001 A 
ENDBRANCH  10  11
BRANCH  10  20
ATOM     20  C   UNL     1       0.848  -0.312   0.155  1.00  0.00    -0.024 A 
ATOM     21  C   UNL     1       0.239   0.659  -0.650  1.00  0.00     0.005 A 
ATOM     22  C   UNL     1       1.230   0.011   1.477  1.00  0.00     0.018 A 
ATOM     23  C   UNL     1      -0.011   1.937  -0.154  1.00  0.00     0.009 A 
ATOM     24  C   UNL     1       0.968   1.304   1.968  1.00  0.00     0.020 A 
ATOM     25  C   UNL     1       0.347   2.274   1.161  1.00  0.00    -0.018 A 
BRANCH  22  26
ATOM     26  C   UNL     1       1.917  -0.980   2.334  1.00  0.00     0.260 C 
ATOM     27  O   UNL     1       2.201  -0.717   3.533  1.00  0.00    -0.298 OA
ENDBRANCH  22  26
BRANCH  25  28
ATOM     28  C   UNL     1       0.078   3.636   1.689  1.00  0.00    -0.018 A 
ATOM     29  C   UNL     1      -1.138   4.283   1.406  1.00  0.00     0.009 A 
ATOM     30  C   UNL     1       1.032   4.298   2.483  1.00  0.00     0.009 A 
ATOM     31  C   UNL     1      -1.392   5.565   1.903  1.00  0.00     0.004 A 
ATOM     32  C   UNL     1       0.776   5.579   2.978  1.00  0.00     0.004 A 
ATOM     33  C   UNL     1      -0.430   6.227   2.679  1.00  0.00    -0.051 A 
ATOM     34  C   UNL     1      -0.720   7.586   3.244  1.00  0.00     0.044 C 
ENDBRANCH  25  28
ENDBRANCH  10  20
ENDBRANCH   7  10
ENDBRANCH   1   7
TORSDOF 10


