REMARK SMILES O=C1NCc2[nH+]cc(-c3ccc4[nH]ccc4c3)cc21
REMARK SMILES IDX 1 1 2 2 3 3 4 4 5 5 6 6 7 7 8 8 18 9 19 10 9 13 10 14 17 15
REMARK SMILES IDX 11 16 16 17 12 18 15 19 13 20 14 21
REMARK H PARENT 3 11 6 12 13 22
ROOT
ATOM      1  O   UNL     1       4.948  -0.604  -0.987  1.00  0.00    -0.269 OA
ATOM      2  C   UNL     1       4.362  -1.230  -0.065  1.00  0.00     0.258 C 
ATOM      3  N   UNL     1       4.968  -2.250   0.720  1.00  0.00    -0.342 N 
ATOM      4  C   UNL     1       3.982  -2.743   1.687  1.00  0.00     0.225 C 
ATOM      5  C   UNL     1       2.767  -1.916   1.383  1.00  0.00     0.211 A 
ATOM      6  N   UNL     1       1.558  -1.979   1.996  1.00  0.00    -0.212 N 
ATOM      7  C   UNL     1       0.547  -1.152   1.592  1.00  0.00     0.315 A 
ATOM      8  C   UNL     1       0.746  -0.224   0.535  1.00  0.00     0.046 A 
ATOM      9  C   UNL     1       2.009  -0.171  -0.092  1.00  0.00     0.035 A 
ATOM     10  C   UNL     1       3.000  -1.034   0.359  1.00  0.00     0.109 A 
ATOM     11  H   UNL     1       5.950  -2.590   0.624  1.00  0.00     0.164 HD
ATOM     12  H   UNL     1       1.399  -2.655   2.776  1.00  0.00     0.453 HD
ENDROOT
BRANCH   8  13
ATOM     13  C   UNL     1      -0.354   0.672   0.097  1.00  0.00    -0.012 A 
ATOM     14  C   UNL     1      -0.083   2.022  -0.256  1.00  0.00     0.011 A 
ATOM     15  C   UNL     1      -1.683   0.190   0.026  1.00  0.00     0.019 A 
ATOM     16  C   UNL     1      -1.117   2.880  -0.673  1.00  0.00     0.027 A 
ATOM     17  C   UNL     1      -2.680   1.067  -0.392  1.00  0.00    -0.000 A 
ATOM     18  C   UNL     1      -2.409   2.365  -0.730  1.00  0.00     0.045 A 
ATOM     19  C   UNL     1      -4.034   0.873  -0.557  1.00  0.00     0.028 A 
ATOM     20  N   UNL     1      -3.529   3.006  -1.100  1.00  0.00    -0.361 N 
ATOM     21  C   UNL     1      -4.526   2.098  -0.997  1.00  0.00     0.083 A 
ATOM     22  H   UNL     1      -3.616   4.001  -1.407  1.00  0.00     0.166 HD
ENDBRANCH   8  13
TORSDOF 1


