REMARK SMILES Cc1cc(N)c([N-]C(=O)OC(C)(C)C)c(-n2nc3ccccc3[nH+]2)c1
REMARK SMILES IDX 7 1 6 2 2 3 3 4 25 5 4 6 15 7 1 8 5 9 16 12 17 13 24 14
REMARK SMILES IDX 18 15 23 16 19 17 22 18 20 19 21 20 8 22 9 23 10 24 11 25
REMARK SMILES IDX 12 26 13 27 14 28
REMARK H PARENT 5 10 5 11 24 21
ROOT
ATOM      1  N   UNL     1       0.207  -1.607  -1.712  1.00  0.00    -0.587 NA
ENDROOT
BRANCH   1   2
ATOM      2  C   UNL     1      -1.022  -0.905  -1.952  1.00  0.00    -0.076 A 
ATOM      3  C   UNL     1      -3.361   0.575  -2.478  1.00  0.00    -0.047 A 
ATOM      4  C   UNL     1      -2.503   0.216  -3.523  1.00  0.00     0.027 A 
ATOM      5  C   UNL     1      -3.051   0.190  -1.168  1.00  0.00     0.036 A 
ATOM      6  C   UNL     1      -1.344  -0.529  -3.273  1.00  0.00     0.019 A 
ATOM      7  C   UNL     1      -1.903  -0.570  -0.895  1.00  0.00     0.116 A 
ATOM      8  C   UNL     1      -4.577   1.410  -2.751  1.00  0.00     0.044 C 
BRANCH   6   9
ATOM      9  N   UNL     1      -0.482  -0.872  -4.366  1.00  0.00    -0.400 N 
ATOM     10  H   UNL     1      -0.718  -0.580  -5.341  1.00  0.00     0.156 HD
ATOM     11  H   UNL     1       0.393  -1.422  -4.224  1.00  0.00     0.156 HD
ENDBRANCH   6   9
BRANCH   7  12
ATOM     12  N   UNL     1      -1.682  -1.042   0.444  1.00  0.00    -0.014 N 
ATOM     13  N   UNL     1      -1.238  -2.266   0.735  1.00  0.00     0.053 NA
ATOM     14  N   UNL     1      -1.919  -0.321   1.538  1.00  0.00    -0.161 N 
ATOM     15  C   UNL     1      -1.185  -2.305   2.078  1.00  0.00     0.249 A 
ATOM     16  C   UNL     1      -1.603  -1.108   2.573  1.00  0.00     0.198 A 
ATOM     17  C   UNL     1      -0.754  -3.338   2.905  1.00  0.00     0.064 A 
ATOM     18  C   UNL     1      -1.626  -0.831   3.936  1.00  0.00     0.058 A 
ATOM     19  C   UNL     1      -0.767  -3.101   4.294  1.00  0.00     0.005 A 
ATOM     20  C   UNL     1      -1.200  -1.853   4.807  1.00  0.00     0.005 A 
ATOM     21  H   UNL     1      -2.252   0.669   1.566  1.00  0.00     0.340 HD
ENDBRANCH   7  12
ENDBRANCH   1   2
BRANCH   1  22
ATOM     22  C   UNL     1       1.184  -1.216  -0.744  1.00  0.00     0.233 C 
ATOM     23  O   UNL     1       2.205  -1.935  -0.586  1.00  0.00    -0.274 OA
BRANCH  22  24
ATOM     24  O   UNL     1       1.008  -0.033  -0.008  1.00  0.00    -0.472 OA
BRANCH  24  25
ATOM     25  C   UNL     1       1.934   0.530   0.933  1.00  0.00     0.102 C 
ATOM     26  C   UNL     1       2.196  -0.440   2.101  1.00  0.00     0.056 C 
ATOM     27  C   UNL     1       3.254   0.899   0.230  1.00  0.00     0.056 C 
ATOM     28  C   UNL     1       1.291   1.810   1.489  1.00  0.00     0.056 C 
ENDBRANCH  24  25
ENDBRANCH  22  24
ENDBRANCH   1  22
TORSDOF 6


