MODEL 1
REMARK VINA RESULT:      -9.7      0.000      0.000
REMARK SMILES Cc1cc(-c2cccc3ncoc23)cc(O)c1F
REMARK SMILES IDX 1 1 2 2 3 3 4 4 14 5 15 6 17 7 18 8 5 9 6 10 13 11 7 12
REMARK SMILES IDX 12 13 9 14 8 15 11 16 10 17 16 18
REMARK H PARENT 16 19
ROOT
ATOM      1  C   UNL     1      43.375 131.761  13.915  1.00  0.00     0.048 C 
ATOM      2  C   UNL     1      44.379 131.262  14.914  1.00  0.00    -0.011 A 
ATOM      3  C   UNL     1      44.141 131.410  16.290  1.00  0.00     0.015 A 
ATOM      4  C   UNL     1      45.089 130.975  17.232  1.00  0.00    -0.010 A 
ATOM      5  C   UNL     1      46.284 130.390  16.779  1.00  0.00     0.058 A 
ATOM      6  C   UNL     1      46.535 130.251  15.411  1.00  0.00     0.152 A 
ATOM      7  C   UNL     1      45.586 130.692  14.477  1.00  0.00     0.167 A 
ATOM      8  F   UNL     1      45.837 130.567  13.149  1.00  0.00    -0.203 F 
ENDROOT
BRANCH   4   9
ATOM      9  C   UNL     1      44.826 131.128  18.685  1.00  0.00     0.027 A 
ATOM     10  C   UNL     1      45.754 130.675  19.654  1.00  0.00     0.013 A 
ATOM     11  C   UNL     1      43.651 131.718  19.168  1.00  0.00     0.162 A 
ATOM     12  C   UNL     1      45.490 130.829  21.034  1.00  0.00     0.003 A 
ATOM     13  O   UNL     1      42.631 132.194  18.502  1.00  0.00    -0.443 OA
ATOM     14  C   UNL     1      43.400 131.864  20.499  1.00  0.00     0.110 A 
ATOM     15  C   UNL     1      44.297 131.431  21.470  1.00  0.00     0.032 A 
ATOM     16  C   UNL     1      41.774 132.629  19.410  1.00  0.00     0.309 A 
ATOM     17  N   UNL     1      42.203 132.446  20.685  1.00  0.00    -0.217 NA
ENDBRANCH   4   9
BRANCH   6  18
ATOM     18  O   UNL     1      47.733 129.671  14.996  1.00  0.00    -0.505 OA
ATOM     19  H   UNL     1      48.605 130.187  14.992  1.00  0.00     0.293 HD
ENDBRANCH   6  18
TORSDOF 2
ENDMDL
MODEL 2
REMARK VINA RESULT:      -9.6      1.282      2.021
REMARK SMILES Cc1cc(-c2cccc3ncoc23)cc(O)c1F
REMARK SMILES IDX 1 1 2 2 3 3 4 4 14 5 15 6 17 7 18 8 5 9 6 10 13 11 7 12
REMARK SMILES IDX 12 13 9 14 8 15 11 16 10 17 16 18
REMARK H PARENT 16 19
ROOT
ATOM      1  C   UNL     1      47.555 129.715  14.602  1.00  0.00     0.048 C 
ATOM      2  C   UNL     1      46.338 130.376  15.184  1.00  0.00    -0.011 A 
ATOM      3  C   UNL     1      46.165 130.437  16.576  1.00  0.00     0.015 A 
ATOM      4  C   UNL     1      45.015 131.025  17.130  1.00  0.00    -0.010 A 
ATOM      5  C   UNL     1      44.035 131.550  16.270  1.00  0.00     0.058 A 
ATOM      6  C   UNL     1      44.193 131.481  14.883  1.00  0.00     0.152 A 
ATOM      7  C   UNL     1      45.341 130.889  14.338  1.00  0.00     0.167 A 
ATOM      8  F   UNL     1      45.487 130.812  12.990  1.00  0.00    -0.203 F 
ENDROOT
BRANCH   4   9
ATOM      9  C   UNL     1      44.843 131.094  18.602  1.00  0.00     0.027 A 
ATOM     10  C   UNL     1      45.807 130.548  19.484  1.00  0.00     0.013 A 
ATOM     11  C   UNL     1      43.722 131.695  19.190  1.00  0.00     0.162 A 
ATOM     12  C   UNL     1      45.630 130.622  20.884  1.00  0.00     0.003 A 
ATOM     13  O   UNL     1      42.686 132.249  18.618  1.00  0.00    -0.443 OA
ATOM     14  C   UNL     1      43.555 131.765  20.541  1.00  0.00     0.110 A 
ATOM     15  C   UNL     1      44.489 131.239  21.428  1.00  0.00     0.032 A 
ATOM     16  C   UNL     1      41.900 132.656  19.600  1.00  0.00     0.309 A 
ATOM     17  N   UNL     1      42.395 132.377  20.834  1.00  0.00    -0.217 NA
ENDBRANCH   4   9
BRANCH   6  18
ATOM     18  O   UNL     1      43.198 132.008  14.059  1.00  0.00    -0.505 OA
ATOM     19  H   UNL     1      42.270 131.604  14.015  1.00  0.00     0.293 HD
ENDBRANCH   6  18
TORSDOF 2
ENDMDL
MODEL 3
REMARK VINA RESULT:      -8.5      1.343      2.233
REMARK SMILES Cc1cc(-c2cccc3ncoc23)cc(O)c1F
REMARK SMILES IDX 1 1 2 2 3 3 4 4 14 5 15 6 17 7 18 8 5 9 6 10 13 11 7 12
REMARK SMILES IDX 12 13 9 14 8 15 11 16 10 17 16 18
REMARK H PARENT 16 19
ROOT
ATOM      1  C   UNL     1      43.493 131.603  13.741  1.00  0.00     0.048 C 
ATOM      2  C   UNL     1      44.177 131.261  15.034  1.00  0.00    -0.011 A 
ATOM      3  C   UNL     1      43.587 131.611  16.259  1.00  0.00     0.015 A 
ATOM      4  C   UNL     1      44.234 131.324  17.474  1.00  0.00    -0.010 A 
ATOM      5  C   UNL     1      45.484 130.683  17.447  1.00  0.00     0.058 A 
ATOM      6  C   UNL     1      46.085 130.344  16.232  1.00  0.00     0.152 A 
ATOM      7  C   UNL     1      45.435 130.638  15.024  1.00  0.00     0.167 A 
ATOM      8  F   UNL     1      46.026 130.318  13.844  1.00  0.00    -0.203 F 
ENDROOT
BRANCH   4   9
ATOM      9  C   UNL     1      43.600 131.689  18.765  1.00  0.00     0.027 A 
ATOM     10  C   UNL     1      42.420 132.470  18.814  1.00  0.00     0.013 A 
ATOM     11  C   UNL     1      44.137 131.284  19.995  1.00  0.00     0.162 A 
ATOM     12  C   UNL     1      41.828 132.808  20.052  1.00  0.00     0.003 A 
ATOM     13  O   UNL     1      45.215 130.586  20.236  1.00  0.00    -0.443 OA
ATOM     14  C   UNL     1      43.563 131.612  21.186  1.00  0.00     0.110 A 
ATOM     15  C   UNL     1      42.402 132.376  21.260  1.00  0.00     0.032 A 
ATOM     16  C   UNL     1      45.297 130.483  21.552  1.00  0.00     0.309 A 
ATOM     17  N   UNL     1      44.284 131.111  22.203  1.00  0.00    -0.217 NA
ENDBRANCH   4   9
BRANCH   6  18
ATOM     18  O   UNL     1      47.329 129.713  16.241  1.00  0.00    -0.505 OA
ATOM     19  H   UNL     1      47.769 129.384  15.390  1.00  0.00     0.293 HD
ENDBRANCH   6  18
TORSDOF 2
ENDMDL
MODEL 4
REMARK VINA RESULT:      -8.0      1.778      2.972
REMARK SMILES Cc1cc(-c2cccc3ncoc23)cc(O)c1F
REMARK SMILES IDX 1 1 2 2 3 3 4 4 14 5 15 6 17 7 18 8 5 9 6 10 13 11 7 12
REMARK SMILES IDX 12 13 9 14 8 15 11 16 10 17 16 18
REMARK H PARENT 16 19
ROOT
ATOM      1  C   UNL     1      47.272 130.037  15.302  1.00  0.00     0.048 C 
ATOM      2  C   UNL     1      45.918 130.658  15.501  1.00  0.00    -0.011 A 
ATOM      3  C   UNL     1      45.429 130.885  16.797  1.00  0.00     0.015 A 
ATOM      4  C   UNL     1      44.151 131.436  16.994  1.00  0.00    -0.010 A 
ATOM      5  C   UNL     1      43.365 131.756  15.874  1.00  0.00     0.058 A 
ATOM      6  C   UNL     1      43.839 131.521  14.579  1.00  0.00     0.152 A 
ATOM      7  C   UNL     1      45.114 130.966  14.392  1.00  0.00     0.167 A 
ATOM      8  F   UNL     1      45.568 130.727  13.135  1.00  0.00    -0.203 F 
ENDROOT
BRANCH   4   9
ATOM      9  C   UNL     1      43.644 131.682  18.367  1.00  0.00     0.027 A 
ATOM     10  C   UNL     1      42.381 132.282  18.590  1.00  0.00     0.013 A 
ATOM     11  C   UNL     1      44.387 131.338  19.504  1.00  0.00     0.162 A 
ATOM     12  C   UNL     1      41.912 132.509  19.904  1.00  0.00     0.003 A 
ATOM     13  O   UNL     1      45.575 130.799  19.583  1.00  0.00    -0.443 OA
ATOM     14  C   UNL     1      43.931 131.558  20.769  1.00  0.00     0.110 A 
ATOM     15  C   UNL     1      42.692 132.143  21.015  1.00  0.00     0.032 A 
ATOM     16  C   UNL     1      45.840 130.686  20.874  1.00  0.00     0.309 A 
ATOM     17  N   UNL     1      44.841 131.148  21.669  1.00  0.00    -0.217 NA
ENDBRANCH   4   9
BRANCH   6  18
ATOM     18  O   UNL     1      43.032 131.846  13.490  1.00  0.00    -0.505 OA
ATOM     19  H   UNL     1      43.329 132.504  12.780  1.00  0.00     0.293 HD
ENDBRANCH   6  18
TORSDOF 2
ENDMDL
MODEL 5
REMARK VINA RESULT:      -7.8      3.172      5.857
REMARK SMILES Cc1cc(-c2cccc3ncoc23)cc(O)c1F
REMARK SMILES IDX 1 1 2 2 3 3 4 4 14 5 15 6 17 7 18 8 5 9 6 10 13 11 7 12
REMARK SMILES IDX 12 13 9 14 8 15 11 16 10 17 16 18
REMARK H PARENT 16 19
ROOT
ATOM      1  C   UNL     1      44.974 131.406  21.936  1.00  0.00     0.048 C 
ATOM      2  C   UNL     1      44.298 131.540  20.602  1.00  0.00    -0.011 A 
ATOM      3  C   UNL     1      44.961 131.142  19.431  1.00  0.00     0.015 A 
ATOM      4  C   UNL     1      44.349 131.292  18.174  1.00  0.00    -0.010 A 
ATOM      5  C   UNL     1      43.061 131.849  18.104  1.00  0.00     0.058 A 
ATOM      6  C   UNL     1      42.398 132.261  19.264  1.00  0.00     0.152 A 
ATOM      7  C   UNL     1      43.019 132.112  20.514  1.00  0.00     0.167 A 
ATOM      8  F   UNL     1      42.378 132.523  21.638  1.00  0.00    -0.203 F 
ENDROOT
BRANCH   4   9
ATOM      9  C   UNL     1      45.053 130.861  16.941  1.00  0.00     0.027 A 
ATOM     10  C   UNL     1      46.284 130.163  16.999  1.00  0.00     0.013 A 
ATOM     11  C   UNL     1      44.540 131.126  15.664  1.00  0.00     0.162 A 
ATOM     12  C   UNL     1      46.942 129.758  15.816  1.00  0.00     0.003 A 
ATOM     13  O   UNL     1      43.451 131.763  15.327  1.00  0.00    -0.443 OA
ATOM     14  C   UNL     1      45.178 130.734  14.525  1.00  0.00     0.110 A 
ATOM     15  C   UNL     1      46.386 130.044  14.556  1.00  0.00     0.032 A 
ATOM     16  C   UNL     1      43.418 131.757  14.005  1.00  0.00     0.309 A 
ATOM     17  N   UNL     1      44.480 131.124  13.445  1.00  0.00    -0.217 NA
ENDBRANCH   4   9
BRANCH   6  18
ATOM     18  O   UNL     1      41.123 132.815  19.158  1.00  0.00    -0.505 OA
ATOM     19  H   UNL     1      40.487 132.557  18.413  1.00  0.00     0.293 HD
ENDBRANCH   6  18
TORSDOF 2
ENDMDL
MODEL 6
REMARK VINA RESULT:      -7.7      3.183      5.505
REMARK SMILES Cc1cc(-c2cccc3ncoc23)cc(O)c1F
REMARK SMILES IDX 1 1 2 2 3 3 4 4 14 5 15 6 17 7 18 8 5 9 6 10 13 11 7 12
REMARK SMILES IDX 12 13 9 14 8 15 11 16 10 17 16 18
REMARK H PARENT 16 19
ROOT
ATOM      1  C   UNL     1      41.692 132.970  19.856  1.00  0.00     0.048 C 
ATOM      2  C   UNL     1      42.968 132.184  19.748  1.00  0.00    -0.011 A 
ATOM      3  C   UNL     1      43.494 131.860  18.488  1.00  0.00     0.015 A 
ATOM      4  C   UNL     1      44.670 131.098  18.376  1.00  0.00    -0.010 A 
ATOM      5  C   UNL     1      45.313 130.660  19.546  1.00  0.00     0.058 A 
ATOM      6  C   UNL     1      44.789 130.967  20.806  1.00  0.00     0.152 A 
ATOM      7  C   UNL     1      43.613 131.724  20.907  1.00  0.00     0.167 A 
ATOM      8  F   UNL     1      43.098 132.010  22.131  1.00  0.00    -0.203 F 
ENDROOT
BRANCH   4   9
ATOM      9  C   UNL     1      45.225 130.766  17.040  1.00  0.00     0.027 A 
ATOM     10  C   UNL     1      46.461 130.090  16.902  1.00  0.00     0.013 A 
ATOM     11  C   UNL     1      44.559 131.109  15.855  1.00  0.00     0.162 A 
ATOM     12  C   UNL     1      46.976 129.781  15.622  1.00  0.00     0.003 A 
ATOM     13  O   UNL     1      43.430 131.748  15.697  1.00  0.00    -0.443 OA
ATOM     14  C   UNL     1      45.059 130.809  14.624  1.00  0.00     0.110 A 
ATOM     15  C   UNL     1      46.269 130.142  14.462  1.00  0.00     0.032 A 
ATOM     16  C   UNL     1      43.238 131.832  14.391  1.00  0.00     0.309 A 
ATOM     17  N   UNL     1      44.233 131.260  13.664  1.00  0.00    -0.217 NA
ENDBRANCH   4   9
BRANCH   6  18
ATOM     18  O   UNL     1      45.450 130.512  21.946  1.00  0.00    -0.505 OA
ATOM     19  H   UNL     1      46.223 129.859  21.892  1.00  0.00     0.293 HD
ENDBRANCH   6  18
TORSDOF 2
ENDMDL
MODEL 7
REMARK VINA RESULT:      -7.5      1.261      1.341
REMARK SMILES Cc1cc(-c2cccc3ncoc23)cc(O)c1F
REMARK SMILES IDX 1 1 2 2 3 3 4 4 14 5 15 6 17 7 18 8 5 9 6 10 13 11 7 12
REMARK SMILES IDX 12 13 9 14 8 15 11 16 10 17 16 18
REMARK H PARENT 16 19
ROOT
ATOM      1  C   UNL     1      46.602 132.743  14.559  1.00  0.00     0.048 C 
ATOM      2  C   UNL     1      46.085 131.630  15.425  1.00  0.00    -0.011 A 
ATOM      3  C   UNL     1      45.707 131.886  16.753  1.00  0.00     0.015 A 
ATOM      4  C   UNL     1      45.251 130.846  17.581  1.00  0.00    -0.010 A 
ATOM      5  C   UNL     1      45.182 129.541  17.064  1.00  0.00     0.058 A 
ATOM      6  C   UNL     1      45.569 129.275  15.747  1.00  0.00     0.152 A 
ATOM      7  C   UNL     1      46.027 130.318  14.929  1.00  0.00     0.167 A 
ATOM      8  F   UNL     1      46.414 130.056  13.654  1.00  0.00    -0.203 F 
ENDROOT
BRANCH   4   9
ATOM      9  C   UNL     1      44.845 131.126  18.981  1.00  0.00     0.027 A 
ATOM     10  C   UNL     1      45.674 130.777  20.074  1.00  0.00     0.013 A 
ATOM     11  C   UNL     1      43.623 131.741  19.289  1.00  0.00     0.162 A 
ATOM     12  C   UNL     1      45.273 131.051  21.401  1.00  0.00     0.003 A 
ATOM     13  O   UNL     1      42.673 132.139  18.485  1.00  0.00    -0.443 OA
ATOM     14  C   UNL     1      43.241 132.003  20.570  1.00  0.00     0.110 A 
ATOM     15  C   UNL     1      44.039 131.674  21.661  1.00  0.00     0.032 A 
ATOM     16  C   UNL     1      41.727 132.643  19.260  1.00  0.00     0.309 A 
ATOM     17  N   UNL     1      42.028 132.583  20.583  1.00  0.00    -0.217 NA
ENDBRANCH   4   9
BRANCH   6  18
ATOM     18  O   UNL     1      45.492 127.968  15.267  1.00  0.00    -0.505 OA
ATOM     19  H   UNL     1      45.439 127.171  15.891  1.00  0.00     0.293 HD
ENDBRANCH   6  18
TORSDOF 2
ENDMDL
MODEL 8
REMARK VINA RESULT:      -7.5      1.740      2.582
REMARK SMILES Cc1cc(-c2cccc3ncoc23)cc(O)c1F
REMARK SMILES IDX 1 1 2 2 3 3 4 4 14 5 15 6 17 7 18 8 5 9 6 10 13 11 7 12
REMARK SMILES IDX 12 13 9 14 8 15 11 16 10 17 16 18
REMARK H PARENT 16 19
ROOT
ATOM      1  C   UNL     1      47.216 132.301  14.174  1.00  0.00     0.048 C 
ATOM      2  C   UNL     1      46.346 131.366  14.965  1.00  0.00    -0.011 A 
ATOM      3  C   UNL     1      45.604 131.845  16.056  1.00  0.00     0.015 A 
ATOM      4  C   UNL     1      44.812 130.972  16.822  1.00  0.00    -0.010 A 
ATOM      5  C   UNL     1      44.774 129.609  16.483  1.00  0.00     0.058 A 
ATOM      6  C   UNL     1      45.522 129.121  15.407  1.00  0.00     0.152 A 
ATOM      7  C   UNL     1      46.313 129.998  14.651  1.00  0.00     0.167 A 
ATOM      8  F   UNL     1      47.047 129.520  13.613  1.00  0.00    -0.203 F 
ENDROOT
BRANCH   4   9
ATOM      9  C   UNL     1      44.022 131.487  17.968  1.00  0.00     0.027 A 
ATOM     10  C   UNL     1      42.712 131.995  17.793  1.00  0.00     0.013 A 
ATOM     11  C   UNL     1      44.533 131.502  19.273  1.00  0.00     0.162 A 
ATOM     12  C   UNL     1      41.972 132.481  18.895  1.00  0.00     0.003 A 
ATOM     13  O   UNL     1      45.705 131.119  19.706  1.00  0.00    -0.443 OA
ATOM     14  C   UNL     1      43.816 131.971  20.333  1.00  0.00     0.110 A 
ATOM     15  C   UNL     1      42.526 132.471  20.187  1.00  0.00     0.032 A 
ATOM     16  C   UNL     1      45.705 131.344  21.009  1.00  0.00     0.309 A 
ATOM     17  N   UNL     1      44.542 131.882  21.460  1.00  0.00    -0.217 NA
ENDBRANCH   4   9
BRANCH   6  18
ATOM     18  O   UNL     1      45.466 127.762  15.102  1.00  0.00    -0.505 OA
ATOM     19  H   UNL     1      44.879 127.119  15.622  1.00  0.00     0.293 HD
ENDBRANCH   6  18
TORSDOF 2
ENDMDL
MODEL 9
REMARK VINA RESULT:      -7.4      3.245      5.902
REMARK SMILES Cc1cc(-c2cccc3ncoc23)cc(O)c1F
REMARK SMILES IDX 1 1 2 2 3 3 4 4 14 5 15 6 17 7 18 8 5 9 6 10 13 11 7 12
REMARK SMILES IDX 12 13 9 14 8 15 11 16 10 17 16 18
REMARK H PARENT 16 19
ROOT
ATOM      1  C   UNL     1      41.603 132.811  20.383  1.00  0.00     0.048 C 
ATOM      2  C   UNL     1      42.875 132.212  19.853  1.00  0.00    -0.011 A 
ATOM      3  C   UNL     1      43.055 132.046  18.471  1.00  0.00     0.015 A 
ATOM      4  C   UNL     1      44.229 131.458  17.967  1.00  0.00    -0.010 A 
ATOM      5  C   UNL     1      45.221 131.034  18.868  1.00  0.00     0.058 A 
ATOM      6  C   UNL     1      45.044 131.183  20.247  1.00  0.00     0.152 A 
ATOM      7  C   UNL     1      43.868 131.767  20.741  1.00  0.00     0.167 A 
ATOM      8  F   UNL     1      43.692 131.901  22.080  1.00  0.00    -0.203 F 
ENDROOT
BRANCH   4   9
ATOM      9  C   UNL     1      44.416 131.293  16.505  1.00  0.00     0.027 A 
ATOM     10  C   UNL     1      43.475 131.803  15.578  1.00  0.00     0.013 A 
ATOM     11  C   UNL     1      45.526 130.623  15.971  1.00  0.00     0.162 A 
ATOM     12  C   UNL     1      43.669 131.639  14.187  1.00  0.00     0.003 A 
ATOM     13  O   UNL     1      46.519 130.044  16.592  1.00  0.00    -0.443 OA
ATOM     14  C   UNL     1      45.709 130.467  14.629  1.00  0.00     0.110 A 
ATOM     15  C   UNL     1      44.801 130.962  13.699  1.00  0.00     0.032 A 
ATOM     16  C   UNL     1      47.301 129.547  15.648  1.00  0.00     0.309 A 
ATOM     17  N   UNL     1      46.840 129.782  14.392  1.00  0.00    -0.217 NA
ENDBRANCH   4   9
BRANCH   6  18
ATOM     18  O   UNL     1      46.046 130.747  21.112  1.00  0.00    -0.505 OA
ATOM     19  H   UNL     1      47.024 130.954  20.946  1.00  0.00     0.293 HD
ENDBRANCH   6  18
TORSDOF 2
ENDMDL


