REMARK SMILES O=C(c1cscn1)N1C[C@@H]2CCCC[C@@H]2N[C@@H]1c1ccc2[nH]ccc2c1
REMARK SMILES IDX 8 1 9 2 10 3 11 4 12 5 13 6 14 7 15 8 16 9 17 10 2 12 1 13
REMARK SMILES IDX 3 14 4 15 7 16 5 17 6 18 18 19 19 20 26 21 20 22 25 23 21 24
REMARK SMILES IDX 24 25 22 26 23 27
REMARK H PARENT 16 11 22 28
ROOT
ATOM      1  N   UNL     1       0.754   0.607   0.365  1.00  0.00    -0.317 N 
ATOM      2  C   UNL     1       1.167   1.473   1.477  1.00  0.00     0.127 C 
ATOM      3  C   UNL     1       0.288   2.727   1.510  1.00  0.00     0.026 C 
ATOM      4  C   UNL     1       0.731   3.745   2.583  1.00  0.00     0.007 C 
ATOM      5  C   UNL     1       0.312   3.337   3.997  1.00  0.00     0.000 C 
ATOM      6  C   UNL     1      -1.196   3.103   4.060  1.00  0.00     0.002 C 
ATOM      7  C   UNL     1      -1.609   2.004   3.081  1.00  0.00     0.019 C 
ATOM      8  C   UNL     1      -1.211   2.332   1.629  1.00  0.00     0.060 C 
ATOM      9  N   UNL     1      -1.570   1.161   0.797  1.00  0.00    -0.290 NA
ATOM     10  C   UNL     1      -0.587   0.777  -0.232  1.00  0.00     0.185 C 
ATOM     11  H   UNL     1      -2.487   1.355   0.328  1.00  0.00     0.125 HD
ENDROOT
BRANCH   1  12
ATOM     12  C   UNL     1       1.779  -0.106  -0.353  1.00  0.00     0.274 C 
ATOM     13  O   UNL     1       1.917   0.083  -1.592  1.00  0.00    -0.267 OA
BRANCH  12  14
ATOM     14  C   UNL     1       2.667  -1.061   0.332  1.00  0.00     0.139 A 
ATOM     15  C   UNL     1       2.395  -1.605   1.585  1.00  0.00     0.100 A 
ATOM     16  N   UNL     1       3.810  -1.514  -0.254  1.00  0.00    -0.240 NA
ATOM     17  S   UNL     1       3.639  -2.670   1.959  1.00  0.00    -0.130 S 
ATOM     18  C   UNL     1       4.466  -2.404   0.522  1.00  0.00     0.176 A 
ENDBRANCH  12  14
ENDBRANCH   1  12
BRANCH  10  19
ATOM     19  C   UNL     1      -1.050  -0.515  -0.873  1.00  0.00    -0.010 A 
ATOM     20  C   UNL     1      -1.174  -1.693  -0.087  1.00  0.00     0.009 A 
ATOM     21  C   UNL     1      -1.352  -0.560  -2.252  1.00  0.00     0.017 A 
ATOM     22  C   UNL     1      -1.588  -2.904  -0.668  1.00  0.00     0.027 A 
ATOM     23  C   UNL     1      -1.760  -1.777  -2.793  1.00  0.00    -0.000 A 
ATOM     24  C   UNL     1      -1.874  -2.908  -2.031  1.00  0.00     0.045 A 
ATOM     25  C   UNL     1      -2.110  -2.112  -4.083  1.00  0.00     0.028 A 
ATOM     26  N   UNL     1      -2.280  -3.948  -2.777  1.00  0.00    -0.361 N 
ATOM     27  C   UNL     1      -2.427  -3.466  -4.033  1.00  0.00     0.083 A 
ATOM     28  H   UNL     1      -2.450  -4.927  -2.458  1.00  0.00     0.166 HD
ENDBRANCH  10  19
TORSDOF 3


