MODEL 1
REMARK VINA RESULT:     -10.0      0.000      0.000
REMARK SMILES CC(=O)c1ccc(-c2nccc(C)c2F)cc1F
REMARK SMILES IDX 4 1 5 2 6 3 7 4 16 5 17 6 18 7 2 8 1 9 3 10 8 11 9 12 14 13
REMARK SMILES IDX 10 14 12 15 11 16 15 17 13 18
REMARK H PARENT
ROOT
ATOM      1  C   UNL     1      46.645 130.691  14.658  1.00  0.00     0.053 A 
ATOM      2  C   UNL     1      46.403 132.006  15.096  1.00  0.00     0.015 A 
ATOM      3  C   UNL     1      45.625 132.252  16.229  1.00  0.00     0.011 A 
ATOM      4  C   UNL     1      45.074 131.190  16.960  1.00  0.00     0.006 A 
ATOM      5  C   UNL     1      45.289 129.876  16.514  1.00  0.00     0.050 A 
ATOM      6  C   UNL     1      46.066 129.623  15.378  1.00  0.00     0.134 A 
ATOM      7  F   UNL     1      46.209 128.336  14.975  1.00  0.00    -0.206 F 
ENDROOT
BRANCH   1   8
ATOM      8  C   UNL     1      47.487 130.473  13.449  1.00  0.00     0.162 C 
ATOM      9  C   UNL     1      48.562 129.429  13.394  1.00  0.00     0.093 C 
ATOM     10  O   UNL     1      47.295 131.182  12.425  1.00  0.00    -0.294 OA
ENDBRANCH   1   8
BRANCH   4  11
ATOM     11  C   UNL     1      44.238 131.470  18.151  1.00  0.00     0.106 A 
ATOM     12  N   UNL     1      42.960 131.908  17.970  1.00  0.00    -0.253 NA
ATOM     13  C   UNL     1      44.736 131.321  19.461  1.00  0.00     0.152 A 
ATOM     14  C   UNL     1      42.136 132.190  19.012  1.00  0.00     0.112 A 
ATOM     15  C   UNL     1      43.896 131.591  20.554  1.00  0.00    -0.012 A 
ATOM     16  C   UNL     1      42.588 132.037  20.322  1.00  0.00     0.026 A 
ATOM     17  F   UNL     1      46.029 130.969  19.677  1.00  0.00    -0.204 F 
ATOM     18  C   UNL     1      44.416 131.468  21.957  1.00  0.00     0.047 C 
ENDBRANCH   4  11
TORSDOF 2
ENDMDL
MODEL 2
REMARK VINA RESULT:      -9.4      1.332      1.783
REMARK SMILES CC(=O)c1ccc(-c2nccc(C)c2F)cc1F
REMARK SMILES IDX 4 1 5 2 6 3 7 4 16 5 17 6 18 7 2 8 1 9 3 10 8 11 9 12 14 13
REMARK SMILES IDX 10 14 12 15 11 16 15 17 13 18
REMARK H PARENT
ROOT
ATOM      1  C   UNL     1      46.689 130.464  15.010  1.00  0.00     0.053 A 
ATOM      2  C   UNL     1      46.189 129.456  15.854  1.00  0.00     0.015 A 
ATOM      3  C   UNL     1      45.392 129.774  16.956  1.00  0.00     0.011 A 
ATOM      4  C   UNL     1      45.066 131.107  17.239  1.00  0.00     0.006 A 
ATOM      5  C   UNL     1      45.583 132.121  16.416  1.00  0.00     0.050 A 
ATOM      6  C   UNL     1      46.383 131.809  15.312  1.00  0.00     0.134 A 
ATOM      7  F   UNL     1      46.883 132.832  14.576  1.00  0.00    -0.206 F 
ENDROOT
BRANCH   1   8
ATOM      8  C   UNL     1      47.529 130.080  13.841  1.00  0.00     0.162 C 
ATOM      9  C   UNL     1      47.653 130.943  12.621  1.00  0.00     0.093 C 
ATOM     10  O   UNL     1      48.170 128.995  13.869  1.00  0.00    -0.294 OA
ENDBRANCH   1   8
BRANCH   4  11
ATOM     11  C   UNL     1      44.232 131.428  18.421  1.00  0.00     0.106 A 
ATOM     12  N   UNL     1      42.975 131.918  18.227  1.00  0.00    -0.253 NA
ATOM     13  C   UNL     1      44.711 131.264  19.736  1.00  0.00     0.152 A 
ATOM     14  C   UNL     1      42.155 132.239  19.261  1.00  0.00     0.112 A 
ATOM     15  C   UNL     1      43.874 131.574  20.821  1.00  0.00    -0.012 A 
ATOM     16  C   UNL     1      42.588 132.073  20.575  1.00  0.00     0.026 A 
ATOM     17  F   UNL     1      45.987 130.859  19.965  1.00  0.00    -0.204 F 
ATOM     18  C   UNL     1      44.377 131.436  22.229  1.00  0.00     0.047 C 
ENDBRANCH   4  11
TORSDOF 2
ENDMDL
MODEL 3
REMARK VINA RESULT:      -9.1      1.439      1.636
REMARK SMILES CC(=O)c1ccc(-c2nccc(C)c2F)cc1F
REMARK SMILES IDX 4 1 5 2 6 3 7 4 16 5 17 6 18 7 2 8 1 9 3 10 8 11 9 12 14 13
REMARK SMILES IDX 10 14 12 15 11 16 15 17 13 18
REMARK H PARENT
ROOT
ATOM      1  C   UNL     1      46.241 130.494  15.172  1.00  0.00     0.053 A 
ATOM      2  C   UNL     1      46.658 130.217  16.487  1.00  0.00     0.015 A 
ATOM      3  C   UNL     1      45.862 130.568  17.579  1.00  0.00     0.011 A 
ATOM      4  C   UNL     1      44.624 131.198  17.386  1.00  0.00     0.006 A 
ATOM      5  C   UNL     1      44.214 131.502  16.078  1.00  0.00     0.050 A 
ATOM      6  C   UNL     1      45.008 131.154  14.980  1.00  0.00     0.134 A 
ATOM      7  F   UNL     1      44.577 131.505  13.743  1.00  0.00    -0.206 F 
ENDROOT
BRANCH   1   8
ATOM      8  C   UNL     1      47.118 130.095  14.035  1.00  0.00     0.162 C 
ATOM      9  C   UNL     1      47.483 131.040  12.930  1.00  0.00     0.093 C 
ATOM     10  O   UNL     1      47.581 128.924  13.992  1.00  0.00    -0.294 OA
ENDBRANCH   1   8
BRANCH   4  11
ATOM     11  C   UNL     1      43.800 131.578  18.557  1.00  0.00     0.106 A 
ATOM     12  N   UNL     1      42.595 132.180  18.348  1.00  0.00    -0.253 NA
ATOM     13  C   UNL     1      44.238 131.358  19.879  1.00  0.00     0.152 A 
ATOM     14  C   UNL     1      41.787 132.560  19.371  1.00  0.00     0.112 A 
ATOM     15  C   UNL     1      43.412 131.728  20.952  1.00  0.00    -0.012 A 
ATOM     16  C   UNL     1      42.180 132.342  20.690  1.00  0.00     0.026 A 
ATOM     17  F   UNL     1      45.469 130.838  20.125  1.00  0.00    -0.204 F 
ATOM     18  C   UNL     1      43.873 131.530  22.367  1.00  0.00     0.047 C 
ENDBRANCH   4  11
TORSDOF 2
ENDMDL
MODEL 4
REMARK VINA RESULT:      -8.9      1.351      1.827
REMARK SMILES CC(=O)c1ccc(-c2nccc(C)c2F)cc1F
REMARK SMILES IDX 4 1 5 2 6 3 7 4 16 5 17 6 18 7 2 8 1 9 3 10 8 11 9 12 14 13
REMARK SMILES IDX 10 14 12 15 11 16 15 17 13 18
REMARK H PARENT
ROOT
ATOM      1  C   UNL     1      46.597 130.689  14.784  1.00  0.00     0.053 A 
ATOM      2  C   UNL     1      46.366 131.992  15.263  1.00  0.00     0.015 A 
ATOM      3  C   UNL     1      45.749 132.202  16.498  1.00  0.00     0.011 A 
ATOM      4  C   UNL     1      45.354 131.116  17.291  1.00  0.00     0.006 A 
ATOM      5  C   UNL     1      45.557 129.814  16.808  1.00  0.00     0.050 A 
ATOM      6  C   UNL     1      46.172 129.597  15.571  1.00  0.00     0.134 A 
ATOM      7  F   UNL     1      46.309 128.318  15.141  1.00  0.00    -0.206 F 
ENDROOT
BRANCH   1   8
ATOM      8  C   UNL     1      47.264 130.510  13.464  1.00  0.00     0.162 C 
ATOM      9  C   UNL     1      48.420 129.575  13.267  1.00  0.00     0.093 C 
ATOM     10  O   UNL     1      46.848 131.158  12.466  1.00  0.00    -0.294 OA
ENDBRANCH   1   8
BRANCH   4  11
ATOM     11  C   UNL     1      44.687 131.358  18.592  1.00  0.00     0.106 A 
ATOM     12  N   UNL     1      45.324 130.986  19.738  1.00  0.00    -0.253 NA
ATOM     13  C   UNL     1      43.405 131.938  18.675  1.00  0.00     0.152 A 
ATOM     14  C   UNL     1      44.774 131.171  20.966  1.00  0.00     0.112 A 
ATOM     15  C   UNL     1      42.824 132.153  19.935  1.00  0.00    -0.012 A 
ATOM     16  C   UNL     1      43.515 131.757  21.087  1.00  0.00     0.026 A 
ATOM     17  F   UNL     1      42.707 132.243  17.551  1.00  0.00    -0.204 F 
ATOM     18  C   UNL     1      41.446 132.741  20.043  1.00  0.00     0.047 C 
ENDBRANCH   4  11
TORSDOF 2
ENDMDL
MODEL 5
REMARK VINA RESULT:      -8.7      1.892      2.564
REMARK SMILES CC(=O)c1ccc(-c2nccc(C)c2F)cc1F
REMARK SMILES IDX 4 1 5 2 6 3 7 4 16 5 17 6 18 7 2 8 1 9 3 10 8 11 9 12 14 13
REMARK SMILES IDX 10 14 12 15 11 16 15 17 13 18
REMARK H PARENT
ROOT
ATOM      1  C   UNL     1      46.644 130.475  15.233  1.00  0.00     0.053 A 
ATOM      2  C   UNL     1      46.396 129.459  16.174  1.00  0.00     0.015 A 
ATOM      3  C   UNL     1      45.740 129.739  17.374  1.00  0.00     0.011 A 
ATOM      4  C   UNL     1      45.306 131.041  17.663  1.00  0.00     0.006 A 
ATOM      5  C   UNL     1      45.575 132.065  16.741  1.00  0.00     0.050 A 
ATOM      6  C   UNL     1      46.233 131.791  15.538  1.00  0.00     0.134 A 
ATOM      7  F   UNL     1      46.496 132.827  14.703  1.00  0.00    -0.206 F 
ENDROOT
BRANCH   1   8
ATOM      8  C   UNL     1      47.340 130.131  13.962  1.00  0.00     0.162 C 
ATOM      9  C   UNL     1      47.348 131.047  12.775  1.00  0.00     0.093 C 
ATOM     10  O   UNL     1      47.955 129.035  13.869  1.00  0.00    -0.294 OA
ENDBRANCH   1   8
BRANCH   4  11
ATOM     11  C   UNL     1      44.626 131.323  18.948  1.00  0.00     0.106 A 
ATOM     12  N   UNL     1      45.225 130.936  20.110  1.00  0.00    -0.253 NA
ATOM     13  C   UNL     1      43.367 131.955  19.001  1.00  0.00     0.152 A 
ATOM     14  C   UNL     1      44.660 131.155  21.325  1.00  0.00     0.112 A 
ATOM     15  C   UNL     1      42.771 132.207  20.248  1.00  0.00    -0.012 A 
ATOM     16  C   UNL     1      43.424 131.794  21.417  1.00  0.00     0.026 A 
ATOM     17  F   UNL     1      42.704 132.277  17.861  1.00  0.00    -0.204 F 
ATOM     18  C   UNL     1      41.418 132.851  20.324  1.00  0.00     0.047 C 
ENDBRANCH   4  11
TORSDOF 2
ENDMDL
MODEL 6
REMARK VINA RESULT:      -8.6      3.154      6.527
REMARK SMILES CC(=O)c1ccc(-c2nccc(C)c2F)cc1F
REMARK SMILES IDX 4 1 5 2 6 3 7 4 16 5 17 6 18 7 2 8 1 9 3 10 8 11 9 12 14 13
REMARK SMILES IDX 10 14 12 15 11 16 15 17 13 18
REMARK H PARENT
ROOT
ATOM      1  C   UNL     1      44.280 131.255  21.196  1.00  0.00     0.053 A 
ATOM      2  C   UNL     1      45.424 130.645  20.649  1.00  0.00     0.015 A 
ATOM      3  C   UNL     1      45.624 130.607  19.267  1.00  0.00     0.011 A 
ATOM      4  C   UNL     1      44.691 131.186  18.396  1.00  0.00     0.006 A 
ATOM      5  C   UNL     1      43.534 131.772  18.933  1.00  0.00     0.050 A 
ATOM      6  C   UNL     1      43.327 131.811  20.316  1.00  0.00     0.134 A 
ATOM      7  F   UNL     1      42.174 132.359  20.774  1.00  0.00    -0.206 F 
ENDROOT
BRANCH   1   8
ATOM      8  C   UNL     1      44.110 131.279  22.675  1.00  0.00     0.162 C 
ATOM      9  C   UNL     1      43.355 130.217  23.416  1.00  0.00     0.093 C 
ATOM     10  O   UNL     1      44.620 132.220  23.342  1.00  0.00    -0.294 OA
ENDBRANCH   1   8
BRANCH   4  11
ATOM     11  C   UNL     1      44.912 131.123  16.932  1.00  0.00     0.106 A 
ATOM     12  N   UNL     1      44.004 131.710  16.102  1.00  0.00    -0.253 NA
ATOM     13  C   UNL     1      46.019 130.451  16.374  1.00  0.00     0.152 A 
ATOM     14  C   UNL     1      44.137 131.690  14.751  1.00  0.00     0.112 A 
ATOM     15  C   UNL     1      46.185 130.431  14.980  1.00  0.00    -0.012 A 
ATOM     16  C   UNL     1      45.228 131.051  14.165  1.00  0.00     0.026 A 
ATOM     17  F   UNL     1      46.896 129.783  17.166  1.00  0.00    -0.204 F 
ATOM     18  C   UNL     1      47.340 129.695  14.365  1.00  0.00     0.047 C 
ENDBRANCH   4  11
TORSDOF 2
ENDMDL
MODEL 7
REMARK VINA RESULT:      -8.2      1.127      1.186
REMARK SMILES CC(=O)c1ccc(-c2nccc(C)c2F)cc1F
REMARK SMILES IDX 4 1 5 2 6 3 7 4 16 5 17 6 18 7 2 8 1 9 3 10 8 11 9 12 14 13
REMARK SMILES IDX 10 14 12 15 11 16 15 17 13 18
REMARK H PARENT
ROOT
ATOM      1  C   UNL     1      46.398 130.582  14.984  1.00  0.00     0.053 A 
ATOM      2  C   UNL     1      45.276 131.413  14.811  1.00  0.00     0.015 A 
ATOM      3  C   UNL     1      44.458 131.748  15.893  1.00  0.00     0.011 A 
ATOM      4  C   UNL     1      44.746 131.268  17.178  1.00  0.00     0.006 A 
ATOM      5  C   UNL     1      45.848 130.416  17.354  1.00  0.00     0.050 A 
ATOM      6  C   UNL     1      46.668 130.075  16.274  1.00  0.00     0.134 A 
ATOM      7  F   UNL     1      47.697 129.220  16.498  1.00  0.00    -0.206 F 
ENDROOT
BRANCH   1   8
ATOM      8  C   UNL     1      47.246 130.256  13.805  1.00  0.00     0.162 C 
ATOM      9  C   UNL     1      47.504 131.239  12.702  1.00  0.00     0.093 C 
ATOM     10  O   UNL     1      47.780 129.117  13.721  1.00  0.00    -0.294 OA
ENDBRANCH   1   8
BRANCH   4  11
ATOM     11  C   UNL     1      43.859 131.621  18.312  1.00  0.00     0.106 A 
ATOM     12  N   UNL     1      42.623 132.131  18.048  1.00  0.00    -0.253 NA
ATOM     13  C   UNL     1      44.268 131.469  19.652  1.00  0.00     0.152 A 
ATOM     14  C   UNL     1      41.757 132.482  19.033  1.00  0.00     0.112 A 
ATOM     15  C   UNL     1      43.383 131.810  20.688  1.00  0.00    -0.012 A 
ATOM     16  C   UNL     1      42.120 132.328  20.370  1.00  0.00     0.026 A 
ATOM     17  F   UNL     1      45.522 131.044  19.951  1.00  0.00    -0.204 F 
ATOM     18  C   UNL     1      43.810 131.684  22.122  1.00  0.00     0.047 C 
ENDBRANCH   4  11
TORSDOF 2
ENDMDL
MODEL 8
REMARK VINA RESULT:      -8.2      2.990      6.418
REMARK SMILES CC(=O)c1ccc(-c2nccc(C)c2F)cc1F
REMARK SMILES IDX 4 1 5 2 6 3 7 4 16 5 17 6 18 7 2 8 1 9 3 10 8 11 9 12 14 13
REMARK SMILES IDX 10 14 12 15 11 16 15 17 13 18
REMARK H PARENT
ROOT
ATOM      1  C   UNL     1      43.513 131.616  20.601  1.00  0.00     0.053 A 
ATOM      2  C   UNL     1      42.621 131.821  19.532  1.00  0.00     0.015 A 
ATOM      3  C   UNL     1      43.041 131.665  18.209  1.00  0.00     0.011 A 
ATOM      4  C   UNL     1      44.361 131.292  17.919  1.00  0.00     0.006 A 
ATOM      5  C   UNL     1      45.263 131.112  18.980  1.00  0.00     0.050 A 
ATOM      6  C   UNL     1      44.849 131.268  20.307  1.00  0.00     0.134 A 
ATOM      7  F   UNL     1      45.774 131.116  21.287  1.00  0.00    -0.206 F 
ENDROOT
BRANCH   1   8
ATOM      8  C   UNL     1      43.022 131.785  21.997  1.00  0.00     0.162 C 
ATOM      9  C   UNL     1      43.699 131.147  23.172  1.00  0.00     0.093 C 
ATOM     10  O   UNL     1      42.002 132.495  22.213  1.00  0.00    -0.294 OA
ENDBRANCH   1   8
BRANCH   4  11
ATOM     11  C   UNL     1      44.793 131.146  16.510  1.00  0.00     0.106 A 
ATOM     12  N   UNL     1      44.000 131.651  15.522  1.00  0.00    -0.253 NA
ATOM     13  C   UNL     1      45.984 130.478  16.161  1.00  0.00     0.152 A 
ATOM     14  C   UNL     1      44.328 131.552  14.208  1.00  0.00     0.112 A 
ATOM     15  C   UNL     1      46.350 130.378  14.809  1.00  0.00    -0.012 A 
ATOM     16  C   UNL     1      45.507 130.914  13.827  1.00  0.00     0.026 A 
ATOM     17  F   UNL     1      46.753 129.889  17.113  1.00  0.00    -0.204 F 
ATOM     18  C   UNL     1      47.600 129.644  14.416  1.00  0.00     0.047 C 
ENDBRANCH   4  11
TORSDOF 2
ENDMDL
MODEL 9
REMARK VINA RESULT:      -8.2      3.546      6.832
REMARK SMILES CC(=O)c1ccc(-c2nccc(C)c2F)cc1F
REMARK SMILES IDX 4 1 5 2 6 3 7 4 16 5 17 6 18 7 2 8 1 9 3 10 8 11 9 12 14 13
REMARK SMILES IDX 10 14 12 15 11 16 15 17 13 18
REMARK H PARENT
ROOT
ATOM      1  C   UNL     1      44.127 131.361  21.578  1.00  0.00     0.053 A 
ATOM      2  C   UNL     1      45.283 130.700  21.124  1.00  0.00     0.015 A 
ATOM      3  C   UNL     1      45.559 130.595  19.759  1.00  0.00     0.011 A 
ATOM      4  C   UNL     1      44.692 131.155  18.811  1.00  0.00     0.006 A 
ATOM      5  C   UNL     1      43.523 131.794  19.255  1.00  0.00     0.050 A 
ATOM      6  C   UNL     1      43.240 131.900  20.621  1.00  0.00     0.134 A 
ATOM      7  F   UNL     1      42.078 132.496  20.988  1.00  0.00    -0.206 F 
ENDROOT
BRANCH   1   8
ATOM      8  C   UNL     1      43.874 131.457  23.042  1.00  0.00     0.162 C 
ATOM      9  C   UNL     1      42.752 130.725  23.715  1.00  0.00     0.093 C 
ATOM     10  O   UNL     1      44.629 132.172  23.756  1.00  0.00    -0.294 OA
ENDBRANCH   1   8
BRANCH   4  11
ATOM     11  C   UNL     1      44.994 131.021  17.367  1.00  0.00     0.106 A 
ATOM     12  N   UNL     1      46.206 130.525  16.990  1.00  0.00    -0.253 NA
ATOM     13  C   UNL     1      44.074 131.416  16.375  1.00  0.00     0.152 A 
ATOM     14  C   UNL     1      46.555 130.377  15.686  1.00  0.00     0.112 A 
ATOM     15  C   UNL     1      44.407 131.257  15.020  1.00  0.00    -0.012 A 
ATOM     16  C   UNL     1      45.663 130.740  14.678  1.00  0.00     0.026 A 
ATOM     17  F   UNL     1      42.891 131.992  16.714  1.00  0.00    -0.204 F 
ATOM     18  C   UNL     1      43.453 131.699  13.948  1.00  0.00     0.047 C 
ENDBRANCH   4  11
TORSDOF 2
ENDMDL


