MODEL 1
REMARK VINA RESULT:      -6.7      0.000      0.000
REMARK SMILES Cc1cc2ccc([C@H]3O[C@@H](C)NN3C(O)=C3C[NH2+]C3)cc2[nH]1
REMARK SMILES IDX 8 1 9 2 10 3 11 4 12 5 13 6 7 8 2 9 3 10 22 11 4 12 21 13
REMARK SMILES IDX 5 14 20 15 6 16 1 17 14 19 15 20 16 22 17 23 19 24 18 25
REMARK H PARENT 12 7 22 18 15 21 18 26 18 27
ROOT
ATOM      1  C   UNL     1      44.400 132.242  18.989  1.00  0.00     0.267 C 
ATOM      2  O   UNL     1      43.123 132.625  18.547  1.00  0.00    -0.333 OA
ATOM      3  C   UNL     1      42.205 132.181  19.531  1.00  0.00     0.204 C 
ATOM      4  C   UNL     1      40.958 131.606  18.855  1.00  0.00     0.058 C 
ATOM      5  N   UNL     1      42.850 131.202  20.414  1.00  0.00    -0.201 NA
ATOM      6  N   UNL     1      44.198 131.362  20.115  1.00  0.00    -0.243 N 
ATOM      7  H   UNL     1      42.598 130.227  20.128  1.00  0.00     0.151 HD
ENDROOT
BRANCH   1   8
ATOM      8  C   UNL     1      45.130 131.529  17.878  1.00  0.00     0.005 A 
ATOM      9  C   UNL     1      47.114 130.932  13.870  1.00  0.00     0.013 A 
ATOM     10  C   UNL     1      47.102 129.798  14.679  1.00  0.00     0.031 A 
ATOM     11  N   UNL     1      46.524 131.980  14.491  1.00  0.00    -0.359 N 
ATOM     12  C   UNL     1      46.456 130.193  15.829  1.00  0.00    -0.000 A 
ATOM     13  C   UNL     1      46.121 131.513  15.684  1.00  0.00     0.046 A 
ATOM     14  C   UNL     1      46.156 129.483  16.988  1.00  0.00     0.011 A 
ATOM     15  C   UNL     1      45.460 132.217  16.688  1.00  0.00     0.035 A 
ATOM     16  C   UNL     1      45.485 130.162  18.020  1.00  0.00     0.009 A 
ATOM     17  C   UNL     1      47.770 131.026  12.533  1.00  0.00     0.064 C 
ATOM     18  H   UNL     1      46.416 132.952  14.124  1.00  0.00     0.166 HD
ENDBRANCH   1   8
BRANCH   6  19
ATOM     19  C   UNL     1      45.261 130.851  20.938  1.00  0.00     0.214 C 
BRANCH  19  20
ATOM     20  O   UNL     1      46.512 131.467  20.897  1.00  0.00    -0.493 OA
ATOM     21  H   UNL     1      46.884 131.980  21.689  1.00  0.00     0.295 HD
ENDBRANCH  19  20
BRANCH  19  22
ATOM     22  C   UNL     1      45.072 129.800  21.739  1.00  0.00     0.099 C 
ATOM     23  C   UNL     1      44.440 129.457  23.070  1.00  0.00     0.304 C 
ATOM     24  C   UNL     1      45.399 128.325  21.750  1.00  0.00     0.304 C 
ATOM     25  N   UNL     1      44.781 128.053  23.029  1.00  0.00    -0.339 N 
ATOM     26  H   UNL     1      43.940 127.435  22.947  1.00  0.00     0.346 HD
ATOM     27  H   UNL     1      45.479 127.787  23.764  1.00  0.00     0.346 HD
ENDBRANCH  19  22
ENDBRANCH   6  19
TORSDOF 4
ENDMDL
MODEL 2
REMARK VINA RESULT:      -6.3      2.275      3.718
REMARK SMILES Cc1cc2ccc([C@H]3O[C@@H](C)NN3C(O)=C3C[NH2+]C3)cc2[nH]1
REMARK SMILES IDX 8 1 9 2 10 3 11 4 12 5 13 6 7 8 2 9 3 10 22 11 4 12 21 13
REMARK SMILES IDX 5 14 20 15 6 16 1 17 14 19 15 20 16 22 17 23 19 24 18 25
REMARK H PARENT 12 7 22 18 15 21 18 26 18 27
ROOT
ATOM      1  C   UNL     1      44.887 130.897  22.521  1.00  0.00     0.267 C 
ATOM      2  O   UNL     1      44.301 131.987  23.185  1.00  0.00    -0.333 OA
ATOM      3  C   UNL     1      43.463 131.444  24.190  1.00  0.00     0.204 C 
ATOM      4  C   UNL     1      42.154 132.234  24.256  1.00  0.00     0.058 C 
ATOM      5  N   UNL     1      43.231 130.018  23.934  1.00  0.00    -0.201 NA
ATOM      6  N   UNL     1      44.201 129.715  22.985  1.00  0.00    -0.243 N 
ATOM      7  H   UNL     1      42.305 129.874  23.466  1.00  0.00     0.151 HD
ENDROOT
BRANCH   1   8
ATOM      8  C   UNL     1      44.720 131.060  21.030  1.00  0.00     0.005 A 
ATOM      9  C   UNL     1      45.742 130.807  16.643  1.00  0.00     0.013 A 
ATOM     10  C   UNL     1      44.515 131.410  16.912  1.00  0.00     0.031 A 
ATOM     11  N   UNL     1      46.354 130.415  17.784  1.00  0.00    -0.359 N 
ATOM     12  C   UNL     1      44.407 131.390  18.285  1.00  0.00    -0.000 A 
ATOM     13  C   UNL     1      45.531 130.783  18.780  1.00  0.00     0.046 A 
ATOM     14  C   UNL     1      43.394 131.851  19.121  1.00  0.00     0.011 A 
ATOM     15  C   UNL     1      45.723 130.597  20.147  1.00  0.00     0.035 A 
ATOM     16  C   UNL     1      43.557 131.683  20.507  1.00  0.00     0.009 A 
ATOM     17  C   UNL     1      46.281 130.532  15.278  1.00  0.00     0.064 C 
ATOM     18  H   UNL     1      47.269 129.919  17.872  1.00  0.00     0.166 HD
ENDBRANCH   1   8
BRANCH   6  19
ATOM     19  C   UNL     1      44.588 128.373  22.643  1.00  0.00     0.214 C 
BRANCH  19  20
ATOM     20  O   UNL     1      45.643 128.172  21.753  1.00  0.00    -0.493 OA
ATOM     21  H   UNL     1      46.565 127.892  22.069  1.00  0.00     0.295 HD
ENDBRANCH  19  20
BRANCH  19  22
ATOM     22  C   UNL     1      43.954 127.317  23.161  1.00  0.00     0.099 C 
ATOM     23  C   UNL     1      42.604 126.942  23.730  1.00  0.00     0.304 C 
ATOM     24  C   UNL     1      44.257 125.870  23.473  1.00  0.00     0.304 C 
ATOM     25  N   UNL     1      42.948 125.566  24.009  1.00  0.00    -0.339 N 
ATOM     26  H   UNL     1      42.417 124.888  23.414  1.00  0.00     0.346 HD
ATOM     27  H   UNL     1      42.974 125.357  25.035  1.00  0.00     0.346 HD
ENDBRANCH  19  22
ENDBRANCH   6  19
TORSDOF 4
ENDMDL
MODEL 3
REMARK VINA RESULT:      -6.2      1.423      1.784
REMARK SMILES Cc1cc2ccc([C@H]3O[C@@H](C)NN3C(O)=C3C[NH2+]C3)cc2[nH]1
REMARK SMILES IDX 8 1 9 2 10 3 11 4 12 5 13 6 7 8 2 9 3 10 22 11 4 12 21 13
REMARK SMILES IDX 5 14 20 15 6 16 1 17 14 19 15 20 16 22 17 23 19 24 18 25
REMARK H PARENT 12 7 22 18 15 21 18 26 18 27
ROOT
ATOM      1  C   UNL     1      44.483 132.111  19.905  1.00  0.00     0.267 C 
ATOM      2  O   UNL     1      43.424 133.035  19.928  1.00  0.00    -0.333 OA
ATOM      3  C   UNL     1      42.563 132.634  20.980  1.00  0.00     0.204 C 
ATOM      4  C   UNL     1      41.105 132.785  20.541  1.00  0.00     0.058 C 
ATOM      5  N   UNL     1      42.874 131.260  21.389  1.00  0.00    -0.201 NA
ATOM      6  N   UNL     1      44.108 131.034  20.790  1.00  0.00    -0.243 N 
ATOM      7  H   UNL     1      42.205 130.585  20.949  1.00  0.00     0.151 HD
ENDROOT
BRANCH   1   8
ATOM      8  C   UNL     1      44.682 131.601  18.499  1.00  0.00     0.005 A 
ATOM      9  C   UNL     1      46.798 129.754  14.968  1.00  0.00     0.013 A 
ATOM     10  C   UNL     1      45.490 130.155  14.707  1.00  0.00     0.031 A 
ATOM     11  N   UNL     1      47.138 130.005  16.254  1.00  0.00    -0.359 N 
ATOM     12  C   UNL     1      45.041 130.688  15.896  1.00  0.00    -0.000 A 
ATOM     13  C   UNL     1      46.059 130.581  16.807  1.00  0.00     0.046 A 
ATOM     14  C   UNL     1      43.810 131.242  16.232  1.00  0.00     0.011 A 
ATOM     15  C   UNL     1      45.916 131.024  18.120  1.00  0.00     0.035 A 
ATOM     16  C   UNL     1      43.633 131.703  17.548  1.00  0.00     0.009 A 
ATOM     17  C   UNL     1      47.689 129.050  13.999  1.00  0.00     0.064 C 
ATOM     18  H   UNL     1      48.046 129.785  16.721  1.00  0.00     0.166 HD
ENDBRANCH   1   8
BRANCH   6  19
ATOM     19  C   UNL     1      44.978 129.946  21.147  1.00  0.00     0.214 C 
BRANCH  19  20
ATOM     20  O   UNL     1      46.053 129.630  20.316  1.00  0.00    -0.493 OA
ATOM     21  H   UNL     1      46.046 128.813  19.716  1.00  0.00     0.295 HD
ENDBRANCH  19  20
BRANCH  19  22
ATOM     22  C   UNL     1      44.774 129.234  22.258  1.00  0.00     0.099 C 
ATOM     23  C   UNL     1      44.887 127.811  22.757  1.00  0.00     0.304 C 
ATOM     24  C   UNL     1      44.303 129.473  23.673  1.00  0.00     0.304 C 
ATOM     25  N   UNL     1      44.427 128.096  24.098  1.00  0.00    -0.339 N 
ATOM     26  H   UNL     1      45.175 127.963  24.819  1.00  0.00     0.346 HD
ATOM     27  H   UNL     1      43.500 127.656  24.308  1.00  0.00     0.346 HD
ENDBRANCH  19  22
ENDBRANCH   6  19
TORSDOF 4
ENDMDL
MODEL 4
REMARK VINA RESULT:      -6.2      2.098      3.364
REMARK SMILES Cc1cc2ccc([C@H]3O[C@@H](C)NN3C(O)=C3C[NH2+]C3)cc2[nH]1
REMARK SMILES IDX 8 1 9 2 10 3 11 4 12 5 13 6 7 8 2 9 3 10 22 11 4 12 21 13
REMARK SMILES IDX 5 14 20 15 6 16 1 17 14 19 15 20 16 22 17 23 19 24 18 25
REMARK H PARENT 12 7 22 18 15 21 18 26 18 27
ROOT
ATOM      1  C   UNL     1      44.871 131.225  21.826  1.00  0.00     0.267 C 
ATOM      2  O   UNL     1      44.144 132.143  22.601  1.00  0.00    -0.333 OA
ATOM      3  C   UNL     1      43.605 131.413  23.690  1.00  0.00     0.204 C 
ATOM      4  C   UNL     1      42.169 131.868  23.960  1.00  0.00     0.058 C 
ATOM      5  N   UNL     1      43.682 129.973  23.417  1.00  0.00    -0.201 NA
ATOM      6  N   UNL     1      44.554 129.913  22.335  1.00  0.00    -0.243 N 
ATOM      7  H   UNL     1      42.760 129.614  23.073  1.00  0.00     0.151 HD
ENDROOT
BRANCH   1   8
ATOM      8  C   UNL     1      44.464 131.347  20.378  1.00  0.00     0.005 A 
ATOM      9  C   UNL     1      44.888 131.327  15.886  1.00  0.00     0.013 A 
ATOM     10  C   UNL     1      43.610 131.645  16.340  1.00  0.00     0.031 A 
ATOM     11  N   UNL     1      45.726 131.080  16.919  1.00  0.00    -0.359 N 
ATOM     12  C   UNL     1      43.704 131.601  17.714  1.00  0.00    -0.000 A 
ATOM     13  C   UNL     1      44.991 131.257  18.030  1.00  0.00     0.046 A 
ATOM     14  C   UNL     1      42.742 131.827  18.694  1.00  0.00     0.011 A 
ATOM     15  C   UNL     1      45.409 131.118  19.351  1.00  0.00     0.035 A 
ATOM     16  C   UNL     1      43.131 131.699  20.039  1.00  0.00     0.009 A 
ATOM     17  C   UNL     1      45.277 131.178  14.452  1.00  0.00     0.064 C 
ATOM     18  H   UNL     1      46.730 130.798  16.865  1.00  0.00     0.166 HD
ENDBRANCH   1   8
BRANCH   6  19
ATOM     19  C   UNL     1      45.194 128.702  21.897  1.00  0.00     0.214 C 
BRANCH  19  20
ATOM     20  O   UNL     1      46.131 128.760  20.865  1.00  0.00    -0.493 OA
ATOM     21  H   UNL     1      45.898 128.500  19.913  1.00  0.00     0.295 HD
ENDBRANCH  19  20
BRANCH  19  22
ATOM     22  C   UNL     1      44.908 127.525  22.459  1.00  0.00     0.099 C 
ATOM     23  C   UNL     1      45.474 126.127  22.572  1.00  0.00     0.304 C 
ATOM     24  C   UNL     1      43.819 126.929  23.321  1.00  0.00     0.304 C 
ATOM     25  N   UNL     1      44.404 125.609  23.394  1.00  0.00    -0.339 N 
ATOM     26  H   UNL     1      44.721 125.362  24.361  1.00  0.00     0.346 HD
ATOM     27  H   UNL     1      43.830 124.887  22.899  1.00  0.00     0.346 HD
ENDBRANCH  19  22
ENDBRANCH   6  19
TORSDOF 4
ENDMDL
MODEL 5
REMARK VINA RESULT:      -5.7      2.448      4.092
REMARK SMILES Cc1cc2ccc([C@H]3O[C@@H](C)NN3C(O)=C3C[NH2+]C3)cc2[nH]1
REMARK SMILES IDX 8 1 9 2 10 3 11 4 12 5 13 6 7 8 2 9 3 10 22 11 4 12 21 13
REMARK SMILES IDX 5 14 20 15 6 16 1 17 14 19 15 20 16 22 17 23 19 24 18 25
REMARK H PARENT 12 7 22 18 15 21 18 26 18 27
ROOT
ATOM      1  C   UNL     1      44.796 130.906  22.562  1.00  0.00     0.267 C 
ATOM      2  O   UNL     1      45.186 132.119  23.154  1.00  0.00    -0.333 OA
ATOM      3  C   UNL     1      44.502 132.201  24.392  1.00  0.00     0.204 C 
ATOM      4  C   UNL     1      44.003 133.631  24.615  1.00  0.00     0.058 C 
ATOM      5  N   UNL     1      43.405 131.226  24.426  1.00  0.00    -0.201 NA
ATOM      6  N   UNL     1      43.699 130.398  23.349  1.00  0.00    -0.243 N 
ATOM      7  H   UNL     1      42.494 131.691  24.201  1.00  0.00     0.151 HD
ENDROOT
BRANCH   1   8
ATOM      8  C   UNL     1      44.363 131.152  21.138  1.00  0.00     0.005 A 
ATOM      9  C   UNL     1      44.681 131.429  16.645  1.00  0.00     0.013 A 
ATOM     10  C   UNL     1      43.432 131.778  17.155  1.00  0.00     0.031 A 
ATOM     11  N   UNL     1      45.528 131.067  17.637  1.00  0.00    -0.359 N 
ATOM     12  C   UNL     1      43.555 131.632  18.519  1.00  0.00    -0.000 A 
ATOM     13  C   UNL     1      44.830 131.202  18.776  1.00  0.00     0.046 A 
ATOM     14  C   UNL     1      42.630 131.837  19.539  1.00  0.00     0.011 A 
ATOM     15  C   UNL     1      45.271 130.948  20.072  1.00  0.00     0.035 A 
ATOM     16  C   UNL     1      43.043 131.594  20.860  1.00  0.00     0.009 A 
ATOM     17  C   UNL     1      45.028 131.363  15.195  1.00  0.00     0.064 C 
ATOM     18  H   UNL     1      46.515 130.739  17.536  1.00  0.00     0.166 HD
ENDBRANCH   1   8
BRANCH   6  19
ATOM     19  C   UNL     1      43.096 129.107  23.151  1.00  0.00     0.214 C 
BRANCH  19  20
ATOM     20  O   UNL     1      41.726 129.024  22.903  1.00  0.00    -0.493 OA
ATOM     21  H   UNL     1      41.311 128.220  22.445  1.00  0.00     0.295 HD
ENDBRANCH  19  20
BRANCH  19  22
ATOM     22  C   UNL     1      43.824 127.989  23.202  1.00  0.00     0.099 C 
ATOM     23  C   UNL     1      43.893 126.686  23.967  1.00  0.00     0.304 C 
ATOM     24  C   UNL     1      45.021 127.397  22.495  1.00  0.00     0.304 C 
ATOM     25  N   UNL     1      45.042 126.168  23.259  1.00  0.00    -0.339 N 
ATOM     26  H   UNL     1      44.813 125.329  22.677  1.00  0.00     0.346 HD
ATOM     27  H   UNL     1      45.889 126.090  23.869  1.00  0.00     0.346 HD
ENDBRANCH  19  22
ENDBRANCH   6  19
TORSDOF 4
ENDMDL
MODEL 6
REMARK VINA RESULT:      -5.1      4.601      7.247
REMARK SMILES Cc1cc2ccc([C@H]3O[C@@H](C)NN3C(O)=C3C[NH2+]C3)cc2[nH]1
REMARK SMILES IDX 8 1 9 2 10 3 11 4 12 5 13 6 7 8 2 9 3 10 22 11 4 12 21 13
REMARK SMILES IDX 5 14 20 15 6 16 1 17 14 19 15 20 16 22 17 23 19 24 18 25
REMARK H PARENT 12 7 22 18 15 21 18 26 18 27
ROOT
ATOM      1  C   UNL     1      44.105 126.240  24.354  1.00  0.00     0.267 C 
ATOM      2  O   UNL     1      42.941 125.467  24.212  1.00  0.00    -0.333 OA
ATOM      3  C   UNL     1      43.347 124.223  23.668  1.00  0.00     0.204 C 
ATOM      4  C   UNL     1      42.342 123.768  22.607  1.00  0.00     0.058 C 
ATOM      5  N   UNL     1      44.706 124.331  23.126  1.00  0.00    -0.201 NA
ATOM      6  N   UNL     1      45.157 125.531  23.666  1.00  0.00    -0.243 N 
ATOM      7  H   UNL     1      44.678 124.468  22.088  1.00  0.00     0.151 HD
ENDROOT
BRANCH   1   8
ATOM      8  C   UNL     1      43.890 127.601  23.740  1.00  0.00     0.005 A 
ATOM      9  C   UNL     1      44.703 131.219  21.168  1.00  0.00     0.013 A 
ATOM     10  C   UNL     1      43.542 131.307  21.933  1.00  0.00     0.031 A 
ATOM     11  N   UNL     1      45.329 130.036  21.368  1.00  0.00    -0.359 N 
ATOM     12  C   UNL     1      43.490 130.123  22.634  1.00  0.00    -0.000 A 
ATOM     13  C   UNL     1      44.581 129.379  22.270  1.00  0.00     0.046 A 
ATOM     14  C   UNL     1      42.554 129.653  23.550  1.00  0.00     0.011 A 
ATOM     15  C   UNL     1      44.814 128.112  22.798  1.00  0.00     0.035 A 
ATOM     16  C   UNL     1      42.760 128.379  24.107  1.00  0.00     0.009 A 
ATOM     17  C   UNL     1      45.160 132.241  20.181  1.00  0.00     0.064 C 
ATOM     18  H   UNL     1      46.203 129.698  20.907  1.00  0.00     0.166 HD
ENDBRANCH   1   8
BRANCH   6  19
ATOM     19  C   UNL     1      46.540 125.924  23.685  1.00  0.00     0.214 C 
BRANCH  19  20
ATOM     20  O   UNL     1      46.970 126.862  24.624  1.00  0.00    -0.493 OA
ATOM     21  H   UNL     1      47.890 126.814  25.048  1.00  0.00     0.295 HD
ENDBRANCH  19  20
BRANCH  19  22
ATOM     22  C   UNL     1      47.418 125.408  22.821  1.00  0.00     0.099 C 
ATOM     23  C   UNL     1      48.909 125.370  22.570  1.00  0.00     0.304 C 
ATOM     24  C   UNL     1      47.396 124.551  21.578  1.00  0.00     0.304 C 
ATOM     25  N   UNL     1      48.829 124.549  21.383  1.00  0.00    -0.339 N 
ATOM     26  H   UNL     1      49.252 123.601  21.519  1.00  0.00     0.346 HD
ATOM     27  H   UNL     1      49.118 125.063  20.518  1.00  0.00     0.346 HD
ENDBRANCH  19  22
ENDBRANCH   6  19
TORSDOF 4
ENDMDL
MODEL 7
REMARK VINA RESULT:      -4.9      2.717      3.893
REMARK SMILES Cc1cc2ccc([C@H]3O[C@@H](C)NN3C(O)=C3C[NH2+]C3)cc2[nH]1
REMARK SMILES IDX 8 1 9 2 10 3 11 4 12 5 13 6 7 8 2 9 3 10 22 11 4 12 21 13
REMARK SMILES IDX 5 14 20 15 6 16 1 17 14 19 15 20 16 22 17 23 19 24 18 25
REMARK H PARENT 12 7 22 18 15 21 18 26 18 27
ROOT
ATOM      1  C   UNL     1      44.189 131.318  22.884  1.00  0.00     0.267 C 
ATOM      2  O   UNL     1      43.370 132.449  23.035  1.00  0.00    -0.333 OA
ATOM      3  C   UNL     1      42.244 132.033  23.789  1.00  0.00     0.204 C 
ATOM      4  C   UNL     1      40.974 132.667  23.217  1.00  0.00     0.058 C 
ATOM      5  N   UNL     1      42.165 130.568  23.807  1.00  0.00    -0.201 NA
ATOM      6  N   UNL     1      43.420 130.188  23.345  1.00  0.00    -0.243 N 
ATOM      7  H   UNL     1      41.474 130.228  23.096  1.00  0.00     0.151 HD
ENDROOT
BRANCH   1   8
ATOM      8  C   UNL     1      44.564 131.153  21.432  1.00  0.00     0.005 A 
ATOM      9  C   UNL     1      44.189 131.443  16.945  1.00  0.00     0.013 A 
ATOM     10  C   UNL     1      45.346 130.804  17.383  1.00  0.00     0.031 A 
ATOM     11  N   UNL     1      43.431 131.851  17.989  1.00  0.00    -0.359 N 
ATOM     12  C   UNL     1      45.257 130.818  18.758  1.00  0.00    -0.000 A 
ATOM     13  C   UNL     1      44.091 131.457  19.090  1.00  0.00     0.046 A 
ATOM     14  C   UNL     1      46.126 130.325  19.727  1.00  0.00     0.011 A 
ATOM     15  C   UNL     1      43.712 131.646  20.416  1.00  0.00     0.035 A 
ATOM     16  C   UNL     1      45.771 130.496  21.077  1.00  0.00     0.009 A 
ATOM     17  C   UNL     1      43.859 131.736  15.519  1.00  0.00     0.064 C 
ATOM     18  H   UNL     1      42.528 132.373  17.948  1.00  0.00     0.166 HD
ENDBRANCH   1   8
BRANCH   6  19
ATOM     19  C   UNL     1      43.947 128.856  23.477  1.00  0.00     0.214 C 
BRANCH  19  20
ATOM     20  O   UNL     1      45.328 128.670  23.531  1.00  0.00    -0.493 OA
ATOM     21  H   UNL     1      45.817 128.524  24.407  1.00  0.00     0.295 HD
ENDBRANCH  19  20
BRANCH  19  22
ATOM     22  C   UNL     1      43.137 127.796  23.549  1.00  0.00     0.099 C 
ATOM     23  C   UNL     1      43.113 126.331  23.176  1.00  0.00     0.304 C 
ATOM     24  C   UNL     1      41.753 127.475  24.062  1.00  0.00     0.304 C 
ATOM     25  N   UNL     1      41.782 126.080  23.682  1.00  0.00    -0.339 N 
ATOM     26  H   UNL     1      41.779 125.437  24.509  1.00  0.00     0.346 HD
ATOM     27  H   UNL     1      41.097 125.857  22.921  1.00  0.00     0.346 HD
ENDBRANCH  19  22
ENDBRANCH   6  19
TORSDOF 4
ENDMDL
MODEL 8
REMARK VINA RESULT:      -4.6      1.521      2.175
REMARK SMILES Cc1cc2ccc([C@H]3O[C@@H](C)NN3C(O)=C3C[NH2+]C3)cc2[nH]1
REMARK SMILES IDX 8 1 9 2 10 3 11 4 12 5 13 6 7 8 2 9 3 10 22 11 4 12 21 13
REMARK SMILES IDX 5 14 20 15 6 16 1 17 14 19 15 20 16 22 17 23 19 24 18 25
REMARK H PARENT 12 7 22 18 15 21 18 26 18 27
ROOT
ATOM      1  C   UNL     1      44.529 132.277  18.606  1.00  0.00     0.267 C 
ATOM      2  O   UNL     1      43.169 132.440  18.291  1.00  0.00    -0.333 OA
ATOM      3  C   UNL     1      42.439 132.006  19.425  1.00  0.00     0.204 C 
ATOM      4  C   UNL     1      41.216 131.202  18.977  1.00  0.00     0.058 C 
ATOM      5  N   UNL     1      43.309 131.230  20.317  1.00  0.00    -0.201 NA
ATOM      6  N   UNL     1      44.580 131.520  19.833  1.00  0.00    -0.243 N 
ATOM      7  H   UNL     1      43.164 130.203  20.169  1.00  0.00     0.151 HD
ENDROOT
BRANCH   1   8
ATOM      8  C   UNL     1      45.222 131.532  17.492  1.00  0.00     0.005 A 
ATOM      9  C   UNL     1      47.280 130.878  13.529  1.00  0.00     0.013 A 
ATOM     10  C   UNL     1      47.123 129.723  14.292  1.00  0.00     0.031 A 
ATOM     11  N   UNL     1      46.779 131.959  14.172  1.00  0.00    -0.359 N 
ATOM     12  C   UNL     1      46.478 130.141  15.436  1.00  0.00    -0.000 A 
ATOM     13  C   UNL     1      46.287 131.493  15.332  1.00  0.00     0.046 A 
ATOM     14  C   UNL     1      46.065 129.424  16.555  1.00  0.00     0.011 A 
ATOM     15  C   UNL     1      45.665 132.225  16.340  1.00  0.00     0.035 A 
ATOM     16  C   UNL     1      45.430 130.131  17.591  1.00  0.00     0.009 A 
ATOM     17  C   UNL     1      47.991 130.951  12.219  1.00  0.00     0.064 C 
ATOM     18  H   UNL     1      46.785 132.949  13.841  1.00  0.00     0.166 HD
ENDBRANCH   1   8
BRANCH   6  19
ATOM     19  C   UNL     1      45.788 131.251  20.564  1.00  0.00     0.214 C 
BRANCH  19  20
ATOM     20  O   UNL     1      46.220 129.932  20.706  1.00  0.00    -0.493 OA
ATOM     21  H   UNL     1      46.112 129.248  19.965  1.00  0.00     0.295 HD
ENDBRANCH  19  20
BRANCH  19  22
ATOM     22  C   UNL     1      46.503 132.239  21.107  1.00  0.00     0.099 C 
ATOM     23  C   UNL     1      46.302 133.533  21.864  1.00  0.00     0.304 C 
ATOM     24  C   UNL     1      47.958 132.614  21.267  1.00  0.00     0.304 C 
ATOM     25  N   UNL     1      47.708 133.844  21.986  1.00  0.00    -0.339 N 
ATOM     26  H   UNL     1      48.045 133.807  22.976  1.00  0.00     0.346 HD
ATOM     27  H   UNL     1      47.982 134.693  21.436  1.00  0.00     0.346 HD
ENDBRANCH  19  22
ENDBRANCH   6  19
TORSDOF 4
ENDMDL
MODEL 9
REMARK VINA RESULT:      -4.6      2.492      3.454
REMARK SMILES Cc1cc2ccc([C@H]3O[C@@H](C)NN3C(O)=C3C[NH2+]C3)cc2[nH]1
REMARK SMILES IDX 8 1 9 2 10 3 11 4 12 5 13 6 7 8 2 9 3 10 22 11 4 12 21 13
REMARK SMILES IDX 5 14 20 15 6 16 1 17 14 19 15 20 16 22 17 23 19 24 18 25
REMARK H PARENT 12 7 22 18 15 21 18 26 18 27
ROOT
ATOM      1  C   UNL     1      44.126 132.155  20.659  1.00  0.00     0.267 C 
ATOM      2  O   UNL     1      42.961 131.594  21.209  1.00  0.00    -0.333 OA
ATOM      3  C   UNL     1      43.344 130.993  22.434  1.00  0.00     0.204 C 
ATOM      4  C   UNL     1      42.632 129.647  22.596  1.00  0.00     0.058 C 
ATOM      5  N   UNL     1      44.803 130.851  22.491  1.00  0.00    -0.201 NA
ATOM      6  N   UNL     1      45.231 131.668  21.450  1.00  0.00    -0.243 N 
ATOM      7  H   UNL     1      45.088 129.876  22.236  1.00  0.00     0.151 HD
ENDROOT
BRANCH   1   8
ATOM      8  C   UNL     1      44.268 131.722  19.221  1.00  0.00     0.005 A 
ATOM      9  C   UNL     1      46.197 129.958  15.543  1.00  0.00     0.013 A 
ATOM     10  C   UNL     1      44.915 130.463  15.333  1.00  0.00     0.031 A 
ATOM     11  N   UNL     1      46.573 130.105  16.834  1.00  0.00    -0.359 N 
ATOM     12  C   UNL     1      44.523 130.950  16.560  1.00  0.00    -0.000 A 
ATOM     13  C   UNL     1      45.544 130.717  17.443  1.00  0.00     0.046 A 
ATOM     14  C   UNL     1      43.338 131.565  16.954  1.00  0.00     0.011 A 
ATOM     15  C   UNL     1      45.453 131.086  18.783  1.00  0.00     0.035 A 
ATOM     16  C   UNL     1      43.214 131.954  18.299  1.00  0.00     0.009 A 
ATOM     17  C   UNL     1      47.021 129.257  14.515  1.00  0.00     0.064 C 
ATOM     18  H   UNL     1      47.470 129.794  17.270  1.00  0.00     0.166 HD
ENDBRANCH   1   8
BRANCH   6  19
ATOM     19  C   UNL     1      46.590 132.111  21.294  1.00  0.00     0.214 C 
BRANCH  19  20
ATOM     20  O   UNL     1      47.434 131.429  20.417  1.00  0.00    -0.493 OA
ATOM     21  H   UNL     1      47.681 131.806  19.509  1.00  0.00     0.295 HD
ENDBRANCH  19  20
BRANCH  19  22
ATOM     22  C   UNL     1      47.057 133.162  21.973  1.00  0.00     0.099 C 
ATOM     23  C   UNL     1      46.831 133.889  23.280  1.00  0.00     0.304 C 
ATOM     24  C   UNL     1      48.106 134.235  21.796  1.00  0.00     0.304 C 
ATOM     25  N   UNL     1      47.847 134.894  23.057  1.00  0.00    -0.339 N 
ATOM     26  H   UNL     1      48.648 134.812  23.726  1.00  0.00     0.346 HD
ATOM     27  H   UNL     1      47.444 135.853  22.934  1.00  0.00     0.346 HD
ENDBRANCH  19  22
ENDBRANCH   6  19
TORSDOF 4
ENDMDL


