REMARK SMILES CC[C@@H]([NH2+]C(=S)N(c1ccc2cc[nH]c2c1)c1cccc2cnoc12)c1ccccc1
REMARK SMILES IDX 4 1 3 4 2 5 1 6 26 7 27 8 31 9 28 10 30 11 29 12 5 13 6 14
REMARK SMILES IDX 7 15 8 16 9 17 16 18 10 19 15 20 11 21 14 22 12 23 13 24
REMARK SMILES IDX 17 26 18 27 25 28 19 29 24 30 21 31 20 32 23 33 22 34
REMARK H PARENT 4 2 4 3 14 25
ROOT
ATOM      1  N   UNL     1       0.611   0.626  -2.164  1.00  0.00    -0.282 N 
ATOM      2  H   UNL     1       0.968   0.890  -3.109  1.00  0.00     0.354 HD
ATOM      3  H   UNL     1      -0.432   0.635  -2.230  1.00  0.00     0.354 HD
ENDROOT
BRANCH   1   4
ATOM      4  C   UNL     1       1.043   1.605  -1.139  1.00  0.00     0.220 C 
BRANCH   4   5
ATOM      5  C   UNL     1       0.424   3.005  -1.379  1.00  0.00     0.067 C 
ATOM      6  C   UNL     1       0.824   3.671  -2.697  1.00  0.00     0.010 C 
ENDBRANCH   4   5
BRANCH   4   7
ATOM      7  C   UNL     1       2.559   1.680  -0.970  1.00  0.00     0.010 A 
ATOM      8  C   UNL     1       3.439   1.673  -2.072  1.00  0.00     0.010 A 
ATOM      9  C   UNL     1       3.099   1.796   0.326  1.00  0.00     0.010 A 
ATOM     10  C   UNL     1       4.821   1.749  -1.875  1.00  0.00     0.001 A 
ATOM     11  C   UNL     1       4.483   1.869   0.516  1.00  0.00     0.001 A 
ATOM     12  C   UNL     1       5.343   1.841  -0.583  1.00  0.00     0.000 A 
ENDBRANCH   4   7
ENDBRANCH   1   4
BRANCH   1  13
ATOM     13  C   UNL     1       1.034  -0.717  -1.832  1.00  0.00     0.278 C 
ATOM     14  S   UNL     1       1.997  -1.546  -2.877  1.00  0.00     0.004 S 
BRANCH  13  15
ATOM     15  N   UNL     1       0.545  -1.373  -0.640  1.00  0.00    -0.253 N 
BRANCH  15  16
ATOM     16  C   UNL     1      -0.812  -1.153  -0.212  1.00  0.00     0.054 A 
ATOM     17  C   UNL     1      -1.889  -1.377  -1.108  1.00  0.00     0.027 A 
ATOM     18  C   UNL     1      -1.077  -0.719   1.107  1.00  0.00     0.053 A 
ATOM     19  C   UNL     1      -3.218  -1.160  -0.701  1.00  0.00     0.012 A 
ATOM     20  C   UNL     1      -2.404  -0.510   1.476  1.00  0.00     0.047 A 
ATOM     21  C   UNL     1      -3.437  -0.724   0.603  1.00  0.00    -0.000 A 
ATOM     22  N   UNL     1      -2.863  -0.075   2.660  1.00  0.00    -0.361 N 
ATOM     23  C   UNL     1      -4.606  -0.413   1.262  1.00  0.00     0.028 A 
ATOM     24  C   UNL     1      -4.210  -0.013   2.533  1.00  0.00     0.083 A 
ATOM     25  H   UNL     1      -2.301   0.175   3.502  1.00  0.00     0.166 HD
ENDBRANCH  15  16
BRANCH  15  26
ATOM     26  C   UNL     1       1.413  -2.219   0.147  1.00  0.00     0.098 A 
ATOM     27  C   UNL     1       2.775  -1.893   0.360  1.00  0.00     0.031 A 
ATOM     28  C   UNL     1       0.941  -3.389   0.756  1.00  0.00     0.190 A 
ATOM     29  C   UNL     1       3.601  -2.723   1.152  1.00  0.00     0.003 A 
ATOM     30  O   UNL     1      -0.255  -3.919   0.708  1.00  0.00    -0.354 OA
ATOM     31  C   UNL     1       1.744  -4.181   1.523  1.00  0.00     0.044 A 
ATOM     32  C   UNL     1       3.084  -3.888   1.747  1.00  0.00     0.014 A 
ATOM     33  N   UNL     1      -0.289  -5.025   1.404  1.00  0.00    -0.087 NA
ATOM     34  C   UNL     1       0.943  -5.220   1.931  1.00  0.00     0.166 A 
ENDBRANCH  15  26
ENDBRANCH  13  15
ENDBRANCH   1  13
TORSDOF 7


