REMARK SMILES c1cc(-c2ccc3cc[nH]c3c2)cc([C@H]2CO2)c1
REMARK SMILES IDX 4 1 5 2 6 3 7 4 8 5 9 6 10 7 11 8 12 9 3 11 1 12 2 13 18 14
REMARK SMILES IDX 14 15 13 16 15 17 16 18 17 19
REMARK H PARENT 10 10
ROOT
ATOM      1  C   UNL     1       0.647  -0.560   0.093  1.00  0.00    -0.016 A 
ATOM      2  C   UNL     1       1.940  -0.984   0.504  1.00  0.00     0.009 A 
ATOM      3  C   UNL     1       2.488  -0.551   1.725  1.00  0.00     0.011 A 
ATOM      4  C   UNL     1       1.723   0.302   2.514  1.00  0.00    -0.001 A 
ATOM      5  C   UNL     1       1.993   0.876   3.737  1.00  0.00     0.028 A 
ATOM      6  C   UNL     1       0.864   1.631   4.040  1.00  0.00     0.083 A 
ATOM      7  N   UNL     1      -0.059   1.531   3.057  1.00  0.00    -0.361 N 
ATOM      8  C   UNL     1       0.478   0.719   2.131  1.00  0.00     0.046 A 
ATOM      9  C   UNL     1      -0.095   0.310   0.929  1.00  0.00     0.035 A 
ATOM     10  H   UNL     1      -0.995   1.992   3.026  1.00  0.00     0.166 HD
ENDROOT
BRANCH   1  11
ATOM     11  C   UNL     1       0.079  -1.024  -1.198  1.00  0.00    -0.018 A 
ATOM     12  C   UNL     1      -0.275  -2.787  -2.837  1.00  0.00     0.001 A 
ATOM     13  C   UNL     1       0.254  -2.354  -1.619  1.00  0.00     0.009 A 
ATOM     14  C   UNL     1      -0.989  -1.901  -3.647  1.00  0.00     0.006 A 
ATOM     15  C   UNL     1      -1.190  -0.577  -3.236  1.00  0.00    -0.016 A 
ATOM     16  C   UNL     1      -0.643  -0.138  -2.020  1.00  0.00     0.015 A 
BRANCH  15  17
ATOM     17  C   UNL     1      -1.925   0.382  -4.125  1.00  0.00     0.174 C 
ATOM     18  C   UNL     1      -3.359   0.087  -4.356  1.00  0.00     0.198 C 
ATOM     19  O   UNL     1      -2.944   1.063  -3.430  1.00  0.00    -0.368 OA
ENDBRANCH  15  17
ENDBRANCH   1  11
TORSDOF 2


