REMARK SMILES CC(=O)N(N)c1cc(C)cc(-n2nc3ccccc3[nH+]2)c1O
REMARK SMILES IDX 6 1 7 2 8 3 9 4 10 5 11 6 21 7 4 8 2 9 1 10 3 11 5 12 22 15
REMARK SMILES IDX 12 17 13 18 20 19 14 20 19 21 15 22 18 23 16 24 17 25
REMARK H PARENT 5 13 5 14 22 16 20 26
ROOT
ATOM      1  C   UNL     1      -0.615  -1.105   1.328  1.00  0.00     0.105 A 
ATOM      2  C   UNL     1      -1.944  -1.204   0.893  1.00  0.00     0.035 A 
ATOM      3  C   UNL     1      -2.422  -0.375  -0.128  1.00  0.00    -0.046 A 
ATOM      4  C   UNL     1      -3.838  -0.508  -0.606  1.00  0.00     0.044 C 
ATOM      5  C   UNL     1      -1.548   0.523  -0.753  1.00  0.00     0.042 A 
ATOM      6  C   UNL     1      -0.207   0.621  -0.348  1.00  0.00     0.172 A 
ATOM      7  C   UNL     1       0.255  -0.178   0.719  1.00  0.00     0.172 A 
ENDROOT
BRANCH   1   8
ATOM      8  N   UNL     1      -0.150  -1.971   2.373  1.00  0.00    -0.245 N 
BRANCH   8   9
ATOM      9  C   UNL     1      -0.698  -1.902   3.706  1.00  0.00     0.238 C 
ATOM     10  C   UNL     1      -1.564  -0.756   4.136  1.00  0.00     0.116 C 
ATOM     11  O   UNL     1      -0.457  -2.825   4.530  1.00  0.00    -0.273 OA
ENDBRANCH   8   9
BRANCH   8  12
ATOM     12  N   UNL     1       0.778  -2.974   2.039  1.00  0.00    -0.240 NA
ATOM     13  H   UNL     1       1.545  -2.956   2.750  1.00  0.00     0.144 HD
ATOM     14  H   UNL     1       0.290  -3.896   2.118  1.00  0.00     0.144 HD
ENDBRANCH   8  12
ENDBRANCH   1   8
BRANCH   7  15
ATOM     15  O   UNL     1       1.560  -0.012   1.187  1.00  0.00    -0.504 OA
ATOM     16  H   UNL     1       1.924  -0.516   1.986  1.00  0.00     0.293 HD
ENDBRANCH   7  15
BRANCH   6  17
ATOM     17  N   UNL     1       0.663   1.554  -1.011  1.00  0.00    -0.009 N 
ATOM     18  N   UNL     1       0.253   2.739  -1.465  1.00  0.00     0.054 NA
ATOM     19  N   UNL     1       1.944   1.325  -1.294  1.00  0.00    -0.161 N 
ATOM     20  C   UNL     1       1.337   3.283  -2.047  1.00  0.00     0.249 A 
ATOM     21  C   UNL     1       2.378   2.412  -1.944  1.00  0.00     0.198 A 
ATOM     22  C   UNL     1       1.461   4.510  -2.690  1.00  0.00     0.064 A 
ATOM     23  C   UNL     1       3.634   2.683  -2.478  1.00  0.00     0.058 A 
ATOM     24  C   UNL     1       2.720   4.828  -3.239  1.00  0.00     0.005 A 
ATOM     25  C   UNL     1       3.801   3.919  -3.134  1.00  0.00     0.005 A 
ATOM     26  H   UNL     1       2.479   0.450  -1.094  1.00  0.00     0.340 HD
ENDBRANCH   6  17
TORSDOF 5


