MODEL 1
REMARK VINA RESULT:      -4.3      0.000      0.000
REMARK SMILES C[C@@]1(C(=O)N(c2ccc3[nH]ccc3c2)c2cccc3c2CCC3)CC[C@H](N)C1
REMARK SMILES IDX 3 1 4 2 2 3 24 4 28 5 25 6 26 7 1 8 27 9 5 12 6 13 7 14
REMARK SMILES IDX 14 15 8 16 13 17 9 18 12 19 10 20 11 21 15 23 16 24 20 25
REMARK SMILES IDX 17 26 19 27 21 28 18 29 23 30 22 31
REMARK H PARENT 27 10 27 11 10 22
ROOT
ATOM      1  C   UNL     1      43.970 125.321  22.489  1.00  0.00     0.237 C 
ATOM      2  O   UNL     1      43.937 125.120  21.244  1.00  0.00    -0.273 OA
ENDROOT
BRANCH   1   3
ATOM      3  C   UNL     1      42.901 124.691  23.373  1.00  0.00     0.049 C 
ATOM      4  C   UNL     1      43.334 123.292  23.846  1.00  0.00     0.018 C 
ATOM      5  C   UNL     1      41.602 124.405  22.608  1.00  0.00     0.035 C 
ATOM      6  C   UNL     1      42.055 122.481  24.046  1.00  0.00     0.020 C 
ATOM      7  C   UNL     1      40.928 123.250  23.346  1.00  0.00     0.051 C 
ATOM      8  C   UNL     1      42.631 125.604  24.589  1.00  0.00     0.022 C 
BRANCH   7   9
ATOM      9  N   UNL     1      40.193 122.391  22.417  1.00  0.00    -0.328 NA
ATOM     10  H   UNL     1      39.366 122.925  22.067  1.00  0.00     0.119 HD
ATOM     11  H   UNL     1      39.809 121.583  22.960  1.00  0.00     0.119 HD
ENDBRANCH   7   9
ENDBRANCH   1   3
BRANCH   1  12
ATOM     12  N   UNL     1      45.027 126.132  23.035  1.00  0.00    -0.280 N 
BRANCH  12  13
ATOM     13  C   UNL     1      44.863 127.565  23.075  1.00  0.00     0.050 A 
ATOM     14  C   UNL     1      44.512 128.207  24.293  1.00  0.00     0.029 A 
ATOM     15  C   UNL     1      45.052 128.344  21.908  1.00  0.00     0.037 A 
ATOM     16  C   UNL     1      44.360 129.604  24.354  1.00  0.00     0.029 A 
ATOM     17  C   UNL     1      44.896 129.724  22.007  1.00  0.00     0.001 A 
ATOM     18  C   UNL     1      44.562 130.332  23.186  1.00  0.00     0.045 A 
ATOM     19  C   UNL     1      45.022 130.711  21.054  1.00  0.00     0.028 A 
ATOM     20  N   UNL     1      44.470 131.663  23.026  1.00  0.00    -0.361 N 
ATOM     21  C   UNL     1      44.751 131.899  21.725  1.00  0.00     0.083 A 
ATOM     22  H   UNL     1      44.232 132.372  23.755  1.00  0.00     0.166 HD
ENDBRANCH  12  13
BRANCH  12  23
ATOM     23  C   UNL     1      46.298 125.533  23.352  1.00  0.00     0.052 A 
ATOM     24  C   UNL     1      47.155 126.139  24.293  1.00  0.00     0.027 A 
ATOM     25  C   UNL     1      46.708 124.321  22.765  1.00  0.00    -0.021 A 
ATOM     26  C   UNL     1      48.391 125.554  24.611  1.00  0.00     0.002 A 
ATOM     27  C   UNL     1      47.922 123.759  23.077  1.00  0.00    -0.043 A 
ATOM     28  C   UNL     1      45.970 123.499  21.770  1.00  0.00     0.038 C 
ATOM     29  C   UNL     1      48.782 124.356  24.000  1.00  0.00     0.004 A 
ATOM     30  C   UNL     1      48.166 122.499  22.339  1.00  0.00     0.036 C 
ATOM     31  C   UNL     1      46.963 122.387  21.389  1.00  0.00     0.010 C 
ENDBRANCH  12  23
ENDBRANCH   1  12
TORSDOF 5
ENDMDL
MODEL 2
REMARK VINA RESULT:      -4.2      3.990      6.823
REMARK SMILES C[C@@]1(C(=O)N(c2ccc3[nH]ccc3c2)c2cccc3c2CCC3)CC[C@H](N)C1
REMARK SMILES IDX 3 1 4 2 2 3 24 4 28 5 25 6 26 7 1 8 27 9 5 12 6 13 7 14
REMARK SMILES IDX 14 15 8 16 13 17 9 18 12 19 10 20 11 21 15 23 16 24 20 25
REMARK SMILES IDX 17 26 19 27 21 28 18 29 23 30 22 31
REMARK H PARENT 27 10 27 11 10 22
ROOT
ATOM      1  C   UNL     1      44.718 129.829  22.111  1.00  0.00     0.237 C 
ATOM      2  O   UNL     1      45.422 128.949  21.544  1.00  0.00    -0.273 OA
ENDROOT
BRANCH   1   3
ATOM      3  C   UNL     1      43.856 129.436  23.304  1.00  0.00     0.049 C 
ATOM      4  C   UNL     1      44.005 127.938  23.620  1.00  0.00     0.018 C 
ATOM      5  C   UNL     1      42.355 129.576  23.014  1.00  0.00     0.035 C 
ATOM      6  C   UNL     1      42.683 127.486  24.238  1.00  0.00     0.020 C 
ATOM      7  C   UNL     1      41.656 128.586  23.943  1.00  0.00     0.051 C 
ATOM      8  C   UNL     1      44.256 130.281  24.533  1.00  0.00     0.022 C 
BRANCH   7   9
ATOM      9  N   UNL     1      40.453 128.038  23.316  1.00  0.00    -0.328 NA
ATOM     10  H   UNL     1      39.903 127.539  24.053  1.00  0.00     0.119 HD
ATOM     11  H   UNL     1      40.751 127.306  22.631  1.00  0.00     0.119 HD
ENDBRANCH   7   9
ENDBRANCH   1   3
BRANCH   1  12
ATOM     12  N   UNL     1      44.762 131.181  21.617  1.00  0.00    -0.280 N 
BRANCH  12  13
ATOM     13  C   UNL     1      45.593 132.149  22.291  1.00  0.00     0.050 A 
ATOM     14  C   UNL     1      45.245 132.601  23.592  1.00  0.00     0.029 A 
ATOM     15  C   UNL     1      46.760 132.652  21.669  1.00  0.00     0.037 A 
ATOM     16  C   UNL     1      46.050 133.534  24.270  1.00  0.00     0.029 A 
ATOM     17  C   UNL     1      47.534 133.573  22.371  1.00  0.00     0.001 A 
ATOM     18  C   UNL     1      47.192 133.999  23.625  1.00  0.00     0.045 A 
ATOM     19  C   UNL     1      48.702 134.214  22.021  1.00  0.00     0.028 A 
ATOM     20  N   UNL     1      48.090 134.883  24.090  1.00  0.00    -0.361 N 
ATOM     21  C   UNL     1      49.016 135.017  23.113  1.00  0.00     0.083 A 
ATOM     22  H   UNL     1      48.080 135.368  25.015  1.00  0.00     0.166 HD
ENDBRANCH  12  13
BRANCH  12  23
ATOM     23  C   UNL     1      43.842 131.597  20.589  1.00  0.00     0.052 A 
ATOM     24  C   UNL     1      42.608 132.182  20.933  1.00  0.00     0.027 A 
ATOM     25  C   UNL     1      44.156 131.464  19.223  1.00  0.00    -0.021 A 
ATOM     26  C   UNL     1      41.712 132.597  19.935  1.00  0.00     0.002 A 
ATOM     27  C   UNL     1      43.271 131.867  18.252  1.00  0.00    -0.043 A 
ATOM     28  C   UNL     1      45.395 130.899  18.626  1.00  0.00     0.038 C 
ATOM     29  C   UNL     1      42.042 132.439  18.583  1.00  0.00     0.004 A 
ATOM     30  C   UNL     1      43.785 131.625  16.885  1.00  0.00     0.036 C 
ATOM     31  C   UNL     1      45.109 130.877  17.114  1.00  0.00     0.010 C 
ENDBRANCH  12  23
ENDBRANCH   1  12
TORSDOF 5
ENDMDL
MODEL 3
REMARK VINA RESULT:      -2.5      4.394      8.497
REMARK SMILES C[C@@]1(C(=O)N(c2ccc3[nH]ccc3c2)c2cccc3c2CCC3)CC[C@H](N)C1
REMARK SMILES IDX 3 1 4 2 2 3 24 4 28 5 25 6 26 7 1 8 27 9 5 12 6 13 7 14
REMARK SMILES IDX 14 15 8 16 13 17 9 18 12 19 10 20 11 21 15 23 16 24 20 25
REMARK SMILES IDX 17 26 19 27 21 28 18 29 23 30 22 31
REMARK H PARENT 27 10 27 11 10 22
ROOT
ATOM      1  C   UNL     1      46.515 131.871  20.985  1.00  0.00     0.237 C 
ATOM      2  O   UNL     1      47.489 131.203  20.543  1.00  0.00    -0.273 OA
ENDROOT
BRANCH   1   3
ATOM      3  C   UNL     1      46.784 133.123  21.810  1.00  0.00     0.049 C 
ATOM      4  C   UNL     1      46.435 134.392  21.012  1.00  0.00     0.018 C 
ATOM      5  C   UNL     1      48.276 133.313  22.117  1.00  0.00     0.035 C 
ATOM      6  C   UNL     1      47.357 135.498  21.523  1.00  0.00     0.020 C 
ATOM      7  C   UNL     1      48.473 134.813  22.320  1.00  0.00     0.051 C 
ATOM      8  C   UNL     1      45.959 133.072  23.115  1.00  0.00     0.022 C 
BRANCH   7   9
ATOM      9  N   UNL     1      49.795 135.237  21.858  1.00  0.00    -0.328 NA
ATOM     10  H   UNL     1      49.664 136.006  21.161  1.00  0.00     0.119 HD
ATOM     11  H   UNL     1      50.224 134.440  21.334  1.00  0.00     0.119 HD
ENDBRANCH   7   9
ENDBRANCH   1   3
BRANCH   1  12
ATOM     12  N   UNL     1      45.176 131.432  20.686  1.00  0.00    -0.280 N 
BRANCH  12  13
ATOM     13  C   UNL     1      44.703 131.499  19.325  1.00  0.00     0.050 A 
ATOM     14  C   UNL     1      43.333 131.770  19.060  1.00  0.00     0.029 A 
ATOM     15  C   UNL     1      45.594 131.301  18.243  1.00  0.00     0.037 A 
ATOM     16  C   UNL     1      42.856 131.852  17.740  1.00  0.00     0.029 A 
ATOM     17  C   UNL     1      45.087 131.392  16.949  1.00  0.00     0.001 A 
ATOM     18  C   UNL     1      43.768 131.658  16.706  1.00  0.00     0.045 A 
ATOM     19  C   UNL     1      45.712 131.253  15.730  1.00  0.00     0.028 A 
ATOM     20  N   UNL     1      43.524 131.694  15.385  1.00  0.00    -0.361 N 
ATOM     21  C   UNL     1      44.710 131.448  14.784  1.00  0.00     0.083 A 
ATOM     22  H   UNL     1      42.609 131.876  14.915  1.00  0.00     0.166 HD
ENDBRANCH  12  13
BRANCH  12  23
ATOM     23  C   UNL     1      44.269 131.117  21.761  1.00  0.00     0.052 A 
ATOM     24  C   UNL     1      43.310 132.059  22.181  1.00  0.00     0.027 A 
ATOM     25  C   UNL     1      44.290 129.861  22.396  1.00  0.00    -0.021 A 
ATOM     26  C   UNL     1      42.418 131.753  23.222  1.00  0.00     0.002 A 
ATOM     27  C   UNL     1      43.419 129.572  23.419  1.00  0.00    -0.043 A 
ATOM     28  C   UNL     1      45.192 128.714  22.114  1.00  0.00     0.038 C 
ATOM     29  C   UNL     1      42.471 130.502  23.849  1.00  0.00     0.004 A 
ATOM     30  C   UNL     1      43.617 128.209  23.961  1.00  0.00     0.036 C 
ATOM     31  C   UNL     1      44.853 127.688  23.208  1.00  0.00     0.010 C 
ENDBRANCH  12  23
ENDBRANCH   1  12
TORSDOF 5
ENDMDL
MODEL 4
REMARK VINA RESULT:      -2.3      4.215      7.622
REMARK SMILES C[C@@]1(C(=O)N(c2ccc3[nH]ccc3c2)c2cccc3c2CCC3)CC[C@H](N)C1
REMARK SMILES IDX 3 1 4 2 2 3 24 4 28 5 25 6 26 7 1 8 27 9 5 12 6 13 7 14
REMARK SMILES IDX 14 15 8 16 13 17 9 18 12 19 10 20 11 21 15 23 16 24 20 25
REMARK SMILES IDX 17 26 19 27 21 28 18 29 23 30 22 31
REMARK H PARENT 27 10 27 11 10 22
ROOT
ATOM      1  C   UNL     1      44.838 131.692  22.780  1.00  0.00     0.237 C 
ATOM      2  O   UNL     1      44.634 132.499  23.728  1.00  0.00    -0.273 OA
ENDROOT
BRANCH   1   3
ATOM      3  C   UNL     1      44.283 130.277  22.875  1.00  0.00     0.049 C 
ATOM      4  C   UNL     1      44.533 129.682  24.272  1.00  0.00     0.018 C 
ATOM      5  C   UNL     1      45.016 129.296  21.950  1.00  0.00     0.035 C 
ATOM      6  C   UNL     1      44.655 128.170  24.089  1.00  0.00     0.020 C 
ATOM      7  C   UNL     1      44.855 127.919  22.590  1.00  0.00     0.051 C 
ATOM      8  C   UNL     1      42.769 130.292  22.567  1.00  0.00     0.022 C 
BRANCH   7   9
ATOM      9  N   UNL     1      46.031 127.084  22.342  1.00  0.00    -0.328 NA
ATOM     10  H   UNL     1      45.699 126.137  22.046  1.00  0.00     0.119 HD
ATOM     11  H   UNL     1      46.527 126.947  23.252  1.00  0.00     0.119 HD
ENDBRANCH   7   9
ENDBRANCH   1   3
BRANCH   1  12
ATOM     12  N   UNL     1      45.582 132.142  21.631  1.00  0.00    -0.280 N 
BRANCH  12  13
ATOM     13  C   UNL     1      46.636 133.110  21.812  1.00  0.00     0.050 A 
ATOM     14  C   UNL     1      46.628 134.318  21.064  1.00  0.00     0.029 A 
ATOM     15  C   UNL     1      47.682 132.871  22.736  1.00  0.00     0.037 A 
ATOM     16  C   UNL     1      47.640 135.279  21.236  1.00  0.00     0.029 A 
ATOM     17  C   UNL     1      48.665 133.846  22.881  1.00  0.00     0.001 A 
ATOM     18  C   UNL     1      48.646 135.007  22.159  1.00  0.00     0.045 A 
ATOM     19  C   UNL     1      49.777 133.883  23.694  1.00  0.00     0.028 A 
ATOM     20  N   UNL     1      49.696 135.783  22.475  1.00  0.00    -0.361 N 
ATOM     21  C   UNL     1      50.390 135.100  23.414  1.00  0.00     0.083 A 
ATOM     22  H   UNL     1      49.931 136.721  22.081  1.00  0.00     0.166 HD
ENDBRANCH  12  13
BRANCH  12  23
ATOM     23  C   UNL     1      45.146 131.774  20.308  1.00  0.00     0.052 A 
ATOM     24  C   UNL     1      46.013 131.079  19.442  1.00  0.00     0.027 A 
ATOM     25  C   UNL     1      43.846 132.065  19.853  1.00  0.00    -0.021 A 
ATOM     26  C   UNL     1      45.590 130.710  18.154  1.00  0.00     0.002 A 
ATOM     27  C   UNL     1      43.442 131.707  18.590  1.00  0.00    -0.043 A 
ATOM     28  C   UNL     1      42.762 132.766  20.589  1.00  0.00     0.038 C 
ATOM     29  C   UNL     1      44.297 131.026  17.721  1.00  0.00     0.004 A 
ATOM     30  C   UNL     1      42.050 132.119  18.305  1.00  0.00     0.036 C 
ATOM     31  C   UNL     1      41.640 132.924  19.549  1.00  0.00     0.010 C 
ENDBRANCH  12  23
ENDBRANCH   1  12
TORSDOF 5
ENDMDL
MODEL 5
REMARK VINA RESULT:      -1.8      1.770      4.360
REMARK SMILES C[C@@]1(C(=O)N(c2ccc3[nH]ccc3c2)c2cccc3c2CCC3)CC[C@H](N)C1
REMARK SMILES IDX 3 1 4 2 2 3 24 4 28 5 25 6 26 7 1 8 27 9 5 12 6 13 7 14
REMARK SMILES IDX 14 15 8 16 13 17 9 18 12 19 10 20 11 21 15 23 16 24 20 25
REMARK SMILES IDX 17 26 19 27 21 28 18 29 23 30 22 31
REMARK H PARENT 27 10 27 11 10 22
ROOT
ATOM      1  C   UNL     1      46.093 125.828  22.197  1.00  0.00     0.237 C 
ATOM      2  O   UNL     1      46.663 125.715  21.077  1.00  0.00    -0.273 OA
ENDROOT
BRANCH   1   3
ATOM      3  C   UNL     1      46.715 125.164  23.418  1.00  0.00     0.049 C 
ATOM      4  C   UNL     1      48.081 125.790  23.748  1.00  0.00     0.018 C 
ATOM      5  C   UNL     1      47.066 123.691  23.168  1.00  0.00     0.035 C 
ATOM      6  C   UNL     1      48.917 124.696  24.409  1.00  0.00     0.020 C 
ATOM      7  C   UNL     1      48.208 123.365  24.129  1.00  0.00     0.051 C 
ATOM      8  C   UNL     1      45.761 125.302  24.625  1.00  0.00     0.022 C 
BRANCH   7   9
ATOM      9  N   UNL     1      49.124 122.386  23.544  1.00  0.00    -0.328 NA
ATOM     10  H   UNL     1      49.376 121.694  24.287  1.00  0.00     0.119 HD
ATOM     11  H   UNL     1      50.011 122.882  23.296  1.00  0.00     0.119 HD
ENDBRANCH   7   9
ENDBRANCH   1   3
BRANCH   1  12
ATOM     12  N   UNL     1      44.876 126.593  22.284  1.00  0.00    -0.280 N 
BRANCH  12  13
ATOM     13  C   UNL     1      44.939 128.030  22.172  1.00  0.00     0.050 A 
ATOM     14  C   UNL     1      44.758 128.843  23.324  1.00  0.00     0.029 A 
ATOM     15  C   UNL     1      45.187 128.644  20.921  1.00  0.00     0.037 A 
ATOM     16  C   UNL     1      44.829 130.244  23.236  1.00  0.00     0.029 A 
ATOM     17  C   UNL     1      45.253 130.033  20.872  1.00  0.00     0.001 A 
ATOM     18  C   UNL     1      45.081 130.806  21.988  1.00  0.00     0.045 A 
ATOM     19  C   UNL     1      45.481 130.883  19.812  1.00  0.00     0.028 A 
ATOM     20  N   UNL     1      45.189 132.110  21.686  1.00  0.00    -0.361 N 
ATOM     21  C   UNL     1      45.434 132.163  20.357  1.00  0.00     0.083 A 
ATOM     22  H   UNL     1      45.103 132.920  22.340  1.00  0.00     0.166 HD
ENDBRANCH  12  13
BRANCH  12  23
ATOM     23  C   UNL     1      43.649 125.944  22.671  1.00  0.00     0.052 A 
ATOM     24  C   UNL     1      42.698 126.628  23.454  1.00  0.00     0.027 A 
ATOM     25  C   UNL     1      43.349 124.632  22.259  1.00  0.00    -0.021 A 
ATOM     26  C   UNL     1      41.498 126.002  23.826  1.00  0.00     0.002 A 
ATOM     27  C   UNL     1      42.175 124.024  22.633  1.00  0.00    -0.043 A 
ATOM     28  C   UNL     1      44.182 123.729  21.422  1.00  0.00     0.038 C 
ATOM     29  C   UNL     1      41.231 124.691  23.416  1.00  0.00     0.004 A 
ATOM     30  C   UNL     1      42.062 122.644  22.110  1.00  0.00     0.036 C 
ATOM     31  C   UNL     1      43.418 122.394  21.430  1.00  0.00     0.010 C 
ENDBRANCH  12  23
ENDBRANCH   1  12
TORSDOF 5
ENDMDL
MODEL 6
REMARK VINA RESULT:      -1.5      3.938      7.863
REMARK SMILES C[C@@]1(C(=O)N(c2ccc3[nH]ccc3c2)c2cccc3c2CCC3)CC[C@H](N)C1
REMARK SMILES IDX 3 1 4 2 2 3 24 4 28 5 25 6 26 7 1 8 27 9 5 12 6 13 7 14
REMARK SMILES IDX 14 15 8 16 13 17 9 18 12 19 10 20 11 21 15 23 16 24 20 25
REMARK SMILES IDX 17 26 19 27 21 28 18 29 23 30 22 31
REMARK H PARENT 27 10 27 11 10 22
ROOT
ATOM      1  C   UNL     1      45.281 131.964  22.248  1.00  0.00     0.237 C 
ATOM      2  O   UNL     1      44.716 132.063  23.371  1.00  0.00    -0.273 OA
ENDROOT
BRANCH   1   3
ATOM      3  C   UNL     1      46.304 133.014  21.835  1.00  0.00     0.049 C 
ATOM      4  C   UNL     1      47.658 132.361  21.502  1.00  0.00     0.018 C 
ATOM      5  C   UNL     1      46.659 133.970  22.981  1.00  0.00     0.035 C 
ATOM      6  C   UNL     1      48.735 133.396  21.825  1.00  0.00     0.020 C 
ATOM      7  C   UNL     1      48.067 134.479  22.680  1.00  0.00     0.051 C 
ATOM      8  C   UNL     1      45.778 133.797  20.612  1.00  0.00     0.022 C 
BRANCH   7   9
ATOM      9  N   UNL     1      48.815 134.719  23.915  1.00  0.00    -0.328 NA
ATOM     10  H   UNL     1      48.762 135.741  24.132  1.00  0.00     0.119 HD
ATOM     11  H   UNL     1      49.823 134.513  23.727  1.00  0.00     0.119 HD
ENDBRANCH   7   9
ENDBRANCH   1   3
BRANCH   1  12
ATOM     12  N   UNL     1      44.946 130.852  21.396  1.00  0.00    -0.280 N 
BRANCH  12  13
ATOM     13  C   UNL     1      44.583 131.104  20.023  1.00  0.00     0.050 A 
ATOM     14  C   UNL     1      43.309 131.650  19.712  1.00  0.00     0.029 A 
ATOM     15  C   UNL     1      45.490 130.815  18.974  1.00  0.00     0.037 A 
ATOM     16  C   UNL     1      42.943 131.914  18.380  1.00  0.00     0.029 A 
ATOM     17  C   UNL     1      45.094 131.092  17.669  1.00  0.00     0.001 A 
ATOM     18  C   UNL     1      43.866 131.622  17.381  1.00  0.00     0.045 A 
ATOM     19  C   UNL     1      45.760 130.921  16.475  1.00  0.00     0.028 A 
ATOM     20  N   UNL     1      43.720 131.796  16.057  1.00  0.00    -0.361 N 
ATOM     21  C   UNL     1      44.876 131.370  15.499  1.00  0.00     0.083 A 
ATOM     22  H   UNL     1      42.888 132.182  15.558  1.00  0.00     0.166 HD
ENDBRANCH  12  13
BRANCH  12  23
ATOM     23  C   UNL     1      44.790 129.537  21.964  1.00  0.00     0.052 A 
ATOM     24  C   UNL     1      45.716 128.519  21.665  1.00  0.00     0.027 A 
ATOM     25  C   UNL     1      43.738 129.239  22.851  1.00  0.00    -0.021 A 
ATOM     26  C   UNL     1      45.573 127.238  22.223  1.00  0.00     0.002 A 
ATOM     27  C   UNL     1      43.601 127.981  23.387  1.00  0.00    -0.043 A 
ATOM     28  C   UNL     1      42.661 130.149  23.322  1.00  0.00     0.038 C 
ATOM     29  C   UNL     1      44.508 126.963  23.090  1.00  0.00     0.004 A 
ATOM     30  C   UNL     1      42.423 127.874  24.278  1.00  0.00     0.036 C 
ATOM     31  C   UNL     1      41.730 129.239  24.142  1.00  0.00     0.010 C 
ENDBRANCH  12  23
ENDBRANCH   1  12
TORSDOF 5
ENDMDL
MODEL 7
REMARK VINA RESULT:      -1.3      5.221      7.651
REMARK SMILES C[C@@]1(C(=O)N(c2ccc3[nH]ccc3c2)c2cccc3c2CCC3)CC[C@H](N)C1
REMARK SMILES IDX 3 1 4 2 2 3 24 4 28 5 25 6 26 7 1 8 27 9 5 12 6 13 7 14
REMARK SMILES IDX 14 15 8 16 13 17 9 18 12 19 10 20 11 21 15 23 16 24 20 25
REMARK SMILES IDX 17 26 19 27 21 28 18 29 23 30 22 31
REMARK H PARENT 27 10 27 11 10 22
ROOT
ATOM      1  C   UNL     1      45.086 130.339  21.614  1.00  0.00     0.237 C 
ATOM      2  O   UNL     1      45.769 129.326  21.301  1.00  0.00    -0.273 OA
ENDROOT
BRANCH   1   3
ATOM      3  C   UNL     1      44.224 130.298  22.869  1.00  0.00     0.049 C 
ATOM      4  C   UNL     1      42.964 129.443  22.641  1.00  0.00     0.018 C 
ATOM      5  C   UNL     1      43.644 131.672  23.228  1.00  0.00     0.035 C 
ATOM      6  C   UNL     1      41.877 130.014  23.551  1.00  0.00     0.020 C 
ATOM      7  C   UNL     1      42.364 131.393  24.012  1.00  0.00     0.051 C 
ATOM      8  C   UNL     1      45.048 129.727  24.044  1.00  0.00     0.022 C 
BRANCH   7   9
ATOM      9  N   UNL     1      41.357 132.425  23.758  1.00  0.00    -0.328 NA
ATOM     10  H   UNL     1      40.780 132.120  22.941  1.00  0.00     0.119 HD
ATOM     11  H   UNL     1      41.855 133.294  23.455  1.00  0.00     0.119 HD
ENDBRANCH   7   9
ENDBRANCH   1   3
BRANCH   1  12
ATOM     12  N   UNL     1      45.153 131.509  20.776  1.00  0.00    -0.280 N 
BRANCH  12  13
ATOM     13  C   UNL     1      46.073 132.566  21.118  1.00  0.00     0.050 A 
ATOM     14  C   UNL     1      45.861 133.882  20.625  1.00  0.00     0.029 A 
ATOM     15  C   UNL     1      47.190 132.306  21.948  1.00  0.00     0.037 A 
ATOM     16  C   UNL     1      46.741 134.927  20.959  1.00  0.00     0.029 A 
ATOM     17  C   UNL     1      48.038 133.366  22.259  1.00  0.00     0.001 A 
ATOM     18  C   UNL     1      47.822 134.630  21.783  1.00  0.00     0.045 A 
ATOM     19  C   UNL     1      49.176 133.406  23.034  1.00  0.00     0.028 A 
ATOM     20  N   UNL     1      48.772 135.473  22.219  1.00  0.00    -0.361 N 
ATOM     21  C   UNL     1      49.602 134.730  22.986  1.00  0.00     0.083 A 
ATOM     22  H   UNL     1      48.856 136.494  22.013  1.00  0.00     0.166 HD
ENDBRANCH  12  13
BRANCH  12  23
ATOM     23  C   UNL     1      44.179 131.698  19.731  1.00  0.00     0.052 A 
ATOM     24  C   UNL     1      42.889 132.172  20.039  1.00  0.00     0.027 A 
ATOM     25  C   UNL     1      44.490 131.448  18.381  1.00  0.00    -0.021 A 
ATOM     26  C   UNL     1      41.939 132.366  19.022  1.00  0.00     0.002 A 
ATOM     27  C   UNL     1      43.553 131.633  17.393  1.00  0.00    -0.043 A 
ATOM     28  C   UNL     1      45.779 130.964  17.820  1.00  0.00     0.038 C 
ATOM     29  C   UNL     1      42.269 132.094  17.689  1.00  0.00     0.004 A 
ATOM     30  C   UNL     1      44.076 131.298  16.050  1.00  0.00     0.036 C 
ATOM     31  C   UNL     1      45.480 130.737  16.328  1.00  0.00     0.010 C 
ENDBRANCH  12  23
ENDBRANCH   1  12
TORSDOF 5
ENDMDL


