MODEL 1
REMARK VINA RESULT:      -3.6      0.000      0.000
REMARK SMILES CC(C)[C@H](N=O)C(=O)N(c1ccc2[nH]ccc2c1)c1cccc2c1CCC2
REMARK SMILES IDX 7 1 8 2 4 3 2 4 1 5 3 6 5 7 6 8 9 9 10 10 11 11 18 12 12 13
REMARK SMILES IDX 17 14 13 15 16 16 14 17 15 18 19 20 20 21 24 22 21 23 23 24
REMARK SMILES IDX 25 25 22 26 27 27 26 28
REMARK H PARENT 14 19
ROOT
ATOM      1  C   UNL     1      46.343 132.203  21.155  1.00  0.00     0.260 C 
ATOM      2  O   UNL     1      47.362 131.548  20.808  1.00  0.00    -0.271 OA
ENDROOT
BRANCH   1   3
ATOM      3  C   UNL     1      46.508 133.429  22.039  1.00  0.00     0.243 C 
BRANCH   3   4
ATOM      4  C   UNL     1      47.856 134.184  21.857  1.00  0.00     0.021 C 
ATOM      5  C   UNL     1      47.707 135.645  21.397  1.00  0.00     0.010 C 
ATOM      6  C   UNL     1      48.730 134.105  23.116  1.00  0.00     0.010 C 
ENDBRANCH   3   4
BRANCH   3   7
ATOM      7  N   UNL     1      46.342 133.049  23.423  1.00  0.00    -0.056 NA
ATOM      8  O   UNL     1      45.471 133.525  24.088  1.00  0.00    -0.150 OA
ENDBRANCH   3   7
ENDBRANCH   1   3
BRANCH   1   9
ATOM      9  N   UNL     1      45.035 131.685  20.834  1.00  0.00    -0.279 N 
BRANCH   9  10
ATOM     10  C   UNL     1      44.555 131.673  19.477  1.00  0.00     0.050 A 
ATOM     11  C   UNL     1      43.179 131.878  19.207  1.00  0.00     0.029 A 
ATOM     12  C   UNL     1      45.461 131.489  18.410  1.00  0.00     0.037 A 
ATOM     13  C   UNL     1      42.701 131.884  17.884  1.00  0.00     0.029 A 
ATOM     14  C   UNL     1      44.955 131.502  17.113  1.00  0.00     0.001 A 
ATOM     15  C   UNL     1      43.623 131.691  16.858  1.00  0.00     0.045 A 
ATOM     16  C   UNL     1      45.589 131.350  15.900  1.00  0.00     0.028 A 
ATOM     17  N   UNL     1      43.382 131.667  15.538  1.00  0.00    -0.361 N 
ATOM     18  C   UNL     1      44.580 131.457  14.947  1.00  0.00     0.083 A 
ATOM     19  H   UNL     1      42.460 131.785  15.061  1.00  0.00     0.166 HD
ENDBRANCH   9  10
BRANCH   9  20
ATOM     20  C   UNL     1      44.170 131.234  21.895  1.00  0.00     0.052 A 
ATOM     21  C   UNL     1      43.210 132.106  22.448  1.00  0.00     0.027 A 
ATOM     22  C   UNL     1      44.253 129.926  22.411  1.00  0.00    -0.021 A 
ATOM     23  C   UNL     1      42.364 131.672  23.482  1.00  0.00     0.002 A 
ATOM     24  C   UNL     1      43.428 129.514  23.430  1.00  0.00    -0.043 A 
ATOM     25  C   UNL     1      45.197 128.851  22.012  1.00  0.00     0.038 C 
ATOM     26  C   UNL     1      42.470 130.367  23.979  1.00  0.00     0.004 A 
ATOM     27  C   UNL     1      43.699 128.118  23.844  1.00  0.00     0.036 C 
ATOM     28  C   UNL     1      44.943 127.725  23.029  1.00  0.00     0.010 C 
ENDBRANCH   9  20
ENDBRANCH   1   9
TORSDOF 6
ENDMDL
MODEL 2
REMARK VINA RESULT:      -2.7      4.756      8.453
REMARK SMILES CC(C)[C@H](N=O)C(=O)N(c1ccc2[nH]ccc2c1)c1cccc2c1CCC2
REMARK SMILES IDX 7 1 8 2 4 3 2 4 1 5 3 6 5 7 6 8 9 9 10 10 11 11 18 12 12 13
REMARK SMILES IDX 17 14 13 15 16 16 14 17 15 18 19 20 20 21 24 22 21 23 23 24
REMARK SMILES IDX 25 25 22 26 27 27 26 28
REMARK H PARENT 14 19
ROOT
ATOM      1  C   UNL     1      43.721 124.919  23.016  1.00  0.00     0.260 C 
ATOM      2  O   UNL     1      44.048 124.031  22.182  1.00  0.00    -0.271 OA
ENDROOT
BRANCH   1   3
ATOM      3  C   UNL     1      42.334 124.886  23.638  1.00  0.00     0.243 C 
BRANCH   3   4
ATOM      4  C   UNL     1      41.748 123.459  23.841  1.00  0.00     0.021 C 
ATOM      5  C   UNL     1      42.717 122.465  24.507  1.00  0.00     0.010 C 
ATOM      6  C   UNL     1      40.412 123.492  24.594  1.00  0.00     0.010 C 
ENDBRANCH   3   4
BRANCH   3   7
ATOM      7  N   UNL     1      41.430 125.677  22.835  1.00  0.00    -0.056 NA
ATOM      8  O   UNL     1      40.260 125.702  23.078  1.00  0.00    -0.150 OA
ENDBRANCH   3   7
ENDBRANCH   1   3
BRANCH   1   9
ATOM      9  N   UNL     1      44.615 126.030  23.242  1.00  0.00    -0.279 N 
BRANCH   9  10
ATOM     10  C   UNL     1      46.034 125.826  23.365  1.00  0.00     0.050 A 
ATOM     11  C   UNL     1      46.736 126.367  24.471  1.00  0.00     0.029 A 
ATOM     12  C   UNL     1      46.724 125.060  22.401  1.00  0.00     0.037 A 
ATOM     13  C   UNL     1      48.121 126.162  24.612  1.00  0.00     0.029 A 
ATOM     14  C   UNL     1      48.093 124.875  22.571  1.00  0.00     0.001 A 
ATOM     15  C   UNL     1      48.769 125.408  23.636  1.00  0.00     0.045 A 
ATOM     16  C   UNL     1      49.008 124.189  21.804  1.00  0.00     0.028 A 
ATOM     17  N   UNL     1      50.072 125.089  23.582  1.00  0.00    -0.361 N 
ATOM     18  C   UNL     1      50.224 124.345  22.463  1.00  0.00     0.083 A 
ATOM     19  H   UNL     1      50.817 125.359  24.262  1.00  0.00     0.166 HD
ENDBRANCH   9  10
BRANCH   9  20
ATOM     20  C   UNL     1      44.071 127.354  23.412  1.00  0.00     0.052 A 
ATOM     21  C   UNL     1      43.124 127.608  24.425  1.00  0.00     0.027 A 
ATOM     22  C   UNL     1      44.459 128.425  22.583  1.00  0.00    -0.021 A 
ATOM     23  C   UNL     1      42.591 128.897  24.596  1.00  0.00     0.002 A 
ATOM     24  C   UNL     1      43.924 129.680  22.751  1.00  0.00    -0.043 A 
ATOM     25  C   UNL     1      45.409 128.390  21.441  1.00  0.00     0.038 C 
ATOM     26  C   UNL     1      42.992 129.943  23.756  1.00  0.00     0.004 A 
ATOM     27  C   UNL     1      44.442 130.650  21.760  1.00  0.00     0.036 C 
ATOM     28  C   UNL     1      45.298 129.790  20.813  1.00  0.00     0.010 C 
ENDBRANCH   9  20
ENDBRANCH   1   9
TORSDOF 6
ENDMDL
MODEL 3
REMARK VINA RESULT:      -1.9      0.434      1.848
REMARK SMILES CC(C)[C@H](N=O)C(=O)N(c1ccc2[nH]ccc2c1)c1cccc2c1CCC2
REMARK SMILES IDX 7 1 8 2 4 3 2 4 1 5 3 6 5 7 6 8 9 9 10 10 11 11 18 12 12 13
REMARK SMILES IDX 17 14 13 15 16 16 14 17 15 18 19 20 20 21 24 22 21 23 23 24
REMARK SMILES IDX 25 25 22 26 27 27 26 28
REMARK H PARENT 14 19
ROOT
ATOM      1  C   UNL     1      46.659 131.997  21.015  1.00  0.00     0.260 C 
ATOM      2  O   UNL     1      47.798 131.561  20.693  1.00  0.00    -0.271 OA
ENDROOT
BRANCH   1   3
ATOM      3  C   UNL     1      46.553 133.231  21.897  1.00  0.00     0.243 C 
BRANCH   3   4
ATOM      4  C   UNL     1      47.797 134.164  21.860  1.00  0.00     0.021 C 
ATOM      5  C   UNL     1      47.479 135.630  21.512  1.00  0.00     0.010 C 
ATOM      6  C   UNL     1      48.611 134.085  23.158  1.00  0.00     0.010 C 
ENDBRANCH   3   4
BRANCH   3   7
ATOM      7  N   UNL     1      46.285 132.826  23.258  1.00  0.00    -0.056 NA
ATOM      8  O   UNL     1      45.606 133.500  23.974  1.00  0.00    -0.150 OA
ENDBRANCH   3   7
ENDBRANCH   1   3
BRANCH   1   9
ATOM      9  N   UNL     1      45.490 131.225  20.667  1.00  0.00    -0.279 N 
BRANCH   9  10
ATOM     10  C   UNL     1      44.866 131.366  19.378  1.00  0.00     0.050 A 
ATOM     11  C   UNL     1      43.512 131.776  19.285  1.00  0.00     0.029 A 
ATOM     12  C   UNL     1      45.611 131.128  18.203  1.00  0.00     0.037 A 
ATOM     13  C   UNL     1      42.895 131.933  18.031  1.00  0.00     0.029 A 
ATOM     14  C   UNL     1      44.969 131.295  16.978  1.00  0.00     0.001 A 
ATOM     15  C   UNL     1      43.659 131.680  16.894  1.00  0.00     0.045 A 
ATOM     16  C   UNL     1      45.435 131.135  15.692  1.00  0.00     0.028 A 
ATOM     17  N   UNL     1      43.270 131.775  15.612  1.00  0.00    -0.361 N 
ATOM     18  C   UNL     1      44.353 131.441  14.872  1.00  0.00     0.083 A 
ATOM     19  H   UNL     1      42.328 132.050  15.255  1.00  0.00     0.166 HD
ENDBRANCH   9  10
BRANCH   9  20
ATOM     20  C   UNL     1      44.901 130.348  21.648  1.00  0.00     0.052 A 
ATOM     21  C   UNL     1      45.398 129.040  21.821  1.00  0.00     0.027 A 
ATOM     22  C   UNL     1      43.823 130.760  22.454  1.00  0.00    -0.021 A 
ATOM     23  C   UNL     1      44.828 128.181  22.775  1.00  0.00     0.002 A 
ATOM     24  C   UNL     1      43.264 129.908  23.378  1.00  0.00    -0.043 A 
ATOM     25  C   UNL     1      43.118 132.068  22.429  1.00  0.00     0.038 C 
ATOM     26  C   UNL     1      43.754 128.614  23.562  1.00  0.00     0.004 A 
ATOM     27  C   UNL     1      42.126 130.525  24.097  1.00  0.00     0.036 C 
ATOM     28  C   UNL     1      41.930 131.877  23.388  1.00  0.00     0.010 C 
ENDBRANCH   9  20
ENDBRANCH   1   9
TORSDOF 6
ENDMDL
MODEL 4
REMARK VINA RESULT:      -1.7      1.472      2.518
REMARK SMILES CC(C)[C@H](N=O)C(=O)N(c1ccc2[nH]ccc2c1)c1cccc2c1CCC2
REMARK SMILES IDX 7 1 8 2 4 3 2 4 1 5 3 6 5 7 6 8 9 9 10 10 11 11 18 12 12 13
REMARK SMILES IDX 17 14 13 15 16 16 14 17 15 18 19 20 20 21 24 22 21 23 23 24
REMARK SMILES IDX 25 25 22 26 27 27 26 28
REMARK H PARENT 14 19
ROOT
ATOM      1  C   UNL     1      45.742 132.784  21.085  1.00  0.00     0.260 C 
ATOM      2  O   UNL     1      45.620 133.830  20.391  1.00  0.00    -0.271 OA
ENDROOT
BRANCH   1   3
ATOM      3  C   UNL     1      46.608 132.813  22.334  1.00  0.00     0.243 C 
BRANCH   3   4
ATOM      4  C   UNL     1      45.911 133.402  23.594  1.00  0.00     0.021 C 
ATOM      5  C   UNL     1      45.443 132.345  24.611  1.00  0.00     0.010 C 
ATOM      6  C   UNL     1      46.777 134.463  24.284  1.00  0.00     0.010 C 
ENDBRANCH   3   4
BRANCH   3   7
ATOM      7  N   UNL     1      47.823 133.546  22.059  1.00  0.00    -0.056 NA
ATOM      8  O   UNL     1      48.866 132.976  21.937  1.00  0.00    -0.150 OA
ENDBRANCH   3   7
ENDBRANCH   1   3
BRANCH   1   9
ATOM      9  N   UNL     1      45.183 131.548  20.592  1.00  0.00    -0.279 N 
BRANCH   9  10
ATOM     10  C   UNL     1      44.951 131.348  19.186  1.00  0.00     0.050 A 
ATOM     11  C   UNL     1      43.750 131.807  18.591  1.00  0.00     0.029 A 
ATOM     12  C   UNL     1      45.935 130.722  18.390  1.00  0.00     0.037 A 
ATOM     13  C   UNL     1      43.518 131.632  17.215  1.00  0.00     0.029 A 
ATOM     14  C   UNL     1      45.674 130.566  17.032  1.00  0.00     0.001 A 
ATOM     15  C   UNL     1      44.508 131.002  16.463  1.00  0.00     0.045 A 
ATOM     16  C   UNL     1      46.434 130.002  16.031  1.00  0.00     0.028 A 
ATOM     17  N   UNL     1      44.492 130.743  15.146  1.00  0.00    -0.361 N 
ATOM     18  C   UNL     1      45.668 130.130  14.876  1.00  0.00     0.083 A 
ATOM     19  H   UNL     1      43.732 130.967  14.467  1.00  0.00     0.166 HD
ENDBRANCH   9  10
BRANCH   9  20
ATOM     20  C   UNL     1      44.790 130.524  21.528  1.00  0.00     0.052 A 
ATOM     21  C   UNL     1      45.470 129.289  21.557  1.00  0.00     0.027 A 
ATOM     22  C   UNL     1      43.727 130.716  22.431  1.00  0.00    -0.021 A 
ATOM     23  C   UNL     1      45.092 128.288  22.466  1.00  0.00     0.002 A 
ATOM     24  C   UNL     1      43.357 129.727  23.310  1.00  0.00    -0.043 A 
ATOM     25  C   UNL     1      42.852 131.910  22.562  1.00  0.00     0.038 C 
ATOM     26  C   UNL     1      44.029 128.504  23.351  1.00  0.00     0.004 A 
ATOM     27  C   UNL     1      42.201 130.120  24.147  1.00  0.00     0.036 C 
ATOM     28  C   UNL     1      41.773 131.481  23.571  1.00  0.00     0.010 C 
ENDBRANCH   9  20
ENDBRANCH   1   9
TORSDOF 6
ENDMDL
MODEL 5
REMARK VINA RESULT:      -1.2      0.857      1.359
REMARK SMILES CC(C)[C@H](N=O)C(=O)N(c1ccc2[nH]ccc2c1)c1cccc2c1CCC2
REMARK SMILES IDX 7 1 8 2 4 3 2 4 1 5 3 6 5 7 6 8 9 9 10 10 11 11 18 12 12 13
REMARK SMILES IDX 17 14 13 15 16 16 14 17 15 18 19 20 20 21 24 22 21 23 23 24
REMARK SMILES IDX 25 25 22 26 27 27 26 28
REMARK H PARENT 14 19
ROOT
ATOM      1  C   UNL     1      46.820 132.180  20.953  1.00  0.00     0.260 C 
ATOM      2  O   UNL     1      47.941 131.625  20.798  1.00  0.00    -0.271 OA
ENDROOT
BRANCH   1   3
ATOM      3  C   UNL     1      46.727 133.467  21.756  1.00  0.00     0.243 C 
BRANCH   3   4
ATOM      4  C   UNL     1      48.020 134.334  21.746  1.00  0.00     0.021 C 
ATOM      5  C   UNL     1      47.783 135.819  21.419  1.00  0.00     0.010 C 
ATOM      6  C   UNL     1      48.815 134.191  23.050  1.00  0.00     0.010 C 
ENDBRANCH   3   4
BRANCH   3   7
ATOM      7  N   UNL     1      46.357 133.157  23.119  1.00  0.00    -0.056 NA
ATOM      8  O   UNL     1      46.377 134.001  23.964  1.00  0.00    -0.150 OA
ENDBRANCH   3   7
ENDBRANCH   1   3
BRANCH   1   9
ATOM      9  N   UNL     1      45.633 131.498  20.495  1.00  0.00    -0.279 N 
BRANCH   9  10
ATOM     10  C   UNL     1      45.445 131.191  19.102  1.00  0.00     0.050 A 
ATOM     11  C   UNL     1      46.238 130.194  18.480  1.00  0.00     0.029 A 
ATOM     12  C   UNL     1      44.447 131.859  18.360  1.00  0.00     0.037 A 
ATOM     13  C   UNL     1      46.054 129.874  17.123  1.00  0.00     0.029 A 
ATOM     14  C   UNL     1      44.290 131.516  17.020  1.00  0.00     0.001 A 
ATOM     15  C   UNL     1      45.066 130.561  16.421  1.00  0.00     0.045 A 
ATOM     16  C   UNL     1      43.416 131.993  16.068  1.00  0.00     0.028 A 
ATOM     17  N   UNL     1      44.723 130.406  15.132  1.00  0.00    -0.361 N 
ATOM     18  C   UNL     1      43.715 131.281  14.910  1.00  0.00     0.083 A 
ATOM     19  H   UNL     1      45.145 129.748  14.440  1.00  0.00     0.166 HD
ENDBRANCH   9  10
BRANCH   9  20
ATOM     20  C   UNL     1      44.590 131.179  21.438  1.00  0.00     0.052 A 
ATOM     21  C   UNL     1      43.613 132.140  21.768  1.00  0.00     0.027 A 
ATOM     22  C   UNL     1      44.512 129.915  22.055  1.00  0.00    -0.021 A 
ATOM     23  C   UNL     1      42.594 131.835  22.686  1.00  0.00     0.002 A 
ATOM     24  C   UNL     1      43.518 129.630  22.960  1.00  0.00    -0.043 A 
ATOM     25  C   UNL     1      45.438 128.766  21.889  1.00  0.00     0.038 C 
ATOM     26  C   UNL     1      42.542 130.572  23.287  1.00  0.00     0.004 A 
ATOM     27  C   UNL     1      43.635 128.261  23.512  1.00  0.00     0.036 C 
ATOM     28  C   UNL     1      44.962 127.741  22.933  1.00  0.00     0.010 C 
ENDBRANCH   9  20
ENDBRANCH   1   9
TORSDOF 6
ENDMDL
MODEL 6
REMARK VINA RESULT:      -0.8      1.630      5.343
REMARK SMILES CC(C)[C@H](N=O)C(=O)N(c1ccc2[nH]ccc2c1)c1cccc2c1CCC2
REMARK SMILES IDX 7 1 8 2 4 3 2 4 1 5 3 6 5 7 6 8 9 9 10 10 11 11 18 12 12 13
REMARK SMILES IDX 17 14 13 15 16 16 14 17 15 18 19 20 20 21 24 22 21 23 23 24
REMARK SMILES IDX 25 25 22 26 27 27 26 28
REMARK H PARENT 14 19
ROOT
ATOM      1  C   UNL     1      46.242 132.088  21.556  1.00  0.00     0.260 C 
ATOM      2  O   UNL     1      47.461 132.038  21.239  1.00  0.00    -0.271 OA
ENDROOT
BRANCH   1   3
ATOM      3  C   UNL     1      45.784 133.083  22.611  1.00  0.00     0.243 C 
BRANCH   3   4
ATOM      4  C   UNL     1      46.806 134.213  22.925  1.00  0.00     0.021 C 
ATOM      5  C   UNL     1      47.256 134.268  24.397  1.00  0.00     0.010 C 
ATOM      6  C   UNL     1      48.024 134.158  21.994  1.00  0.00     0.010 C 
ENDBRANCH   3   4
BRANCH   3   7
ATOM      7  N   UNL     1      45.448 132.374  23.825  1.00  0.00    -0.056 NA
ATOM      8  O   UNL     1      44.482 132.675  24.460  1.00  0.00    -0.150 OA
ENDBRANCH   3   7
ENDBRANCH   1   3
BRANCH   1   9
ATOM      9  N   UNL     1      45.340 131.095  21.025  1.00  0.00    -0.279 N 
BRANCH   9  10
ATOM     10  C   UNL     1      44.994 129.924  21.786  1.00  0.00     0.050 A 
ATOM     11  C   UNL     1      43.940 129.975  22.732  1.00  0.00     0.029 A 
ATOM     12  C   UNL     1      45.685 128.711  21.569  1.00  0.00     0.037 A 
ATOM     13  C   UNL     1      43.582 128.833  23.471  1.00  0.00     0.029 A 
ATOM     14  C   UNL     1      45.304 127.600  22.316  1.00  0.00     0.001 A 
ATOM     15  C   UNL     1      44.292 127.658  23.236  1.00  0.00     0.045 A 
ATOM     16  C   UNL     1      45.790 126.312  22.319  1.00  0.00     0.028 A 
ATOM     17  N   UNL     1      44.110 126.464  23.822  1.00  0.00    -0.361 N 
ATOM     18  C   UNL     1      45.025 125.636  23.266  1.00  0.00     0.083 A 
ATOM     19  H   UNL     1      43.408 126.219  24.555  1.00  0.00     0.166 HD
ENDBRANCH   9  10
BRANCH   9  20
ATOM     20  C   UNL     1      44.828 131.245  19.685  1.00  0.00     0.052 A 
ATOM     21  C   UNL     1      45.612 130.858  18.578  1.00  0.00     0.027 A 
ATOM     22  C   UNL     1      43.548 131.777  19.437  1.00  0.00    -0.021 A 
ATOM     23  C   UNL     1      45.119 131.002  17.271  1.00  0.00     0.002 A 
ATOM     24  C   UNL     1      43.079 131.924  18.154  1.00  0.00    -0.043 A 
ATOM     25  C   UNL     1      42.565 132.278  20.433  1.00  0.00     0.038 C 
ATOM     26  C   UNL     1      43.844 131.537  17.053  1.00  0.00     0.004 A 
ATOM     27  C   UNL     1      41.728 132.529  18.114  1.00  0.00     0.036 C 
ATOM     28  C   UNL     1      41.444 132.897  19.581  1.00  0.00     0.010 C 
ENDBRANCH   9  20
ENDBRANCH   1   9
TORSDOF 6
ENDMDL
MODEL 7
REMARK VINA RESULT:      -0.7      1.752      5.279
REMARK SMILES CC(C)[C@H](N=O)C(=O)N(c1ccc2[nH]ccc2c1)c1cccc2c1CCC2
REMARK SMILES IDX 7 1 8 2 4 3 2 4 1 5 3 6 5 7 6 8 9 9 10 10 11 11 18 12 12 13
REMARK SMILES IDX 17 14 13 15 16 16 14 17 15 18 19 20 20 21 24 22 21 23 23 24
REMARK SMILES IDX 25 25 22 26 27 27 26 28
REMARK H PARENT 14 19
ROOT
ATOM      1  C   UNL     1      43.666 132.076  20.772  1.00  0.00     0.260 C 
ATOM      2  O   UNL     1      42.457 132.403  20.625  1.00  0.00    -0.271 OA
ENDROOT
BRANCH   1   3
ATOM      3  C   UNL     1      44.534 131.850  19.545  1.00  0.00     0.243 C 
BRANCH   3   4
ATOM      4  C   UNL     1      43.825 132.128  18.188  1.00  0.00     0.021 C 
ATOM      5  C   UNL     1      44.507 131.475  16.972  1.00  0.00     0.010 C 
ATOM      6  C   UNL     1      42.338 131.755  18.233  1.00  0.00     0.010 C 
ENDBRANCH   3   4
BRANCH   3   7
ATOM      7  N   UNL     1      45.047 130.499  19.562  1.00  0.00    -0.056 NA
ATOM      8  O   UNL     1      46.112 130.243  19.083  1.00  0.00    -0.150 OA
ENDBRANCH   3   7
ENDBRANCH   1   3
BRANCH   1   9
ATOM      9  N   UNL     1      44.153 131.774  22.097  1.00  0.00    -0.279 N 
BRANCH   9  10
ATOM     10  C   UNL     1      45.261 132.497  22.662  1.00  0.00     0.050 A 
ATOM     11  C   UNL     1      45.317 132.737  24.058  1.00  0.00     0.029 A 
ATOM     12  C   UNL     1      46.312 132.942  21.831  1.00  0.00     0.037 A 
ATOM     13  C   UNL     1      46.402 133.428  24.625  1.00  0.00     0.029 A 
ATOM     14  C   UNL     1      47.372 133.622  22.424  1.00  0.00     0.001 A 
ATOM     15  C   UNL     1      47.416 133.860  23.772  1.00  0.00     0.045 A 
ATOM     16  C   UNL     1      48.512 134.163  21.873  1.00  0.00     0.028 A 
ATOM     17  N   UNL     1      48.534 134.526  24.103  1.00  0.00    -0.361 N 
ATOM     18  C   UNL     1      49.207 134.715  22.945  1.00  0.00     0.083 A 
ATOM     19  H   UNL     1      48.826 134.835  25.056  1.00  0.00     0.166 HD
ENDBRANCH   9  10
BRANCH   9  20
ATOM     20  C   UNL     1      43.564 130.688  22.839  1.00  0.00     0.052 A 
ATOM     21  C   UNL     1      42.427 130.911  23.644  1.00  0.00     0.027 A 
ATOM     22  C   UNL     1      44.095 129.384  22.790  1.00  0.00    -0.021 A 
ATOM     23  C   UNL     1      41.848 129.856  24.369  1.00  0.00     0.002 A 
ATOM     24  C   UNL     1      43.528 128.361  23.511  1.00  0.00    -0.043 A 
ATOM     25  C   UNL     1      45.293 128.921  22.043  1.00  0.00     0.038 C 
ATOM     26  C   UNL     1      42.399 128.571  24.304  1.00  0.00     0.004 A 
ATOM     27  C   UNL     1      44.256 127.082  23.343  1.00  0.00     0.036 C 
ATOM     28  C   UNL     1      45.489 127.467  22.507  1.00  0.00     0.010 C 
ENDBRANCH   9  20
ENDBRANCH   1   9
TORSDOF 6
ENDMDL


