REMARK SMILES Cc1cc(-c2c[nH+]c3c(c2)C(=O)[N-]C3)c(N)c2cc[nH]c12
REMARK SMILES IDX 1 1 2 2 3 3 4 4 15 5 17 6 18 7 19 8 20 9 21 10 5 12 6 13
REMARK SMILES IDX 10 14 7 15 9 16 8 17 11 18 14 19 13 20 12 22 16 23
REMARK H PARENT 20 11 7 21 16 24 16 25
ROOT
ATOM      1  C   UNL     1       0.296   5.044   0.316  1.00  0.00     0.046 C 
ATOM      2  C   UNL     1      -0.180   3.622   0.243  1.00  0.00    -0.026 A 
ATOM      3  C   UNL     1       0.628   2.610  -0.312  1.00  0.00     0.016 A 
ATOM      4  C   UNL     1       0.181   1.265  -0.375  1.00  0.00     0.012 A 
ATOM      5  C   UNL     1      -1.112   0.927   0.112  1.00  0.00     0.049 A 
ATOM      6  C   UNL     1      -1.885   1.956   0.666  1.00  0.00     0.023 A 
ATOM      7  C   UNL     1      -3.155   1.941   1.210  1.00  0.00     0.030 A 
ATOM      8  C   UNL     1      -3.413   3.252   1.587  1.00  0.00     0.083 A 
ATOM      9  N   UNL     1      -2.363   4.049   1.292  1.00  0.00    -0.361 N 
ATOM     10  C   UNL     1      -1.437   3.251   0.730  1.00  0.00     0.050 A 
ATOM     11  H   UNL     1      -2.297   5.076   1.466  1.00  0.00     0.166 HD
ENDROOT
BRANCH   4  12
ATOM     12  C   UNL     1       1.098   0.243  -0.924  1.00  0.00     0.048 A 
ATOM     13  C   UNL     1       1.634   0.388  -2.228  1.00  0.00     0.315 A 
ATOM     14  C   UNL     1       1.486  -0.864  -0.143  1.00  0.00     0.031 A 
ATOM     15  N   UNL     1       2.500  -0.542  -2.732  1.00  0.00    -0.215 N 
ATOM     16  C   UNL     1       2.368  -1.779  -0.707  1.00  0.00     0.065 A 
ATOM     17  C   UNL     1       2.856  -1.611  -1.974  1.00  0.00     0.171 A 
ATOM     18  C   UNL     1       2.950  -2.989  -0.191  1.00  0.00     0.089 C 
ATOM     19  C   UNL     1       3.791  -2.721  -2.352  1.00  0.00    -0.006 C 
ATOM     20  N   UNL     1       3.811  -3.579  -1.161  1.00  0.00    -0.641 NA
ATOM     21  H   UNL     1       2.887  -0.429  -3.696  1.00  0.00     0.453 HD
ATOM     22  O   UNL     1       2.741  -3.477   0.950  1.00  0.00    -0.315 OA
ENDBRANCH   4  12
BRANCH   5  23
ATOM     23  N   UNL     1      -1.640  -0.403   0.001  1.00  0.00    -0.398 N 
ATOM     24  H   UNL     1      -2.557  -0.657   0.428  1.00  0.00     0.156 HD
ATOM     25  H   UNL     1      -1.159  -1.139  -0.560  1.00  0.00     0.156 HD
ENDBRANCH   5  23
TORSDOF 2


