MODEL 1
REMARK VINA RESULT:      -7.6      0.000      0.000
REMARK SMILES Cc1c(Nc2c3o[n-]cc-3cc(-n3nc4ccccc4n3)c2=O)cc(-c2ccc(O)cc2)c2cc[nH]c12
REMARK SMILES IDX 1 1 2 2 3 3 24 4 25 5 33 6 34 7 35 8 36 9 37 10 4 12 5 14
REMARK SMILES IDX 6 15 22 16 7 17 10 18 12 19 8 20 9 21 11 22 23 23 13 24
REMARK SMILES IDX 14 25 21 26 15 27 20 28 16 29 19 30 17 31 18 32 26 33 27 34
REMARK SMILES IDX 32 35 28 36 31 37 29 38 30 39
REMARK H PARENT 36 11 4 13 30 40
ROOT
ATOM      1  C   UNL     1      46.346 127.996  22.678  1.00  0.00     0.049 C 
ATOM      2  C   UNL     1      44.882 127.787  22.966  1.00  0.00    -0.003 A 
ATOM      3  C   UNL     1      43.944 128.849  22.853  1.00  0.00     0.044 A 
ATOM      4  C   UNL     1      42.575 128.616  23.139  1.00  0.00     0.035 A 
ATOM      5  C   UNL     1      42.112 127.343  23.526  1.00  0.00    -0.007 A 
ATOM      6  C   UNL     1      43.068 126.327  23.656  1.00  0.00     0.008 A 
ATOM      7  C   UNL     1      42.942 125.020  24.090  1.00  0.00     0.028 A 
ATOM      8  C   UNL     1      44.227 124.496  24.065  1.00  0.00     0.083 A 
ATOM      9  N   UNL     1      45.112 125.424  23.643  1.00  0.00    -0.361 N 
ATOM     10  C   UNL     1      44.400 126.541  23.396  1.00  0.00     0.051 A 
ATOM     11  H   UNL     1      46.144 125.289  23.558  1.00  0.00     0.166 HD
ENDROOT
BRANCH   3  12
ATOM     12  N   UNL     1      44.384 130.175  22.504  1.00  0.00    -0.349 N 
ATOM     13  H   UNL     1      44.849 130.749  23.243  1.00  0.00     0.167 HD
BRANCH  12  14
ATOM     14  C   UNL     1      44.075 130.816  21.253  1.00  0.00     0.131 A 
ATOM     15  C   UNL     1      43.002 131.691  21.167  1.00  0.00     0.140 A 
ATOM     16  C   UNL     1      44.856 130.627  20.079  1.00  0.00     0.233 A 
ATOM     17  O   UNL     1      42.141 132.059  22.082  1.00  0.00    -0.555 OA
ATOM     18  C   UNL     1      42.667 132.344  19.952  1.00  0.00     0.000 A 
ATOM     19  C   UNL     1      44.508 131.272  18.843  1.00  0.00     0.136 A 
ATOM     20  N   UNL     1      41.271 132.897  21.579  1.00  0.00    -0.513 NA
ATOM     21  C   UNL     1      41.562 133.095  20.268  1.00  0.00    -0.098 A 
ATOM     22  C   UNL     1      43.392 132.146  18.791  1.00  0.00     0.044 A 
ATOM     23  O   UNL     1      45.884 129.900  20.140  1.00  0.00    -0.285 OA
BRANCH  19  24
ATOM     24  N   UNL     1      45.279 131.051  17.641  1.00  0.00    -0.146 N 
ATOM     25  N   UNL     1      45.856 129.892  17.322  1.00  0.00    -0.148 NA
ATOM     26  N   UNL     1      45.474 131.991  16.714  1.00  0.00    -0.148 NA
ATOM     27  C   UNL     1      46.447 130.111  16.139  1.00  0.00     0.113 A 
ATOM     28  C   UNL     1      46.213 131.396  15.766  1.00  0.00     0.113 A 
ATOM     29  C   UNL     1      47.187 129.233  15.355  1.00  0.00     0.032 A 
ATOM     30  C   UNL     1      46.697 131.925  14.574  1.00  0.00     0.032 A 
ATOM     31  C   UNL     1      47.698 129.728  14.137  1.00  0.00     0.002 A 
ATOM     32  C   UNL     1      47.454 131.068  13.749  1.00  0.00     0.002 A 
ENDBRANCH  19  24
ENDBRANCH  12  14
ENDBRANCH   3  12
BRANCH   5  33
ATOM     33  C   UNL     1      40.674 127.115  23.797  1.00  0.00    -0.017 A 
ATOM     34  C   UNL     1      40.093 125.862  23.537  1.00  0.00     0.012 A 
ATOM     35  C   UNL     1      39.881 128.137  24.349  1.00  0.00     0.012 A 
ATOM     36  C   UNL     1      38.740 125.641  23.808  1.00  0.00     0.047 A 
ATOM     37  C   UNL     1      38.528 127.912  24.618  1.00  0.00     0.047 A 
ATOM     38  C   UNL     1      37.953 126.666  24.349  1.00  0.00     0.115 A 
BRANCH  38  39
ATOM     39  O   UNL     1      36.603 126.457  24.623  1.00  0.00    -0.508 OA
ATOM     40  H   UNL     1      36.206 125.525  24.644  1.00  0.00     0.293 HD
ENDBRANCH  38  39
ENDBRANCH   5  33
TORSDOF 5
ENDMDL
MODEL 2
REMARK VINA RESULT:      -5.7      2.970      8.898
REMARK SMILES Cc1c(Nc2c3o[n-]cc-3cc(-n3nc4ccccc4n3)c2=O)cc(-c2ccc(O)cc2)c2cc[nH]c12
REMARK SMILES IDX 1 1 2 2 3 3 24 4 25 5 33 6 34 7 35 8 36 9 37 10 4 12 5 14
REMARK SMILES IDX 6 15 22 16 7 17 10 18 12 19 8 20 9 21 11 22 23 23 13 24
REMARK SMILES IDX 14 25 21 26 15 27 20 28 16 29 19 30 17 31 18 32 26 33 27 34
REMARK SMILES IDX 32 35 28 36 31 37 29 38 30 39
REMARK H PARENT 36 11 4 13 30 40
ROOT
ATOM      1  C   UNL     1      42.563 132.260  20.402  1.00  0.00     0.049 C 
ATOM      2  C   UNL     1      43.471 131.843  19.275  1.00  0.00    -0.003 A 
ATOM      3  C   UNL     1      44.788 131.366  19.519  1.00  0.00     0.044 A 
ATOM      4  C   UNL     1      45.615 130.990  18.431  1.00  0.00     0.035 A 
ATOM      5  C   UNL     1      45.159 131.065  17.100  1.00  0.00    -0.007 A 
ATOM      6  C   UNL     1      43.868 131.566  16.894  1.00  0.00     0.008 A 
ATOM      7  C   UNL     1      43.179 131.835  15.725  1.00  0.00     0.028 A 
ATOM      8  C   UNL     1      41.963 132.370  16.125  1.00  0.00     0.083 A 
ATOM      9  N   UNL     1      41.893 132.439  17.472  1.00  0.00    -0.361 N 
ATOM     10  C   UNL     1      43.058 131.949  17.937  1.00  0.00     0.051 A 
ATOM     11  H   UNL     1      41.094 132.825  18.022  1.00  0.00     0.166 HD
ENDROOT
BRANCH   3  12
ATOM     12  N   UNL     1      45.307 131.317  20.861  1.00  0.00    -0.349 N 
ATOM     13  H   UNL     1      46.152 131.891  21.082  1.00  0.00     0.167 HD
BRANCH  12  14
ATOM     14  C   UNL     1      44.837 130.403  21.867  1.00  0.00     0.131 A 
ATOM     15  C   UNL     1      43.957 130.838  22.845  1.00  0.00     0.140 A 
ATOM     16  C   UNL     1      45.206 129.028  21.887  1.00  0.00     0.233 A 
ATOM     17  O   UNL     1      43.445 132.026  23.049  1.00  0.00    -0.555 OA
ATOM     18  C   UNL     1      43.469 129.965  23.853  1.00  0.00     0.000 A 
ATOM     19  C   UNL     1      44.728 128.147  22.917  1.00  0.00     0.136 A 
ATOM     20  N   UNL     1      42.663 132.013  24.099  1.00  0.00    -0.513 NA
ATOM     21  C   UNL     1      42.655 130.760  24.622  1.00  0.00    -0.098 A 
ATOM     22  C   UNL     1      43.843 128.635  23.912  1.00  0.00     0.044 A 
ATOM     23  O   UNL     1      45.942 128.579  20.969  1.00  0.00    -0.285 OA
BRANCH  19  24
ATOM     24  N   UNL     1      45.131 126.760  22.960  1.00  0.00    -0.146 N 
ATOM     25  N   UNL     1      44.514 125.778  22.302  1.00  0.00    -0.148 NA
ATOM     26  N   UNL     1      46.184 126.326  23.656  1.00  0.00    -0.148 NA
ATOM     27  C   UNL     1      45.208 124.670  22.598  1.00  0.00     0.113 A 
ATOM     28  C   UNL     1      46.230 125.005  23.428  1.00  0.00     0.113 A 
ATOM     29  C   UNL     1      44.993 123.363  22.173  1.00  0.00     0.032 A 
ATOM     30  C   UNL     1      47.136 124.064  23.910  1.00  0.00     0.032 A 
ATOM     31  C   UNL     1      45.888 122.377  22.640  1.00  0.00     0.002 A 
ATOM     32  C   UNL     1      46.954 122.727  23.504  1.00  0.00     0.002 A 
ENDBRANCH  19  24
ENDBRANCH  12  14
ENDBRANCH   3  12
BRANCH   5  33
ATOM     33  C   UNL     1      46.032 130.643  15.980  1.00  0.00    -0.017 A 
ATOM     34  C   UNL     1      46.423 131.569  14.999  1.00  0.00     0.012 A 
ATOM     35  C   UNL     1      46.508 129.322  15.905  1.00  0.00     0.012 A 
ATOM     36  C   UNL     1      47.261 131.176  13.951  1.00  0.00     0.047 A 
ATOM     37  C   UNL     1      47.346 128.933  14.855  1.00  0.00     0.047 A 
ATOM     38  C   UNL     1      47.724 129.856  13.876  1.00  0.00     0.115 A 
BRANCH  38  39
ATOM     39  O   UNL     1      48.560 129.454  12.837  1.00  0.00    -0.508 OA
ATOM     40  H   UNL     1      49.528 129.748  12.792  1.00  0.00     0.293 HD
ENDBRANCH  38  39
ENDBRANCH   5  33
TORSDOF 5
ENDMDL
MODEL 3
REMARK VINA RESULT:      -5.3      3.017      8.862
REMARK SMILES Cc1c(Nc2c3o[n-]cc-3cc(-n3nc4ccccc4n3)c2=O)cc(-c2ccc(O)cc2)c2cc[nH]c12
REMARK SMILES IDX 1 1 2 2 3 3 24 4 25 5 33 6 34 7 35 8 36 9 37 10 4 12 5 14
REMARK SMILES IDX 6 15 22 16 7 17 10 18 12 19 8 20 9 21 11 22 23 23 13 24
REMARK SMILES IDX 14 25 21 26 15 27 20 28 16 29 19 30 17 31 18 32 26 33 27 34
REMARK SMILES IDX 32 35 28 36 31 37 29 38 30 39
REMARK H PARENT 36 11 4 13 30 40
ROOT
ATOM      1  C   UNL     1      42.534 132.256  20.164  1.00  0.00     0.049 C 
ATOM      2  C   UNL     1      43.483 131.835  19.073  1.00  0.00    -0.003 A 
ATOM      3  C   UNL     1      44.811 131.417  19.364  1.00  0.00     0.044 A 
ATOM      4  C   UNL     1      45.678 131.035  18.309  1.00  0.00     0.035 A 
ATOM      5  C   UNL     1      45.251 131.047  16.966  1.00  0.00    -0.007 A 
ATOM      6  C   UNL     1      43.947 131.491  16.714  1.00  0.00     0.008 A 
ATOM      7  C   UNL     1      43.278 131.693  15.520  1.00  0.00     0.028 A 
ATOM      8  C   UNL     1      42.033 132.195  15.873  1.00  0.00     0.083 A 
ATOM      9  N   UNL     1      41.928 132.307  17.215  1.00  0.00    -0.361 N 
ATOM     10  C   UNL     1      43.099 131.878  17.723  1.00  0.00     0.051 A 
ATOM     11  H   UNL     1      41.102 132.682  17.733  1.00  0.00     0.166 HD
ENDROOT
BRANCH   3  12
ATOM     12  N   UNL     1      45.299 131.434  20.718  1.00  0.00    -0.349 N 
ATOM     13  H   UNL     1      46.084 132.084  20.950  1.00  0.00     0.167 HD
BRANCH  12  14
ATOM     14  C   UNL     1      44.887 130.496  21.728  1.00  0.00     0.131 A 
ATOM     15  C   UNL     1      44.074 130.910  22.772  1.00  0.00     0.140 A 
ATOM     16  C   UNL     1      45.247 129.119  21.689  1.00  0.00     0.233 A 
ATOM     17  O   UNL     1      43.584 132.094  23.038  1.00  0.00    -0.555 OA
ATOM     18  C   UNL     1      43.646 130.012  23.785  1.00  0.00     0.000 A 
ATOM     19  C   UNL     1      44.830 128.213  22.724  1.00  0.00     0.136 A 
ATOM     20  N   UNL     1      42.871 132.057  24.135  1.00  0.00    -0.513 NA
ATOM     21  C   UNL     1      42.887 130.791  24.625  1.00  0.00    -0.098 A 
ATOM     22  C   UNL     1      44.013 128.680  23.786  1.00  0.00     0.044 A 
ATOM     23  O   UNL     1      45.920 128.691  20.714  1.00  0.00    -0.285 OA
BRANCH  19  24
ATOM     24  N   UNL     1      45.225 126.824  22.705  1.00  0.00    -0.146 N 
ATOM     25  N   UNL     1      46.244 126.343  21.991  1.00  0.00    -0.148 NA
ATOM     26  N   UNL     1      44.615 125.880  23.424  1.00  0.00    -0.148 NA
ATOM     27  C   UNL     1      46.276 125.031  22.269  1.00  0.00     0.113 A 
ATOM     28  C   UNL     1      45.279 124.748  23.146  1.00  0.00     0.113 A 
ATOM     29  C   UNL     1      47.146 124.057  21.792  1.00  0.00     0.032 A 
ATOM     30  C   UNL     1      45.057 123.462  23.630  1.00  0.00     0.032 A 
ATOM     31  C   UNL     1      46.957 122.739  22.257  1.00  0.00     0.002 A 
ATOM     32  C   UNL     1      45.917 122.443  23.172  1.00  0.00     0.002 A 
ENDBRANCH  19  24
ENDBRANCH  12  14
ENDBRANCH   3  12
BRANCH   5  33
ATOM     33  C   UNL     1      46.166 130.620  15.882  1.00  0.00    -0.017 A 
ATOM     34  C   UNL     1      46.531 129.269  15.754  1.00  0.00     0.012 A 
ATOM     35  C   UNL     1      46.650 131.553  14.948  1.00  0.00     0.012 A 
ATOM     36  C   UNL     1      47.381 128.862  14.721  1.00  0.00     0.047 A 
ATOM     37  C   UNL     1      47.499 131.142  13.916  1.00  0.00     0.047 A 
ATOM     38  C   UNL     1      47.868 129.798  13.800  1.00  0.00     0.115 A 
BRANCH  38  39
ATOM     39  O   UNL     1      48.715 129.404  12.766  1.00  0.00    -0.508 OA
ATOM     40  H   UNL     1      49.509 128.798  12.936  1.00  0.00     0.293 HD
ENDBRANCH  38  39
ENDBRANCH   5  33
TORSDOF 5
ENDMDL


