REMARK SMILES O=C(c1cscn1)N1C[C@H]2CCCC[C@H]2N[C@H]1c1ccc2[nH]ccc2c1
REMARK SMILES IDX 8 1 9 2 10 3 11 4 12 5 13 6 14 7 15 8 16 9 17 10 2 12 1 13
REMARK SMILES IDX 3 14 4 15 7 16 5 17 6 18 18 19 19 20 26 21 20 22 25 23 21 24
REMARK SMILES IDX 24 25 22 26 23 27
REMARK H PARENT 16 11 22 28
ROOT
ATOM      1  N   UNL     1       1.096  -0.437   1.340  1.00  0.00    -0.317 N 
ATOM      2  C   UNL     1       1.006   0.026   2.728  1.00  0.00     0.127 C 
ATOM      3  C   UNL     1      -0.009   1.169   2.872  1.00  0.00     0.026 C 
ATOM      4  C   UNL     1       0.581   2.513   2.395  1.00  0.00     0.007 C 
ATOM      5  C   UNL     1      -0.448   3.641   2.537  1.00  0.00     0.000 C 
ATOM      6  C   UNL     1      -1.740   3.320   1.778  1.00  0.00     0.002 C 
ATOM      7  C   UNL     1      -2.336   1.976   2.224  1.00  0.00     0.019 C 
ATOM      8  C   UNL     1      -1.323   0.816   2.133  1.00  0.00     0.060 C 
ATOM      9  N   UNL     1      -1.080   0.448   0.726  1.00  0.00    -0.290 NA
ATOM     10  C   UNL     1      -0.168  -0.704   0.616  1.00  0.00     0.185 C 
ATOM     11  H   UNL     1      -0.665   1.259   0.215  1.00  0.00     0.125 HD
ENDROOT
BRANCH   1  12
ATOM     12  C   UNL     1       2.346  -1.030   0.936  1.00  0.00     0.274 C 
ATOM     13  O   UNL     1       3.380  -0.310   0.891  1.00  0.00    -0.267 OA
BRANCH  12  14
ATOM     14  C   UNL     1       2.441  -2.461   0.592  1.00  0.00     0.139 A 
ATOM     15  C   UNL     1       3.531  -3.012  -0.078  1.00  0.00     0.100 A 
ATOM     16  N   UNL     1       1.456  -3.346   0.908  1.00  0.00    -0.240 NA
ATOM     17  S   UNL     1       3.227  -4.652  -0.283  1.00  0.00    -0.130 S 
ATOM     18  C   UNL     1       1.737  -4.599   0.491  1.00  0.00     0.176 A 
ENDBRANCH  12  14
ENDBRANCH   1  12
BRANCH  10  19
ATOM     19  C   UNL     1       0.060  -1.007  -0.856  1.00  0.00    -0.010 A 
ATOM     20  C   UNL     1      -0.496  -2.179  -1.436  1.00  0.00     0.009 A 
ATOM     21  C   UNL     1       0.813  -0.121  -1.663  1.00  0.00     0.017 A 
ATOM     22  C   UNL     1      -0.282  -2.481  -2.793  1.00  0.00     0.027 A 
ATOM     23  C   UNL     1       1.003  -0.453  -3.001  1.00  0.00    -0.000 A 
ATOM     24  C   UNL     1       0.478  -1.592  -3.547  1.00  0.00     0.045 A 
ATOM     25  C   UNL     1       1.692   0.203  -3.998  1.00  0.00     0.028 A 
ATOM     26  N   UNL     1       0.801  -1.692  -4.847  1.00  0.00    -0.361 N 
ATOM     27  C   UNL     1       1.544  -0.597  -5.128  1.00  0.00     0.083 A 
ATOM     28  H   UNL     1       0.535  -2.455  -5.508  1.00  0.00     0.166 HD
ENDBRANCH  10  19
TORSDOF 3


