MODEL 1
REMARK VINA RESULT:      -5.7      0.000      0.000
REMARK SMILES C[C@H]1NN(C(=O)C(C)(C)[NH2+]C2CC2)[C@H](c2cc3ccc(F)cc3[nH]2)O1
REMARK SMILES IDX 5 1 6 2 4 3 2 4 3 5 25 6 14 7 1 8 15 10 16 11 24 12 17 13
REMARK SMILES IDX 23 14 18 15 22 16 19 17 20 18 21 20 7 21 8 22 9 23 10 24
REMARK SMILES IDX 11 27 12 28 13 29
REMARK H PARENT 3 9 24 19 10 25 10 26
ROOT
ATOM      1  C   UNL     1      44.982 130.842  20.715  1.00  0.00     0.300 C 
ATOM      2  O   UNL     1      46.126 130.549  20.269  1.00  0.00    -0.266 OA
ENDROOT
BRANCH   1   3
ATOM      3  N   UNL     1      44.113 131.647  19.893  1.00  0.00    -0.236 N 
ATOM      4  C   UNL     1      42.479 133.081  19.380  1.00  0.00     0.204 C 
ATOM      5  N   UNL     1      43.628 132.893  20.266  1.00  0.00    -0.201 NA
ATOM      6  O   UNL     1      42.477 132.094  18.363  1.00  0.00    -0.332 OA
ATOM      7  C   UNL     1      43.462 131.154  18.703  1.00  0.00     0.283 C 
ATOM      8  C   UNL     1      41.191 132.980  20.191  1.00  0.00     0.058 C 
ATOM      9  H   UNL     1      44.364 133.591  20.003  1.00  0.00     0.151 HD
BRANCH   7  10
ATOM     10  C   UNL     1      44.448 131.030  17.580  1.00  0.00     0.068 A 
ATOM     11  C   UNL     1      44.851 132.072  16.749  1.00  0.00     0.036 A 
ATOM     12  N   UNL     1      45.035 129.864  17.222  1.00  0.00    -0.355 N 
ATOM     13  C   UNL     1      45.727 131.494  15.856  1.00  0.00     0.000 A 
ATOM     14  C   UNL     1      45.816 130.162  16.169  1.00  0.00     0.049 A 
ATOM     15  C   UNL     1      46.440 132.050  14.797  1.00  0.00     0.013 A 
ATOM     16  C   UNL     1      46.625 129.291  15.442  1.00  0.00     0.065 A 
ATOM     17  C   UNL     1      47.266 131.196  14.043  1.00  0.00     0.040 A 
ATOM     18  C   UNL     1      47.359 129.822  14.365  1.00  0.00     0.125 A 
ATOM     19  H   UNL     1      44.905 128.927  17.665  1.00  0.00     0.166 HD
ATOM     20  F   UNL     1      48.161 129.012  13.631  1.00  0.00    -0.207 F 
ENDBRANCH   7  10
ENDBRANCH   1   3
BRANCH   1  21
ATOM     21  C   UNL     1      44.561 130.326  22.100  1.00  0.00     0.171 C 
ATOM     22  C   UNL     1      44.929 131.365  23.192  1.00  0.00     0.090 C 
ATOM     23  C   UNL     1      43.026 130.164  22.120  1.00  0.00     0.090 C 
BRANCH  21  24
ATOM     24  N   UNL     1      45.199 129.020  22.427  1.00  0.00    -0.332 N 
ATOM     25  H   UNL     1      45.180 128.409  21.576  1.00  0.00     0.347 HD
ATOM     26  H   UNL     1      46.209 129.152  22.654  1.00  0.00     0.347 HD
BRANCH  24  27
ATOM     27  C   UNL     1      44.569 128.343  23.581  1.00  0.00     0.183 C 
ATOM     28  C   UNL     1      45.451 127.268  24.199  1.00  0.00     0.071 C 
ATOM     29  C   UNL     1      44.229 126.871  23.387  1.00  0.00     0.071 C 
ENDBRANCH  24  27
ENDBRANCH  21  24
ENDBRANCH   1  21
TORSDOF 5
ENDMDL
MODEL 2
REMARK VINA RESULT:      -5.4      3.036      7.282
REMARK SMILES C[C@H]1NN(C(=O)C(C)(C)[NH2+]C2CC2)[C@H](c2cc3ccc(F)cc3[nH]2)O1
REMARK SMILES IDX 5 1 6 2 4 3 2 4 3 5 25 6 14 7 1 8 15 10 16 11 24 12 17 13
REMARK SMILES IDX 23 14 18 15 22 16 19 17 20 18 21 20 7 21 8 22 9 23 10 24
REMARK SMILES IDX 11 27 12 28 13 29
REMARK H PARENT 3 9 24 19 10 25 10 26
ROOT
ATOM      1  C   UNL     1      44.911 130.484  21.016  1.00  0.00     0.300 C 
ATOM      2  O   UNL     1      45.807 129.609  20.858  1.00  0.00    -0.266 OA
ENDROOT
BRANCH   1   3
ATOM      3  N   UNL     1      44.296 130.606  22.315  1.00  0.00    -0.236 N 
ATOM      4  C   UNL     1      43.436 131.599  24.122  1.00  0.00     0.204 C 
ATOM      5  N   UNL     1      43.403 131.611  22.659  1.00  0.00    -0.201 NA
ATOM      6  O   UNL     1      44.121 130.448  24.587  1.00  0.00    -0.332 OA
ATOM      7  C   UNL     1      44.716 129.846  23.468  1.00  0.00     0.283 C 
ATOM      8  C   UNL     1      44.145 132.853  24.625  1.00  0.00     0.058 C 
ATOM      9  H   UNL     1      42.456 131.289  22.348  1.00  0.00     0.151 HD
BRANCH   7  10
ATOM     10  C   UNL     1      44.250 128.425  23.355  1.00  0.00     0.068 A 
ATOM     11  C   UNL     1      43.032 127.941  23.826  1.00  0.00     0.036 A 
ATOM     12  N   UNL     1      44.991 127.433  22.808  1.00  0.00    -0.355 N 
ATOM     13  C   UNL     1      43.051 126.594  23.538  1.00  0.00     0.000 A 
ATOM     14  C   UNL     1      44.246 126.321  22.923  1.00  0.00     0.049 A 
ATOM     15  C   UNL     1      42.103 125.602  23.779  1.00  0.00     0.013 A 
ATOM     16  C   UNL     1      44.577 125.033  22.506  1.00  0.00     0.065 A 
ATOM     17  C   UNL     1      42.409 124.291  23.369  1.00  0.00     0.040 A 
ATOM     18  C   UNL     1      43.641 124.007  22.736  1.00  0.00     0.125 A 
ATOM     19  H   UNL     1      45.944 127.512  22.389  1.00  0.00     0.166 HD
ATOM     20  F   UNL     1      43.920 122.740  22.345  1.00  0.00    -0.207 F 
ENDBRANCH   7  10
ENDBRANCH   1   3
BRANCH   1  21
ATOM     21  C   UNL     1      44.521 131.383  19.833  1.00  0.00     0.171 C 
ATOM     22  C   UNL     1      42.985 131.596  19.807  1.00  0.00     0.090 C 
ATOM     23  C   UNL     1      45.172 132.768  20.030  1.00  0.00     0.090 C 
BRANCH  21  24
ATOM     24  N   UNL     1      44.962 130.812  18.529  1.00  0.00    -0.332 N 
ATOM     25  H   UNL     1      46.006 130.724  18.532  1.00  0.00     0.347 HD
ATOM     26  H   UNL     1      44.600 129.840  18.413  1.00  0.00     0.347 HD
BRANCH  24  27
ATOM     27  C   UNL     1      44.499 131.601  17.368  1.00  0.00     0.183 C 
ATOM     28  C   UNL     1      44.629 130.855  16.047  1.00  0.00     0.071 C 
ATOM     29  C   UNL     1      45.571 132.005  16.364  1.00  0.00     0.071 C 
ENDBRANCH  24  27
ENDBRANCH  21  24
ENDBRANCH   1  21
TORSDOF 5
ENDMDL
MODEL 3
REMARK VINA RESULT:      -5.4      3.280      7.286
REMARK SMILES C[C@H]1NN(C(=O)C(C)(C)[NH2+]C2CC2)[C@H](c2cc3ccc(F)cc3[nH]2)O1
REMARK SMILES IDX 5 1 6 2 4 3 2 4 3 5 25 6 14 7 1 8 15 10 16 11 24 12 17 13
REMARK SMILES IDX 23 14 18 15 22 16 19 17 20 18 21 20 7 21 8 22 9 23 10 24
REMARK SMILES IDX 11 27 12 28 13 29
REMARK H PARENT 3 9 24 19 10 25 10 26
ROOT
ATOM      1  C   UNL     1      44.749 130.412  21.068  1.00  0.00     0.300 C 
ATOM      2  O   UNL     1      45.711 129.605  20.945  1.00  0.00    -0.266 OA
ENDROOT
BRANCH   1   3
ATOM      3  N   UNL     1      43.993 130.392  22.296  1.00  0.00    -0.236 N 
ATOM      4  C   UNL     1      42.812 131.177  24.022  1.00  0.00     0.204 C 
ATOM      5  N   UNL     1      42.927 131.240  22.565  1.00  0.00    -0.201 NA
ATOM      6  O   UNL     1      43.612 130.125  24.533  1.00  0.00    -0.332 OA
ATOM      7  C   UNL     1      44.403 129.660  23.470  1.00  0.00     0.283 C 
ATOM      8  C   UNL     1      43.266 132.503  24.625  1.00  0.00     0.058 C 
ATOM      9  H   UNL     1      42.077 130.792  22.147  1.00  0.00     0.151 HD
BRANCH   7  10
ATOM     10  C   UNL     1      44.173 128.191  23.278  1.00  0.00     0.068 A 
ATOM     11  C   UNL     1      45.161 127.258  22.972  1.00  0.00     0.036 A 
ATOM     12  N   UNL     1      42.953 127.607  23.346  1.00  0.00    -0.355 N 
ATOM     13  C   UNL     1      44.492 126.059  22.859  1.00  0.00     0.000 A 
ATOM     14  C   UNL     1      43.163 126.304  23.090  1.00  0.00     0.049 A 
ATOM     15  C   UNL     1      44.965 124.782  22.565  1.00  0.00     0.013 A 
ATOM     16  C   UNL     1      42.212 125.287  23.043  1.00  0.00     0.065 A 
ATOM     17  C   UNL     1      44.027 123.734  22.510  1.00  0.00     0.040 A 
ATOM     18  C   UNL     1      42.657 123.985  22.748  1.00  0.00     0.125 A 
ATOM     19  H   UNL     1      42.040 128.070  23.548  1.00  0.00     0.166 HD
ATOM     20  F   UNL     1      41.767 122.964  22.694  1.00  0.00    -0.207 F 
ENDBRANCH   7  10
ENDBRANCH   1   3
BRANCH   1  21
ATOM     21  C   UNL     1      44.429 131.381  19.920  1.00  0.00     0.171 C 
ATOM     22  C   UNL     1      42.904 131.658  19.862  1.00  0.00     0.090 C 
ATOM     23  C   UNL     1      45.129 132.728  20.202  1.00  0.00     0.090 C 
BRANCH  21  24
ATOM     24  N   UNL     1      44.885 130.857  18.602  1.00  0.00    -0.332 N 
ATOM     25  H   UNL     1      45.896 130.591  18.673  1.00  0.00     0.347 HD
ATOM     26  H   UNL     1      44.381 129.974  18.365  1.00  0.00     0.347 HD
BRANCH  24  27
ATOM     27  C   UNL     1      44.663 131.809  17.493  1.00  0.00     0.183 C 
ATOM     28  C   UNL     1      44.246 131.130  16.196  1.00  0.00     0.071 C 
ATOM     29  C   UNL     1      45.642 131.719  16.330  1.00  0.00     0.071 C 
ENDBRANCH  24  27
ENDBRANCH  21  24
ENDBRANCH   1  21
TORSDOF 5
ENDMDL
MODEL 4
REMARK VINA RESULT:      -5.3      1.500      2.070
REMARK SMILES C[C@H]1NN(C(=O)C(C)(C)[NH2+]C2CC2)[C@H](c2cc3ccc(F)cc3[nH]2)O1
REMARK SMILES IDX 5 1 6 2 4 3 2 4 3 5 25 6 14 7 1 8 15 10 16 11 24 12 17 13
REMARK SMILES IDX 23 14 18 15 22 16 19 17 20 18 21 20 7 21 8 22 9 23 10 24
REMARK SMILES IDX 11 27 12 28 13 29
REMARK H PARENT 3 9 24 19 10 25 10 26
ROOT
ATOM      1  C   UNL     1      45.240 130.793  19.760  1.00  0.00     0.300 C 
ATOM      2  O   UNL     1      46.286 130.269  19.286  1.00  0.00    -0.266 OA
ENDROOT
BRANCH   1   3
ATOM      3  N   UNL     1      44.327 131.441  18.851  1.00  0.00    -0.236 N 
ATOM      4  C   UNL     1      42.564 132.635  18.175  1.00  0.00     0.204 C 
ATOM      5  N   UNL     1      43.678 132.636  19.124  1.00  0.00    -0.201 NA
ATOM      6  O   UNL     1      42.735 131.603  17.220  1.00  0.00    -0.332 OA
ATOM      7  C   UNL     1      43.806 130.809  17.663  1.00  0.00     0.283 C 
ATOM      8  C   UNL     1      41.255 132.420  18.929  1.00  0.00     0.058 C 
ATOM      9  H   UNL     1      44.339 133.404  18.856  1.00  0.00     0.151 HD
BRANCH   7  10
ATOM     10  C   UNL     1      44.859 130.747  16.597  1.00  0.00     0.068 A 
ATOM     11  C   UNL     1      45.245 131.813  15.788  1.00  0.00     0.036 A 
ATOM     12  N   UNL     1      45.536 129.619  16.275  1.00  0.00    -0.355 N 
ATOM     13  C   UNL     1      46.203 131.290  14.947  1.00  0.00     0.000 A 
ATOM     14  C   UNL     1      46.355 129.965  15.268  1.00  0.00     0.049 A 
ATOM     15  C   UNL     1      46.939 131.890  13.928  1.00  0.00     0.013 A 
ATOM     16  C   UNL     1      47.255 129.146  14.589  1.00  0.00     0.065 A 
ATOM     17  C   UNL     1      47.857 131.088  13.225  1.00  0.00     0.040 A 
ATOM     18  C   UNL     1      48.015 129.722  13.554  1.00  0.00     0.125 A 
ATOM     19  H   UNL     1      45.438 128.676  16.713  1.00  0.00     0.166 HD
ATOM     20  F   UNL     1      48.905 128.963  12.868  1.00  0.00    -0.207 F 
ENDBRANCH   7  10
ENDBRANCH   1   3
BRANCH   1  21
ATOM     21  C   UNL     1      44.978 130.712  21.271  1.00  0.00     0.171 C 
ATOM     22  C   UNL     1      45.356 129.305  21.805  1.00  0.00     0.090 C 
ATOM     23  C   UNL     1      45.891 131.732  21.985  1.00  0.00     0.090 C 
BRANCH  21  24
ATOM     24  N   UNL     1      43.557 131.002  21.609  1.00  0.00    -0.332 N 
ATOM     25  H   UNL     1      43.143 131.599  20.854  1.00  0.00     0.347 HD
ATOM     26  H   UNL     1      42.994 130.123  21.611  1.00  0.00     0.347 HD
BRANCH  24  27
ATOM     27  C   UNL     1      43.396 131.636  22.935  1.00  0.00     0.183 C 
ATOM     28  C   UNL     1      42.912 130.669  24.006  1.00  0.00     0.071 C 
ATOM     29  C   UNL     1      41.970 131.732  23.461  1.00  0.00     0.071 C 
ENDBRANCH  24  27
ENDBRANCH  21  24
ENDBRANCH   1  21
TORSDOF 5
ENDMDL
MODEL 5
REMARK VINA RESULT:      -5.3      0.975      1.033
REMARK SMILES C[C@H]1NN(C(=O)C(C)(C)[NH2+]C2CC2)[C@H](c2cc3ccc(F)cc3[nH]2)O1
REMARK SMILES IDX 5 1 6 2 4 3 2 4 3 5 25 6 14 7 1 8 15 10 16 11 24 12 17 13
REMARK SMILES IDX 23 14 18 15 22 16 19 17 20 18 21 20 7 21 8 22 9 23 10 24
REMARK SMILES IDX 11 27 12 28 13 29
REMARK H PARENT 3 9 24 19 10 25 10 26
ROOT
ATOM      1  C   UNL     1      45.143 130.821  19.817  1.00  0.00     0.300 C 
ATOM      2  O   UNL     1      46.174 130.260  19.352  1.00  0.00    -0.266 OA
ENDROOT
BRANCH   1   3
ATOM      3  N   UNL     1      44.246 131.473  18.896  1.00  0.00    -0.236 N 
ATOM      4  C   UNL     1      42.500 132.680  18.199  1.00  0.00     0.204 C 
ATOM      5  N   UNL     1      43.604 132.676  19.160  1.00  0.00    -0.201 NA
ATOM      6  O   UNL     1      42.672 131.643  17.249  1.00  0.00    -0.332 OA
ATOM      7  C   UNL     1      43.731 130.842  17.705  1.00  0.00     0.283 C 
ATOM      8  C   UNL     1      41.181 132.480  18.940  1.00  0.00     0.058 C 
ATOM      9  H   UNL     1      44.274 133.436  18.895  1.00  0.00     0.151 HD
BRANCH   7  10
ATOM     10  C   UNL     1      44.794 130.766  16.651  1.00  0.00     0.068 A 
ATOM     11  C   UNL     1      45.191 131.824  15.837  1.00  0.00     0.036 A 
ATOM     12  N   UNL     1      45.470 129.633  16.345  1.00  0.00    -0.355 N 
ATOM     13  C   UNL     1      46.156 131.291  15.010  1.00  0.00     0.000 A 
ATOM     14  C   UNL     1      46.300 129.968  15.343  1.00  0.00     0.049 A 
ATOM     15  C   UNL     1      46.904 131.879  13.993  1.00  0.00     0.013 A 
ATOM     16  C   UNL     1      47.204 129.140  14.681  1.00  0.00     0.065 A 
ATOM     17  C   UNL     1      47.826 131.068  13.305  1.00  0.00     0.040 A 
ATOM     18  C   UNL     1      47.976 129.704  13.648  1.00  0.00     0.125 A 
ATOM     19  H   UNL     1      45.364 128.695  16.790  1.00  0.00     0.166 HD
ATOM     20  F   UNL     1      48.869 128.936  12.978  1.00  0.00    -0.207 F 
ENDBRANCH   7  10
ENDBRANCH   1   3
BRANCH   1  21
ATOM     21  C   UNL     1      44.884 130.778  21.331  1.00  0.00     0.171 C 
ATOM     22  C   UNL     1      45.636 131.938  22.035  1.00  0.00     0.090 C 
ATOM     23  C   UNL     1      43.376 130.994  21.579  1.00  0.00     0.090 C 
BRANCH  21  24
ATOM     24  N   UNL     1      45.301 129.482  21.933  1.00  0.00    -0.332 N 
ATOM     25  H   UNL     1      45.277 128.740  21.194  1.00  0.00     0.347 HD
ATOM     26  H   UNL     1      46.295 129.528  22.251  1.00  0.00     0.347 HD
BRANCH  24  27
ATOM     27  C   UNL     1      44.479 129.096  23.100  1.00  0.00     0.183 C 
ATOM     28  C   UNL     1      45.092 127.968  23.918  1.00  0.00     0.071 C 
ATOM     29  C   UNL     1      43.870 127.700  23.055  1.00  0.00     0.071 C 
ENDBRANCH  24  27
ENDBRANCH  21  24
ENDBRANCH   1  21
TORSDOF 5
ENDMDL
MODEL 6
REMARK VINA RESULT:      -5.2      0.961      1.017
REMARK SMILES C[C@H]1NN(C(=O)C(C)(C)[NH2+]C2CC2)[C@H](c2cc3ccc(F)cc3[nH]2)O1
REMARK SMILES IDX 5 1 6 2 4 3 2 4 3 5 25 6 14 7 1 8 15 10 16 11 24 12 17 13
REMARK SMILES IDX 23 14 18 15 22 16 19 17 20 18 21 20 7 21 8 22 9 23 10 24
REMARK SMILES IDX 11 27 12 28 13 29
REMARK H PARENT 3 9 24 19 10 25 10 26
ROOT
ATOM      1  C   UNL     1      44.463 130.907  21.131  1.00  0.00     0.300 C 
ATOM      2  O   UNL     1      45.525 130.528  20.565  1.00  0.00    -0.266 OA
ENDROOT
BRANCH   1   3
ATOM      3  N   UNL     1      43.581 131.791  20.409  1.00  0.00    -0.236 N 
ATOM      4  C   UNL     1      41.996 133.329  20.077  1.00  0.00     0.204 C 
ATOM      5  N   UNL     1      43.196 133.045  20.863  1.00  0.00    -0.201 NA
ATOM      6  O   UNL     1      41.862 132.387  19.027  1.00  0.00    -0.332 OA
ATOM      7  C   UNL     1      42.816 131.382  19.256  1.00  0.00     0.283 C 
ATOM      8  C   UNL     1      40.769 133.263  20.981  1.00  0.00     0.058 C 
ATOM      9  H   UNL     1      43.949 133.712  20.570  1.00  0.00     0.151 HD
BRANCH   7  10
ATOM     10  C   UNL     1      43.706 131.252  18.056  1.00  0.00     0.068 A 
ATOM     11  C   UNL     1      43.376 131.661  16.766  1.00  0.00     0.036 A 
ATOM     12  N   UNL     1      44.932 130.680  18.089  1.00  0.00    -0.355 N 
ATOM     13  C   UNL     1      44.466 131.317  15.997  1.00  0.00     0.000 A 
ATOM     14  C   UNL     1      45.387 130.728  16.825  1.00  0.00     0.049 A 
ATOM     15  C   UNL     1      44.701 131.481  14.634  1.00  0.00     0.013 A 
ATOM     16  C   UNL     1      46.609 130.260  16.347  1.00  0.00     0.065 A 
ATOM     17  C   UNL     1      45.928 131.018  14.120  1.00  0.00     0.040 A 
ATOM     18  C   UNL     1      46.878 130.410  14.973  1.00  0.00     0.125 A 
ATOM     19  H   UNL     1      45.421 130.279  18.920  1.00  0.00     0.166 HD
ATOM     20  F   UNL     1      48.055 129.971  14.465  1.00  0.00    -0.207 F 
ENDBRANCH   7  10
ENDBRANCH   1   3
BRANCH   1  21
ATOM     21  C   UNL     1      44.150 130.410  22.550  1.00  0.00     0.171 C 
ATOM     22  C   UNL     1      44.337 131.562  23.574  1.00  0.00     0.090 C 
ATOM     23  C   UNL     1      42.667 129.984  22.608  1.00  0.00     0.090 C 
BRANCH  21  24
ATOM     24  N   UNL     1      45.009 129.258  22.941  1.00  0.00    -0.332 N 
ATOM     25  H   UNL     1      45.711 129.084  22.183  1.00  0.00     0.347 HD
ATOM     26  H   UNL     1      45.569 129.490  23.792  1.00  0.00     0.347 HD
BRANCH  24  27
ATOM     27  C   UNL     1      44.234 128.035  23.239  1.00  0.00     0.183 C 
ATOM     28  C   UNL     1      44.515 127.470  24.624  1.00  0.00     0.071 C 
ATOM     29  C   UNL     1      45.042 126.753  23.391  1.00  0.00     0.071 C 
ENDBRANCH  24  27
ENDBRANCH  21  24
ENDBRANCH   1  21
TORSDOF 5
ENDMDL
MODEL 7
REMARK VINA RESULT:      -5.2      2.245      3.401
REMARK SMILES C[C@H]1NN(C(=O)C(C)(C)[NH2+]C2CC2)[C@H](c2cc3ccc(F)cc3[nH]2)O1
REMARK SMILES IDX 5 1 6 2 4 3 2 4 3 5 25 6 14 7 1 8 15 10 16 11 24 12 17 13
REMARK SMILES IDX 23 14 18 15 22 16 19 17 20 18 21 20 7 21 8 22 9 23 10 24
REMARK SMILES IDX 11 27 12 28 13 29
REMARK H PARENT 3 9 24 19 10 25 10 26
ROOT
ATOM      1  C   UNL     1      44.669 128.974  22.372  1.00  0.00     0.300 C 
ATOM      2  O   UNL     1      45.479 128.619  21.472  1.00  0.00    -0.266 OA
ENDROOT
BRANCH   1   3
ATOM      3  N   UNL     1      44.296 130.365  22.446  1.00  0.00    -0.236 N 
ATOM      4  C   UNL     1      43.779 132.332  23.371  1.00  0.00     0.204 C 
ATOM      5  N   UNL     1      44.751 131.239  23.423  1.00  0.00    -0.201 NA
ATOM      6  O   UNL     1      42.959 132.204  22.222  1.00  0.00    -0.332 OA
ATOM      7  C   UNL     1      43.232 130.946  21.662  1.00  0.00     0.283 C 
ATOM      8  C   UNL     1      42.910 132.299  24.624  1.00  0.00     0.058 C 
ATOM      9  H   UNL     1      45.675 131.604  23.090  1.00  0.00     0.151 HD
BRANCH   7  10
ATOM     10  C   UNL     1      43.664 131.113  20.236  1.00  0.00     0.068 A 
ATOM     11  C   UNL     1      44.982 131.078  19.789  1.00  0.00     0.036 A 
ATOM     12  N   UNL     1      42.807 131.357  19.216  1.00  0.00    -0.355 N 
ATOM     13  C   UNL     1      44.901 131.309  18.432  1.00  0.00     0.000 A 
ATOM     14  C   UNL     1      43.576 131.472  18.120  1.00  0.00     0.049 A 
ATOM     15  C   UNL     1      45.900 131.388  17.465  1.00  0.00     0.013 A 
ATOM     16  C   UNL     1      43.157 131.727  16.815  1.00  0.00     0.065 A 
ATOM     17  C   UNL     1      45.508 131.645  16.138  1.00  0.00     0.040 A 
ATOM     18  C   UNL     1      44.142 131.813  15.814  1.00  0.00     0.125 A 
ATOM     19  H   UNL     1      41.768 131.444  19.270  1.00  0.00     0.166 HD
ATOM     20  F   UNL     1      43.780 132.058  14.531  1.00  0.00    -0.207 F 
ENDBRANCH   7  10
ENDBRANCH   1   3
BRANCH   1  21
ATOM     21  C   UNL     1      44.110 127.919  23.339  1.00  0.00     0.171 C 
ATOM     22  C   UNL     1      44.999 127.833  24.608  1.00  0.00     0.090 C 
ATOM     23  C   UNL     1      42.704 128.363  23.794  1.00  0.00     0.090 C 
BRANCH  21  24
ATOM     24  N   UNL     1      44.022 126.573  22.707  1.00  0.00    -0.332 N 
ATOM     25  H   UNL     1      43.015 126.284  22.663  1.00  0.00     0.347 HD
ATOM     26  H   UNL     1      44.345 126.611  21.715  1.00  0.00     0.347 HD
BRANCH  24  27
ATOM     27  C   UNL     1      44.837 125.554  23.402  1.00  0.00     0.183 C 
ATOM     28  C   UNL     1      45.348 124.461  22.473  1.00  0.00     0.071 C 
ATOM     29  C   UNL     1      44.241 124.154  23.469  1.00  0.00     0.071 C 
ENDBRANCH  24  27
ENDBRANCH  21  24
ENDBRANCH   1  21
TORSDOF 5
ENDMDL
MODEL 8
REMARK VINA RESULT:      -5.1      1.961      3.184
REMARK SMILES C[C@H]1NN(C(=O)C(C)(C)[NH2+]C2CC2)[C@H](c2cc3ccc(F)cc3[nH]2)O1
REMARK SMILES IDX 5 1 6 2 4 3 2 4 3 5 25 6 14 7 1 8 15 10 16 11 24 12 17 13
REMARK SMILES IDX 23 14 18 15 22 16 19 17 20 18 21 20 7 21 8 22 9 23 10 24
REMARK SMILES IDX 11 27 12 28 13 29
REMARK H PARENT 3 9 24 19 10 25 10 26
ROOT
ATOM      1  C   UNL     1      44.938 129.068  22.182  1.00  0.00     0.300 C 
ATOM      2  O   UNL     1      45.720 128.779  21.234  1.00  0.00    -0.266 OA
ENDROOT
BRANCH   1   3
ATOM      3  N   UNL     1      44.416 130.410  22.252  1.00  0.00    -0.236 N 
ATOM      4  C   UNL     1      43.673 132.306  23.171  1.00  0.00     0.204 C 
ATOM      5  N   UNL     1      44.756 131.324  23.240  1.00  0.00    -0.201 NA
ATOM      6  O   UNL     1      42.894 132.096  22.007  1.00  0.00    -0.332 OA
ATOM      7  C   UNL     1      43.311 130.877  21.449  1.00  0.00     0.283 C 
ATOM      8  C   UNL     1      42.789 132.174  24.408  1.00  0.00     0.058 C 
ATOM      9  H   UNL     1      45.641 131.788  22.926  1.00  0.00     0.151 HD
BRANCH   7  10
ATOM     10  C   UNL     1      43.749 131.097  20.032  1.00  0.00     0.068 A 
ATOM     11  C   UNL     1      42.929 131.552  19.002  1.00  0.00     0.036 A 
ATOM     12  N   UNL     1      45.000 130.837  19.584  1.00  0.00    -0.355 N 
ATOM     13  C   UNL     1      43.739 131.568  17.887  1.00  0.00     0.000 A 
ATOM     14  C   UNL     1      44.980 131.131  18.272  1.00  0.00     0.049 A 
ATOM     15  C   UNL     1      43.462 131.930  16.571  1.00  0.00     0.013 A 
ATOM     16  C   UNL     1      46.034 131.026  17.366  1.00  0.00     0.065 A 
ATOM     17  C   UNL     1      44.507 131.835  15.632  1.00  0.00     0.040 A 
ATOM     18  C   UNL     1      45.787 131.385  16.028  1.00  0.00     0.125 A 
ATOM     19  H   UNL     1      45.808 130.477  20.137  1.00  0.00     0.166 HD
ATOM     20  F   UNL     1      46.783 131.301  15.112  1.00  0.00    -0.207 F 
ENDBRANCH   7  10
ENDBRANCH   1   3
BRANCH   1  21
ATOM     21  C   UNL     1      44.568 127.986  23.207  1.00  0.00     0.171 C 
ATOM     22  C   UNL     1      45.573 126.806  23.126  1.00  0.00     0.090 C 
ATOM     23  C   UNL     1      44.684 128.588  24.624  1.00  0.00     0.090 C 
BRANCH  21  24
ATOM     24  N   UNL     1      43.186 127.471  23.003  1.00  0.00    -0.332 N 
ATOM     25  H   UNL     1      42.841 127.784  22.064  1.00  0.00     0.347 HD
ATOM     26  H   UNL     1      43.184 126.427  22.967  1.00  0.00     0.347 HD
BRANCH  24  27
ATOM     27  C   UNL     1      42.252 127.880  24.074  1.00  0.00     0.183 C 
ATOM     28  C   UNL     1      41.295 126.772  24.490  1.00  0.00     0.071 C 
ATOM     29  C   UNL     1      40.781 127.956  23.686  1.00  0.00     0.071 C 
ENDBRANCH  24  27
ENDBRANCH  21  24
ENDBRANCH   1  21
TORSDOF 5
ENDMDL
MODEL 9
REMARK VINA RESULT:      -5.0      0.836      1.337
REMARK SMILES C[C@H]1NN(C(=O)C(C)(C)[NH2+]C2CC2)[C@H](c2cc3ccc(F)cc3[nH]2)O1
REMARK SMILES IDX 5 1 6 2 4 3 2 4 3 5 25 6 14 7 1 8 15 10 16 11 24 12 17 13
REMARK SMILES IDX 23 14 18 15 22 16 19 17 20 18 21 20 7 21 8 22 9 23 10 24
REMARK SMILES IDX 11 27 12 28 13 29
REMARK H PARENT 3 9 24 19 10 25 10 26
ROOT
ATOM      1  C   UNL     1      44.991 130.959  20.471  1.00  0.00     0.300 C 
ATOM      2  O   UNL     1      46.118 130.630  20.008  1.00  0.00    -0.266 OA
ENDROOT
BRANCH   1   3
ATOM      3  N   UNL     1      44.101 131.718  19.627  1.00  0.00    -0.236 N 
ATOM      4  C   UNL     1      42.455 133.125  19.076  1.00  0.00     0.204 C 
ATOM      5  N   UNL     1      43.628 132.985  19.939  1.00  0.00    -0.201 NA
ATOM      6  O   UNL     1      42.424 132.081  18.118  1.00  0.00    -0.332 OA
ATOM      7  C   UNL     1      43.417 131.159  18.486  1.00  0.00     0.283 C 
ATOM      8  C   UNL     1      41.190 133.074  19.926  1.00  0.00     0.058 C 
ATOM      9  H   UNL     1      44.358 133.664  19.616  1.00  0.00     0.151 HD
BRANCH   7  10
ATOM     10  C   UNL     1      44.371 130.966  17.345  1.00  0.00     0.068 A 
ATOM     11  C   UNL     1      44.841 129.736  16.893  1.00  0.00     0.036 A 
ATOM     12  N   UNL     1      44.918 131.987  16.643  1.00  0.00    -0.355 N 
ATOM     13  C   UNL     1      45.707 130.044  15.866  1.00  0.00     0.000 A 
ATOM     14  C   UNL     1      45.730 131.409  15.741  1.00  0.00     0.049 A 
ATOM     15  C   UNL     1      46.471 129.217  15.046  1.00  0.00     0.013 A 
ATOM     16  C   UNL     1      46.520 132.045  14.785  1.00  0.00     0.065 A 
ATOM     17  C   UNL     1      47.280 129.830  14.070  1.00  0.00     0.040 A 
ATOM     18  C   UNL     1      47.305 131.237  13.940  1.00  0.00     0.125 A 
ATOM     19  H   UNL     1      44.749 133.009  16.777  1.00  0.00     0.166 HD
ATOM     20  F   UNL     1      48.087 131.812  12.995  1.00  0.00    -0.207 F 
ENDBRANCH   7  10
ENDBRANCH   1   3
BRANCH   1  21
ATOM     21  C   UNL     1      44.611 130.534  21.897  1.00  0.00     0.171 C 
ATOM     22  C   UNL     1      45.050 131.621  22.913  1.00  0.00     0.090 C 
ATOM     23  C   UNL     1      43.074 130.419  21.985  1.00  0.00     0.090 C 
BRANCH  21  24
ATOM     24  N   UNL     1      45.224 129.230  22.274  1.00  0.00    -0.332 N 
ATOM     25  H   UNL     1      45.012 128.526  21.527  1.00  0.00     0.347 HD
ATOM     26  H   UNL     1      46.265 129.308  22.297  1.00  0.00     0.347 HD
BRANCH  24  27
ATOM     27  C   UNL     1      44.785 128.747  23.600  1.00  0.00     0.183 C 
ATOM     28  C   UNL     1      45.285 127.346  23.923  1.00  0.00     0.071 C 
ATOM     29  C   UNL     1      43.818 127.570  23.595  1.00  0.00     0.071 C 
ENDBRANCH  24  27
ENDBRANCH  21  24
ENDBRANCH   1  21
TORSDOF 5
ENDMDL


