REMARK SMILES C[C@H]1CC[C@H](c2ccc3[nH+]cccc3c2)[C@@H](F)N1c1nc[nH+]c2c1CCC2
REMARK SMILES IDX 1 1 2 2 3 3 4 4 5 5 16 6 17 7 18 8 19 9 20 10 24 11 21 12
REMARK SMILES IDX 23 13 25 14 22 15 27 16 26 17 6 19 7 20 15 21 8 22 14 23
REMARK SMILES IDX 9 24 13 25 10 26 12 27 11 28
REMARK H PARENT 22 18 10 29
ROOT
ATOM      1  C   UNL     1       0.736  -4.302   0.022  1.00  0.00     0.031 C 
ATOM      2  C   UNL     1       0.690  -2.868  -0.534  1.00  0.00     0.085 C 
ATOM      3  C   UNL     1      -0.691  -2.617  -1.171  1.00  0.00     0.026 C 
ATOM      4  C   UNL     1      -0.829  -1.168  -1.642  1.00  0.00     0.015 C 
ATOM      5  C   UNL     1      -0.598  -0.202  -0.469  1.00  0.00     0.074 C 
ATOM      6  C   UNL     1       0.790  -0.434   0.153  1.00  0.00     0.273 C 
ATOM      7  F   UNL     1       0.918   0.366   1.279  1.00  0.00    -0.223 F 
ATOM      8  N   UNL     1       0.963  -1.852   0.506  1.00  0.00    -0.302 N 
ENDROOT
BRANCH   8   9
ATOM      9  C   UNL     1       1.874  -2.152   1.575  1.00  0.00     0.252 A 
ATOM     10  N   UNL     1       3.202  -2.329   1.322  1.00  0.00    -0.030 NA
ATOM     11  C   UNL     1       1.421  -2.274   2.888  1.00  0.00     0.063 A 
ATOM     12  C   UNL     1       4.077  -2.620   2.328  1.00  0.00     0.451 A 
ATOM     13  C   UNL     1       2.311  -2.568   3.878  1.00  0.00     0.110 A 
ATOM     14  C   UNL     1       0.037  -2.144   3.399  1.00  0.00     0.046 C 
ATOM     15  N   UNL     1       3.632  -2.742   3.612  1.00  0.00    -0.247 N 
ATOM     16  C   UNL     1       1.668  -2.676   5.206  1.00  0.00     0.081 C 
ATOM     17  C   UNL     1       0.178  -2.404   4.914  1.00  0.00     0.014 C 
ATOM     18  H   UNL     1       4.301  -2.968   4.381  1.00  0.00     0.311 HD
ENDBRANCH   8   9
BRANCH   5  19
ATOM     19  C   UNL     1      -0.781   1.242  -0.900  1.00  0.00    -0.039 A 
ATOM     20  C   UNL     1      -1.780   2.030  -0.301  1.00  0.00     0.011 A 
ATOM     21  C   UNL     1       0.038   1.815  -1.893  1.00  0.00     0.019 A 
ATOM     22  C   UNL     1      -1.963   3.361  -0.682  1.00  0.00     0.080 A 
ATOM     23  C   UNL     1      -0.142   3.151  -2.279  1.00  0.00     0.047 A 
ATOM     24  C   UNL     1      -1.149   3.932  -1.670  1.00  0.00     0.210 A 
ATOM     25  C   UNL     1       0.665   3.733  -3.264  1.00  0.00     0.021 A 
ATOM     26  N   UNL     1      -1.322   5.233  -2.046  1.00  0.00    -0.211 N 
ATOM     27  C   UNL     1       0.465   5.064  -3.628  1.00  0.00     0.071 A 
ATOM     28  C   UNL     1      -0.541   5.804  -3.004  1.00  0.00     0.306 A 
ATOM     29  H   UNL     1      -2.066   5.816  -1.599  1.00  0.00     0.453 HD
ENDBRANCH   5  19
TORSDOF 2


