REMARK SMILES COCCN/C(S)=[N+]1\CC[C@H](C)[C@@H](F)[C@@H]1c1ccc(C(C)=O)cc1
REMARK SMILES IDX 6 1 5 2 7 4 8 6 9 7 15 8 10 9 13 10 11 11 14 12 12 13 16 14
REMARK SMILES IDX 17 15 24 16 18 17 23 18 19 19 20 20 22 21 21 22 4 23 3 24
REMARK SMILES IDX 2 25 1 26
REMARK H PARENT 5 3 7 5
ROOT
ATOM      1  C   UNL     1      -1.771   0.584   1.999  1.00  0.00     0.303 C 
ATOM      2  N   UNL     1      -1.841  -0.122   3.248  1.00  0.00    -0.267 N 
ATOM      3  H   UNL     1      -2.720  -0.630   3.494  1.00  0.00     0.305 HD
ENDROOT
BRANCH   1   4
ATOM      4  S   UNL     1      -1.360   2.342   2.069  1.00  0.00    -0.056 SA
ATOM      5  H   UNL     1       0.015   2.095   1.903  1.00  0.00     0.116 HD
ENDBRANCH   1   4
BRANCH   1   6
ATOM      6  N   UNL     1      -2.054  -0.018   0.858  1.00  0.00    -0.247 N 
ATOM      7  C   UNL     1      -2.364  -1.462   0.796  1.00  0.00     0.238 C 
ATOM      8  C   UNL     1      -2.102   0.740  -0.419  1.00  0.00     0.241 C 
ATOM      9  C   UNL     1      -3.763  -1.684   0.207  1.00  0.00     0.052 C 
ATOM     10  C   UNL     1      -2.814  -0.058  -1.538  1.00  0.00     0.219 C 
ATOM     11  C   UNL     1      -4.085  -0.733  -0.979  1.00  0.00     0.029 C 
ATOM     12  F   UNL     1      -3.150   0.805  -2.570  1.00  0.00    -0.242 F 
ATOM     13  C   UNL     1      -4.844  -1.477  -2.085  1.00  0.00     0.011 C 
BRANCH   8  14
ATOM     14  C   UNL     1      -0.715   1.153  -0.881  1.00  0.00    -0.001 A 
ATOM     15  C   UNL     1       0.366   0.257  -0.838  1.00  0.00     0.009 A 
ATOM     16  C   UNL     1      -0.509   2.439  -1.403  1.00  0.00     0.009 A 
ATOM     17  C   UNL     1       1.631   0.649  -1.283  1.00  0.00     0.012 A 
ATOM     18  C   UNL     1       0.757   2.834  -1.846  1.00  0.00     0.012 A 
ATOM     19  C   UNL     1       1.846   1.944  -1.789  1.00  0.00     0.017 A 
BRANCH  19  20
ATOM     20  C   UNL     1       3.201   2.347  -2.253  1.00  0.00     0.159 C 
ATOM     21  O   UNL     1       4.154   1.524  -2.190  1.00  0.00    -0.295 OA
ATOM     22  C   UNL     1       3.477   3.716  -2.800  1.00  0.00     0.093 C 
ENDBRANCH  19  20
ENDBRANCH   8  14
ENDBRANCH   1   6
BRANCH   2  23
ATOM     23  C   UNL     1      -0.759  -0.085   4.230  1.00  0.00     0.262 C 
BRANCH  23  24
ATOM     24  C   UNL     1       0.427  -0.925   3.759  1.00  0.00     0.205 C 
BRANCH  24  25
ATOM     25  O   UNL     1       1.044  -0.300   2.653  1.00  0.00    -0.381 OA
ATOM     26  C   UNL     1       2.069  -1.131   2.158  1.00  0.00     0.195 C 
ENDBRANCH  24  25
ENDBRANCH  23  24
ENDBRANCH   2  23
TORSDOF 7


