REMARK SMILES C[N-]S(=O)(=O)c1ccc(NC(=O)N(N)c2ccccc2-c2nc3ccccc3[n-]2)cc1
REMARK SMILES IDX 6 1 7 2 8 3 9 4 30 5 31 6 3 7 4 8 5 9 2 10 1 11 10 12 11 13
REMARK SMILES IDX 12 15 13 16 14 17 15 20 16 21 20 22 17 23 19 24 18 25 21 26
REMARK SMILES IDX 22 27 29 28 23 29 28 30 24 31 27 32 25 33 26 34
REMARK H PARENT 10 14 14 18 14 19
ROOT
ATOM      1  C   UNL     1       2.675  -4.008  -1.127  1.00  0.00     0.048 A 
ATOM      2  C   UNL     1       2.716  -2.745  -1.733  1.00  0.00     0.021 A 
ATOM      3  C   UNL     1       1.683  -1.827  -1.516  1.00  0.00     0.027 A 
ATOM      4  C   UNL     1       0.606  -2.153  -0.678  1.00  0.00     0.043 A 
ATOM      5  C   UNL     1       0.558  -3.430  -0.091  1.00  0.00     0.027 A 
ATOM      6  C   UNL     1       1.589  -4.347  -0.310  1.00  0.00     0.021 A 
ENDROOT
BRANCH   1   7
ATOM      7  S   UNL     1       3.970  -5.175  -1.383  1.00  0.00     0.101 S 
ATOM      8  O   UNL     1       3.420  -6.356  -2.132  1.00  0.00    -0.244 OA
ATOM      9  O   UNL     1       5.076  -4.560  -2.196  1.00  0.00    -0.244 OA
BRANCH   7  10
ATOM     10  N   UNL     1       4.603  -5.710   0.144  1.00  0.00    -0.547 NA
ATOM     11  C   UNL     1       5.182  -4.579   0.861  1.00  0.00    -0.153 C 
ENDBRANCH   7  10
ENDBRANCH   1   7
BRANCH   4  12
ATOM     12  N   UNL     1      -0.452  -1.199  -0.487  1.00  0.00    -0.306 N 
ATOM     13  C   UNL     1      -1.184  -1.054   0.744  1.00  0.00     0.340 C 
ATOM     14  H   UNL     1      -0.618  -0.509  -1.252  1.00  0.00     0.171 HD
ATOM     15  O   UNL     1      -0.750  -1.588   1.800  1.00  0.00    -0.246 OA
BRANCH  13  16
ATOM     16  N   UNL     1      -2.387  -0.266   0.800  1.00  0.00    -0.229 N 
BRANCH  16  17
ATOM     17  N   UNL     1      -3.091  -0.186   2.015  1.00  0.00    -0.239 NA
ATOM     18  H   UNL     1      -3.929  -0.806   1.937  1.00  0.00     0.144 HD
ATOM     19  H   UNL     1      -3.435   0.796   2.125  1.00  0.00     0.144 HD
ENDBRANCH  16  17
BRANCH  16  20
ATOM     20  C   UNL     1      -2.977   0.275  -0.393  1.00  0.00     0.069 A 
ATOM     21  C   UNL     1      -4.015  -0.438  -1.011  1.00  0.00     0.028 A 
ATOM     22  C   UNL     1      -2.526   1.496  -0.958  1.00  0.00    -0.001 A 
ATOM     23  C   UNL     1      -4.601   0.037  -2.184  1.00  0.00     0.002 A 
ATOM     24  C   UNL     1      -3.128   1.954  -2.147  1.00  0.00     0.010 A 
ATOM     25  C   UNL     1      -4.157   1.230  -2.752  1.00  0.00     0.001 A 
BRANCH  22  26
ATOM     26  C   UNL     1      -1.439   2.304  -0.344  1.00  0.00    -0.049 A 
ATOM     27  N   UNL     1      -0.841   3.341  -0.992  1.00  0.00    -0.435 NA
ATOM     28  N   UNL     1      -0.956   2.084   0.909  1.00  0.00    -0.435 NA
ATOM     29  C   UNL     1       0.057   3.775  -0.097  1.00  0.00    -0.038 A 
ATOM     30  C   UNL     1      -0.012   3.025   1.036  1.00  0.00    -0.038 A 
ATOM     31  C   UNL     1       0.960   4.827  -0.233  1.00  0.00     0.004 A 
ATOM     32  C   UNL     1       0.817   3.262   2.130  1.00  0.00     0.004 A 
ATOM     33  C   UNL     1       1.815   5.097   0.853  1.00  0.00     0.000 A 
ATOM     34  C   UNL     1       1.743   4.317   2.030  1.00  0.00     0.000 A 
ENDBRANCH  22  26
ENDBRANCH  16  20
ENDBRANCH  13  16
ENDBRANCH   4  12
TORSDOF 7


