REMARK SMILES CCNC(=O)CCOc1ccc(C(=O)[N-][C@H]2CC23CCC3)c(C)c1
REMARK SMILES IDX 7 1 6 2 4 3 3 4 5 6 2 7 1 8 8 9 9 10 10 11 24 12 11 13 22 14
REMARK SMILES IDX 12 15 23 16 13 17 14 18 15 19 16 20 17 21 18 22 19 23 21 24
REMARK SMILES IDX 20 25
REMARK H PARENT 3 5
ROOT
ATOM      1  C   UNL     1      -1.915  -0.460   3.619  1.00  0.00     0.239 C 
ENDROOT
BRANCH   1   2
ATOM      2  C   UNL     1      -3.252  -0.034   4.221  1.00  0.00     0.141 C 
BRANCH   2   3
ATOM      3  C   UNL     1      -4.348  -0.138   3.203  1.00  0.00     0.223 C 
ATOM      4  N   UNL     1      -5.036  -1.382   3.013  1.00  0.00    -0.356 N 
ATOM      5  H   UNL     1      -4.856  -2.169   3.678  1.00  0.00     0.163 HD
ATOM      6  O   UNL     1      -4.621   0.859   2.479  1.00  0.00    -0.275 OA
BRANCH   4   7
ATOM      7  C   UNL     1      -5.996  -1.591   1.933  1.00  0.00     0.112 C 
ATOM      8  C   UNL     1      -5.270  -1.802   0.608  1.00  0.00     0.027 C 
ENDBRANCH   4   7
ENDBRANCH   2   3
ENDBRANCH   1   2
BRANCH   1   9
ATOM      9  O   UNL     1      -1.517   0.474   2.617  1.00  0.00    -0.493 OA
BRANCH   9  10
ATOM     10  C   UNL     1      -0.351   0.364   1.845  1.00  0.00     0.119 A 
ATOM     11  C   UNL     1       0.529  -0.723   1.962  1.00  0.00     0.047 A 
ATOM     12  C   UNL     1      -0.067   1.377   0.926  1.00  0.00     0.050 A 
ATOM     13  C   UNL     1       1.677  -0.787   1.172  1.00  0.00     0.014 A 
ATOM     14  C   UNL     1       1.082   1.325   0.118  1.00  0.00    -0.038 A 
ATOM     15  C   UNL     1       1.981   0.236   0.258  1.00  0.00     0.002 A 
ATOM     16  C   UNL     1       1.316   2.429  -0.879  1.00  0.00     0.045 C 
BRANCH  15  17
ATOM     17  C   UNL     1       3.231   0.130  -0.531  1.00  0.00     0.082 C 
ATOM     18  O   UNL     1       3.889   1.164  -0.830  1.00  0.00    -0.315 OA
BRANCH  17  19
ATOM     19  N   UNL     1       3.702  -1.155  -0.947  1.00  0.00    -0.646 NA
BRANCH  19  20
ATOM     20  C   UNL     1       4.908  -1.323  -1.746  1.00  0.00    -0.100 C 
ATOM     21  C   UNL     1       4.830  -2.508  -2.715  1.00  0.00    -0.010 C 
ATOM     22  C   UNL     1       4.685  -1.076  -3.218  1.00  0.00    -0.044 C 
ATOM     23  C   UNL     1       5.638  -0.625  -4.285  1.00  0.00     0.006 C 
ATOM     24  C   UNL     1       3.442  -0.741  -3.994  1.00  0.00     0.006 C 
ATOM     25  C   UNL     1       4.388  -0.269  -5.118  1.00  0.00     0.001 C 
ENDBRANCH  19  20
ENDBRANCH  17  19
ENDBRANCH  15  17
ENDBRANCH   9  10
ENDBRANCH   1   9
TORSDOF 8


