REMARK SMILES [O-]c1ccc([NH2+]c2cc3[nH]ccc3cc2F)c(F)c1
REMARK SMILES IDX 6 1 5 4 2 5 3 6 19 7 4 8 17 9 1 10 18 11 7 12 8 13 15 14
REMARK SMILES IDX 9 15 14 16 10 17 13 18 11 19 12 20 16 21
REMARK H PARENT 6 2 6 3 10 22
ROOT
ATOM      1  N   UNL     1       1.820   0.214  -2.170  1.00  0.00    -0.276 N 
ATOM      2  H   UNL     1       2.661  -0.364  -2.403  1.00  0.00     0.358 HD
ATOM      3  H   UNL     1       1.915   1.103  -2.713  1.00  0.00     0.358 HD
ENDROOT
BRANCH   1   4
ATOM      4  C   UNL     1       0.612  -0.475  -2.560  1.00  0.00     0.170 A 
ATOM      5  C   UNL     1      -1.768  -1.798  -3.264  1.00  0.00    -0.106 A 
ATOM      6  C   UNL     1      -1.721  -0.402  -3.256  1.00  0.00    -0.002 A 
ATOM      7  C   UNL     1      -0.632  -2.537  -2.923  1.00  0.00     0.037 A 
ATOM      8  C   UNL     1      -0.539   0.258  -2.905  1.00  0.00     0.071 A 
ATOM      9  C   UNL     1       0.554  -1.884  -2.571  1.00  0.00     0.183 A 
ATOM     10  O   UNL     1      -2.944  -2.452  -3.612  1.00  0.00    -0.872 OA
ATOM     11  F   UNL     1       1.643  -2.625  -2.249  1.00  0.00    -0.200 F 
ENDBRANCH   1   4
BRANCH   1  12
ATOM     12  C   UNL     1       1.792   0.490  -0.754  1.00  0.00     0.172 A 
ATOM     13  C   UNL     1       2.255  -0.482   0.165  1.00  0.00     0.098 A 
ATOM     14  C   UNL     1       1.271   1.722  -0.263  1.00  0.00     0.184 A 
ATOM     15  C   UNL     1       2.184  -0.193   1.526  1.00  0.00     0.052 A 
ATOM     16  C   UNL     1       1.216   1.978   1.119  1.00  0.00     0.056 A 
ATOM     17  N   UNL     1       2.568  -0.975   2.548  1.00  0.00    -0.361 N 
ATOM     18  C   UNL     1       1.682   0.994   1.984  1.00  0.00     0.003 A 
ATOM     19  C   UNL     1       2.304  -0.270   3.672  1.00  0.00     0.083 A 
ATOM     20  C   UNL     1       1.749   0.967   3.360  1.00  0.00     0.028 A 
ATOM     21  F   UNL     1       0.826   2.673  -1.123  1.00  0.00    -0.200 F 
ATOM     22  H   UNL     1       2.984  -1.931   2.491  1.00  0.00     0.166 HD
ENDBRANCH   1  12
TORSDOF 2


