MODEL 1
REMARK VINA RESULT:      -4.9      0.000      0.000
REMARK SMILES C[C@@H](CO)[N-]C(=O)C[N+]1=C(O)c2cc(-c3ccc4[nH]ccc4c3)cnc2C1
REMARK SMILES IDX 5 1 2 2 1 3 3 4 4 5 6 7 7 8 8 9 9 10 27 11 10 12 26 13 12 14
REMARK SMILES IDX 25 15 13 16 24 17 14 18 11 19 15 21 16 22 23 23 17 24 22 25
REMARK SMILES IDX 18 26 21 27 19 28 20 29
REMARK H PARENT 4 6 11 20 19 30
ROOT
ATOM      1  N   UNL     1      43.470 126.400  23.091  1.00  0.00    -0.644 NA
ENDROOT
BRANCH   1   2
ATOM      2  C   UNL     1      42.691 125.303  23.660  1.00  0.00    -0.084 C 
ATOM      3  C   UNL     1      42.042 124.485  22.540  1.00  0.00    -0.011 C 
BRANCH   2   4
ATOM      4  C   UNL     1      43.609 124.419  24.510  1.00  0.00     0.140 C 
BRANCH   4   5
ATOM      5  O   UNL     1      44.374 123.592  23.677  1.00  0.00    -0.398 OA
ATOM      6  H   UNL     1      44.171 122.661  23.953  1.00  0.00     0.210 HD
ENDBRANCH   4   5
ENDBRANCH   2   4
ENDBRANCH   1   2
BRANCH   1   7
ATOM      7  C   UNL     1      43.352 127.762  23.513  1.00  0.00     0.117 C 
ATOM      8  O   UNL     1      42.256 128.204  23.950  1.00  0.00    -0.313 OA
BRANCH   7   9
ATOM      9  C   UNL     1      44.559 128.645  23.505  1.00  0.00     0.410 C 
BRANCH   9  10
ATOM     10  N   UNL     1      44.649 129.360  22.232  1.00  0.00    -0.186 N 
ATOM     11  C   UNL     1      43.929 130.605  21.935  1.00  0.00     0.412 C 
ATOM     12  C   UNL     1      45.378 128.993  21.217  1.00  0.00     0.370 C 
ATOM     13  C   UNL     1      44.384 130.900  20.547  1.00  0.00     0.122 A 
ATOM     14  C   UNL     1      45.247 129.933  20.124  1.00  0.00     0.115 A 
ATOM     15  N   UNL     1      44.049 131.951  19.760  1.00  0.00    -0.253 NA
ATOM     16  C   UNL     1      45.826 129.983  18.861  1.00  0.00     0.031 A 
ATOM     17  C   UNL     1      44.586 132.054  18.508  1.00  0.00     0.120 A 
ATOM     18  C   UNL     1      45.491 131.071  18.023  1.00  0.00     0.001 A 
BRANCH  12  19
ATOM     19  O   UNL     1      46.169 127.846  21.211  1.00  0.00    -0.460 OA
ATOM     20  H   UNL     1      46.824 127.659  21.960  1.00  0.00     0.300 HD
ENDBRANCH  12  19
BRANCH  18  21
ATOM     21  C   UNL     1      46.076 131.184  16.664  1.00  0.00    -0.016 A 
ATOM     22  C   UNL     1      45.981 132.403  15.938  1.00  0.00     0.011 A 
ATOM     23  C   UNL     1      46.739 130.078  16.077  1.00  0.00     0.019 A 
ATOM     24  C   UNL     1      46.536 132.522  14.650  1.00  0.00     0.027 A 
ATOM     25  C   UNL     1      47.275 130.233  14.802  1.00  0.00    -0.000 A 
ATOM     26  C   UNL     1      47.177 131.410  14.113  1.00  0.00     0.045 A 
ATOM     27  C   UNL     1      47.958 129.341  14.002  1.00  0.00     0.028 A 
ATOM     28  N   UNL     1      47.769 131.310  12.911  1.00  0.00    -0.361 N 
ATOM     29  C   UNL     1      48.249 130.047  12.839  1.00  0.00     0.083 A 
ATOM     30  H   UNL     1      47.846 132.053  12.181  1.00  0.00     0.166 HD
ENDBRANCH  18  21
ENDBRANCH   9  10
ENDBRANCH   7   9
ENDBRANCH   1   7
TORSDOF 8
ENDMDL
MODEL 2
REMARK VINA RESULT:      -4.8      2.175      2.677
REMARK SMILES C[C@@H](CO)[N-]C(=O)C[N+]1=C(O)c2cc(-c3ccc4[nH]ccc4c3)cnc2C1
REMARK SMILES IDX 5 1 2 2 1 3 3 4 4 5 6 7 7 8 8 9 9 10 27 11 10 12 26 13 12 14
REMARK SMILES IDX 25 15 13 16 24 17 14 18 11 19 15 21 16 22 23 23 17 24 22 25
REMARK SMILES IDX 18 26 21 27 19 28 20 29
REMARK H PARENT 4 6 11 20 19 30
ROOT
ATOM      1  N   UNL     1      43.260 129.521  23.883  1.00  0.00    -0.644 NA
ENDROOT
BRANCH   1   2
ATOM      2  C   UNL     1      41.967 129.136  24.441  1.00  0.00    -0.084 C 
ATOM      3  C   UNL     1      40.836 129.643  23.542  1.00  0.00    -0.011 C 
BRANCH   2   4
ATOM      4  C   UNL     1      41.907 127.611  24.574  1.00  0.00     0.140 C 
BRANCH   4   5
ATOM      5  O   UNL     1      41.079 127.081  23.575  1.00  0.00    -0.398 OA
ATOM      6  H   UNL     1      41.556 127.229  22.718  1.00  0.00     0.210 HD
ENDBRANCH   4   5
ENDBRANCH   2   4
ENDBRANCH   1   2
BRANCH   1   7
ATOM      7  C   UNL     1      43.818 130.834  24.000  1.00  0.00     0.117 C 
ATOM      8  O   UNL     1      44.897 131.018  24.625  1.00  0.00    -0.313 OA
BRANCH   7   9
ATOM      9  C   UNL     1      43.153 131.983  23.311  1.00  0.00     0.410 C 
BRANCH   9  10
ATOM     10  N   UNL     1      43.276 131.839  21.861  1.00  0.00    -0.186 N 
ATOM     11  C   UNL     1      42.140 131.879  20.931  1.00  0.00     0.412 C 
ATOM     12  C   UNL     1      44.395 131.667  21.217  1.00  0.00     0.370 C 
ATOM     13  C   UNL     1      42.813 131.705  19.614  1.00  0.00     0.122 A 
ATOM     14  C   UNL     1      44.159 131.578  19.792  1.00  0.00     0.115 A 
ATOM     15  N   UNL     1      42.251 131.677  18.381  1.00  0.00    -0.253 NA
ATOM     16  C   UNL     1      45.018 131.413  18.711  1.00  0.00     0.031 A 
ATOM     17  C   UNL     1      43.045 131.518  17.281  1.00  0.00     0.120 A 
ATOM     18  C   UNL     1      44.453 131.382  17.416  1.00  0.00     0.001 A 
BRANCH  12  19
ATOM     19  O   UNL     1      45.638 131.588  21.840  1.00  0.00    -0.460 OA
ATOM     20  H   UNL     1      45.723 131.289  22.803  1.00  0.00     0.300 HD
ENDBRANCH  12  19
BRANCH  18  21
ATOM     21  C   UNL     1      45.317 131.211  16.221  1.00  0.00    -0.016 A 
ATOM     22  C   UNL     1      45.284 132.166  15.167  1.00  0.00     0.011 A 
ATOM     23  C   UNL     1      46.185 130.097  16.119  1.00  0.00     0.019 A 
ATOM     24  C   UNL     1      46.101 132.016  14.031  1.00  0.00     0.027 A 
ATOM     25  C   UNL     1      46.978 129.982  14.981  1.00  0.00    -0.000 A 
ATOM     26  C   UNL     1      46.938 130.906  13.974  1.00  0.00     0.045 A 
ATOM     27  C   UNL     1      47.896 129.018  14.622  1.00  0.00     0.028 A 
ATOM     28  N   UNL     1      47.791 130.576  12.989  1.00  0.00    -0.361 N 
ATOM     29  C   UNL     1      48.379 129.423  13.381  1.00  0.00     0.083 A 
ATOM     30  H   UNL     1      47.967 131.100  12.103  1.00  0.00     0.166 HD
ENDBRANCH  18  21
ENDBRANCH   9  10
ENDBRANCH   7   9
ENDBRANCH   1   7
TORSDOF 8
ENDMDL
MODEL 3
REMARK VINA RESULT:      -4.5      0.986      1.178
REMARK SMILES C[C@@H](CO)[N-]C(=O)C[N+]1=C(O)c2cc(-c3ccc4[nH]ccc4c3)cnc2C1
REMARK SMILES IDX 5 1 2 2 1 3 3 4 4 5 6 7 7 8 8 9 9 10 27 11 10 12 26 13 12 14
REMARK SMILES IDX 25 15 13 16 24 17 14 18 11 19 15 21 16 22 23 23 17 24 22 25
REMARK SMILES IDX 18 26 21 27 19 28 20 29
REMARK H PARENT 4 6 11 20 19 30
ROOT
ATOM      1  N   UNL     1      44.089 126.444  22.704  1.00  0.00    -0.644 NA
ENDROOT
BRANCH   1   2
ATOM      2  C   UNL     1      44.036 124.984  22.740  1.00  0.00    -0.084 C 
ATOM      3  C   UNL     1      45.435 124.415  22.986  1.00  0.00    -0.011 C 
BRANCH   2   4
ATOM      4  C   UNL     1      43.071 124.540  23.844  1.00  0.00     0.140 C 
BRANCH   4   5
ATOM      5  O   UNL     1      43.529 123.349  24.421  1.00  0.00    -0.398 OA
ATOM      6  H   UNL     1      44.435 123.545  24.773  1.00  0.00     0.210 HD
ENDBRANCH   4   5
ENDBRANCH   2   4
ENDBRANCH   1   2
BRANCH   1   7
ATOM      7  C   UNL     1      44.883 127.233  23.596  1.00  0.00     0.117 C 
ATOM      8  O   UNL     1      45.896 126.738  24.159  1.00  0.00    -0.313 OA
BRANCH   7   9
ATOM      9  C   UNL     1      44.549 128.676  23.803  1.00  0.00     0.410 C 
BRANCH   9  10
ATOM     10  N   UNL     1      44.658 129.402  22.538  1.00  0.00    -0.186 N 
ATOM     11  C   UNL     1      44.093 130.737  22.304  1.00  0.00     0.412 C 
ATOM     12  C   UNL     1      45.271 128.967  21.474  1.00  0.00     0.370 C 
ATOM     13  C   UNL     1      44.500 131.003  20.896  1.00  0.00     0.122 A 
ATOM     14  C   UNL     1      45.202 129.942  20.406  1.00  0.00     0.115 A 
ATOM     15  N   UNL     1      44.261 132.108  20.148  1.00  0.00    -0.253 NA
ATOM     16  C   UNL     1      45.706 129.946  19.110  1.00  0.00     0.031 A 
ATOM     17  C   UNL     1      44.732 132.168  18.867  1.00  0.00     0.120 A 
ATOM     18  C   UNL     1      45.469 131.087  18.312  1.00  0.00     0.001 A 
BRANCH  12  19
ATOM     19  O   UNL     1      45.902 127.728  21.401  1.00  0.00    -0.460 OA
ATOM     20  H   UNL     1      45.690 127.075  20.657  1.00  0.00     0.300 HD
ENDBRANCH  12  19
BRANCH  18  21
ATOM     21  C   UNL     1      45.983 131.155  16.921  1.00  0.00    -0.016 A 
ATOM     22  C   UNL     1      45.871 132.357  16.170  1.00  0.00     0.011 A 
ATOM     23  C   UNL     1      46.594 130.022  16.330  1.00  0.00     0.019 A 
ATOM     24  C   UNL     1      46.358 132.433  14.852  1.00  0.00     0.027 A 
ATOM     25  C   UNL     1      47.064 130.134  15.024  1.00  0.00    -0.000 A 
ATOM     26  C   UNL     1      46.950 131.295  14.311  1.00  0.00     0.045 A 
ATOM     27  C   UNL     1      47.688 129.210  14.213  1.00  0.00     0.028 A 
ATOM     28  N   UNL     1      47.476 131.154  13.083  1.00  0.00    -0.361 N 
ATOM     29  C   UNL     1      47.928 129.881  13.019  1.00  0.00     0.083 A 
ATOM     30  H   UNL     1      47.527 131.876  12.330  1.00  0.00     0.166 HD
ENDBRANCH  18  21
ENDBRANCH   9  10
ENDBRANCH   7   9
ENDBRANCH   1   7
TORSDOF 8
ENDMDL
MODEL 4
REMARK VINA RESULT:      -3.6      2.187      2.898
REMARK SMILES C[C@@H](CO)[N-]C(=O)C[N+]1=C(O)c2cc(-c3ccc4[nH]ccc4c3)cnc2C1
REMARK SMILES IDX 5 1 2 2 1 3 3 4 4 5 6 7 7 8 8 9 9 10 27 11 10 12 26 13 12 14
REMARK SMILES IDX 25 15 13 16 24 17 14 18 11 19 15 21 16 22 23 23 17 24 22 25
REMARK SMILES IDX 18 26 21 27 19 28 20 29
REMARK H PARENT 4 6 11 20 19 30
ROOT
ATOM      1  N   UNL     1      44.257 129.575  24.314  1.00  0.00    -0.644 NA
ENDROOT
BRANCH   1   2
ATOM      2  C   UNL     1      43.322 128.699  23.612  1.00  0.00    -0.084 C 
ATOM      3  C   UNL     1      44.066 127.490  23.041  1.00  0.00    -0.011 C 
BRANCH   2   4
ATOM      4  C   UNL     1      42.225 128.249  24.582  1.00  0.00     0.140 C 
BRANCH   4   5
ATOM      5  O   UNL     1      41.703 127.017  24.166  1.00  0.00    -0.398 OA
ATOM      6  H   UNL     1      40.721 127.143  24.101  1.00  0.00     0.210 HD
ENDBRANCH   4   5
ENDBRANCH   2   4
ENDBRANCH   1   2
BRANCH   1   7
ATOM      7  C   UNL     1      44.234 131.003  24.219  1.00  0.00     0.117 C 
ATOM      8  O   UNL     1      45.275 131.676  24.444  1.00  0.00    -0.313 OA
BRANCH   7   9
ATOM      9  C   UNL     1      42.984 131.694  23.775  1.00  0.00     0.410 C 
BRANCH   9  10
ATOM     10  N   UNL     1      42.966 131.813  22.318  1.00  0.00    -0.186 N 
ATOM     11  C   UNL     1      41.901 132.482  21.559  1.00  0.00     0.412 C 
ATOM     12  C   UNL     1      43.886 131.354  21.517  1.00  0.00     0.370 C 
ATOM     13  C   UNL     1      42.380 132.332  20.157  1.00  0.00     0.122 A 
ATOM     14  C   UNL     1      43.565 131.657  20.139  1.00  0.00     0.115 A 
ATOM     15  N   UNL     1      41.795 132.778  19.018  1.00  0.00    -0.253 NA
ATOM     16  C   UNL     1      44.229 131.395  18.945  1.00  0.00     0.031 A 
ATOM     17  C   UNL     1      42.402 132.550  17.815  1.00  0.00     0.120 A 
ATOM     18  C   UNL     1      43.637 131.851  17.746  1.00  0.00     0.001 A 
BRANCH  12  19
ATOM     19  O   UNL     1      45.018 130.671  21.955  1.00  0.00    -0.460 OA
ATOM     20  H   UNL     1      45.948 131.006  21.737  1.00  0.00     0.300 HD
ENDBRANCH  12  19
BRANCH  18  21
ATOM     21  C   UNL     1      44.297 131.606  16.439  1.00  0.00    -0.016 A 
ATOM     22  C   UNL     1      43.551 131.099  15.340  1.00  0.00     0.011 A 
ATOM     23  C   UNL     1      45.677 131.878  16.273  1.00  0.00     0.019 A 
ATOM     24  C   UNL     1      44.166 130.866  14.096  1.00  0.00     0.027 A 
ATOM     25  C   UNL     1      46.251 131.635  15.028  1.00  0.00    -0.000 A 
ATOM     26  C   UNL     1      45.524 131.147  13.978  1.00  0.00     0.045 A 
ATOM     27  C   UNL     1      47.547 131.804  14.590  1.00  0.00     0.028 A 
ATOM     28  N   UNL     1      46.297 130.999  12.890  1.00  0.00    -0.361 N 
ATOM     29  C   UNL     1      47.535 131.399  13.259  1.00  0.00     0.083 A 
ATOM     30  H   UNL     1      46.006 130.647  11.950  1.00  0.00     0.166 HD
ENDBRANCH  18  21
ENDBRANCH   9  10
ENDBRANCH   7   9
ENDBRANCH   1   7
TORSDOF 8
ENDMDL
MODEL 5
REMARK VINA RESULT:      -3.5      1.134      1.398
REMARK SMILES C[C@@H](CO)[N-]C(=O)C[N+]1=C(O)c2cc(-c3ccc4[nH]ccc4c3)cnc2C1
REMARK SMILES IDX 5 1 2 2 1 3 3 4 4 5 6 7 7 8 8 9 9 10 27 11 10 12 26 13 12 14
REMARK SMILES IDX 25 15 13 16 24 17 14 18 11 19 15 21 16 22 23 23 17 24 22 25
REMARK SMILES IDX 18 26 21 27 19 28 20 29
REMARK H PARENT 4 6 11 20 19 30
ROOT
ATOM      1  N   UNL     1      44.150 126.017  23.129  1.00  0.00    -0.644 NA
ENDROOT
BRANCH   1   2
ATOM      2  C   UNL     1      43.902 124.581  23.238  1.00  0.00    -0.084 C 
ATOM      3  C   UNL     1      44.317 124.082  24.625  1.00  0.00    -0.011 C 
BRANCH   2   4
ATOM      4  C   UNL     1      42.417 124.304  22.987  1.00  0.00     0.140 C 
BRANCH   4   5
ATOM      5  O   UNL     1      42.267 123.057  22.366  1.00  0.00    -0.398 OA
ATOM      6  H   UNL     1      43.185 122.698  22.247  1.00  0.00     0.210 HD
ENDBRANCH   4   5
ENDBRANCH   2   4
ENDBRANCH   1   2
BRANCH   1   7
ATOM      7  C   UNL     1      43.558 126.993  23.992  1.00  0.00     0.117 C 
ATOM      8  O   UNL     1      42.420 126.797  24.497  1.00  0.00    -0.313 OA
BRANCH   7   9
ATOM      9  C   UNL     1      44.330 128.222  24.357  1.00  0.00     0.410 C 
BRANCH   9  10
ATOM     10  N   UNL     1      44.532 129.057  23.173  1.00  0.00    -0.186 N 
ATOM     11  C   UNL     1      44.430 130.522  23.172  1.00  0.00     0.412 C 
ATOM     12  C   UNL     1      44.834 128.614  21.986  1.00  0.00     0.370 C 
ATOM     13  C   UNL     1      44.739 130.852  21.753  1.00  0.00     0.122 A 
ATOM     14  C   UNL     1      44.977 129.708  21.050  1.00  0.00     0.115 A 
ATOM     15  N   UNL     1      44.803 132.074  21.170  1.00  0.00    -0.253 NA
ATOM     16  C   UNL     1      45.300 129.745  19.698  1.00  0.00     0.031 A 
ATOM     17  C   UNL     1      45.117 132.173  19.844  1.00  0.00     0.120 A 
ATOM     18  C   UNL     1      45.374 131.009  19.070  1.00  0.00     0.001 A 
BRANCH  12  19
ATOM     19  O   UNL     1      44.995 127.263  21.685  1.00  0.00    -0.460 OA
ATOM     20  H   UNL     1      44.526 126.547  22.227  1.00  0.00     0.300 HD
ENDBRANCH  12  19
BRANCH  18  21
ATOM     21  C   UNL     1      45.717 131.117  17.630  1.00  0.00    -0.016 A 
ATOM     22  C   UNL     1      45.343 132.269  16.885  1.00  0.00     0.011 A 
ATOM     23  C   UNL     1      46.423 130.073  16.984  1.00  0.00     0.019 A 
ATOM     24  C   UNL     1      45.666 132.383  15.520  1.00  0.00     0.027 A 
ATOM     25  C   UNL     1      46.725 130.221  15.633  1.00  0.00    -0.000 A 
ATOM     26  C   UNL     1      46.360 131.333  14.926  1.00  0.00     0.045 A 
ATOM     27  C   UNL     1      47.389 129.380  14.765  1.00  0.00     0.028 A 
ATOM     28  N   UNL     1      46.763 131.241  13.648  1.00  0.00    -0.361 N 
ATOM     29  C   UNL     1      47.393 130.048  13.545  1.00  0.00     0.083 A 
ATOM     30  H   UNL     1      46.622 131.943  12.888  1.00  0.00     0.166 HD
ENDBRANCH  18  21
ENDBRANCH   9  10
ENDBRANCH   7   9
ENDBRANCH   1   7
TORSDOF 8
ENDMDL
MODEL 6
REMARK VINA RESULT:      -3.5      2.377      2.868
REMARK SMILES C[C@@H](CO)[N-]C(=O)C[N+]1=C(O)c2cc(-c3ccc4[nH]ccc4c3)cnc2C1
REMARK SMILES IDX 5 1 2 2 1 3 3 4 4 5 6 7 7 8 8 9 9 10 27 11 10 12 26 13 12 14
REMARK SMILES IDX 25 15 13 16 24 17 14 18 11 19 15 21 16 22 23 23 17 24 22 25
REMARK SMILES IDX 18 26 21 27 19 28 20 29
REMARK H PARENT 4 6 11 20 19 30
ROOT
ATOM      1  N   UNL     1      47.164 126.312  23.821  1.00  0.00    -0.644 NA
ENDROOT
BRANCH   1   2
ATOM      2  C   UNL     1      47.892 125.113  23.413  1.00  0.00    -0.084 C 
ATOM      3  C   UNL     1      47.241 124.504  22.168  1.00  0.00    -0.011 C 
BRANCH   2   4
ATOM      4  C   UNL     1      49.353 125.478  23.133  1.00  0.00     0.140 C 
BRANCH   4   5
ATOM      5  O   UNL     1      49.838 126.304  24.156  1.00  0.00    -0.398 OA
ATOM      6  H   UNL     1      49.478 125.931  25.003  1.00  0.00     0.210 HD
ENDBRANCH   4   5
ENDBRANCH   2   4
ENDBRANCH   1   2
BRANCH   1   7
ATOM      7  C   UNL     1      45.766 126.329  24.127  1.00  0.00     0.117 C 
ATOM      8  O   UNL     1      45.102 125.259  24.145  1.00  0.00    -0.313 OA
BRANCH   7   9
ATOM      9  C   UNL     1      45.107 127.619  24.502  1.00  0.00     0.410 C 
BRANCH   9  10
ATOM     10  N   UNL     1      45.070 128.517  23.348  1.00  0.00    -0.186 N 
ATOM     11  C   UNL     1      44.879 129.970  23.443  1.00  0.00     0.412 C 
ATOM     12  C   UNL     1      45.211 128.149  22.107  1.00  0.00     0.370 C 
ATOM     13  C   UNL     1      44.941 130.383  22.013  1.00  0.00     0.122 A 
ATOM     14  C   UNL     1      45.138 129.291  21.220  1.00  0.00     0.115 A 
ATOM     15  N   UNL     1      44.838 131.631  21.494  1.00  0.00    -0.253 NA
ATOM     16  C   UNL     1      45.244 129.410  19.839  1.00  0.00     0.031 A 
ATOM     17  C   UNL     1      44.935 131.809  20.143  1.00  0.00     0.120 A 
ATOM     18  C   UNL     1      45.140 130.702  19.277  1.00  0.00     0.001 A 
BRANCH  12  19
ATOM     19  O   UNL     1      45.407 126.827  21.712  1.00  0.00    -0.460 OA
ATOM     20  H   UNL     1      46.197 126.564  21.136  1.00  0.00     0.300 HD
ENDBRANCH  12  19
BRANCH  18  21
ATOM     21  C   UNL     1      45.247 130.896  17.810  1.00  0.00    -0.016 A 
ATOM     22  C   UNL     1      44.302 131.706  17.120  1.00  0.00     0.011 A 
ATOM     23  C   UNL     1      46.294 130.280  17.081  1.00  0.00     0.019 A 
ATOM     24  C   UNL     1      44.396 131.900  15.730  1.00  0.00     0.027 A 
ATOM     25  C   UNL     1      46.355 130.495  15.707  1.00  0.00    -0.000 A 
ATOM     26  C   UNL     1      45.440 131.275  15.054  1.00  0.00     0.045 A 
ATOM     27  C   UNL     1      47.247 130.028  14.765  1.00  0.00     0.028 A 
ATOM     28  N   UNL     1      45.710 131.328  13.740  1.00  0.00    -0.361 N 
ATOM     29  C   UNL     1      46.814 130.567  13.558  1.00  0.00     0.083 A 
ATOM     30  H   UNL     1      45.180 131.849  13.006  1.00  0.00     0.166 HD
ENDBRANCH  18  21
ENDBRANCH   9  10
ENDBRANCH   7   9
ENDBRANCH   1   7
TORSDOF 8
ENDMDL
MODEL 7
REMARK VINA RESULT:      -2.8      1.544      2.480
REMARK SMILES C[C@@H](CO)[N-]C(=O)C[N+]1=C(O)c2cc(-c3ccc4[nH]ccc4c3)cnc2C1
REMARK SMILES IDX 5 1 2 2 1 3 3 4 4 5 6 7 7 8 8 9 9 10 27 11 10 12 26 13 12 14
REMARK SMILES IDX 25 15 13 16 24 17 14 18 11 19 15 21 16 22 23 23 17 24 22 25
REMARK SMILES IDX 18 26 21 27 19 28 20 29
REMARK H PARENT 4 6 11 20 19 30
ROOT
ATOM      1  N   UNL     1      42.202 128.129  23.199  1.00  0.00    -0.644 NA
ENDROOT
BRANCH   1   2
ATOM      2  C   UNL     1      41.211 129.039  23.770  1.00  0.00    -0.084 C 
ATOM      3  C   UNL     1      40.205 128.254  24.615  1.00  0.00    -0.011 C 
BRANCH   2   4
ATOM      4  C   UNL     1      41.924 130.094  24.621  1.00  0.00     0.140 C 
BRANCH   4   5
ATOM      5  O   UNL     1      41.300 131.337  24.454  1.00  0.00    -0.398 OA
ATOM      6  H   UNL     1      41.988 132.020  24.665  1.00  0.00     0.210 HD
ENDBRANCH   4   5
ENDBRANCH   2   4
ENDBRANCH   1   2
BRANCH   1   7
ATOM      7  C   UNL     1      43.386 127.711  23.885  1.00  0.00     0.117 C 
ATOM      8  O   UNL     1      43.491 126.533  24.321  1.00  0.00    -0.313 OA
BRANCH   7   9
ATOM      9  C   UNL     1      44.535 128.658  24.021  1.00  0.00     0.410 C 
BRANCH   9  10
ATOM     10  N   UNL     1      44.737 129.385  22.768  1.00  0.00    -0.186 N 
ATOM     11  C   UNL     1      44.683 130.848  22.647  1.00  0.00     0.412 C 
ATOM     12  C   UNL     1      44.996 128.836  21.616  1.00  0.00     0.370 C 
ATOM     13  C   UNL     1      44.968 131.049  21.199  1.00  0.00     0.122 A 
ATOM     14  C   UNL     1      45.153 129.844  20.589  1.00  0.00     0.115 A 
ATOM     15  N   UNL     1      45.059 132.216  20.516  1.00  0.00    -0.253 NA
ATOM     16  C   UNL     1      45.445 129.758  19.232  1.00  0.00     0.031 A 
ATOM     17  C   UNL     1      45.344 132.194  19.180  1.00  0.00     0.120 A 
ATOM     18  C   UNL     1      45.545 130.963  18.500  1.00  0.00     0.001 A 
BRANCH  12  19
ATOM     19  O   UNL     1      45.106 127.460  21.425  1.00  0.00    -0.460 OA
ATOM     20  H   UNL     1      44.695 126.807  22.081  1.00  0.00     0.300 HD
ENDBRANCH  12  19
BRANCH  18  21
ATOM     21  C   UNL     1      45.857 130.940  17.049  1.00  0.00    -0.016 A 
ATOM     22  C   UNL     1      45.161 131.793  16.150  1.00  0.00     0.011 A 
ATOM     23  C   UNL     1      46.855 130.069  16.547  1.00  0.00     0.019 A 
ATOM     24  C   UNL     1      45.451 131.781  14.773  1.00  0.00     0.027 A 
ATOM     25  C   UNL     1      47.115 130.086  15.179  1.00  0.00    -0.000 A 
ATOM     26  C   UNL     1      46.438 130.910  14.323  1.00  0.00     0.045 A 
ATOM     27  C   UNL     1      48.014 129.358  14.429  1.00  0.00     0.028 A 
ATOM     28  N   UNL     1      46.866 130.742  13.061  1.00  0.00    -0.361 N 
ATOM     29  C   UNL     1      47.830 129.794  13.121  1.00  0.00     0.083 A 
ATOM     30  H   UNL     1      46.528 131.240  12.207  1.00  0.00     0.166 HD
ENDBRANCH  18  21
ENDBRANCH   9  10
ENDBRANCH   7   9
ENDBRANCH   1   7
TORSDOF 8
ENDMDL
MODEL 8
REMARK VINA RESULT:      -2.1      1.375      1.916
REMARK SMILES C[C@@H](CO)[N-]C(=O)C[N+]1=C(O)c2cc(-c3ccc4[nH]ccc4c3)cnc2C1
REMARK SMILES IDX 5 1 2 2 1 3 3 4 4 5 6 7 7 8 8 9 9 10 27 11 10 12 26 13 12 14
REMARK SMILES IDX 25 15 13 16 24 17 14 18 11 19 15 21 16 22 23 23 17 24 22 25
REMARK SMILES IDX 18 26 21 27 19 28 20 29
REMARK H PARENT 4 6 11 20 19 30
ROOT
ATOM      1  N   UNL     1      44.514 127.872  24.621  1.00  0.00    -0.644 NA
ENDROOT
BRANCH   1   2
ATOM      2  C   UNL     1      45.096 126.591  24.229  1.00  0.00    -0.084 C 
ATOM      3  C   UNL     1      44.155 125.448  24.618  1.00  0.00    -0.011 C 
BRANCH   2   4
ATOM      4  C   UNL     1      45.348 126.591  22.718  1.00  0.00     0.140 C 
BRANCH   4   5
ATOM      5  O   UNL     1      46.436 125.760  22.420  1.00  0.00    -0.398 OA
ATOM      6  H   UNL     1      46.978 126.248  21.747  1.00  0.00     0.210 HD
ENDBRANCH   4   5
ENDBRANCH   2   4
ENDBRANCH   1   2
BRANCH   1   7
ATOM      7  C   UNL     1      43.637 128.636  23.787  1.00  0.00     0.117 C 
ATOM      8  O   UNL     1      42.608 128.107  23.285  1.00  0.00    -0.313 OA
BRANCH   7   9
ATOM      9  C   UNL     1      43.904 130.091  23.570  1.00  0.00     0.410 C 
BRANCH   9  10
ATOM     10  N   UNL     1      44.092 130.360  22.145  1.00  0.00    -0.186 N 
ATOM     11  C   UNL     1      43.297 131.329  21.378  1.00  0.00     0.412 C 
ATOM     12  C   UNL     1      44.983 129.789  21.386  1.00  0.00     0.370 C 
ATOM     13  C   UNL     1      43.902 131.219  20.021  1.00  0.00     0.122 A 
ATOM     14  C   UNL     1      44.907 130.297  20.032  1.00  0.00     0.115 A 
ATOM     15  N   UNL     1      43.572 131.901  18.897  1.00  0.00    -0.253 NA
ATOM     16  C   UNL     1      45.641 130.015  18.886  1.00  0.00     0.031 A 
ATOM     17  C   UNL     1      44.259 131.666  17.740  1.00  0.00     0.120 A 
ATOM     18  C   UNL     1      45.314 130.716  17.703  1.00  0.00     0.001 A 
BRANCH  12  19
ATOM     19  O   UNL     1      45.879 128.825  21.841  1.00  0.00    -0.460 OA
ATOM     20  H   UNL     1      46.754 129.088  22.278  1.00  0.00     0.300 HD
ENDBRANCH  12  19
BRANCH  18  21
ATOM     21  C   UNL     1      46.062 130.462  16.446  1.00  0.00    -0.016 A 
ATOM     22  C   UNL     1      46.947 129.353  16.346  1.00  0.00     0.011 A 
ATOM     23  C   UNL     1      45.899 131.322  15.332  1.00  0.00     0.019 A 
ATOM     24  C   UNL     1      47.658 129.102  15.158  1.00  0.00     0.027 A 
ATOM     25  C   UNL     1      46.619 131.042  14.173  1.00  0.00    -0.000 A 
ATOM     26  C   UNL     1      47.468 129.972  14.089  1.00  0.00     0.045 A 
ATOM     27  C   UNL     1      46.657 131.696  12.961  1.00  0.00     0.028 A 
ATOM     28  N   UNL     1      48.043 129.914  12.876  1.00  0.00    -0.361 N 
ATOM     29  C   UNL     1      47.550 130.966  12.183  1.00  0.00     0.083 A 
ATOM     30  H   UNL     1      48.729 129.205  12.534  1.00  0.00     0.166 HD
ENDBRANCH  18  21
ENDBRANCH   9  10
ENDBRANCH   7   9
ENDBRANCH   1   7
TORSDOF 8
ENDMDL


