MODEL 1
REMARK VINA RESULT:      -8.3      0.000      0.000
REMARK SMILES N#CC1=CCCC[C@H]1OC(=O)c1cc(F)ccc1Nc1cc2ccccc2[nH]1
REMARK SMILES IDX 10 1 11 2 9 3 8 4 3 5 4 6 5 7 7 8 6 9 2 10 1 11 12 12 13 13
REMARK SMILES IDX 18 14 14 15 17 16 16 17 15 18 19 19 20 21 21 22 28 23 22 24
REMARK SMILES IDX 27 25 23 26 26 27 24 28 25 29
REMARK H PARENT 19 20 28 30
ROOT
ATOM      1  C   UNL     1      44.829 131.074  21.547  1.00  0.00     0.340 C 
ATOM      2  O   UNL     1      45.640 131.910  22.034  1.00  0.00    -0.246 OA
ENDROOT
BRANCH   1   3
ATOM      3  O   UNL     1      44.842 129.748  21.992  1.00  0.00    -0.453 OA
BRANCH   3   4
ATOM      4  C   UNL     1      44.673 129.352  23.352  1.00  0.00     0.217 C 
ATOM      5  C   UNL     1      43.245 129.646  23.752  1.00  0.00     0.066 C 
ATOM      6  C   UNL     1      42.289 128.702  23.746  1.00  0.00    -0.008 C 
ATOM      7  C   UNL     1      42.583 127.238  23.544  1.00  0.00     0.029 C 
ATOM      8  C   UNL     1      45.015 127.860  23.520  1.00  0.00     0.051 C 
ATOM      9  C   UNL     1      43.936 126.991  22.872  1.00  0.00     0.008 C 
BRANCH   5  10
ATOM     10  C   UNL     1      42.872 131.017  23.992  1.00  0.00     0.098 C 
ATOM     11  N   UNL     1      42.574 132.118  24.187  1.00  0.00    -0.193 NA
ENDBRANCH   5  10
ENDBRANCH   3   4
ENDBRANCH   1   3
BRANCH   1  12
ATOM     12  C   UNL     1      43.883 131.493  20.482  1.00  0.00     0.086 A 
ATOM     13  C   UNL     1      42.728 132.220  20.831  1.00  0.00     0.057 A 
ATOM     14  C   UNL     1      44.124 131.213  19.113  1.00  0.00     0.054 A 
ATOM     15  C   UNL     1      41.847 132.675  19.846  1.00  0.00     0.124 A 
ATOM     16  C   UNL     1      43.234 131.679  18.136  1.00  0.00     0.030 A 
ATOM     17  C   UNL     1      42.102 132.408  18.501  1.00  0.00     0.041 A 
ATOM     18  F   UNL     1      40.745 133.381  20.199  1.00  0.00    -0.207 F 
BRANCH  14  19
ATOM     19  N   UNL     1      45.238 130.417  18.699  1.00  0.00    -0.341 N 
ATOM     20  H   UNL     1      45.773 129.892  19.426  1.00  0.00     0.168 HD
BRANCH  19  21
ATOM     21  C   UNL     1      45.727 130.440  17.353  1.00  0.00     0.108 A 
ATOM     22  C   UNL     1      46.389 129.378  16.745  1.00  0.00     0.055 A 
ATOM     23  N   UNL     1      45.703 131.536  16.558  1.00  0.00    -0.341 N 
ATOM     24  C   UNL     1      46.783 129.872  15.521  1.00  0.00     0.002 A 
ATOM     25  C   UNL     1      46.355 131.174  15.440  1.00  0.00     0.047 A 
ATOM     26  C   UNL     1      47.522 129.277  14.502  1.00  0.00     0.010 A 
ATOM     27  C   UNL     1      46.639 131.969  14.332  1.00  0.00     0.027 A 
ATOM     28  C   UNL     1      47.820 130.054  13.367  1.00  0.00     0.001 A 
ATOM     29  C   UNL     1      47.380 131.395  13.282  1.00  0.00     0.002 A 
ATOM     30  H   UNL     1      45.305 132.476  16.777  1.00  0.00     0.168 HD
ENDBRANCH  19  21
ENDBRANCH  14  19
ENDBRANCH   1  12
TORSDOF 6
ENDMDL


