REMARK SMILES OC(CCc1c(F)c(-c2c[n-]c3nccc-3c2)c(F)c2[nH]ccc12)=C1CCC1
REMARK SMILES IDX 3 1 2 2 1 3 25 5 26 6 28 7 27 8 4 9 5 10 6 11 24 12 8 13
REMARK SMILES IDX 23 14 20 15 18 16 22 17 21 18 7 19 19 20 9 22 10 23 17 24
REMARK SMILES IDX 11 25 16 26 12 27 15 28 13 29 14 30
REMARK H PARENT 1 4 21 21
ROOT
ATOM      1  C   UNL     1       2.622   0.688   1.728  1.00  0.00     0.079 C 
ENDROOT
BRANCH   1   2
ATOM      2  C   UNL     1       2.674   2.113   1.242  1.00  0.00     0.092 C 
BRANCH   2   3
ATOM      3  O   UNL     1       1.523   2.897   1.254  1.00  0.00    -0.512 OA
ATOM      4  H   UNL     1       0.639   2.530   1.585  1.00  0.00     0.293 HD
ENDBRANCH   2   3
BRANCH   2   5
ATOM      5  C   UNL     1       3.802   2.628   0.760  1.00  0.00    -0.033 C 
ATOM      6  C   UNL     1       5.232   2.181   0.528  1.00  0.00     0.035 C 
ATOM      7  C   UNL     1       4.249   3.946   0.162  1.00  0.00     0.035 C 
ATOM      8  C   UNL     1       5.654   3.488  -0.060  1.00  0.00     0.009 C 
ENDBRANCH   2   5
ENDBRANCH   1   2
BRANCH   1   9
ATOM      9  C   UNL     1       2.421  -0.304   0.573  1.00  0.00     0.047 C 
BRANCH   9  10
ATOM     10  C   UNL     1       1.110  -0.074  -0.142  1.00  0.00    -0.002 A 
ATOM     11  C   UNL     1      -0.103  -0.568   0.393  1.00  0.00     0.137 A 
ATOM     12  C   UNL     1       1.034   0.684  -1.319  1.00  0.00     0.009 A 
ATOM     13  C   UNL     1      -1.343  -0.311  -0.252  1.00  0.00     0.055 A 
ATOM     14  C   UNL     1       2.014   1.319  -2.061  1.00  0.00     0.028 A 
ATOM     15  C   UNL     1      -0.161   0.933  -1.942  1.00  0.00     0.083 A 
ATOM     16  C   UNL     1      -1.367   0.452  -1.442  1.00  0.00     0.157 A 
ATOM     17  C   UNL     1       1.345   1.930  -3.113  1.00  0.00     0.083 A 
ATOM     18  N   UNL     1       0.017   1.692  -3.037  1.00  0.00    -0.359 N 
ATOM     19  F   UNL     1      -0.075  -1.316   1.528  1.00  0.00    -0.206 F 
ATOM     20  F   UNL     1      -2.534   0.748  -2.071  1.00  0.00    -0.204 F 
ATOM     21  H   UNL     1      -0.718   2.036  -3.695  1.00  0.00     0.166 HD
BRANCH  13  22
ATOM     22  C   UNL     1      -2.606  -0.829   0.323  1.00  0.00    -0.016 A 
ATOM     23  C   UNL     1      -2.926  -0.580   1.689  1.00  0.00    -0.013 A 
ATOM     24  C   UNL     1      -3.498  -1.571  -0.485  1.00  0.00     0.016 A 
ATOM     25  N   UNL     1      -4.086  -1.045   2.246  1.00  0.00    -0.442 NA
ATOM     26  C   UNL     1      -4.663  -2.029   0.108  1.00  0.00    -0.026 A 
ATOM     27  C   UNL     1      -4.940  -1.756   1.476  1.00  0.00    -0.052 A 
ATOM     28  C   UNL     1      -5.726  -2.762  -0.352  1.00  0.00     0.003 A 
ATOM     29  N   UNL     1      -6.111  -2.286   1.861  1.00  0.00    -0.442 NA
ATOM     30  C   UNL     1      -6.585  -2.896   0.742  1.00  0.00    -0.022 A 
ENDBRANCH  13  22
ENDBRANCH   9  10
ENDBRANCH   1   9
TORSDOF 6


