REMARK SMILES CC(=O)c1cc(N)c([NH2+]c2ccc(C)[nH+]c2F)cc1F
REMARK SMILES IDX 4 1 5 2 6 3 8 4 18 5 19 6 20 7 2 8 1 9 3 10 7 11 9 14 10 17
REMARK SMILES IDX 11 18 16 19 12 20 15 21 13 22 17 23 14 25
REMARK H PARENT 7 12 7 13 9 15 9 16 15 24
ROOT
ATOM      1  C   UNL     1      -0.720   1.167  -2.691  1.00  0.00     0.055 A 
ATOM      2  C   UNL     1      -1.542   0.993  -1.564  1.00  0.00     0.046 A 
ATOM      3  C   UNL     1      -1.032   1.104  -0.261  1.00  0.00     0.095 A 
ATOM      4  C   UNL     1       0.341   1.402  -0.070  1.00  0.00     0.161 A 
ATOM      5  C   UNL     1       1.157   1.586  -1.200  1.00  0.00     0.110 A 
ATOM      6  C   UNL     1       0.641   1.474  -2.492  1.00  0.00     0.140 A 
ATOM      7  F   UNL     1       1.477   1.698  -3.536  1.00  0.00    -0.206 F 
ENDROOT
BRANCH   1   8
ATOM      8  C   UNL     1      -1.314   1.030  -4.050  1.00  0.00     0.162 C 
ATOM      9  C   UNL     1      -0.485   0.747  -5.266  1.00  0.00     0.093 C 
ATOM     10  O   UNL     1      -2.560   1.161  -4.197  1.00  0.00    -0.294 OA
ENDBRANCH   1   8
BRANCH   3  11
ATOM     11  N   UNL     1      -1.926   0.910   0.844  1.00  0.00    -0.394 N 
ATOM     12  H   UNL     1      -2.929   0.671   0.677  1.00  0.00     0.156 HD
ATOM     13  H   UNL     1      -1.626   1.014   1.835  1.00  0.00     0.156 HD
ENDBRANCH   3  11
BRANCH   4  14
ATOM     14  N   UNL     1       0.926   1.503   1.251  1.00  0.00    -0.272 N 
ATOM     15  H   UNL     1       0.327   2.122   1.843  1.00  0.00     0.358 HD
ATOM     16  H   UNL     1       1.862   1.970   1.204  1.00  0.00     0.358 HD
BRANCH  14  17
ATOM     17  C   UNL     1       1.113   0.197   1.845  1.00  0.00     0.239 A 
ATOM     18  C   UNL     1       1.865  -0.791   1.183  1.00  0.00     0.085 A 
ATOM     19  C   UNL     1       0.635  -0.090   3.139  1.00  0.00     0.420 A 
ATOM     20  C   UNL     1       2.069  -2.036   1.775  1.00  0.00     0.080 A 
ATOM     21  N   UNL     1       0.849  -1.314   3.697  1.00  0.00    -0.179 N 
ATOM     22  C   UNL     1       1.530  -2.295   3.040  1.00  0.00     0.179 A 
ATOM     23  F   UNL     1      -0.027   0.854   3.855  1.00  0.00    -0.131 F 
ATOM     24  H   UNL     1       0.481  -1.494   4.659  1.00  0.00     0.456 HD
ATOM     25  C   UNL     1       1.776  -3.618   3.704  1.00  0.00     0.124 C 
ENDBRANCH  14  17
ENDBRANCH   4  14
TORSDOF 4


