REMARK SMILES [H]/N=c1\[nH]cccc1Nc1ccc2c(c1)n[nH+]n2C
REMARK SMILES IDX 3 1 8 2 7 3 6 4 5 5 4 6 2 8 1 9 9 10 10 12 11 13 15 14 12 15
REMARK SMILES IDX 14 16 13 17 16 18 18 19 17 20 19 21
REMARK H PARENT 4 7 9 11 17 22
ROOT
ATOM      1  C   UNL     1       1.404   1.027  -1.155  1.00  0.00     0.146 A 
ATOM      2  C   UNL     1       1.017  -0.325  -1.283  1.00  0.00     0.081 A 
ATOM      3  C   UNL     1       0.503  -0.765  -2.508  1.00  0.00     0.031 A 
ATOM      4  C   UNL     1       0.334   0.132  -3.561  1.00  0.00     0.020 A 
ATOM      5  C   UNL     1       0.697   1.467  -3.386  1.00  0.00     0.084 A 
ATOM      6  N   UNL     1       1.224   1.885  -2.203  1.00  0.00    -0.345 N 
ATOM      7  H   UNL     1       1.501   2.889  -2.113  1.00  0.00     0.167 HD
ENDROOT
BRANCH   1   8
ATOM      8  N   UNL     1       1.954   1.447  -0.058  1.00  0.00    -0.283 NA
ATOM      9  H   UNL     1       2.261   2.437   0.067  1.00  0.00     0.189 HD
ENDBRANCH   1   8
BRANCH   2  10
ATOM     10  N   UNL     1       1.192  -1.270  -0.215  1.00  0.00    -0.352 N 
ATOM     11  H   UNL     1       1.593  -2.205  -0.456  1.00  0.00     0.167 HD
BRANCH  10  12
ATOM     12  C   UNL     1       0.747  -1.053   1.136  1.00  0.00     0.041 A 
ATOM     13  C   UNL     1      -0.287  -0.118   1.433  1.00  0.00     0.028 A 
ATOM     14  C   UNL     1       1.315  -1.821   2.179  1.00  0.00     0.063 A 
ATOM     15  C   UNL     1      -0.730   0.072   2.756  1.00  0.00     0.037 A 
ATOM     16  C   UNL     1       0.852  -1.602   3.472  1.00  0.00     0.164 A 
ATOM     17  C   UNL     1      -0.123  -0.693   3.747  1.00  0.00     0.133 A 
ATOM     18  N   UNL     1       1.225  -2.209   4.615  1.00  0.00     0.025 NA
ATOM     19  N   UNL     1      -0.345  -0.732   5.069  1.00  0.00    -0.132 N 
ATOM     20  N   UNL     1       0.473  -1.656   5.564  1.00  0.00    -0.016 N 
ATOM     21  C   UNL     1      -1.339   0.013   5.834  1.00  0.00     0.226 C 
ATOM     22  H   UNL     1       0.518  -1.927   6.572  1.00  0.00     0.526 HD
ENDBRANCH  10  12
ENDBRANCH   2  10
TORSDOF 3


