REMARK SMILES c1nc2cc(-c3ncc([C@H]4CO4)c[nH+]3)c[nH+]c2o1
REMARK SMILES IDX 1 1 2 2 3 3 4 4 5 5 15 6 16 7 17 8 18 9 6 11 7 12 14 13 8 14
REMARK SMILES IDX 13 15 9 16 10 18 11 19 12 20
REMARK H PARENT 16 10 14 17
ROOT
ATOM      1  C   UNL     1      -1.617   4.197   2.774  1.00  0.00     0.316 A 
ATOM      2  N   UNL     1      -1.920   2.884   2.967  1.00  0.00    -0.209 NA
ATOM      3  C   UNL     1      -1.402   2.313   1.867  1.00  0.00     0.180 A 
ATOM      4  C   UNL     1      -1.403   0.974   1.500  1.00  0.00     0.062 A 
ATOM      5  C   UNL     1      -0.776   0.627   0.279  1.00  0.00     0.134 A 
ATOM      6  C   UNL     1      -0.197   1.662  -0.513  1.00  0.00     0.326 A 
ATOM      7  N   UNL     1      -0.231   2.964  -0.095  1.00  0.00    -0.177 N 
ATOM      8  C   UNL     1      -0.831   3.256   1.084  1.00  0.00     0.399 A 
ATOM      9  O   UNL     1      -0.963   4.425   1.645  1.00  0.00    -0.391 OA
ATOM     10  H   UNL     1       0.191   3.721  -0.678  1.00  0.00     0.457 HD
ENDROOT
BRANCH   5  11
ATOM     11  C   UNL     1      -0.754  -0.788  -0.164  1.00  0.00     0.334 A 
ATOM     12  N   UNL     1      -1.747  -1.628   0.239  1.00  0.00    -0.049 NA
ATOM     13  N   UNL     1       0.248  -1.270  -0.959  1.00  0.00    -0.243 N 
ATOM     14  C   UNL     1      -1.770  -2.932  -0.138  1.00  0.00     0.264 A 
ATOM     15  C   UNL     1       0.259  -2.569  -1.360  1.00  0.00     0.208 A 
ATOM     16  C   UNL     1      -0.751  -3.441  -0.946  1.00  0.00     0.066 A 
ATOM     17  H   UNL     1       1.041  -0.658  -1.255  1.00  0.00     0.312 HD
BRANCH  16  18
ATOM     18  C   UNL     1      -0.771  -4.868  -1.408  1.00  0.00     0.181 C 
ATOM     19  C   UNL     1       0.345  -5.720  -0.937  1.00  0.00     0.198 C 
ATOM     20  O   UNL     1      -0.925  -5.763  -0.331  1.00  0.00    -0.368 OA
ENDBRANCH  16  18
ENDBRANCH   5  11
TORSDOF 2


