REMARK SMILES Cc1n[nH]c2cc([C@@]34C(=O)NC[C@@H]3NCC[C@@H]4C)ccc12
REMARK SMILES IDX 1 1 2 2 3 3 4 4 5 5 6 6 7 7 19 8 20 9 21 10 8 12 9 13 13 14
REMARK SMILES IDX 17 15 11 16 12 17 14 18 16 19 15 20 10 21 18 22
REMARK H PARENT 4 11 11 23 14 24
ROOT
ATOM      1  C   UNL     1       4.152  -0.030  -3.674  1.00  0.00     0.069 C 
ATOM      2  C   UNL     1       3.268   0.645  -2.678  1.00  0.00     0.067 A 
ATOM      3  N   UNL     1       3.412   1.931  -2.276  1.00  0.00    -0.180 NA
ATOM      4  N   UNL     1       2.488   2.180  -1.354  1.00  0.00    -0.278 N 
ATOM      5  C   UNL     1       1.767   1.063  -1.160  1.00  0.00     0.066 A 
ATOM      6  C   UNL     1       0.712   0.862  -0.276  1.00  0.00     0.033 A 
ATOM      7  C   UNL     1       0.094  -0.422  -0.237  1.00  0.00    -0.028 A 
ATOM      8  C   UNL     1       0.615  -1.449  -1.085  1.00  0.00     0.006 A 
ATOM      9  C   UNL     1       1.685  -1.203  -1.963  1.00  0.00     0.012 A 
ATOM     10  C   UNL     1       2.230   0.074  -1.972  1.00  0.00     0.023 A 
ATOM     11  H   UNL     1       2.368   3.096  -0.867  1.00  0.00     0.190 HD
ENDROOT
BRANCH   7  12
ATOM     12  C   UNL     1      -1.064  -0.750   0.733  1.00  0.00     0.094 C 
ATOM     13  C   UNL     1      -1.685   0.510   1.278  1.00  0.00     0.232 C 
ATOM     14  C   UNL     1      -2.300  -1.283  -0.089  1.00  0.00     0.093 C 
ATOM     15  C   UNL     1      -0.550  -1.767   1.815  1.00  0.00     0.009 C 
ATOM     16  N   UNL     1      -2.768   0.961   0.488  1.00  0.00    -0.354 N 
ATOM     17  C   UNL     1      -3.007   0.001  -0.572  1.00  0.00     0.136 C 
ATOM     18  N   UNL     1      -3.268  -2.057   0.725  1.00  0.00    -0.311 NA
ATOM     19  C   UNL     1      -1.689  -2.474   2.549  1.00  0.00     0.020 C 
ATOM     20  C   UNL     1      -2.631  -3.100   1.526  1.00  0.00     0.081 C 
ATOM     21  O   UNL     1      -1.258   1.167   2.264  1.00  0.00    -0.274 OA
ATOM     22  C   UNL     1       0.449  -1.166   2.819  1.00  0.00     0.009 C 
ATOM     23  H   UNL     1      -3.203   1.908   0.552  1.00  0.00     0.163 HD
ATOM     24  H   UNL     1      -3.794  -1.425   1.375  1.00  0.00     0.123 HD
ENDBRANCH   7  12
TORSDOF 1


