MODEL 1
REMARK VINA RESULT:      -7.7      0.000      0.000
REMARK SMILES C=Cc1ccc(-c2cccc3cc(Nc4ccc(F)cc4C)[nH]c23)nc1
REMARK SMILES IDX 7 1 8 2 9 3 10 4 11 5 12 6 13 7 23 8 24 9 6 11 3 12 4 13
REMARK SMILES IDX 26 14 5 15 25 16 2 17 1 18 14 19 15 21 16 22 21 23 17 24
REMARK SMILES IDX 20 25 18 26 22 27 19 28
REMARK H PARENT 23 10 14 20
ROOT
ATOM      1  C   UNL     1      43.827 131.698  18.569  1.00  0.00     0.024 A 
ATOM      2  C   UNL     1      42.766 132.587  18.279  1.00  0.00     0.012 A 
ATOM      3  C   UNL     1      41.829 132.946  19.272  1.00  0.00     0.001 A 
ATOM      4  C   UNL     1      41.931 132.424  20.571  1.00  0.00     0.010 A 
ATOM      5  C   UNL     1      42.982 131.553  20.840  1.00  0.00     0.002 A 
ATOM      6  C   UNL     1      43.333 130.926  22.017  1.00  0.00     0.055 A 
ATOM      7  C   UNL     1      44.480 130.210  21.702  1.00  0.00     0.108 A 
ATOM      8  N   UNL     1      44.837 130.385  20.409  1.00  0.00    -0.341 N 
ATOM      9  C   UNL     1      43.902 131.199  19.882  1.00  0.00     0.057 A 
ATOM     10  H   UNL     1      45.687 130.002  19.939  1.00  0.00     0.168 HD
ENDROOT
BRANCH   1  11
ATOM     11  C   UNL     1      44.783 131.285  17.516  1.00  0.00     0.072 A 
ATOM     12  C   UNL     1      46.568 130.432  15.536  1.00  0.00    -0.008 A 
ATOM     13  C   UNL     1      46.071 131.749  15.522  1.00  0.00     0.012 A 
ATOM     14  C   UNL     1      46.153 129.581  16.569  1.00  0.00     0.119 A 
ATOM     15  C   UNL     1      45.176 132.174  16.505  1.00  0.00     0.030 A 
ATOM     16  N   UNL     1      45.281 130.018  17.515  1.00  0.00    -0.256 NA
BRANCH  12  17
ATOM     17  C   UNL     1      47.528 129.919  14.528  1.00  0.00     0.002 C 
ATOM     18  C   UNL     1      47.607 130.360  13.272  1.00  0.00     0.009 C 
ENDBRANCH  12  17
ENDBRANCH   1  11
BRANCH   7  19
ATOM     19  N   UNL     1      45.221 129.420  22.641  1.00  0.00    -0.342 N 
ATOM     20  H   UNL     1      46.100 129.819  23.040  1.00  0.00     0.168 HD
BRANCH  19  21
ATOM     21  C   UNL     1      44.928 128.037  22.885  1.00  0.00     0.043 A 
ATOM     22  C   UNL     1      45.667 127.061  22.202  1.00  0.00     0.029 A 
ATOM     23  C   UNL     1      43.934 127.639  23.813  1.00  0.00    -0.025 A 
ATOM     24  C   UNL     1      45.394 125.704  22.391  1.00  0.00     0.041 A 
ATOM     25  C   UNL     1      43.657 126.271  23.976  1.00  0.00     0.044 A 
ATOM     26  C   UNL     1      44.383 125.310  23.270  1.00  0.00     0.123 A 
ATOM     27  C   UNL     1      43.156 128.641  24.622  1.00  0.00     0.047 C 
ATOM     28  F   UNL     1      44.113 123.993  23.443  1.00  0.00    -0.207 F 
ENDBRANCH  19  21
ENDBRANCH   7  19
TORSDOF 4
ENDMDL
MODEL 2
REMARK VINA RESULT:      -6.6      4.672      5.935
REMARK SMILES C=Cc1ccc(-c2cccc3cc(Nc4ccc(F)cc4C)[nH]c23)nc1
REMARK SMILES IDX 7 1 8 2 9 3 10 4 11 5 12 6 13 7 23 8 24 9 6 11 3 12 4 13
REMARK SMILES IDX 26 14 5 15 25 16 2 17 1 18 14 19 15 21 16 22 21 23 17 24
REMARK SMILES IDX 20 25 18 26 22 27 19 28
REMARK H PARENT 23 10 14 20
ROOT
ATOM      1  C   UNL     1      44.366 131.639  18.365  1.00  0.00     0.024 A 
ATOM      2  C   UNL     1      42.955 131.593  18.273  1.00  0.00     0.012 A 
ATOM      3  C   UNL     1      42.146 131.852  19.401  1.00  0.00     0.001 A 
ATOM      4  C   UNL     1      42.729 132.161  20.640  1.00  0.00     0.010 A 
ATOM      5  C   UNL     1      44.117 132.204  20.713  1.00  0.00     0.002 A 
ATOM      6  C   UNL     1      44.939 132.505  21.778  1.00  0.00     0.055 A 
ATOM      7  C   UNL     1      46.225 132.425  21.260  1.00  0.00     0.108 A 
ATOM      8  N   UNL     1      46.213 132.107  19.945  1.00  0.00    -0.341 N 
ATOM      9  C   UNL     1      44.915 131.957  19.621  1.00  0.00     0.057 A 
ATOM     10  H   UNL     1      47.040 132.039  19.312  1.00  0.00     0.168 HD
ENDROOT
BRANCH   1  11
ATOM     11  C   UNL     1      45.215 131.322  17.194  1.00  0.00     0.072 A 
ATOM     12  C   UNL     1      46.800 130.650  14.988  1.00  0.00    -0.008 A 
ATOM     13  C   UNL     1      46.288 131.954  15.120  1.00  0.00     0.012 A 
ATOM     14  C   UNL     1      46.504 129.718  15.992  1.00  0.00     0.119 A 
ATOM     15  C   UNL     1      45.493 132.289  16.217  1.00  0.00     0.030 A 
ATOM     16  N   UNL     1      45.727 130.068  17.050  1.00  0.00    -0.256 NA
BRANCH  12  17
ATOM     17  C   UNL     1      47.660 130.229  13.854  1.00  0.00     0.002 C 
ATOM     18  C   UNL     1      47.721 130.862  12.682  1.00  0.00     0.009 C 
ENDBRANCH  12  17
ENDBRANCH   1  11
BRANCH   7  19
ATOM     19  N   UNL     1      47.416 132.694  22.012  1.00  0.00    -0.342 N 
ATOM     20  H   UNL     1      47.694 132.017  22.758  1.00  0.00     0.168 HD
BRANCH  19  21
ATOM     21  C   UNL     1      48.110 133.946  21.934  1.00  0.00     0.043 A 
ATOM     22  C   UNL     1      47.628 134.931  21.061  1.00  0.00     0.029 A 
ATOM     23  C   UNL     1      49.248 134.217  22.733  1.00  0.00    -0.025 A 
ATOM     24  C   UNL     1      48.292 136.153  20.935  1.00  0.00     0.041 A 
ATOM     25  C   UNL     1      49.917 135.444  22.580  1.00  0.00     0.044 A 
ATOM     26  C   UNL     1      49.440 136.406  21.687  1.00  0.00     0.123 A 
ATOM     27  C   UNL     1      49.770 133.223  23.735  1.00  0.00     0.047 C 
ATOM     28  F   UNL     1      50.088 137.589  21.556  1.00  0.00    -0.207 F 
ENDBRANCH  19  21
ENDBRANCH   7  19
TORSDOF 4
ENDMDL
MODEL 3
REMARK VINA RESULT:      -6.6      0.616      1.004
REMARK SMILES C=Cc1ccc(-c2cccc3cc(Nc4ccc(F)cc4C)[nH]c23)nc1
REMARK SMILES IDX 7 1 8 2 9 3 10 4 11 5 12 6 13 7 23 8 24 9 6 11 3 12 4 13
REMARK SMILES IDX 26 14 5 15 25 16 2 17 1 18 14 19 15 21 16 22 21 23 17 24
REMARK SMILES IDX 20 25 18 26 22 27 19 28
REMARK H PARENT 23 10 14 20
ROOT
ATOM      1  C   UNL     1      43.787 131.710  18.649  1.00  0.00     0.024 A 
ATOM      2  C   UNL     1      42.728 132.631  18.467  1.00  0.00     0.012 A 
ATOM      3  C   UNL     1      41.870 132.970  19.535  1.00  0.00     0.001 A 
ATOM      4  C   UNL     1      42.050 132.397  20.804  1.00  0.00     0.010 A 
ATOM      5  C   UNL     1      43.096 131.495  20.967  1.00  0.00     0.002 A 
ATOM      6  C   UNL     1      43.513 130.817  22.092  1.00  0.00     0.055 A 
ATOM      7  C   UNL     1      44.619 130.090  21.672  1.00  0.00     0.108 A 
ATOM      8  N   UNL     1      44.891 130.307  20.365  1.00  0.00    -0.341 N 
ATOM      9  C   UNL     1      43.940 131.160  19.935  1.00  0.00     0.057 A 
ATOM     10  H   UNL     1      45.697 129.926  19.823  1.00  0.00     0.168 HD
ENDROOT
BRANCH   1  11
ATOM     11  C   UNL     1      44.658 131.318  17.518  1.00  0.00     0.072 A 
ATOM     12  C   UNL     1      46.333 130.649  15.378  1.00  0.00    -0.008 A 
ATOM     13  C   UNL     1      45.875 129.650  16.258  1.00  0.00     0.012 A 
ATOM     14  C   UNL     1      45.915 131.968  15.601  1.00  0.00     0.119 A 
ATOM     15  C   UNL     1      45.044 129.984  17.329  1.00  0.00     0.030 A 
ATOM     16  N   UNL     1      45.106 132.267  16.650  1.00  0.00    -0.256 NA
BRANCH  12  17
ATOM     17  C   UNL     1      47.209 130.363  14.215  1.00  0.00     0.002 C 
ATOM     18  C   UNL     1      48.065 129.342  14.152  1.00  0.00     0.009 C 
ENDBRANCH  12  17
ENDBRANCH   1  11
BRANCH   7  19
ATOM     19  N   UNL     1      45.404 129.249  22.528  1.00  0.00    -0.342 N 
ATOM     20  H   UNL     1      46.345 129.590  22.830  1.00  0.00     0.168 HD
BRANCH  19  21
ATOM     21  C   UNL     1      45.052 127.887  22.804  1.00  0.00     0.043 A 
ATOM     22  C   UNL     1      45.706 126.866  22.101  1.00  0.00     0.029 A 
ATOM     23  C   UNL     1      44.084 127.552  23.782  1.00  0.00    -0.025 A 
ATOM     24  C   UNL     1      45.372 125.527  22.321  1.00  0.00     0.041 A 
ATOM     25  C   UNL     1      43.743 126.203  23.977  1.00  0.00     0.044 A 
ATOM     26  C   UNL     1      44.385 125.197  23.251  1.00  0.00     0.123 A 
ATOM     27  C   UNL     1      43.397 128.603  24.613  1.00  0.00     0.047 C 
ATOM     28  F   UNL     1      44.055 123.898  23.455  1.00  0.00    -0.207 F 
ENDBRANCH  19  21
ENDBRANCH   7  19
TORSDOF 4
ENDMDL
MODEL 4
REMARK VINA RESULT:      -6.5      2.860      7.191
REMARK SMILES C=Cc1ccc(-c2cccc3cc(Nc4ccc(F)cc4C)[nH]c23)nc1
REMARK SMILES IDX 7 1 8 2 9 3 10 4 11 5 12 6 13 7 23 8 24 9 6 11 3 12 4 13
REMARK SMILES IDX 26 14 5 15 25 16 2 17 1 18 14 19 15 21 16 22 21 23 17 24
REMARK SMILES IDX 20 25 18 26 22 27 19 28
REMARK H PARENT 23 10 14 20
ROOT
ATOM      1  C   UNL     1      44.358 127.285  23.480  1.00  0.00     0.024 A 
ATOM      2  C   UNL     1      43.329 126.825  24.336  1.00  0.00     0.012 A 
ATOM      3  C   UNL     1      42.195 127.623  24.601  1.00  0.00     0.001 A 
ATOM      4  C   UNL     1      42.066 128.894  24.019  1.00  0.00     0.010 A 
ATOM      5  C   UNL     1      43.084 129.331  23.178  1.00  0.00     0.002 A 
ATOM      6  C   UNL     1      43.200 130.503  22.463  1.00  0.00     0.055 A 
ATOM      7  C   UNL     1      44.402 130.377  21.778  1.00  0.00     0.108 A 
ATOM      8  N   UNL     1      45.000 129.191  22.036  1.00  0.00    -0.341 N 
ATOM      9  C   UNL     1      44.192 128.561  22.910  1.00  0.00     0.057 A 
ATOM     10  H   UNL     1      45.880 128.830  21.608  1.00  0.00     0.168 HD
ENDROOT
BRANCH   1  11
ATOM     11  C   UNL     1      45.569 126.468  23.239  1.00  0.00     0.072 A 
ATOM     12  C   UNL     1      47.850 124.894  22.852  1.00  0.00    -0.008 A 
ATOM     13  C   UNL     1      47.108 125.349  21.746  1.00  0.00     0.012 A 
ATOM     14  C   UNL     1      47.420 125.264  24.133  1.00  0.00     0.119 A 
ATOM     15  C   UNL     1      45.967 126.130  21.937  1.00  0.00     0.030 A 
ATOM     16  N   UNL     1      46.305 126.024  24.294  1.00  0.00    -0.256 NA
BRANCH  12  17
ATOM     17  C   UNL     1      49.077 124.071  22.719  1.00  0.00     0.002 C 
ATOM     18  C   UNL     1      49.787 123.955  21.596  1.00  0.00     0.009 C 
ENDBRANCH  12  17
ENDBRANCH   1  11
BRANCH   7  19
ATOM     19  N   UNL     1      44.922 131.360  20.873  1.00  0.00    -0.342 N 
ATOM     20  H   UNL     1      45.488 132.145  21.266  1.00  0.00     0.168 HD
BRANCH  19  21
ATOM     21  C   UNL     1      44.519 131.430  19.499  1.00  0.00     0.043 A 
ATOM     22  C   UNL     1      45.351 130.865  18.522  1.00  0.00     0.029 A 
ATOM     23  C   UNL     1      43.296 132.030  19.111  1.00  0.00    -0.025 A 
ATOM     24  C   UNL     1      45.008 130.937  17.170  1.00  0.00     0.041 A 
ATOM     25  C   UNL     1      42.974 132.113  17.746  1.00  0.00     0.044 A 
ATOM     26  C   UNL     1      43.825 131.569  16.782  1.00  0.00     0.123 A 
ATOM     27  C   UNL     1      42.333 132.594  20.122  1.00  0.00     0.047 C 
ATOM     28  F   UNL     1      43.500 131.647  15.469  1.00  0.00    -0.207 F 
ENDBRANCH  19  21
ENDBRANCH   7  19
TORSDOF 4
ENDMDL
MODEL 5
REMARK VINA RESULT:      -6.4      3.811      7.483
REMARK SMILES C=Cc1ccc(-c2cccc3cc(Nc4ccc(F)cc4C)[nH]c23)nc1
REMARK SMILES IDX 7 1 8 2 9 3 10 4 11 5 12 6 13 7 23 8 24 9 6 11 3 12 4 13
REMARK SMILES IDX 26 14 5 15 25 16 2 17 1 18 14 19 15 21 16 22 21 23 17 24
REMARK SMILES IDX 20 25 18 26 22 27 19 28
REMARK H PARENT 23 10 14 20
ROOT
ATOM      1  C   UNL     1      45.971 124.339  22.235  1.00  0.00     0.024 A 
ATOM      2  C   UNL     1      45.179 123.176  22.083  1.00  0.00     0.012 A 
ATOM      3  C   UNL     1      43.789 123.209  22.324  1.00  0.00     0.001 A 
ATOM      4  C   UNL     1      43.162 124.400  22.722  1.00  0.00     0.010 A 
ATOM      5  C   UNL     1      43.954 125.535  22.866  1.00  0.00     0.002 A 
ATOM      6  C   UNL     1      43.602 126.822  23.211  1.00  0.00     0.055 A 
ATOM      7  C   UNL     1      44.793 127.534  23.162  1.00  0.00     0.108 A 
ATOM      8  N   UNL     1      45.830 126.747  22.795  1.00  0.00    -0.341 N 
ATOM      9  C   UNL     1      45.308 125.516  22.630  1.00  0.00     0.057 A 
ATOM     10  H   UNL     1      46.815 127.048  22.631  1.00  0.00     0.168 HD
ENDROOT
BRANCH   1  11
ATOM     11  C   UNL     1      47.436 124.295  22.027  1.00  0.00     0.072 A 
ATOM     12  C   UNL     1      50.216 124.213  21.710  1.00  0.00    -0.008 A 
ATOM     13  C   UNL     1      49.374 123.683  20.714  1.00  0.00     0.012 A 
ATOM     14  C   UNL     1      49.621 124.787  22.842  1.00  0.00     0.119 A 
ATOM     15  C   UNL     1      47.987 123.718  20.874  1.00  0.00     0.030 A 
ATOM     16  N   UNL     1      48.269 124.808  22.974  1.00  0.00    -0.256 NA
BRANCH  12  17
ATOM     17  C   UNL     1      51.695 124.218  21.600  1.00  0.00     0.002 C 
ATOM     18  C   UNL     1      52.437 125.321  21.491  1.00  0.00     0.009 C 
ENDBRANCH  12  17
ENDBRANCH   1  11
BRANCH   7  19
ATOM     19  N   UNL     1      44.903 128.940  23.422  1.00  0.00    -0.342 N 
ATOM     20  H   UNL     1      45.208 129.246  24.373  1.00  0.00     0.168 HD
BRANCH  19  21
ATOM     21  C   UNL     1      44.409 129.932  22.512  1.00  0.00     0.043 A 
ATOM     22  C   UNL     1      45.140 130.204  21.348  1.00  0.00     0.029 A 
ATOM     23  C   UNL     1      43.192 130.619  22.749  1.00  0.00    -0.025 A 
ATOM     24  C   UNL     1      44.707 131.183  20.450  1.00  0.00     0.041 A 
ATOM     25  C   UNL     1      42.780 131.615  21.848  1.00  0.00     0.044 A 
ATOM     26  C   UNL     1      43.533 131.894  20.705  1.00  0.00     0.123 A 
ATOM     27  C   UNL     1      42.332 130.321  23.948  1.00  0.00     0.047 C 
ATOM     28  F   UNL     1      43.120 132.850  19.838  1.00  0.00    -0.207 F 
ENDBRANCH  19  21
ENDBRANCH   7  19
TORSDOF 4
ENDMDL
MODEL 6
REMARK VINA RESULT:      -6.2      2.603      6.830
REMARK SMILES C=Cc1ccc(-c2cccc3cc(Nc4ccc(F)cc4C)[nH]c23)nc1
REMARK SMILES IDX 7 1 8 2 9 3 10 4 11 5 12 6 13 7 23 8 24 9 6 11 3 12 4 13
REMARK SMILES IDX 26 14 5 15 25 16 2 17 1 18 14 19 15 21 16 22 21 23 17 24
REMARK SMILES IDX 20 25 18 26 22 27 19 28
REMARK H PARENT 23 10 14 20
ROOT
ATOM      1  C   UNL     1      43.776 129.027  23.397  1.00  0.00     0.024 A 
ATOM      2  C   UNL     1      42.833 129.053  24.451  1.00  0.00     0.012 A 
ATOM      3  C   UNL     1      41.969 130.156  24.623  1.00  0.00     0.001 A 
ATOM      4  C   UNL     1      42.029 131.253  23.749  1.00  0.00     0.010 A 
ATOM      5  C   UNL     1      42.960 131.210  22.716  1.00  0.00     0.002 A 
ATOM      6  C   UNL     1      43.211 132.121  21.713  1.00  0.00     0.055 A 
ATOM      7  C   UNL     1      44.218 131.537  20.956  1.00  0.00     0.108 A 
ATOM      8  N   UNL     1      44.571 130.326  21.445  1.00  0.00    -0.341 N 
ATOM      9  C   UNL     1      43.804 130.140  22.537  1.00  0.00     0.057 A 
ATOM     10  H   UNL     1      45.261 129.663  21.031  1.00  0.00     0.168 HD
ENDROOT
BRANCH   1  11
ATOM     11  C   UNL     1      44.714 127.891  23.243  1.00  0.00     0.072 A 
ATOM     12  C   UNL     1      46.486 125.756  22.878  1.00  0.00    -0.008 A 
ATOM     13  C   UNL     1      46.451 126.446  24.105  1.00  0.00     0.012 A 
ATOM     14  C   UNL     1      45.605 126.163  21.867  1.00  0.00     0.119 A 
ATOM     15  C   UNL     1      45.571 127.514  24.287  1.00  0.00     0.030 A 
ATOM     16  N   UNL     1      44.758 127.206  22.067  1.00  0.00    -0.256 NA
BRANCH  12  17
ATOM     17  C   UNL     1      47.388 124.607  22.622  1.00  0.00     0.002 C 
ATOM     18  C   UNL     1      47.899 124.305  21.428  1.00  0.00     0.009 C 
ENDBRANCH  12  17
ENDBRANCH   1  11
BRANCH   7  19
ATOM     19  N   UNL     1      44.782 132.123  19.775  1.00  0.00    -0.342 N 
ATOM     20  H   UNL     1      45.040 133.135  19.798  1.00  0.00     0.168 HD
BRANCH  19  21
ATOM     21  C   UNL     1      44.803 131.442  18.512  1.00  0.00     0.043 A 
ATOM     22  C   UNL     1      45.906 130.637  18.198  1.00  0.00     0.029 A 
ATOM     23  C   UNL     1      43.728 131.543  17.595  1.00  0.00    -0.025 A 
ATOM     24  C   UNL     1      45.977 129.979  16.968  1.00  0.00     0.041 A 
ATOM     25  C   UNL     1      43.823 130.892  16.353  1.00  0.00     0.044 A 
ATOM     26  C   UNL     1      44.940 130.115  16.043  1.00  0.00     0.123 A 
ATOM     27  C   UNL     1      42.489 132.339  17.907  1.00  0.00     0.047 C 
ATOM     28  F   UNL     1      45.016 129.484  14.846  1.00  0.00    -0.207 F 
ENDBRANCH  19  21
ENDBRANCH   7  19
TORSDOF 4
ENDMDL
MODEL 7
REMARK VINA RESULT:      -6.1      2.733      7.346
REMARK SMILES C=Cc1ccc(-c2cccc3cc(Nc4ccc(F)cc4C)[nH]c23)nc1
REMARK SMILES IDX 7 1 8 2 9 3 10 4 11 5 12 6 13 7 23 8 24 9 6 11 3 12 4 13
REMARK SMILES IDX 26 14 5 15 25 16 2 17 1 18 14 19 15 21 16 22 21 23 17 24
REMARK SMILES IDX 20 25 18 26 22 27 19 28
REMARK H PARENT 23 10 14 20
ROOT
ATOM      1  C   UNL     1      44.103 128.233  23.401  1.00  0.00     0.024 A 
ATOM      2  C   UNL     1      43.019 128.286  24.309  1.00  0.00     0.012 A 
ATOM      3  C   UNL     1      42.138 129.389  24.323  1.00  0.00     0.001 A 
ATOM      4  C   UNL     1      42.321 130.459  23.433  1.00  0.00     0.010 A 
ATOM      5  C   UNL     1      43.389 130.391  22.545  1.00  0.00     0.002 A 
ATOM      6  C   UNL     1      43.779 131.272  21.560  1.00  0.00     0.055 A 
ATOM      7  C   UNL     1      44.884 130.672  20.972  1.00  0.00     0.108 A 
ATOM      8  N   UNL     1      45.166 129.478  21.543  1.00  0.00    -0.341 N 
ATOM      9  C   UNL     1      44.252 129.320  22.520  1.00  0.00     0.057 A 
ATOM     10  H   UNL     1      45.909 128.806  21.252  1.00  0.00     0.168 HD
ENDROOT
BRANCH   1  11
ATOM     11  C   UNL     1      45.054 127.099  23.417  1.00  0.00     0.072 A 
ATOM     12  C   UNL     1      46.880 124.979  23.381  1.00  0.00    -0.008 A 
ATOM     13  C   UNL     1      46.375 125.456  24.605  1.00  0.00     0.012 A 
ATOM     14  C   UNL     1      46.433 125.585  22.199  1.00  0.00     0.119 A 
ATOM     15  C   UNL     1      45.468 126.518  24.624  1.00  0.00     0.030 A 
ATOM     16  N   UNL     1      45.550 126.616  22.245  1.00  0.00    -0.256 NA
BRANCH  12  17
ATOM     17  C   UNL     1      47.837 123.849  23.287  1.00  0.00     0.002 C 
ATOM     18  C   UNL     1      48.142 123.035  24.300  1.00  0.00     0.009 C 
ENDBRANCH  12  17
ENDBRANCH   1  11
BRANCH   7  19
ATOM     19  N   UNL     1      45.610 131.225  19.866  1.00  0.00    -0.342 N 
ATOM     20  H   UNL     1      46.351 131.934  20.064  1.00  0.00     0.168 HD
BRANCH  19  21
ATOM     21  C   UNL     1      45.218 131.010  18.503  1.00  0.00     0.043 A 
ATOM     22  C   UNL     1      45.940 130.091  17.730  1.00  0.00     0.029 A 
ATOM     23  C   UNL     1      44.107 131.681  17.934  1.00  0.00    -0.025 A 
ATOM     24  C   UNL     1      45.606 129.874  16.391  1.00  0.00     0.041 A 
ATOM     25  C   UNL     1      43.797 131.468  16.581  1.00  0.00     0.044 A 
ATOM     26  C   UNL     1      44.542 130.569  15.815  1.00  0.00     0.123 A 
ATOM     27  C   UNL     1      43.255 132.629  18.736  1.00  0.00     0.047 C 
ATOM     28  F   UNL     1      44.227 130.364  14.512  1.00  0.00    -0.207 F 
ENDBRANCH  19  21
ENDBRANCH   7  19
TORSDOF 4
ENDMDL
MODEL 8
REMARK VINA RESULT:      -5.7      1.333      2.091
REMARK SMILES C=Cc1ccc(-c2cccc3cc(Nc4ccc(F)cc4C)[nH]c23)nc1
REMARK SMILES IDX 7 1 8 2 9 3 10 4 11 5 12 6 13 7 23 8 24 9 6 11 3 12 4 13
REMARK SMILES IDX 26 14 5 15 25 16 2 17 1 18 14 19 15 21 16 22 21 23 17 24
REMARK SMILES IDX 20 25 18 26 22 27 19 28
REMARK H PARENT 23 10 14 20
ROOT
ATOM      1  C   UNL     1      42.780 132.089  20.624  1.00  0.00     0.024 A 
ATOM      2  C   UNL     1      41.792 133.099  20.697  1.00  0.00     0.012 A 
ATOM      3  C   UNL     1      41.103 133.353  21.902  1.00  0.00     0.001 A 
ATOM      4  C   UNL     1      41.385 132.606  23.056  1.00  0.00     0.010 A 
ATOM      5  C   UNL     1      42.361 131.618  22.969  1.00  0.00     0.002 A 
ATOM      6  C   UNL     1      42.850 130.769  23.938  1.00  0.00     0.055 A 
ATOM      7  C   UNL     1      43.829 130.028  23.290  1.00  0.00     0.108 A 
ATOM      8  N   UNL     1      43.958 130.397  21.995  1.00  0.00    -0.341 N 
ATOM      9  C   UNL     1      43.041 131.364  21.801  1.00  0.00     0.057 A 
ATOM     10  H   UNL     1      44.656 130.035  21.310  1.00  0.00     0.168 HD
ENDROOT
BRANCH   1  11
ATOM     11  C   UNL     1      43.470 131.790  19.348  1.00  0.00     0.072 A 
ATOM     12  C   UNL     1      44.828 131.187  16.976  1.00  0.00    -0.008 A 
ATOM     13  C   UNL     1      43.445 131.451  16.953  1.00  0.00     0.012 A 
ATOM     14  C   UNL     1      45.492 131.250  18.209  1.00  0.00     0.119 A 
ATOM     15  C   UNL     1      42.766 131.746  18.137  1.00  0.00     0.030 A 
ATOM     16  N   UNL     1      44.809 131.539  19.347  1.00  0.00    -0.256 NA
BRANCH  12  17
ATOM     17  C   UNL     1      45.613 130.878  15.756  1.00  0.00     0.002 C 
ATOM     18  C   UNL     1      46.292 131.782  15.050  1.00  0.00     0.009 C 
ENDBRANCH  12  17
ENDBRANCH   1  11
BRANCH   7  19
ATOM     19  N   UNL     1      44.637 129.028  23.926  1.00  0.00    -0.342 N 
ATOM     20  H   UNL     1      45.287 129.327  24.688  1.00  0.00     0.168 HD
BRANCH  19  21
ATOM     21  C   UNL     1      44.749 127.692  23.418  1.00  0.00     0.043 A 
ATOM     22  C   UNL     1      45.856 127.363  22.623  1.00  0.00     0.029 A 
ATOM     23  C   UNL     1      43.788 126.697  23.722  1.00  0.00    -0.025 A 
ATOM     24  C   UNL     1      45.988 126.080  22.087  1.00  0.00     0.041 A 
ATOM     25  C   UNL     1      43.923 125.417  23.158  1.00  0.00     0.044 A 
ATOM     26  C   UNL     1      45.018 125.111  22.346  1.00  0.00     0.123 A 
ATOM     27  C   UNL     1      42.615 126.975  24.623  1.00  0.00     0.047 C 
ATOM     28  F   UNL     1      45.143 123.870  21.816  1.00  0.00    -0.207 F 
ENDBRANCH  19  21
ENDBRANCH   7  19
TORSDOF 4
ENDMDL
MODEL 9
REMARK VINA RESULT:      -5.5      1.998      3.693
REMARK SMILES C=Cc1ccc(-c2cccc3cc(Nc4ccc(F)cc4C)[nH]c23)nc1
REMARK SMILES IDX 7 1 8 2 9 3 10 4 11 5 12 6 13 7 23 8 24 9 6 11 3 12 4 13
REMARK SMILES IDX 26 14 5 15 25 16 2 17 1 18 14 19 15 21 16 22 21 23 17 24
REMARK SMILES IDX 20 25 18 26 22 27 19 28
REMARK H PARENT 23 10 14 20
ROOT
ATOM      1  C   UNL     1      44.565 130.987  21.779  1.00  0.00     0.024 A 
ATOM      2  C   UNL     1      44.609 132.136  22.605  1.00  0.00     0.012 A 
ATOM      3  C   UNL     1      44.518 132.023  24.009  1.00  0.00     0.001 A 
ATOM      4  C   UNL     1      44.379 130.766  24.616  1.00  0.00     0.010 A 
ATOM      5  C   UNL     1      44.339 129.646  23.791  1.00  0.00     0.002 A 
ATOM      6  C   UNL     1      44.239 128.310  24.116  1.00  0.00     0.055 A 
ATOM      7  C   UNL     1      44.281 127.651  22.895  1.00  0.00     0.108 A 
ATOM      8  N   UNL     1      44.412 128.517  21.864  1.00  0.00    -0.341 N 
ATOM      9  C   UNL     1      44.431 129.743  22.423  1.00  0.00     0.057 A 
ATOM     10  H   UNL     1      44.522 128.275  20.855  1.00  0.00     0.168 HD
ENDROOT
BRANCH   1  11
ATOM     11  C   UNL     1      44.614 131.108  20.305  1.00  0.00     0.072 A 
ATOM     12  C   UNL     1      44.650 131.384  17.520  1.00  0.00    -0.008 A 
ATOM     13  C   UNL     1      45.818 131.007  18.209  1.00  0.00     0.012 A 
ATOM     14  C   UNL     1      43.483 131.599  18.266  1.00  0.00     0.119 A 
ATOM     15  C   UNL     1      45.803 130.875  19.598  1.00  0.00     0.030 A 
ATOM     16  N   UNL     1      43.494 131.464  19.618  1.00  0.00    -0.256 NA
BRANCH  12  17
ATOM     17  C   UNL     1      44.593 131.533  16.045  1.00  0.00     0.002 C 
ATOM     18  C   UNL     1      45.387 130.884  15.192  1.00  0.00     0.009 C 
ENDBRANCH  12  17
ENDBRANCH   1  11
BRANCH   7  19
ATOM     19  N   UNL     1      44.238 126.225  22.746  1.00  0.00    -0.342 N 
ATOM     20  H   UNL     1      43.330 125.736  22.913  1.00  0.00     0.168 HD
BRANCH  19  21
ATOM     21  C   UNL     1      45.423 125.431  22.594  1.00  0.00     0.043 A 
ATOM     22  C   UNL     1      46.640 126.078  22.337  1.00  0.00     0.029 A 
ATOM     23  C   UNL     1      45.395 124.021  22.725  1.00  0.00    -0.025 A 
ATOM     24  C   UNL     1      47.811 125.338  22.156  1.00  0.00     0.041 A 
ATOM     25  C   UNL     1      46.577 123.289  22.519  1.00  0.00     0.044 A 
ATOM     26  C   UNL     1      47.778 123.945  22.237  1.00  0.00     0.123 A 
ATOM     27  C   UNL     1      44.130 123.279  23.065  1.00  0.00     0.047 C 
ATOM     28  F   UNL     1      48.913 123.230  22.051  1.00  0.00    -0.207 F 
ENDBRANCH  19  21
ENDBRANCH   7  19
TORSDOF 4
ENDMDL


