REMARK SMILES Cc1cc(N)nc(N(N)c2ccccc2-c2nc3ccccc3[nH]2)n1
REMARK SMILES IDX 8 1 7 2 2 3 3 4 25 5 4 6 6 7 1 8 5 9 9 12 10 15 11 16 15 17
REMARK SMILES IDX 12 18 14 19 13 20 16 21 17 22 24 23 18 24 23 25 19 26 22 27
REMARK SMILES IDX 20 28 21 29
REMARK H PARENT 5 10 5 11 9 13 9 14 24 30
ROOT
ATOM      1  N   UNL     1       0.073  -1.181   2.401  1.00  0.00    -0.245 N 
ENDROOT
BRANCH   1   2
ATOM      2  C   UNL     1      -1.046  -0.752   1.602  1.00  0.00     0.246 A 
ATOM      3  C   UNL     1      -2.948   0.639   1.333  1.00  0.00     0.045 A 
ATOM      4  C   UNL     1      -3.163   0.110   0.056  1.00  0.00     0.070 A 
ATOM      5  N   UNL     1      -1.895   0.202   2.073  1.00  0.00    -0.217 NA
ATOM      6  C   UNL     1      -2.288  -0.871  -0.415  1.00  0.00     0.129 A 
ATOM      7  N   UNL     1      -1.254  -1.282   0.365  1.00  0.00    -0.195 NA
ATOM      8  C   UNL     1      -3.848   1.704   1.873  1.00  0.00     0.067 C 
BRANCH   6   9
ATOM      9  N   UNL     1      -2.466  -1.440  -1.712  1.00  0.00    -0.384 N 
ATOM     10  H   UNL     1      -3.253  -1.137  -2.329  1.00  0.00     0.158 HD
ATOM     11  H   UNL     1      -1.803  -2.168  -2.062  1.00  0.00     0.158 HD
ENDBRANCH   6   9
ENDBRANCH   1   2
BRANCH   1  12
ATOM     12  N   UNL     1       0.152  -0.778   3.750  1.00  0.00    -0.240 NA
ATOM     13  H   UNL     1       0.160   0.268   3.764  1.00  0.00     0.144 HD
ATOM     14  H   UNL     1       1.081  -1.064   4.137  1.00  0.00     0.144 HD
ENDBRANCH   1  12
BRANCH   1  15
ATOM     15  C   UNL     1       0.990  -2.172   1.893  1.00  0.00     0.072 A 
ATOM     16  C   UNL     1       1.056  -3.422   2.527  1.00  0.00     0.029 A 
ATOM     17  C   UNL     1       1.795  -1.921   0.753  1.00  0.00     0.043 A 
ATOM     18  C   UNL     1       1.890  -4.425   2.032  1.00  0.00     0.002 A 
ATOM     19  C   UNL     1       2.622  -2.948   0.262  1.00  0.00     0.014 A 
ATOM     20  C   UNL     1       2.667  -4.190   0.898  1.00  0.00     0.001 A 
BRANCH  17  21
ATOM     21  C   UNL     1       1.808  -0.599   0.085  1.00  0.00     0.140 A 
ATOM     22  N   UNL     1       1.604   0.573   0.748  1.00  0.00    -0.228 NA
ATOM     23  N   UNL     1       2.005  -0.436  -1.250  1.00  0.00    -0.338 N 
ATOM     24  C   UNL     1       1.671   1.489  -0.233  1.00  0.00     0.089 A 
ATOM     25  C   UNL     1       1.910   0.887  -1.430  1.00  0.00     0.066 A 
ATOM     26  C   UNL     1       1.512   2.869  -0.122  1.00  0.00     0.030 A 
ATOM     27  C   UNL     1       2.009   1.608  -2.618  1.00  0.00     0.028 A 
ATOM     28  C   UNL     1       1.609   3.633  -1.301  1.00  0.00     0.002 A 
ATOM     29  C   UNL     1       1.856   3.005  -2.544  1.00  0.00     0.002 A 
ATOM     30  H   UNL     1       2.158  -1.168  -1.978  1.00  0.00     0.168 HD
ENDBRANCH  17  21
ENDBRANCH   1  15
TORSDOF 5


