REMARK SMILES Cc1ccc(-c2ccc([N-]C(=O)c3cccc(C)c3)c(C(=O)[N-][C@@H](C)[C@H](C)O)c2)cc1
REMARK SMILES IDX 21 1 22 2 20 3 6 4 7 5 29 6 8 7 9 8 5 9 2 10 3 11 31 12 4 13
REMARK SMILES IDX 30 14 1 15 10 16 11 17 12 18 13 19 14 20 19 21 15 22 17 23
REMARK SMILES IDX 16 24 18 25 23 26 24 27 25 28 26 29 27 30 28 31
REMARK H PARENT 28 32
ROOT
ATOM      1  C   UNL     1       1.919  -1.244   0.606  1.00  0.00     0.081 C 
ATOM      2  O   UNL     1       3.015  -0.646   0.775  1.00  0.00    -0.315 OA
ENDROOT
BRANCH   1   3
ATOM      3  C   UNL     1       0.630  -0.522   0.800  1.00  0.00    -0.015 A 
ATOM      4  C   UNL     1      -1.807  -0.633   1.051  1.00  0.00    -0.018 A 
ATOM      5  C   UNL     1      -1.849   0.762   1.168  1.00  0.00     0.007 A 
ATOM      6  C   UNL     1      -0.565  -1.265   0.872  1.00  0.00     0.017 A 
ATOM      7  C   UNL     1      -0.678   1.513   1.098  1.00  0.00    -0.015 A 
ATOM      8  C   UNL     1       0.565   0.890   0.892  1.00  0.00    -0.125 A 
BRANCH   4   9
ATOM      9  C   UNL     1      -3.058  -1.431   1.120  1.00  0.00    -0.018 A 
ATOM     10  C   UNL     1      -5.428  -2.954   1.236  1.00  0.00    -0.051 A 
ATOM     11  C   UNL     1      -5.400  -1.742   0.532  1.00  0.00     0.004 A 
ATOM     12  C   UNL     1      -4.275  -3.390   1.903  1.00  0.00     0.004 A 
ATOM     13  C   UNL     1      -4.224  -0.990   0.469  1.00  0.00     0.009 A 
ATOM     14  C   UNL     1      -3.097  -2.639   1.840  1.00  0.00     0.009 A 
ATOM     15  C   UNL     1      -6.701  -3.742   1.337  1.00  0.00     0.044 C 
ENDBRANCH   4   9
BRANCH   8  16
ATOM     16  N   UNL     1       1.760   1.683   0.799  1.00  0.00    -0.622 NA
BRANCH  16  17
ATOM     17  C   UNL     1       1.844   3.038   0.335  1.00  0.00     0.085 C 
ATOM     18  O   UNL     1       2.726   3.790   0.828  1.00  0.00    -0.315 OA
BRANCH  17  19
ATOM     19  C   UNL     1       0.960   3.558  -0.735  1.00  0.00    -0.000 A 
ATOM     20  C   UNL     1       0.626   4.922  -0.771  1.00  0.00     0.010 A 
ATOM     21  C   UNL     1       0.458   2.704  -1.734  1.00  0.00     0.013 A 
ATOM     22  C   UNL     1      -0.220   5.416  -1.767  1.00  0.00     0.001 A 
ATOM     23  C   UNL     1      -0.381   3.200  -2.743  1.00  0.00    -0.050 A 
ATOM     24  C   UNL     1      -0.732   4.558  -2.743  1.00  0.00     0.003 A 
ATOM     25  C   UNL     1      -0.957   2.271  -3.770  1.00  0.00     0.044 C 
ENDBRANCH  17  19
ENDBRANCH  16  17
ENDBRANCH   8  16
ENDBRANCH   1   3
BRANCH   1  26
ATOM     26  N   UNL     1       1.909  -2.630   0.230  1.00  0.00    -0.645 NA
BRANCH  26  27
ATOM     27  C   UNL     1       3.057  -3.527   0.053  1.00  0.00    -0.081 C 
ATOM     28  C   UNL     1       4.168  -2.894  -0.799  1.00  0.00    -0.011 C 
BRANCH  27  29
ATOM     29  C   UNL     1       3.545  -4.121   1.401  1.00  0.00     0.096 C 
ATOM     30  C   UNL     1       4.012  -3.078   2.420  1.00  0.00     0.037 C 
BRANCH  29  31
ATOM     31  O   UNL     1       4.591  -5.031   1.178  1.00  0.00    -0.395 OA
ATOM     32  H   UNL     1       4.185  -5.848   0.786  1.00  0.00     0.210 HD
ENDBRANCH  29  31
ENDBRANCH  27  29
ENDBRANCH  26  27
ENDBRANCH   1  26
TORSDOF 9


