MODEL 1
REMARK VINA RESULT:      -6.4      0.000      0.000
REMARK SMILES Cc1cc[nH+]c(-c2ccc3[nH]c(Nc4cn5ccccc5[nH+]4)cc3c2)c1F
REMARK SMILES IDX 7 1 8 2 9 3 10 4 11 5 12 6 23 7 24 8 25 9 6 11 2 12 3 13
REMARK SMILES IDX 26 14 4 15 5 16 1 17 27 18 13 20 14 22 15 23 22 24 16 25
REMARK SMILES IDX 21 26 17 27 20 28 18 29 19 30
REMARK H PARENT 11 10 5 19 13 21 22 31
ROOT
ATOM      1  C   UNL     1      46.097 130.708  16.506  1.00  0.00     0.050 A 
ATOM      2  C   UNL     1      44.959 131.549  16.380  1.00  0.00     0.017 A 
ATOM      3  C   UNL     1      44.162 131.855  17.497  1.00  0.00     0.027 A 
ATOM      4  C   UNL     1      44.524 131.309  18.725  1.00  0.00     0.048 A 
ATOM      5  N   UNL     1      43.912 131.487  19.909  1.00  0.00    -0.329 N 
ATOM      6  C   UNL     1      44.639 130.767  20.797  1.00  0.00     0.168 A 
ATOM      7  C   UNL     1      45.726 130.150  20.186  1.00  0.00     0.072 A 
ATOM      8  C   UNL     1      45.625 130.504  18.858  1.00  0.00     0.004 A 
ATOM      9  C   UNL     1      46.438 130.183  17.774  1.00  0.00     0.025 A 
ATOM     10  H   UNL     1      43.083 132.093  20.098  1.00  0.00     0.169 HD
ENDROOT
BRANCH   1  11
ATOM     11  C   UNL     1      46.941 130.398  15.328  1.00  0.00     0.247 A 
ATOM     12  C   UNL     1      47.543 130.736  12.998  1.00  0.00    -0.002 A 
ATOM     13  C   UNL     1      48.545 129.768  13.141  1.00  0.00     0.077 A 
ATOM     14  C   UNL     1      46.725 131.044  14.095  1.00  0.00     0.198 A 
ATOM     15  C   UNL     1      48.726 129.142  14.374  1.00  0.00     0.307 A 
ATOM     16  N   UNL     1      47.932 129.464  15.430  1.00  0.00    -0.209 N 
ATOM     17  C   UNL     1      47.307 131.391  11.667  1.00  0.00     0.048 C 
ATOM     18  F   UNL     1      45.707 131.932  13.949  1.00  0.00    -0.199 F 
ATOM     19  H   UNL     1      48.107 128.983  16.342  1.00  0.00     0.453 HD
ENDBRANCH   1  11
BRANCH   6  20
ATOM     20  N   UNL     1      44.379 130.726  22.205  1.00  0.00    -0.257 N 
ATOM     21  H   UNL     1      44.819 131.455  22.812  1.00  0.00     0.265 HD
BRANCH  20  22
ATOM     22  C   UNL     1      43.554 129.734  22.828  1.00  0.00     0.257 A 
ATOM     23  C   UNL     1      44.004 128.511  23.299  1.00  0.00     0.248 A 
ATOM     24  N   UNL     1      42.207 129.813  22.946  1.00  0.00    -0.243 N 
ATOM     25  N   UNL     1      42.921 127.842  23.732  1.00  0.00    -0.233 N 
ATOM     26  C   UNL     1      41.862 128.640  23.509  1.00  0.00     0.230 A 
ATOM     27  C   UNL     1      42.824 126.603  24.275  1.00  0.00     0.168 A 
ATOM     28  C   UNL     1      40.571 128.224  23.830  1.00  0.00     0.081 A 
ATOM     29  C   UNL     1      41.548 126.132  24.625  1.00  0.00     0.035 A 
ATOM     30  C   UNL     1      40.422 126.948  24.400  1.00  0.00     0.010 A 
ATOM     31  H   UNL     1      41.571 130.577  22.630  1.00  0.00     0.267 HD
ENDBRANCH  20  22
ENDBRANCH   6  20
TORSDOF 3
ENDMDL
MODEL 2
REMARK VINA RESULT:      -5.7      6.965     11.030
REMARK SMILES Cc1cc[nH+]c(-c2ccc3[nH]c(Nc4cn5ccccc5[nH+]4)cc3c2)c1F
REMARK SMILES IDX 7 1 8 2 9 3 10 4 11 5 12 6 23 7 24 8 25 9 6 11 2 12 3 13
REMARK SMILES IDX 26 14 4 15 5 16 1 17 27 18 13 20 14 22 15 23 22 24 16 25
REMARK SMILES IDX 21 26 17 27 20 28 18 29 19 30
REMARK H PARENT 11 10 5 19 13 21 22 31
ROOT
ATOM      1  C   UNL     1      43.108 124.973  23.670  1.00  0.00     0.050 A 
ATOM      2  C   UNL     1      43.362 123.577  23.598  1.00  0.00     0.017 A 
ATOM      3  C   UNL     1      44.674 123.091  23.452  1.00  0.00     0.027 A 
ATOM      4  C   UNL     1      45.709 124.019  23.381  1.00  0.00     0.048 A 
ATOM      5  N   UNL     1      47.023 123.766  23.257  1.00  0.00    -0.329 N 
ATOM      6  C   UNL     1      47.620 124.982  23.245  1.00  0.00     0.168 A 
ATOM      7  C   UNL     1      46.691 126.008  23.382  1.00  0.00     0.072 A 
ATOM      8  C   UNL     1      45.474 125.366  23.458  1.00  0.00     0.004 A 
ATOM      9  C   UNL     1      44.188 125.883  23.607  1.00  0.00     0.025 A 
ATOM     10  H   UNL     1      47.478 122.827  23.228  1.00  0.00     0.169 HD
ENDROOT
BRANCH   1  11
ATOM     11  C   UNL     1      41.725 125.481  23.837  1.00  0.00     0.247 A 
ATOM     12  C   UNL     1      39.370 125.114  24.311  1.00  0.00    -0.002 A 
ATOM     13  C   UNL     1      39.143 126.483  24.125  1.00  0.00     0.077 A 
ATOM     14  C   UNL     1      40.667 124.605  24.153  1.00  0.00     0.198 A 
ATOM     15  C   UNL     1      40.212 127.320  23.805  1.00  0.00     0.307 A 
ATOM     16  N   UNL     1      41.466 126.811  23.669  1.00  0.00    -0.209 N 
ATOM     17  C   UNL     1      38.225 124.191  24.616  1.00  0.00     0.048 C 
ATOM     18  F   UNL     1      40.887 123.269  24.265  1.00  0.00    -0.199 F 
ATOM     19  H   UNL     1      42.244 127.472  23.443  1.00  0.00     0.453 HD
ENDBRANCH   1  11
BRANCH   6  20
ATOM     20  N   UNL     1      49.038 125.183  23.194  1.00  0.00    -0.257 N 
ATOM     21  H   UNL     1      49.499 125.660  24.002  1.00  0.00     0.265 HD
BRANCH  20  22
ATOM     22  C   UNL     1      49.856 124.773  22.092  1.00  0.00     0.257 A 
ATOM     23  C   UNL     1      51.236 124.892  22.042  1.00  0.00     0.248 A 
ATOM     24  N   UNL     1      49.384 124.312  20.909  1.00  0.00    -0.243 N 
ATOM     25  N   UNL     1      51.615 124.476  20.821  1.00  0.00    -0.233 N 
ATOM     26  C   UNL     1      50.491 124.138  20.165  1.00  0.00     0.230 A 
ATOM     27  C   UNL     1      52.854 124.403  20.273  1.00  0.00     0.168 A 
ATOM     28  C   UNL     1      50.540 123.683  18.848  1.00  0.00     0.081 A 
ATOM     29  C   UNL     1      52.966 123.945  18.951  1.00  0.00     0.035 A 
ATOM     30  C   UNL     1      51.804 123.586  18.241  1.00  0.00     0.010 A 
ATOM     31  H   UNL     1      48.393 124.173  20.615  1.00  0.00     0.267 HD
ENDBRANCH  20  22
ENDBRANCH   6  20
TORSDOF 3
ENDMDL
MODEL 3
REMARK VINA RESULT:      -5.6      4.320      8.766
REMARK SMILES Cc1cc[nH+]c(-c2ccc3[nH]c(Nc4cn5ccccc5[nH+]4)cc3c2)c1F
REMARK SMILES IDX 7 1 8 2 9 3 10 4 11 5 12 6 23 7 24 8 25 9 6 11 2 12 3 13
REMARK SMILES IDX 26 14 4 15 5 16 1 17 27 18 13 20 14 22 15 23 22 24 16 25
REMARK SMILES IDX 21 26 17 27 20 28 18 29 19 30
REMARK H PARENT 11 10 5 19 13 21 22 31
ROOT
ATOM      1  C   UNL     1      46.318 126.183  23.109  1.00  0.00     0.050 A 
ATOM      2  C   UNL     1      45.499 126.574  24.202  1.00  0.00     0.017 A 
ATOM      3  C   UNL     1      44.783 127.784  24.168  1.00  0.00     0.027 A 
ATOM      4  C   UNL     1      44.902 128.581  23.034  1.00  0.00     0.048 A 
ATOM      5  N   UNL     1      44.295 129.757  22.796  1.00  0.00    -0.329 N 
ATOM      6  C   UNL     1      44.716 130.131  21.564  1.00  0.00     0.168 A 
ATOM      7  C   UNL     1      45.571 129.186  21.007  1.00  0.00     0.072 A 
ATOM      8  C   UNL     1      45.682 128.208  21.971  1.00  0.00     0.004 A 
ATOM      9  C   UNL     1      46.402 127.015  21.969  1.00  0.00     0.025 A 
ATOM     10  H   UNL     1      43.610 130.243  23.416  1.00  0.00     0.169 HD
ENDROOT
BRANCH   1  11
ATOM     11  C   UNL     1      47.061 124.901  23.143  1.00  0.00     0.247 A 
ATOM     12  C   UNL     1      48.987 123.579  23.815  1.00  0.00    -0.002 A 
ATOM     13  C   UNL     1      48.425 122.473  23.164  1.00  0.00     0.077 A 
ATOM     14  C   UNL     1      48.307 124.806  23.793  1.00  0.00     0.198 A 
ATOM     15  C   UNL     1      47.193 122.605  22.523  1.00  0.00     0.307 A 
ATOM     16  N   UNL     1      46.542 123.800  22.525  1.00  0.00    -0.209 N 
ATOM     17  C   UNL     1      50.331 123.468  24.475  1.00  0.00     0.048 C 
ATOM     18  F   UNL     1      48.875 125.902  24.362  1.00  0.00    -0.199 F 
ATOM     19  H   UNL     1      45.615 123.855  22.046  1.00  0.00     0.453 HD
ENDBRANCH   1  11
BRANCH   6  20
ATOM     20  N   UNL     1      44.261 131.305  20.880  1.00  0.00    -0.257 N 
ATOM     21  H   UNL     1      43.836 132.075  21.446  1.00  0.00     0.265 HD
BRANCH  20  22
ATOM     22  C   UNL     1      44.350 131.478  19.460  1.00  0.00     0.257 A 
ATOM     23  C   UNL     1      43.266 131.510  18.596  1.00  0.00     0.248 A 
ATOM     24  N   UNL     1      45.508 131.526  18.759  1.00  0.00    -0.243 N 
ATOM     25  N   UNL     1      43.767 131.604  17.352  1.00  0.00    -0.233 N 
ATOM     26  C   UNL     1      45.106 131.610  17.477  1.00  0.00     0.230 A 
ATOM     27  C   UNL     1      43.126 131.662  16.158  1.00  0.00     0.168 A 
ATOM     28  C   UNL     1      45.930 131.675  16.355  1.00  0.00     0.081 A 
ATOM     29  C   UNL     1      43.904 131.736  14.993  1.00  0.00     0.035 A 
ATOM     30  C   UNL     1      45.309 131.741  15.096  1.00  0.00     0.010 A 
ATOM     31  H   UNL     1      46.486 131.461  19.115  1.00  0.00     0.267 HD
ENDBRANCH  20  22
ENDBRANCH   6  20
TORSDOF 3
ENDMDL
MODEL 4
REMARK VINA RESULT:      -4.5      7.320      8.772
REMARK SMILES Cc1cc[nH+]c(-c2ccc3[nH]c(Nc4cn5ccccc5[nH+]4)cc3c2)c1F
REMARK SMILES IDX 7 1 8 2 9 3 10 4 11 5 12 6 23 7 24 8 25 9 6 11 2 12 3 13
REMARK SMILES IDX 26 14 4 15 5 16 1 17 27 18 13 20 14 22 15 23 22 24 16 25
REMARK SMILES IDX 21 26 17 27 20 28 18 29 19 30
REMARK H PARENT 11 10 5 19 13 21 22 31
ROOT
ATOM      1  C   UNL     1      49.077 124.002  23.014  1.00  0.00     0.050 A 
ATOM      2  C   UNL     1      48.513 124.601  21.855  1.00  0.00     0.017 A 
ATOM      3  C   UNL     1      47.126 124.563  21.629  1.00  0.00     0.027 A 
ATOM      4  C   UNL     1      46.328 123.924  22.573  1.00  0.00     0.048 A 
ATOM      5  N   UNL     1      44.990 123.790  22.554  1.00  0.00    -0.329 N 
ATOM      6  C   UNL     1      44.685 123.110  23.685  1.00  0.00     0.168 A 
ATOM      7  C   UNL     1      45.822 122.829  24.435  1.00  0.00     0.072 A 
ATOM      8  C   UNL     1      46.862 123.352  23.697  1.00  0.00     0.004 A 
ATOM      9  C   UNL     1      48.231 123.374  23.956  1.00  0.00     0.025 A 
ATOM     10  H   UNL     1      44.334 124.177  21.840  1.00  0.00     0.169 HD
ENDROOT
BRANCH   1  11
ATOM     11  C   UNL     1      50.539 124.055  23.256  1.00  0.00     0.247 A 
ATOM     12  C   UNL     1      52.734 124.995  22.804  1.00  0.00    -0.002 A 
ATOM     13  C   UNL     1      53.281 124.103  23.735  1.00  0.00     0.077 A 
ATOM     14  C   UNL     1      51.355 124.963  22.552  1.00  0.00     0.198 A 
ATOM     15  C   UNL     1      52.445 123.212  24.408  1.00  0.00     0.307 A 
ATOM     16  N   UNL     1      51.108 123.204  24.159  1.00  0.00    -0.209 N 
ATOM     17  C   UNL     1      53.623 125.934  22.041  1.00  0.00     0.048 C 
ATOM     18  F   UNL     1      50.823 125.777  21.602  1.00  0.00    -0.199 F 
ATOM     19  H   UNL     1      50.512 122.532  24.694  1.00  0.00     0.453 HD
ENDBRANCH   1  11
BRANCH   6  20
ATOM     20  N   UNL     1      43.350 122.803  24.104  1.00  0.00    -0.257 N 
ATOM     21  H   UNL     1      43.164 121.859  24.514  1.00  0.00     0.265 HD
BRANCH  20  22
ATOM     22  C   UNL     1      42.253 123.718  23.985  1.00  0.00     0.257 A 
ATOM     23  C   UNL     1      42.367 125.099  24.016  1.00  0.00     0.248 A 
ATOM     24  N   UNL     1      40.949 123.357  23.933  1.00  0.00    -0.243 N 
ATOM     25  N   UNL     1      41.117 125.590  23.958  1.00  0.00    -0.233 N 
ATOM     26  C   UNL     1      40.290 124.531  23.911  1.00  0.00     0.230 A 
ATOM     27  C   UNL     1      40.687 126.877  23.964  1.00  0.00     0.168 A 
ATOM     28  C   UNL     1      38.907 124.703  23.868  1.00  0.00     0.081 A 
ATOM     29  C   UNL     1      39.304 127.112  23.915  1.00  0.00     0.035 A 
ATOM     30  C   UNL     1      38.416 126.020  23.867  1.00  0.00     0.010 A 
ATOM     31  H   UNL     1      40.538 122.399  23.958  1.00  0.00     0.267 HD
ENDBRANCH  20  22
ENDBRANCH   6  20
TORSDOF 3
ENDMDL
MODEL 5
REMARK VINA RESULT:      -4.2      1.478      2.030
REMARK SMILES Cc1cc[nH+]c(-c2ccc3[nH]c(Nc4cn5ccccc5[nH+]4)cc3c2)c1F
REMARK SMILES IDX 7 1 8 2 9 3 10 4 11 5 12 6 23 7 24 8 25 9 6 11 2 12 3 13
REMARK SMILES IDX 26 14 4 15 5 16 1 17 27 18 13 20 14 22 15 23 22 24 16 25
REMARK SMILES IDX 21 26 17 27 20 28 18 29 19 30
REMARK H PARENT 11 10 5 19 13 21 22 31
ROOT
ATOM      1  C   UNL     1      45.751 131.042  15.844  1.00  0.00     0.050 A 
ATOM      2  C   UNL     1      44.485 131.683  15.772  1.00  0.00     0.017 A 
ATOM      3  C   UNL     1      43.702 131.861  16.926  1.00  0.00     0.027 A 
ATOM      4  C   UNL     1      44.205 131.391  18.135  1.00  0.00     0.048 A 
ATOM      5  N   UNL     1      43.627 131.474  19.346  1.00  0.00    -0.329 N 
ATOM      6  C   UNL     1      44.504 130.891  20.199  1.00  0.00     0.168 A 
ATOM      7  C   UNL     1      45.648 130.457  19.537  1.00  0.00     0.072 A 
ATOM      8  C   UNL     1      45.428 130.780  18.216  1.00  0.00     0.004 A 
ATOM      9  C   UNL     1      46.233 130.590  17.094  1.00  0.00     0.025 A 
ATOM     10  H   UNL     1      42.720 131.936  19.574  1.00  0.00     0.169 HD
ENDROOT
BRANCH   1  11
ATOM     11  C   UNL     1      46.580 130.868  14.628  1.00  0.00     0.247 A 
ATOM     12  C   UNL     1      48.398 129.785  13.433  1.00  0.00    -0.002 A 
ATOM     13  C   UNL     1      48.117 130.590  12.322  1.00  0.00     0.077 A 
ATOM     14  C   UNL     1      47.634 129.933  14.599  1.00  0.00     0.198 A 
ATOM     15  C   UNL     1      47.072 131.511  12.387  1.00  0.00     0.307 A 
ATOM     16  N   UNL     1      46.332 131.631  13.523  1.00  0.00    -0.209 N 
ATOM     17  C   UNL     1      49.546 128.817  13.396  1.00  0.00     0.048 C 
ATOM     18  F   UNL     1      47.941 129.205  15.705  1.00  0.00    -0.199 F 
ATOM     19  H   UNL     1      45.548 132.322  13.528  1.00  0.00     0.453 HD
ENDBRANCH   1  11
BRANCH   6  20
ATOM     20  N   UNL     1      44.320 130.817  21.618  1.00  0.00    -0.257 N 
ATOM     21  H   UNL     1      44.224 131.711  22.152  1.00  0.00     0.265 HD
BRANCH  20  22
ATOM     22  C   UNL     1      44.267 129.584  22.345  1.00  0.00     0.257 A 
ATOM     23  C   UNL     1      45.234 128.593  22.296  1.00  0.00     0.248 A 
ATOM     24  N   UNL     1      43.217 129.175  23.097  1.00  0.00    -0.243 N 
ATOM     25  N   UNL     1      44.781 127.573  23.045  1.00  0.00    -0.233 N 
ATOM     26  C   UNL     1      43.575 127.945  23.510  1.00  0.00     0.230 A 
ATOM     27  C   UNL     1      45.348 126.370  23.312  1.00  0.00     0.168 A 
ATOM     28  C   UNL     1      42.821 127.089  24.311  1.00  0.00     0.081 A 
ATOM     29  C   UNL     1      44.638 125.469  24.120  1.00  0.00     0.035 A 
ATOM     30  C   UNL     1      43.372 125.833  24.619  1.00  0.00     0.010 A 
ATOM     31  H   UNL     1      42.315 129.667  23.275  1.00  0.00     0.267 HD
ENDBRANCH  20  22
ENDBRANCH   6  20
TORSDOF 3
ENDMDL
MODEL 6
REMARK VINA RESULT:      -3.6      4.676      5.996
REMARK SMILES Cc1cc[nH+]c(-c2ccc3[nH]c(Nc4cn5ccccc5[nH+]4)cc3c2)c1F
REMARK SMILES IDX 7 1 8 2 9 3 10 4 11 5 12 6 23 7 24 8 25 9 6 11 2 12 3 13
REMARK SMILES IDX 26 14 4 15 5 16 1 17 27 18 13 20 14 22 15 23 22 24 16 25
REMARK SMILES IDX 21 26 17 27 20 28 18 29 19 30
REMARK H PARENT 11 10 5 19 13 21 22 31
ROOT
ATOM      1  C   UNL     1      46.756 133.022  22.219  1.00  0.00     0.050 A 
ATOM      2  C   UNL     1      46.456 132.420  20.968  1.00  0.00     0.017 A 
ATOM      3  C   UNL     1      45.328 131.595  20.818  1.00  0.00     0.027 A 
ATOM      4  C   UNL     1      44.517 131.390  21.931  1.00  0.00     0.048 A 
ATOM      5  N   UNL     1      43.393 130.655  21.997  1.00  0.00    -0.329 N 
ATOM      6  C   UNL     1      42.966 130.774  23.277  1.00  0.00     0.168 A 
ATOM      7  C   UNL     1      43.803 131.600  24.021  1.00  0.00     0.072 A 
ATOM      8  C   UNL     1      44.793 131.974  23.139  1.00  0.00     0.004 A 
ATOM      9  C   UNL     1      45.901 132.799  23.323  1.00  0.00     0.025 A 
ATOM     10  H   UNL     1      42.932 130.148  21.210  1.00  0.00     0.169 HD
ENDROOT
BRANCH   1  11
ATOM     11  C   UNL     1      47.940 133.901  22.370  1.00  0.00     0.247 A 
ATOM     12  C   UNL     1      49.212 135.877  21.749  1.00  0.00    -0.002 A 
ATOM     13  C   UNL     1      50.192 135.510  22.681  1.00  0.00     0.077 A 
ATOM     14  C   UNL     1      48.084 135.060  21.582  1.00  0.00     0.198 A 
ATOM     15  C   UNL     1      50.021 134.352  23.439  1.00  0.00     0.307 A 
ATOM     16  N   UNL     1      48.914 133.580  23.272  1.00  0.00    -0.209 N 
ATOM     17  C   UNL     1      49.398 137.098  20.895  1.00  0.00     0.048 C 
ATOM     18  F   UNL     1      47.162 135.370  20.633  1.00  0.00    -0.199 F 
ATOM     19  H   UNL     1      48.814 132.727  23.869  1.00  0.00     0.453 HD
ENDBRANCH   1  11
BRANCH   6  20
ATOM     20  N   UNL     1      41.752 130.200  23.777  1.00  0.00    -0.257 N 
ATOM     21  H   UNL     1      40.985 130.846  24.075  1.00  0.00     0.265 HD
BRANCH  20  22
ATOM     22  C   UNL     1      41.535 128.789  23.897  1.00  0.00     0.257 A 
ATOM     23  C   UNL     1      42.524 127.855  24.161  1.00  0.00     0.248 A 
ATOM     24  N   UNL     1      40.355 128.167  23.666  1.00  0.00    -0.243 N 
ATOM     25  N   UNL     1      41.937 126.647  24.114  1.00  0.00    -0.233 N 
ATOM     26  C   UNL     1      40.643 126.861  23.815  1.00  0.00     0.230 A 
ATOM     27  C   UNL     1      42.470 125.413  24.295  1.00  0.00     0.168 A 
ATOM     28  C   UNL     1      39.757 125.795  23.667  1.00  0.00     0.081 A 
ATOM     29  C   UNL     1      41.623 124.301  24.166  1.00  0.00     0.035 A 
ATOM     30  C   UNL     1      40.264 124.498  23.851  1.00  0.00     0.010 A 
ATOM     31  H   UNL     1      39.442 128.587  23.384  1.00  0.00     0.267 HD
ENDBRANCH  20  22
ENDBRANCH   6  20
TORSDOF 3
ENDMDL
MODEL 7
REMARK VINA RESULT:      -3.4      7.025     10.491
REMARK SMILES Cc1cc[nH+]c(-c2ccc3[nH]c(Nc4cn5ccccc5[nH+]4)cc3c2)c1F
REMARK SMILES IDX 7 1 8 2 9 3 10 4 11 5 12 6 23 7 24 8 25 9 6 11 2 12 3 13
REMARK SMILES IDX 26 14 4 15 5 16 1 17 27 18 13 20 14 22 15 23 22 24 16 25
REMARK SMILES IDX 21 26 17 27 20 28 18 29 19 30
REMARK H PARENT 11 10 5 19 13 21 22 31
ROOT
ATOM      1  C   UNL     1      42.431 126.391  24.301  1.00  0.00     0.050 A 
ATOM      2  C   UNL     1      42.884 127.738  24.322  1.00  0.00     0.017 A 
ATOM      3  C   UNL     1      44.255 128.035  24.416  1.00  0.00     0.027 A 
ATOM      4  C   UNL     1      45.149 126.972  24.489  1.00  0.00     0.048 A 
ATOM      5  N   UNL     1      46.490 127.038  24.568  1.00  0.00    -0.329 N 
ATOM      6  C   UNL     1      46.908 125.750  24.602  1.00  0.00     0.168 A 
ATOM      7  C   UNL     1      45.839 124.863  24.523  1.00  0.00     0.072 A 
ATOM      8  C   UNL     1      44.723 125.670  24.461  1.00  0.00     0.004 A 
ATOM      9  C   UNL     1      43.374 125.338  24.364  1.00  0.00     0.025 A 
ATOM     10  H   UNL     1      47.074 127.903  24.554  1.00  0.00     0.169 HD
ENDROOT
BRANCH   1  11
ATOM     11  C   UNL     1      40.986 126.081  24.189  1.00  0.00     0.247 A 
ATOM     12  C   UNL     1      38.657 126.773  24.216  1.00  0.00    -0.002 A 
ATOM     13  C   UNL     1      38.283 125.443  23.984  1.00  0.00     0.077 A 
ATOM     14  C   UNL     1      40.017 127.094  24.333  1.00  0.00     0.198 A 
ATOM     15  C   UNL     1      39.269 124.465  23.855  1.00  0.00     0.307 A 
ATOM     16  N   UNL     1      40.583 124.797  23.958  1.00  0.00    -0.209 N 
ATOM     17  C   UNL     1      37.609 127.834  24.398  1.00  0.00     0.048 C 
ATOM     18  F   UNL     1      40.388 128.368  24.625  1.00  0.00    -0.199 F 
ATOM     19  H   UNL     1      41.293 124.038  23.840  1.00  0.00     0.453 HD
ENDBRANCH   1  11
BRANCH   6  20
ATOM     20  N   UNL     1      48.284 125.350  24.620  1.00  0.00    -0.257 N 
ATOM     21  H   UNL     1      48.757 125.246  25.547  1.00  0.00     0.265 HD
BRANCH  20  22
ATOM     22  C   UNL     1      49.047 125.091  23.436  1.00  0.00     0.257 A 
ATOM     23  C   UNL     1      48.733 124.134  22.484  1.00  0.00     0.248 A 
ATOM     24  N   UNL     1      50.234 125.673  23.140  1.00  0.00    -0.243 N 
ATOM     25  N   UNL     1      49.729 124.147  21.581  1.00  0.00    -0.233 N 
ATOM     26  C   UNL     1      50.612 125.072  21.997  1.00  0.00     0.230 A 
ATOM     27  C   UNL     1      49.900 123.398  20.463  1.00  0.00     0.168 A 
ATOM     28  C   UNL     1      51.785 125.315  21.283  1.00  0.00     0.081 A 
ATOM     29  C   UNL     1      51.059 123.604  19.699  1.00  0.00     0.035 A 
ATOM     30  C   UNL     1      52.001 124.565  20.114  1.00  0.00     0.010 A 
ATOM     31  H   UNL     1      50.765 126.382  23.691  1.00  0.00     0.267 HD
ENDBRANCH  20  22
ENDBRANCH   6  20
TORSDOF 3
ENDMDL


