REMARK SMILES Cc1ccc(-c2ccc(OC(=O)c3[nH]ncc3C=O)cc2)c2c[nH]nc12
REMARK SMILES IDX 10 1 9 2 6 3 7 4 21 5 8 6 20 7 5 8 2 9 3 10 26 11 4 12 25 13
REMARK SMILES IDX 22 14 24 15 23 16 1 17 11 19 12 20 13 21 14 22 17 23 15 24
REMARK SMILES IDX 16 25 18 27 19 28
REMARK H PARENT 24 18 14 26
ROOT
ATOM      1  O   UNL     1      -2.135   2.530  -1.353  1.00  0.00    -0.422 OA
ENDROOT
BRANCH   1   2
ATOM      2  C   UNL     1      -1.223   1.568  -0.894  1.00  0.00     0.131 A 
ATOM      3  C   UNL     1       0.593  -0.423  -0.062  1.00  0.00    -0.017 A 
ATOM      4  C   UNL     1       0.692   0.885   0.442  1.00  0.00     0.012 A 
ATOM      5  C   UNL     1      -0.422  -0.724  -0.985  1.00  0.00     0.012 A 
ATOM      6  C   UNL     1      -0.202   1.875   0.023  1.00  0.00     0.048 A 
ATOM      7  C   UNL     1      -1.314   0.268  -1.403  1.00  0.00     0.048 A 
BRANCH   3   8
ATOM      8  C   UNL     1       1.536  -1.470   0.393  1.00  0.00    -0.007 A 
ATOM      9  C   UNL     1       3.349  -3.495   1.278  1.00  0.00    -0.023 A 
ATOM     10  C   UNL     1       2.690  -2.663   2.207  1.00  0.00     0.006 A 
ATOM     11  C   UNL     1       3.069  -3.293  -0.076  1.00  0.00     0.096 A 
ATOM     12  C   UNL     1       1.801  -1.656   1.769  1.00  0.00     0.010 A 
ATOM     13  N   UNL     1       3.588  -3.951  -1.130  1.00  0.00    -0.175 NA
ATOM     14  C   UNL     1       2.202  -2.321  -0.501  1.00  0.00     0.028 A 
ATOM     15  N   UNL     1       3.063  -3.400  -2.217  1.00  0.00    -0.284 N 
ATOM     16  C   UNL     1       2.220  -2.400  -1.877  1.00  0.00     0.114 A 
ATOM     17  C   UNL     1       4.279  -4.583   1.728  1.00  0.00     0.047 C 
ATOM     18  H   UNL     1       3.287  -3.701  -3.191  1.00  0.00     0.189 HD
ENDBRANCH   3   8
ENDBRANCH   1   2
BRANCH   1  19
ATOM     19  C   UNL     1      -2.567   3.649  -0.628  1.00  0.00     0.362 C 
ATOM     20  O   UNL     1      -2.407   3.704   0.621  1.00  0.00    -0.244 OA
BRANCH  19  21
ATOM     21  C   UNL     1      -3.270   4.732  -1.341  1.00  0.00     0.154 A 
ATOM     22  N   UNL     1      -3.526   4.700  -2.663  1.00  0.00    -0.271 N 
ATOM     23  C   UNL     1      -3.774   5.921  -0.832  1.00  0.00     0.067 A 
ATOM     24  N   UNL     1      -4.165   5.802  -3.022  1.00  0.00    -0.183 NA
ATOM     25  C   UNL     1      -4.329   6.564  -1.924  1.00  0.00     0.147 A 
ATOM     26  H   UNL     1      -3.270   3.935  -3.326  1.00  0.00     0.190 HD
BRANCH  23  27
ATOM     27  C   UNL     1      -3.741   6.432   0.548  1.00  0.00     0.264 C 
ATOM     28  O   UNL     1      -4.263   7.544   0.824  1.00  0.00    -0.298 OA
ENDBRANCH  23  27
ENDBRANCH  19  21
ENDBRANCH   1  19
TORSDOF 5


