REMARK SMILES C=Cc1cc(-c2cccc3ncoc23)cc(O/C(S)=[NH+]/[C@H](C)CC)c1F
REMARK SMILES IDX 18 1 19 2 17 4 16 5 15 6 25 7 5 8 3 9 4 10 26 11 6 12 7 13
REMARK SMILES IDX 14 14 8 15 13 16 10 17 9 18 12 19 11 20 2 21 1 22 20 23
REMARK SMILES IDX 21 25 22 26 23 27 24 28
REMARK H PARENT 19 3 20 24
ROOT
ATOM      1  C   UNL     1      -0.106   0.090   3.698  1.00  0.00     0.401 C 
ENDROOT
BRANCH   1   2
ATOM      2  S   UNL     1      -0.604   0.852   5.249  1.00  0.00    -0.031 SA
ATOM      3  H   UNL     1      -1.501   1.719   4.599  1.00  0.00     0.118 HD
ENDBRANCH   1   2
BRANCH   1   4
ATOM      4  O   UNL     1      -0.867  -0.999   3.248  1.00  0.00    -0.397 OA
BRANCH   4   5
ATOM      5  C   UNL     1      -1.143  -1.284   1.902  1.00  0.00     0.171 A 
ATOM      6  C   UNL     1      -1.190  -0.270   0.930  1.00  0.00     0.059 A 
ATOM      7  C   UNL     1      -1.421  -2.606   1.535  1.00  0.00     0.173 A 
ATOM      8  C   UNL     1      -1.486  -0.572  -0.407  1.00  0.00    -0.010 A 
ATOM      9  C   UNL     1      -1.698  -2.931   0.191  1.00  0.00     0.014 A 
ATOM     10  C   UNL     1      -1.740  -1.905  -0.766  1.00  0.00     0.020 A 
ATOM     11  F   UNL     1      -1.456  -3.555   2.505  1.00  0.00    -0.202 F 
BRANCH   8  12
ATOM     12  C   UNL     1      -1.517   0.507  -1.425  1.00  0.00     0.027 A 
ATOM     13  C   UNL     1      -0.552   1.544  -1.429  1.00  0.00     0.013 A 
ATOM     14  C   UNL     1      -2.500   0.559  -2.422  1.00  0.00     0.162 A 
ATOM     15  C   UNL     1      -0.594   2.566  -2.405  1.00  0.00     0.003 A 
ATOM     16  O   UNL     1      -3.508  -0.246  -2.632  1.00  0.00    -0.443 OA
ATOM     17  C   UNL     1      -2.537   1.546  -3.361  1.00  0.00     0.110 A 
ATOM     18  C   UNL     1      -1.599   2.573  -3.389  1.00  0.00     0.032 A 
ATOM     19  C   UNL     1      -4.148   0.236  -3.684  1.00  0.00     0.309 A 
ATOM     20  N   UNL     1      -3.583   1.365  -4.185  1.00  0.00    -0.217 NA
ENDBRANCH   8  12
BRANCH   9  21
ATOM     21  C   UNL     1      -1.986  -4.315  -0.250  1.00  0.00     0.003 C 
ATOM     22  C   UNL     1      -1.395  -5.390   0.271  1.00  0.00     0.009 C 
ENDBRANCH   9  21
ENDBRANCH   4   5
ENDBRANCH   1   4
BRANCH   1  23
ATOM     23  N   UNL     1       0.942   0.495   3.027  1.00  0.00    -0.202 N 
ATOM     24  H   UNL     1       1.215  -0.036   2.169  1.00  0.00     0.450 HD
BRANCH  23  25
ATOM     25  C   UNL     1       1.761   1.665   3.381  1.00  0.00     0.259 C 
ATOM     26  C   UNL     1       1.102   2.933   2.820  1.00  0.00     0.087 C 
BRANCH  25  27
ATOM     27  C   UNL     1       3.191   1.480   2.828  1.00  0.00     0.072 C 
ATOM     28  C   UNL     1       4.175   2.526   3.354  1.00  0.00     0.011 C 
ENDBRANCH  25  27
ENDBRANCH  23  25
ENDBRANCH   1  23
TORSDOF 8


