MODEL 1
REMARK VINA RESULT:      -9.4      0.000      0.000
REMARK SMILES Cc1ccc(-c2ccc(N=[N+]=[N-])cc2)c2c[nH]nc12
REMARK SMILES IDX 8 1 7 2 6 3 14 4 13 5 9 6 10 7 11 8 12 9 5 10 4 11 15 12
REMARK SMILES IDX 3 13 16 14 19 15 2 16 17 17 18 18 1 19
REMARK H PARENT 17 20
ROOT
ATOM      1  C   UNL     1      46.067 132.017  15.235  1.00  0.00     0.011 A 
ATOM      2  C   UNL     1      45.535 132.175  16.518  1.00  0.00     0.009 A 
ATOM      3  C   UNL     1      45.383 131.067  17.367  1.00  0.00    -0.018 A 
ATOM      4  C   UNL     1      45.786 129.799  16.916  1.00  0.00     0.009 A 
ATOM      5  C   UNL     1      46.317 129.641  15.632  1.00  0.00     0.011 A 
ATOM      6  C   UNL     1      46.460 130.744  14.782  1.00  0.00     0.038 A 
ENDROOT
BRANCH   6   7
ATOM      7  N   UNL     1      47.008 130.543  13.472  1.00  0.00    -0.061 NA
BRANCH   7   8
ATOM      8  N   UNL     1      48.034 129.886  13.282  1.00  0.00     0.005 N 
ATOM      9  N   UNL     1      49.058 129.232  13.091  1.00  0.00    -0.003 NA
ENDBRANCH   7   8
ENDBRANCH   6   7
BRANCH   3  10
ATOM     10  C   UNL     1      44.831 131.231  18.732  1.00  0.00    -0.007 A 
ATOM     11  C   UNL     1      45.568 130.820  19.865  1.00  0.00     0.010 A 
ATOM     12  C   UNL     1      43.569 131.797  18.968  1.00  0.00     0.028 A 
ATOM     13  C   UNL     1      45.049 130.988  21.168  1.00  0.00     0.006 A 
ATOM     14  C   UNL     1      42.582 132.262  18.125  1.00  0.00     0.114 A 
ATOM     15  C   UNL     1      43.063 131.954  20.232  1.00  0.00     0.096 A 
ATOM     16  C   UNL     1      43.772 131.554  21.367  1.00  0.00    -0.023 A 
ATOM     17  N   UNL     1      41.553 132.682  18.894  1.00  0.00    -0.284 N 
ATOM     18  N   UNL     1      41.833 132.498  20.179  1.00  0.00    -0.175 NA
ATOM     19  C   UNL     1      43.217 131.758  22.746  1.00  0.00     0.047 C 
ATOM     20  H   UNL     1      40.656 133.085  18.545  1.00  0.00     0.189 HD
ENDBRANCH   3  10
TORSDOF 3
ENDMDL
MODEL 2
REMARK VINA RESULT:      -9.4      0.159      1.119
REMARK SMILES Cc1ccc(-c2ccc(N=[N+]=[N-])cc2)c2c[nH]nc12
REMARK SMILES IDX 8 1 7 2 6 3 14 4 13 5 9 6 10 7 11 8 12 9 5 10 4 11 15 12
REMARK SMILES IDX 3 13 16 14 19 15 2 16 17 17 18 18 1 19
REMARK H PARENT 17 20
ROOT
ATOM      1  C   UNL     1      46.474 129.731  15.816  1.00  0.00     0.011 A 
ATOM      2  C   UNL     1      45.929 129.869  17.095  1.00  0.00     0.009 A 
ATOM      3  C   UNL     1      45.405 131.102  17.517  1.00  0.00    -0.018 A 
ATOM      4  C   UNL     1      45.423 132.191  16.629  1.00  0.00     0.009 A 
ATOM      5  C   UNL     1      45.970 132.053  15.349  1.00  0.00     0.011 A 
ATOM      6  C   UNL     1      46.500 130.826  14.933  1.00  0.00     0.038 A 
ENDROOT
BRANCH   6   7
ATOM      7  N   UNL     1      47.052 130.723  13.614  1.00  0.00    -0.061 NA
BRANCH   7   8
ATOM      8  N   UNL     1      47.990 129.968  13.350  1.00  0.00     0.005 N 
ATOM      9  N   UNL     1      48.926 129.215  13.085  1.00  0.00    -0.003 NA
ENDBRANCH   7   8
ENDBRANCH   6   7
BRANCH   3  10
ATOM     10  C   UNL     1      44.816 131.251  18.867  1.00  0.00    -0.007 A 
ATOM     11  C   UNL     1      45.517 130.816  20.015  1.00  0.00     0.010 A 
ATOM     12  C   UNL     1      43.554 131.826  19.076  1.00  0.00     0.028 A 
ATOM     13  C   UNL     1      44.962 130.969  21.304  1.00  0.00     0.006 A 
ATOM     14  C   UNL     1      42.595 132.312  18.212  1.00  0.00     0.114 A 
ATOM     15  C   UNL     1      43.013 131.968  20.327  1.00  0.00     0.096 A 
ATOM     16  C   UNL     1      43.685 131.544  21.476  1.00  0.00    -0.023 A 
ATOM     17  N   UNL     1      41.549 132.731  18.958  1.00  0.00    -0.284 N 
ATOM     18  N   UNL     1      41.790 132.525  20.248  1.00  0.00    -0.175 NA
ATOM     19  C   UNL     1      43.092 131.734  22.841  1.00  0.00     0.047 C 
ATOM     20  H   UNL     1      40.666 133.148  18.590  1.00  0.00     0.189 HD
ENDBRANCH   3  10
TORSDOF 3
ENDMDL
MODEL 3
REMARK VINA RESULT:      -8.5      1.038      1.172
REMARK SMILES Cc1ccc(-c2ccc(N=[N+]=[N-])cc2)c2c[nH]nc12
REMARK SMILES IDX 8 1 7 2 6 3 14 4 13 5 9 6 10 7 11 8 12 9 5 10 4 11 15 12
REMARK SMILES IDX 3 13 16 14 19 15 2 16 17 17 18 18 1 19
REMARK H PARENT 17 20
ROOT
ATOM      1  C   UNL     1      44.205 131.568  15.471  1.00  0.00     0.011 A 
ATOM      2  C   UNL     1      43.916 131.658  16.836  1.00  0.00     0.009 A 
ATOM      3  C   UNL     1      44.805 131.132  17.787  1.00  0.00    -0.018 A 
ATOM      4  C   UNL     1      45.996 130.528  17.350  1.00  0.00     0.009 A 
ATOM      5  C   UNL     1      46.284 130.437  15.985  1.00  0.00     0.011 A 
ATOM      6  C   UNL     1      45.393 130.953  15.036  1.00  0.00     0.038 A 
ENDROOT
BRANCH   6   7
ATOM      7  N   UNL     1      45.722 130.841  13.645  1.00  0.00    -0.061 NA
BRANCH   7   8
ATOM      8  N   UNL     1      46.872 130.985  13.227  1.00  0.00     0.005 N 
ATOM      9  N   UNL     1      48.021 131.128  12.809  1.00  0.00    -0.003 NA
ENDBRANCH   7   8
ENDBRANCH   6   7
BRANCH   3  10
ATOM     10  C   UNL     1      44.510 131.235  19.235  1.00  0.00    -0.007 A 
ATOM     11  C   UNL     1      45.392 130.686  20.194  1.00  0.00     0.010 A 
ATOM     12  C   UNL     1      43.361 131.874  19.723  1.00  0.00     0.028 A 
ATOM     13  C   UNL     1      45.119 130.794  21.575  1.00  0.00     0.006 A 
ATOM     14  C   UNL     1      42.288 132.473  19.097  1.00  0.00     0.114 A 
ATOM     15  C   UNL     1      43.093 131.973  21.064  1.00  0.00     0.096 A 
ATOM     16  C   UNL     1      43.947 131.438  22.031  1.00  0.00    -0.023 A 
ATOM     17  N   UNL     1      41.446 132.910  20.059  1.00  0.00    -0.284 N 
ATOM     18  N   UNL     1      41.924 132.610  21.262  1.00  0.00    -0.175 NA
ATOM     19  C   UNL     1      43.655 131.580  23.495  1.00  0.00     0.047 C 
ATOM     20  H   UNL     1      40.541 133.404  19.899  1.00  0.00     0.189 HD
ENDBRANCH   3  10
TORSDOF 3
ENDMDL
MODEL 4
REMARK VINA RESULT:      -8.5      0.989      1.418
REMARK SMILES Cc1ccc(-c2ccc(N=[N+]=[N-])cc2)c2c[nH]nc12
REMARK SMILES IDX 8 1 7 2 6 3 14 4 13 5 9 6 10 7 11 8 12 9 5 10 4 11 15 12
REMARK SMILES IDX 3 13 16 14 19 15 2 16 17 17 18 18 1 19
REMARK H PARENT 17 20
ROOT
ATOM      1  C   UNL     1      46.340 130.123  16.047  1.00  0.00     0.011 A 
ATOM      2  C   UNL     1      46.027 130.254  17.403  1.00  0.00     0.009 A 
ATOM      3  C   UNL     1      44.941 131.047  17.809  1.00  0.00    -0.018 A 
ATOM      4  C   UNL     1      44.163 131.693  16.834  1.00  0.00     0.009 A 
ATOM      5  C   UNL     1      44.477 131.561  15.477  1.00  0.00     0.011 A 
ATOM      6  C   UNL     1      45.565 130.780  15.073  1.00  0.00     0.038 A 
ENDROOT
BRANCH   6   7
ATOM      7  N   UNL     1      45.856 130.669  13.674  1.00  0.00    -0.061 NA
BRANCH   7   8
ATOM      8  N   UNL     1      46.965 130.938  13.208  1.00  0.00     0.005 N 
ATOM      9  N   UNL     1      48.072 131.208  12.743  1.00  0.00    -0.003 NA
ENDBRANCH   7   8
ENDBRANCH   6   7
BRANCH   3  10
ATOM     10  C   UNL     1      44.598 131.181  19.244  1.00  0.00    -0.007 A 
ATOM     11  C   UNL     1      45.451 130.659  20.243  1.00  0.00     0.010 A 
ATOM     12  C   UNL     1      43.431 131.825  19.680  1.00  0.00     0.028 A 
ATOM     13  C   UNL     1      45.133 130.797  21.612  1.00  0.00     0.006 A 
ATOM     14  C   UNL     1      42.376 132.403  19.006  1.00  0.00     0.114 A 
ATOM     15  C   UNL     1      43.120 131.953  21.008  1.00  0.00     0.096 A 
ATOM     16  C   UNL     1      43.945 131.444  22.014  1.00  0.00    -0.023 A 
ATOM     17  N   UNL     1      41.501 132.857  19.930  1.00  0.00    -0.284 N 
ATOM     18  N   UNL     1      41.942 132.587  21.154  1.00  0.00    -0.175 NA
ATOM     19  C   UNL     1      43.604 131.618  23.465  1.00  0.00     0.047 C 
ATOM     20  H   UNL     1      40.600 133.342  19.729  1.00  0.00     0.189 HD
ENDBRANCH   3  10
TORSDOF 3
ENDMDL
MODEL 5
REMARK VINA RESULT:      -8.3      1.480      2.466
REMARK SMILES Cc1ccc(-c2ccc(N=[N+]=[N-])cc2)c2c[nH]nc12
REMARK SMILES IDX 8 1 7 2 6 3 14 4 13 5 9 6 10 7 11 8 12 9 5 10 4 11 15 12
REMARK SMILES IDX 3 13 16 14 19 15 2 16 17 17 18 18 1 19
REMARK H PARENT 17 20
ROOT
ATOM      1  C   UNL     1      45.894 129.593  15.287  1.00  0.00     0.011 A 
ATOM      2  C   UNL     1      45.175 129.872  16.452  1.00  0.00     0.009 A 
ATOM      3  C   UNL     1      44.996 131.198  16.879  1.00  0.00    -0.018 A 
ATOM      4  C   UNL     1      45.537 132.242  16.110  1.00  0.00     0.009 A 
ATOM      5  C   UNL     1      46.257 131.963  14.944  1.00  0.00     0.011 A 
ATOM      6  C   UNL     1      46.444 130.641  14.524  1.00  0.00     0.038 A 
ENDROOT
BRANCH   6   7
ATOM      7  N   UNL     1      47.188 130.394  13.324  1.00  0.00    -0.061 NA
BRANCH   7   8
ATOM      8  N   UNL     1      48.273 129.809  13.331  1.00  0.00     0.005 N 
ATOM      9  N   UNL     1      49.356 129.226  13.336  1.00  0.00    -0.003 NA
ENDBRANCH   7   8
ENDBRANCH   6   7
BRANCH   3  10
ATOM     10  C   UNL     1      44.225 131.499  18.107  1.00  0.00    -0.007 A 
ATOM     11  C   UNL     1      42.887 131.947  18.029  1.00  0.00     0.010 A 
ATOM     12  C   UNL     1      44.771 131.354  19.390  1.00  0.00     0.028 A 
ATOM     13  C   UNL     1      42.145 132.222  19.199  1.00  0.00     0.006 A 
ATOM     14  C   UNL     1      46.024 130.988  19.836  1.00  0.00     0.114 A 
ATOM     15  C   UNL     1      44.054 131.628  20.526  1.00  0.00     0.096 A 
ATOM     16  C   UNL     1      42.731 132.074  20.475  1.00  0.00    -0.023 A 
ATOM     17  N   UNL     1      46.007 131.040  21.187  1.00  0.00    -0.284 N 
ATOM     18  N   UNL     1      44.813 131.430  21.619  1.00  0.00    -0.175 NA
ATOM     19  C   UNL     1      41.949 132.341  21.727  1.00  0.00     0.047 C 
ATOM     20  H   UNL     1      46.811 130.819  21.815  1.00  0.00     0.189 HD
ENDBRANCH   3  10
TORSDOF 3
ENDMDL
MODEL 6
REMARK VINA RESULT:      -8.2      1.502      2.227
REMARK SMILES Cc1ccc(-c2ccc(N=[N+]=[N-])cc2)c2c[nH]nc12
REMARK SMILES IDX 8 1 7 2 6 3 14 4 13 5 9 6 10 7 11 8 12 9 5 10 4 11 15 12
REMARK SMILES IDX 3 13 16 14 19 15 2 16 17 17 18 18 1 19
REMARK H PARENT 17 20
ROOT
ATOM      1  C   UNL     1      46.354 131.832  14.981  1.00  0.00     0.011 A 
ATOM      2  C   UNL     1      45.648 132.143  16.146  1.00  0.00     0.009 A 
ATOM      3  C   UNL     1      44.918 131.151  16.823  1.00  0.00    -0.018 A 
ATOM      4  C   UNL     1      44.921 129.839  16.320  1.00  0.00     0.009 A 
ATOM      5  C   UNL     1      45.627 129.528  15.154  1.00  0.00     0.011 A 
ATOM      6  C   UNL     1      46.346 130.519  14.475  1.00  0.00     0.038 A 
ENDROOT
BRANCH   6   7
ATOM      7  N   UNL     1      47.057 130.163  13.282  1.00  0.00    -0.061 NA
BRANCH   7   8
ATOM      8  N   UNL     1      48.203 129.709  13.310  1.00  0.00     0.005 N 
ATOM      9  N   UNL     1      49.346 129.254  13.337  1.00  0.00    -0.003 NA
ENDBRANCH   7   8
ENDBRANCH   6   7
BRANCH   3  10
ATOM     10  C   UNL     1      44.177 131.473  18.064  1.00  0.00    -0.007 A 
ATOM     11  C   UNL     1      42.860 131.982  18.009  1.00  0.00     0.010 A 
ATOM     12  C   UNL     1      44.732 131.289  19.338  1.00  0.00     0.028 A 
ATOM     13  C   UNL     1      42.147 132.277  19.192  1.00  0.00     0.006 A 
ATOM     14  C   UNL     1      45.973 130.861  19.764  1.00  0.00     0.114 A 
ATOM     15  C   UNL     1      44.043 131.581  20.486  1.00  0.00     0.096 A 
ATOM     16  C   UNL     1      42.741 132.087  20.458  1.00  0.00    -0.023 A 
ATOM     17  N   UNL     1      45.976 130.898  21.115  1.00  0.00    -0.284 N 
ATOM     18  N   UNL     1      44.807 131.337  21.567  1.00  0.00    -0.175 NA
ATOM     19  C   UNL     1      41.988 132.374  21.723  1.00  0.00     0.047 C 
ATOM     20  H   UNL     1      46.776 130.633  21.729  1.00  0.00     0.189 HD
ENDBRANCH   3  10
TORSDOF 3
ENDMDL
MODEL 7
REMARK VINA RESULT:      -7.8      1.692      6.925
REMARK SMILES Cc1ccc(-c2ccc(N=[N+]=[N-])cc2)c2c[nH]nc12
REMARK SMILES IDX 8 1 7 2 6 3 14 4 13 5 9 6 10 7 11 8 12 9 5 10 4 11 15 12
REMARK SMILES IDX 3 13 16 14 19 15 2 16 17 17 18 18 1 19
REMARK H PARENT 17 20
ROOT
ATOM      1  C   UNL     1      42.309 131.987  18.968  1.00  0.00     0.011 A 
ATOM      2  C   UNL     1      43.052 131.832  17.795  1.00  0.00     0.009 A 
ATOM      3  C   UNL     1      44.451 131.720  17.848  1.00  0.00    -0.018 A 
ATOM      4  C   UNL     1      45.092 131.749  19.097  1.00  0.00     0.009 A 
ATOM      5  C   UNL     1      44.348 131.904  20.271  1.00  0.00     0.011 A 
ATOM      6  C   UNL     1      42.955 132.027  20.218  1.00  0.00     0.038 A 
ENDROOT
BRANCH   6   7
ATOM      7  N   UNL     1      42.226 132.185  21.442  1.00  0.00    -0.061 NA
BRANCH   7   8
ATOM      8  N   UNL     1      42.709 131.893  22.538  1.00  0.00     0.005 N 
ATOM      9  N   UNL     1      43.190 131.604  23.633  1.00  0.00    -0.003 NA
ENDBRANCH   7   8
ENDBRANCH   6   7
BRANCH   3  10
ATOM     10  C   UNL     1      45.242 131.544  16.608  1.00  0.00    -0.007 A 
ATOM     11  C   UNL     1      45.839 132.654  15.968  1.00  0.00     0.010 A 
ATOM     12  C   UNL     1      45.441 130.289  16.016  1.00  0.00     0.028 A 
ATOM     13  C   UNL     1      46.605 132.487  14.793  1.00  0.00     0.006 A 
ATOM     14  C   UNL     1      44.988 129.025  16.332  1.00  0.00     0.114 A 
ATOM     15  C   UNL     1      46.179 130.128  14.872  1.00  0.00     0.096 A 
ATOM     16  C   UNL     1      46.777 131.209  14.220  1.00  0.00    -0.023 A 
ATOM     17  N   UNL     1      45.470 128.174  15.399  1.00  0.00    -0.284 N 
ATOM     18  N   UNL     1      46.195 128.834  14.503  1.00  0.00    -0.175 NA
ATOM     19  C   UNL     1      47.606 131.013  12.985  1.00  0.00     0.047 C 
ATOM     20  H   UNL     1      45.298 127.145  15.366  1.00  0.00     0.189 HD
ENDBRANCH   3  10
TORSDOF 3
ENDMDL
MODEL 8
REMARK VINA RESULT:      -7.8      1.736      6.962
REMARK SMILES Cc1ccc(-c2ccc(N=[N+]=[N-])cc2)c2c[nH]nc12
REMARK SMILES IDX 8 1 7 2 6 3 14 4 13 5 9 6 10 7 11 8 12 9 5 10 4 11 15 12
REMARK SMILES IDX 3 13 16 14 19 15 2 16 17 17 18 18 1 19
REMARK H PARENT 17 20
ROOT
ATOM      1  C   UNL     1      44.510 131.584  20.411  1.00  0.00     0.011 A 
ATOM      2  C   UNL     1      45.210 131.462  19.207  1.00  0.00     0.009 A 
ATOM      3  C   UNL     1      44.541 131.589  17.979  1.00  0.00    -0.018 A 
ATOM      4  C   UNL     1      43.162 131.858  17.975  1.00  0.00     0.009 A 
ATOM      5  C   UNL     1      42.462 131.980  19.179  1.00  0.00     0.011 A 
ATOM      6  C   UNL     1      43.126 131.843  20.404  1.00  0.00     0.038 A 
ENDROOT
BRANCH   6   7
ATOM      7  N   UNL     1      42.375 131.974  21.618  1.00  0.00    -0.061 NA
BRANCH   7   8
ATOM      8  N   UNL     1      42.892 131.845  22.729  1.00  0.00     0.005 N 
ATOM      9  N   UNL     1      43.406 131.717  23.839  1.00  0.00    -0.003 NA
ENDBRANCH   7   8
ENDBRANCH   6   7
BRANCH   3  10
ATOM     10  C   UNL     1      45.281 131.471  16.701  1.00  0.00    -0.007 A 
ATOM     11  C   UNL     1      45.832 132.613  16.075  1.00  0.00     0.010 A 
ATOM     12  C   UNL     1      45.473 130.241  16.056  1.00  0.00     0.028 A 
ATOM     13  C   UNL     1      46.548 132.501  14.864  1.00  0.00     0.006 A 
ATOM     14  C   UNL     1      45.054 128.959  16.345  1.00  0.00     0.114 A 
ATOM     15  C   UNL     1      46.163 130.134  14.876  1.00  0.00     0.096 A 
ATOM     16  C   UNL     1      46.715 131.247  14.238  1.00  0.00    -0.023 A 
ATOM     17  N   UNL     1      45.508 128.150  15.362  1.00  0.00    -0.284 N 
ATOM     18  N   UNL     1      46.183 128.854  14.461  1.00  0.00    -0.175 NA
ATOM     19  C   UNL     1      47.492 131.109  12.962  1.00  0.00     0.047 C 
ATOM     20  H   UNL     1      45.351 127.121  15.300  1.00  0.00     0.189 HD
ENDBRANCH   3  10
TORSDOF 3
ENDMDL
MODEL 9
REMARK VINA RESULT:      -7.4      1.792      2.586
REMARK SMILES Cc1ccc(-c2ccc(N=[N+]=[N-])cc2)c2c[nH]nc12
REMARK SMILES IDX 8 1 7 2 6 3 14 4 13 5 9 6 10 7 11 8 12 9 5 10 4 11 15 12
REMARK SMILES IDX 3 13 16 14 19 15 2 16 17 17 18 18 1 19
REMARK H PARENT 17 20
ROOT
ATOM      1  C   UNL     1      46.261 130.663  16.330  1.00  0.00     0.011 A 
ATOM      2  C   UNL     1      45.737 130.862  17.610  1.00  0.00     0.009 A 
ATOM      3  C   UNL     1      44.433 131.356  17.777  1.00  0.00    -0.018 A 
ATOM      4  C   UNL     1      43.656 131.632  16.639  1.00  0.00     0.009 A 
ATOM      5  C   UNL     1      44.180 131.433  15.359  1.00  0.00     0.011 A 
ATOM      6  C   UNL     1      45.484 130.950  15.192  1.00  0.00     0.038 A 
ENDROOT
BRANCH   6   7
ATOM      7  N   UNL     1      45.987 130.759  13.864  1.00  0.00    -0.061 NA
BRANCH   7   8
ATOM      8  N   UNL     1      47.093 130.260  13.644  1.00  0.00     0.005 N 
ATOM      9  N   UNL     1      48.195 129.759  13.425  1.00  0.00    -0.003 NA
ENDBRANCH   7   8
ENDBRANCH   6   7
BRANCH   3  10
ATOM     10  C   UNL     1      43.869 131.559  19.132  1.00  0.00    -0.007 A 
ATOM     11  C   UNL     1      42.767 132.421  19.335  1.00  0.00     0.010 A 
ATOM     12  C   UNL     1      44.387 130.914  20.264  1.00  0.00     0.028 A 
ATOM     13  C   UNL     1      42.220 132.605  20.624  1.00  0.00     0.006 A 
ATOM     14  C   UNL     1      45.453 130.059  20.446  1.00  0.00     0.114 A 
ATOM     15  C   UNL     1      43.860 131.098  21.516  1.00  0.00     0.096 A 
ATOM     16  C   UNL     1      42.773 131.946  21.743  1.00  0.00    -0.023 A 
ATOM     17  N   UNL     1      45.515 129.758  21.762  1.00  0.00    -0.284 N 
ATOM     18  N   UNL     1      44.551 130.386  22.425  1.00  0.00    -0.175 NA
ATOM     19  C   UNL     1      42.188 132.115  23.114  1.00  0.00     0.047 C 
ATOM     20  H   UNL     1      46.219 129.132  22.211  1.00  0.00     0.189 HD
ENDBRANCH   3  10
TORSDOF 3
ENDMDL


