REMARK SMILES CCC[C@@H](N)/C=C(\O)N1CC[C@@H](C)[C@@H](c2cc3cc(F)ccc3[nH]2)[C@H]1F
REMARK SMILES IDX 6 1 7 2 8 3 9 5 10 6 25 7 11 8 14 9 12 10 26 11 13 12 15 13
REMARK SMILES IDX 16 14 24 15 17 16 23 17 18 18 22 19 19 20 21 21 20 23 4 24
REMARK SMILES IDX 5 25 3 28 2 29 1 30
REMARK H PARENT 8 4 24 22 5 26 5 27
ROOT
ATOM      1  C   UNL     1       0.864  -1.851   0.394  1.00  0.00     0.057 C 
ENDROOT
BRANCH   1   2
ATOM      2  C   UNL     1       1.960  -1.119   0.144  1.00  0.00     0.186 C 
BRANCH   2   3
ATOM      3  O   UNL     1       3.226  -1.698   0.236  1.00  0.00    -0.495 OA
ATOM      4  H   UNL     1       4.063  -1.177   0.008  1.00  0.00     0.295 HD
ENDBRANCH   2   3
BRANCH   2   5
ATOM      5  N   UNL     1       1.830   0.271  -0.209  1.00  0.00    -0.313 N 
ATOM      6  C   UNL     1       1.103   0.624  -1.436  1.00  0.00     0.123 C 
ATOM      7  C   UNL     1       2.765   1.258   0.354  1.00  0.00     0.274 C 
ATOM      8  C   UNL     1       0.390   1.969  -1.275  1.00  0.00     0.026 C 
ATOM      9  C   UNL     1       2.087   2.637   0.516  1.00  0.00     0.094 C 
ATOM     10  C   UNL     1       1.371   3.054  -0.796  1.00  0.00     0.001 C 
ATOM     11  F   UNL     1       3.252   0.832   1.582  1.00  0.00    -0.223 F 
ATOM     12  C   UNL     1       0.666   4.412  -0.673  1.00  0.00     0.008 C 
BRANCH   9  13
ATOM     13  C   UNL     1       1.181   2.695   1.732  1.00  0.00     0.024 A 
ATOM     14  C   UNL     1       0.247   1.732   2.125  1.00  0.00     0.032 A 
ATOM     15  N   UNL     1       1.146   3.762   2.568  1.00  0.00    -0.358 N 
ATOM     16  C   UNL     1      -0.357   2.255   3.246  1.00  0.00     0.003 A 
ATOM     17  C   UNL     1       0.207   3.479   3.486  1.00  0.00     0.046 A 
ATOM     18  C   UNL     1      -1.365   1.737   4.056  1.00  0.00     0.049 A 
ATOM     19  C   UNL     1      -0.198   4.276   4.556  1.00  0.00     0.029 A 
ATOM     20  C   UNL     1      -1.795   2.516   5.147  1.00  0.00     0.123 A 
ATOM     21  C   UNL     1      -1.213   3.780   5.395  1.00  0.00     0.041 A 
ATOM     22  H   UNL     1       1.721   4.631   2.506  1.00  0.00     0.166 HD
ATOM     23  F   UNL     1      -2.773   2.052   5.963  1.00  0.00    -0.207 F 
ENDBRANCH   9  13
ENDBRANCH   2   5
ENDBRANCH   1   2
BRANCH   1  24
ATOM     24  C   UNL     1       0.897  -3.320   0.751  1.00  0.00     0.079 C 
BRANCH  24  25
ATOM     25  N   UNL     1       1.755  -3.538   1.917  1.00  0.00    -0.324 NA
ATOM     26  H   UNL     1       1.373  -2.981   2.716  1.00  0.00     0.119 HD
ATOM     27  H   UNL     1       1.678  -4.541   2.202  1.00  0.00     0.119 HD
ENDBRANCH  24  25
BRANCH  24  28
ATOM     28  C   UNL     1       1.372  -4.197  -0.431  1.00  0.00     0.023 C 
BRANCH  28  29
ATOM     29  C   UNL     1       0.563  -4.006  -1.728  1.00  0.00    -0.002 C 
ATOM     30  C   UNL     1      -0.897  -4.435  -1.587  1.00  0.00     0.004 C 
ENDBRANCH  28  29
ENDBRANCH  24  28
ENDBRANCH   1  24
TORSDOF 8


