REMARK SMILES C=Cc1cc(-c2ccc(C(C)=O)nc2)cc(Nc2ccc(C)c(F)c2)c1O
REMARK SMILES IDX 3 1 4 2 5 3 15 4 16 5 26 6 2 7 1 8 27 9 6 11 7 12 14 13 8 14
REMARK SMILES IDX 13 15 9 16 10 17 11 18 12 19 17 20 18 22 19 23 25 24 20 25
REMARK SMILES IDX 23 26 21 27 24 28 22 29
REMARK H PARENT 27 10 17 21
ROOT
ATOM      1  C   UNL     1       0.075  -0.901  -2.129  1.00  0.00     0.018 A 
ATOM      2  C   UNL     1      -1.202  -0.673  -1.583  1.00  0.00     0.021 A 
ATOM      3  C   UNL     1      -1.386   0.222  -0.517  1.00  0.00    -0.014 A 
ATOM      4  C   UNL     1      -0.272   0.889   0.011  1.00  0.00     0.038 A 
ATOM      5  C   UNL     1       1.010   0.660  -0.499  1.00  0.00     0.082 A 
ATOM      6  C   UNL     1       1.189  -0.218  -1.586  1.00  0.00     0.146 A 
ENDROOT
BRANCH   1   7
ATOM      7  C   UNL     1       0.226  -1.800  -3.299  1.00  0.00     0.004 C 
ATOM      8  C   UNL     1      -0.479  -2.922  -3.443  1.00  0.00     0.009 C 
ENDBRANCH   1   7
BRANCH   6   9
ATOM      9  O   UNL     1       2.478  -0.392  -2.101  1.00  0.00    -0.505 OA
ATOM     10  H   UNL     1       2.710  -1.064  -2.819  1.00  0.00     0.293 HD
ENDBRANCH   6   9
BRANCH   3  11
ATOM     11  C   UNL     1      -2.741   0.465   0.041  1.00  0.00     0.000 A 
ATOM     12  C   UNL     1      -2.940   0.576   1.426  1.00  0.00     0.013 A 
ATOM     13  C   UNL     1      -3.857   0.590  -0.803  1.00  0.00     0.120 A 
ATOM     14  C   UNL     1      -4.218   0.803   1.938  1.00  0.00     0.033 A 
ATOM     15  N   UNL     1      -5.091   0.814  -0.281  1.00  0.00    -0.253 NA
ATOM     16  C   UNL     1      -5.305   0.922   1.059  1.00  0.00     0.106 A 
BRANCH  16  17
ATOM     17  C   UNL     1      -6.673   1.163   1.565  1.00  0.00     0.178 C 
ATOM     18  C   UNL     1      -7.826   1.288   0.618  1.00  0.00     0.095 C 
ATOM     19  O   UNL     1      -6.884   1.266   2.804  1.00  0.00    -0.293 OA
ENDBRANCH  16  17
ENDBRANCH   3  11
BRANCH   5  20
ATOM     20  N   UNL     1       2.121   1.369   0.073  1.00  0.00    -0.352 N 
ATOM     21  H   UNL     1       1.995   2.388   0.272  1.00  0.00     0.167 HD
BRANCH  20  22
ATOM     22  C   UNL     1       3.347   0.744   0.492  1.00  0.00     0.041 A 
ATOM     23  C   UNL     1       4.499   1.527   0.655  1.00  0.00     0.026 A 
ATOM     24  C   UNL     1       3.405  -0.629   0.794  1.00  0.00     0.065 A 
ATOM     25  C   UNL     1       5.698   0.946   1.078  1.00  0.00     0.008 A 
ATOM     26  C   UNL     1       4.604  -1.212   1.217  1.00  0.00     0.128 A 
ATOM     27  C   UNL     1       5.763  -0.430   1.347  1.00  0.00    -0.015 A 
ATOM     28  F   UNL     1       4.631  -2.538   1.507  1.00  0.00    -0.207 F 
ATOM     29  C   UNL     1       7.043  -1.048   1.829  1.00  0.00     0.047 C 
ENDBRANCH  20  22
ENDBRANCH   5  20
TORSDOF 6


