REMARK SMILES Cc1cc(-c2cccc3ncoc23)cc([O-])c1F
REMARK SMILES IDX 1 1 2 2 3 3 4 4 14 5 15 6 16 7 17 8 18 9 5 10 6 11 13 12
REMARK SMILES IDX 7 13 12 14 9 15 8 16 11 17 10 18
REMARK H PARENT
ROOT
ATOM      1  C   UNL     1      -0.551  -2.486   3.287  1.00  0.00     0.047 C 
ATOM      2  C   UNL     1      -0.386  -1.193   2.542  1.00  0.00    -0.015 A 
ATOM      3  C   UNL     1       0.201  -1.181   1.266  1.00  0.00     0.015 A 
ATOM      4  C   UNL     1       0.330   0.020   0.547  1.00  0.00    -0.015 A 
ATOM      5  C   UNL     1      -0.141   1.214   1.121  1.00  0.00     0.003 A 
ATOM      6  C   UNL     1      -0.738   1.204   2.385  1.00  0.00    -0.071 A 
ATOM      7  O   UNL     1      -1.203   2.392   2.937  1.00  0.00    -0.870 OA
ATOM      8  C   UNL     1      -0.867   0.006   3.093  1.00  0.00     0.118 A 
ATOM      9  F   UNL     1      -1.461   0.010   4.314  1.00  0.00    -0.207 F 
ENDROOT
BRANCH   4  10
ATOM     10  C   UNL     1       0.960   0.026  -0.796  1.00  0.00     0.027 A 
ATOM     11  C   UNL     1       2.115  -0.745  -1.073  1.00  0.00     0.013 A 
ATOM     12  C   UNL     1       0.444   0.787  -1.854  1.00  0.00     0.162 A 
ATOM     13  C   UNL     1       2.704  -0.727  -2.358  1.00  0.00     0.003 A 
ATOM     14  O   UNL     1      -0.610   1.560  -1.879  1.00  0.00    -0.443 OA
ATOM     15  C   UNL     1       1.015   0.801  -3.091  1.00  0.00     0.110 A 
ATOM     16  C   UNL     1       2.151   0.055  -3.387  1.00  0.00     0.032 A 
ATOM     17  C   UNL     1      -0.680   2.043  -3.108  1.00  0.00     0.309 A 
ATOM     18  N   UNL     1       0.317   1.599  -3.916  1.00  0.00    -0.217 NA
ENDBRANCH   4  10
TORSDOF 1


