MODEL 1
REMARK VINA RESULT:      -3.2      0.000      0.000
REMARK SMILES C[C@H]1C[C@@H](c2cccc3ncoc23)[C@@H](Nc2cccc(N)c2O)[C@@H](O)[C@@H]1F
REMARK SMILES IDX 15 1 14 3 2 4 3 5 26 6 4 7 24 8 1 9 27 10 5 11 6 12 13 13
REMARK SMILES IDX 7 14 12 15 9 16 8 17 11 18 10 19 25 20 16 22 17 23 22 24
REMARK SMILES IDX 18 25 20 26 19 27 23 28 21 30
REMARK H PARENT 15 2 25 21 23 29 21 31 21 32
ROOT
ATOM      1  N   UNL     1      44.344 127.152  22.476  1.00  0.00    -0.376 N 
ATOM      2  H   UNL     1      44.042 126.639  21.618  1.00  0.00     0.161 HD
ENDROOT
BRANCH   1   3
ATOM      3  C   UNL     1      44.342 126.426  23.755  1.00  0.00     0.118 C 
ATOM      4  C   UNL     1      42.191 124.346  23.610  1.00  0.00     0.024 C 
ATOM      5  C   UNL     1      43.518 124.173  22.847  1.00  0.00     0.017 C 
ATOM      6  C   UNL     1      41.847 125.841  23.779  1.00  0.00     0.200 C 
ATOM      7  C   UNL     1      44.663 124.924  23.558  1.00  0.00     0.048 C 
ATOM      8  C   UNL     1      42.985 126.602  24.483  1.00  0.00     0.171 C 
ATOM      9  C   UNL     1      41.061 123.605  22.882  1.00  0.00     0.011 C 
ATOM     10  F   UNL     1      40.693 125.969  24.535  1.00  0.00    -0.244 F 
BRANCH   7  11
ATOM     11  C   UNL     1      46.007 124.723  22.878  1.00  0.00     0.002 A 
ATOM     12  C   UNL     1      46.150 124.026  21.651  1.00  0.00     0.008 A 
ATOM     13  C   UNL     1      47.167 125.306  23.404  1.00  0.00     0.158 A 
ATOM     14  C   UNL     1      47.413 123.918  21.024  1.00  0.00     0.003 A 
ATOM     15  O   UNL     1      47.310 126.020  24.489  1.00  0.00    -0.443 OA
ATOM     16  C   UNL     1      48.381 125.201  22.796  1.00  0.00     0.109 A 
ATOM     17  C   UNL     1      48.550 124.510  21.601  1.00  0.00     0.032 A 
ATOM     18  C   UNL     1      48.591 126.345  24.546  1.00  0.00     0.309 A 
ATOM     19  N   UNL     1      49.314 125.857  23.506  1.00  0.00    -0.217 NA
ENDBRANCH   7  11
BRANCH   8  20
ATOM     20  O   UNL     1      42.648 127.963  24.566  1.00  0.00    -0.388 OA
ATOM     21  H   UNL     1      42.345 128.127  25.498  1.00  0.00     0.211 HD
ENDBRANCH   8  20
ENDBRANCH   1   3
BRANCH   1  22
ATOM     22  C   UNL     1      44.332 128.588  22.412  1.00  0.00     0.079 A 
ATOM     23  C   UNL     1      43.356 129.287  23.135  1.00  0.00     0.030 A 
ATOM     24  C   UNL     1      45.243 129.295  21.599  1.00  0.00     0.161 A 
ATOM     25  C   UNL     1      43.307 130.679  23.091  1.00  0.00     0.005 A 
ATOM     26  C   UNL     1      45.210 130.711  21.582  1.00  0.00     0.076 A 
ATOM     27  C   UNL     1      44.232 131.387  22.326  1.00  0.00     0.029 A 
BRANCH  24  28
ATOM     28  O   UNL     1      46.127 128.569  20.797  1.00  0.00    -0.504 OA
ATOM     29  H   UNL     1      45.846 128.007  20.007  1.00  0.00     0.293 HD
ENDBRANCH  24  28
BRANCH  26  30
ATOM     30  N   UNL     1      46.159 131.484  20.832  1.00  0.00    -0.396 N 
ATOM     31  H   UNL     1      47.025 131.033  20.459  1.00  0.00     0.156 HD
ATOM     32  H   UNL     1      45.985 132.471  20.549  1.00  0.00     0.156 HD
ENDBRANCH  26  30
ENDBRANCH   1  22
TORSDOF 6
ENDMDL
MODEL 2
REMARK VINA RESULT:      -1.4      2.553      4.168
REMARK SMILES C[C@H]1C[C@@H](c2cccc3ncoc23)[C@@H](Nc2cccc(N)c2O)[C@@H](O)[C@@H]1F
REMARK SMILES IDX 15 1 14 3 2 4 3 5 26 6 4 7 24 8 1 9 27 10 5 11 6 12 13 13
REMARK SMILES IDX 7 14 12 15 9 16 8 17 11 18 10 19 25 20 16 22 17 23 22 24
REMARK SMILES IDX 18 25 20 26 19 27 23 28 21 30
REMARK H PARENT 15 2 25 21 23 29 21 31 21 32
ROOT
ATOM      1  N   UNL     1      44.581 129.347  21.144  1.00  0.00    -0.376 N 
ATOM      2  H   UNL     1      44.231 128.399  20.885  1.00  0.00     0.161 HD
ENDROOT
BRANCH   1   3
ATOM      3  C   UNL     1      45.096 129.548  22.508  1.00  0.00     0.118 C 
ATOM      4  C   UNL     1      42.737 129.760  24.343  1.00  0.00     0.024 C 
ATOM      5  C   UNL     1      43.166 128.404  23.753  1.00  0.00     0.017 C 
ATOM      6  C   UNL     1      43.118 130.916  23.392  1.00  0.00     0.200 C 
ATOM      7  C   UNL     1      44.679 128.390  23.449  1.00  0.00     0.048 C 
ATOM      8  C   UNL     1      44.624 130.909  23.077  1.00  0.00     0.171 C 
ATOM      9  C   UNL     1      41.229 129.761  24.625  1.00  0.00     0.011 C 
ATOM     10  F   UNL     1      42.791 132.127  23.981  1.00  0.00    -0.244 F 
BRANCH   7  11
ATOM     11  C   UNL     1      45.161 127.046  22.931  1.00  0.00     0.002 A 
ATOM     12  C   UNL     1      46.486 126.830  22.471  1.00  0.00     0.008 A 
ATOM     13  C   UNL     1      44.324 125.924  22.971  1.00  0.00     0.158 A 
ATOM     14  C   UNL     1      46.906 125.546  22.056  1.00  0.00     0.003 A 
ATOM     15  O   UNL     1      43.084 125.837  23.374  1.00  0.00    -0.443 OA
ATOM     16  C   UNL     1      44.734 124.688  22.571  1.00  0.00     0.109 A 
ATOM     17  C   UNL     1      46.022 124.455  22.102  1.00  0.00     0.032 A 
ATOM     18  C   UNL     1      42.739 124.568  23.223  1.00  0.00     0.309 A 
ATOM     19  N   UNL     1      43.738 123.798  22.721  1.00  0.00    -0.217 NA
ENDBRANCH   7  11
BRANCH   8  20
ATOM     20  O   UNL     1      44.912 131.943  22.171  1.00  0.00    -0.388 OA
ATOM     21  H   UNL     1      44.398 132.739  22.473  1.00  0.00     0.211 HD
ENDBRANCH   8  20
ENDBRANCH   1   3
BRANCH   1  22
ATOM     22  C   UNL     1      44.156 130.445  20.320  1.00  0.00     0.079 A 
ATOM     23  C   UNL     1      42.924 131.054  20.590  1.00  0.00     0.030 A 
ATOM     24  C   UNL     1      44.927 130.878  19.220  1.00  0.00     0.161 A 
ATOM     25  C   UNL     1      42.475 132.116  19.807  1.00  0.00     0.005 A 
ATOM     26  C   UNL     1      44.482 131.978  18.445  1.00  0.00     0.076 A 
ATOM     27  C   UNL     1      43.252 132.580  18.746  1.00  0.00     0.029 A 
BRANCH  24  28
ATOM     28  O   UNL     1      46.092 130.177  18.900  1.00  0.00    -0.504 OA
ATOM     29  H   UNL     1      46.894 130.586  18.445  1.00  0.00     0.293 HD
ENDBRANCH  24  28
BRANCH  26  30
ATOM     30  N   UNL     1      45.260 132.508  17.363  1.00  0.00    -0.396 N 
ATOM     31  H   UNL     1      46.101 131.992  17.018  1.00  0.00     0.156 HD
ATOM     32  H   UNL     1      44.974 133.352  16.823  1.00  0.00     0.156 HD
ENDBRANCH  26  30
ENDBRANCH   1  22
TORSDOF 6
ENDMDL
MODEL 3
REMARK VINA RESULT:      -1.4      4.120      6.579
REMARK SMILES C[C@H]1C[C@@H](c2cccc3ncoc23)[C@@H](Nc2cccc(N)c2O)[C@@H](O)[C@@H]1F
REMARK SMILES IDX 15 1 14 3 2 4 3 5 26 6 4 7 24 8 1 9 27 10 5 11 6 12 13 13
REMARK SMILES IDX 7 14 12 15 9 16 8 17 11 18 10 19 25 20 16 22 17 23 22 24
REMARK SMILES IDX 18 25 20 26 19 27 23 28 21 30
REMARK H PARENT 15 2 25 21 23 29 21 31 21 32
ROOT
ATOM      1  N   UNL     1      44.503 130.330  18.990  1.00  0.00    -0.376 N 
ATOM      2  H   UNL     1      43.641 129.766  19.160  1.00  0.00     0.161 HD
ENDROOT
BRANCH   1   3
ATOM      3  C   UNL     1      44.951 131.249  20.048  1.00  0.00     0.118 C 
ATOM      4  C   UNL     1      42.519 132.589  21.172  1.00  0.00     0.024 C 
ATOM      5  C   UNL     1      42.842 131.119  21.503  1.00  0.00     0.017 C 
ATOM      6  C   UNL     1      43.073 132.972  19.783  1.00  0.00     0.200 C 
ATOM      7  C   UNL     1      44.362 130.861  21.427  1.00  0.00     0.048 C 
ATOM      8  C   UNL     1      44.588 132.712  19.693  1.00  0.00     0.171 C 
ATOM      9  C   UNL     1      41.004 132.825  21.238  1.00  0.00     0.011 C 
ATOM     10  F   UNL     1      42.837 134.316  19.544  1.00  0.00    -0.244 F 
BRANCH   7  11
ATOM     11  C   UNL     1      44.734 129.440  21.815  1.00  0.00     0.002 A 
ATOM     12  C   UNL     1      45.745 128.701  21.149  1.00  0.00     0.008 A 
ATOM     13  C   UNL     1      44.141 128.824  22.926  1.00  0.00     0.158 A 
ATOM     14  C   UNL     1      46.100 127.404  21.585  1.00  0.00     0.003 A 
ATOM     15  O   UNL     1      43.220 129.287  23.727  1.00  0.00    -0.443 OA
ATOM     16  C   UNL     1      44.488 127.576  23.344  1.00  0.00     0.109 A 
ATOM     17  C   UNL     1      45.465 126.826  22.698  1.00  0.00     0.032 A 
ATOM     18  C   UNL     1      43.003 128.337  24.621  1.00  0.00     0.309 A 
ATOM     19  N   UNL     1      43.773 127.235  24.430  1.00  0.00    -0.217 NA
ENDBRANCH   7  11
BRANCH   8  20
ATOM     20  O   UNL     1      45.034 133.026  18.398  1.00  0.00    -0.388 OA
ATOM     21  H   UNL     1      45.087 132.169  17.898  1.00  0.00     0.211 HD
ENDBRANCH   8  20
ENDBRANCH   1   3
BRANCH   1  22
ATOM     22  C   UNL     1      44.927 130.473  17.625  1.00  0.00     0.079 A 
ATOM     23  C   UNL     1      46.187 129.986  17.255  1.00  0.00     0.030 A 
ATOM     24  C   UNL     1      44.125 131.138  16.672  1.00  0.00     0.161 A 
ATOM     25  C   UNL     1      46.636 130.114  15.941  1.00  0.00     0.005 A 
ATOM     26  C   UNL     1      44.571 131.239  15.332  1.00  0.00     0.076 A 
ATOM     27  C   UNL     1      45.831 130.730  14.985  1.00  0.00     0.029 A 
BRANCH  24  28
ATOM     28  O   UNL     1      42.926 131.719  17.095  1.00  0.00    -0.504 OA
ATOM     29  H   UNL     1      42.867 132.487  17.746  1.00  0.00     0.293 HD
ENDBRANCH  24  28
BRANCH  26  30
ATOM     30  N   UNL     1      43.766 131.838  14.306  1.00  0.00    -0.396 N 
ATOM     31  H   UNL     1      42.804 131.475  14.115  1.00  0.00     0.156 HD
ATOM     32  H   UNL     1      44.054 132.696  13.792  1.00  0.00     0.156 HD
ENDBRANCH  26  30
ENDBRANCH   1  22
TORSDOF 6
ENDMDL
MODEL 4
REMARK VINA RESULT:      -1.4      2.877      4.666
REMARK SMILES C[C@H]1C[C@@H](c2cccc3ncoc23)[C@@H](Nc2cccc(N)c2O)[C@@H](O)[C@@H]1F
REMARK SMILES IDX 15 1 14 3 2 4 3 5 26 6 4 7 24 8 1 9 27 10 5 11 6 12 13 13
REMARK SMILES IDX 7 14 12 15 9 16 8 17 11 18 10 19 25 20 16 22 17 23 22 24
REMARK SMILES IDX 18 25 20 26 19 27 23 28 21 30
REMARK H PARENT 15 2 25 21 23 29 21 31 21 32
ROOT
ATOM      1  N   UNL     1      44.343 129.373  20.861  1.00  0.00    -0.376 N 
ATOM      2  H   UNL     1      43.555 128.689  20.877  1.00  0.00     0.161 HD
ENDROOT
BRANCH   1   3
ATOM      3  C   UNL     1      45.004 129.701  22.134  1.00  0.00     0.118 C 
ATOM      4  C   UNL     1      42.859 130.126  24.183  1.00  0.00     0.024 C 
ATOM      5  C   UNL     1      43.218 128.712  23.688  1.00  0.00     0.017 C 
ATOM      6  C   UNL     1      43.137 131.176  23.086  1.00  0.00     0.200 C 
ATOM      7  C   UNL     1      44.689 128.648  23.226  1.00  0.00     0.048 C 
ATOM      8  C   UNL     1      44.601 131.118  22.612  1.00  0.00     0.171 C 
ATOM      9  C   UNL     1      41.390 130.176  24.624  1.00  0.00     0.011 C 
ATOM     10  F   UNL     1      42.880 132.445  23.582  1.00  0.00    -0.244 F 
BRANCH   7  11
ATOM     11  C   UNL     1      45.108 127.252  22.796  1.00  0.00     0.002 A 
ATOM     12  C   UNL     1      46.418 126.948  22.346  1.00  0.00     0.008 A 
ATOM     13  C   UNL     1      44.222 126.173  22.913  1.00  0.00     0.158 A 
ATOM     14  C   UNL     1      46.779 125.623  22.014  1.00  0.00     0.003 A 
ATOM     15  O   UNL     1      42.983 126.168  23.327  1.00  0.00    -0.443 OA
ATOM     16  C   UNL     1      44.575 124.897  22.595  1.00  0.00     0.109 A 
ATOM     17  C   UNL     1      45.848 124.577  22.137  1.00  0.00     0.032 A 
ATOM     18  C   UNL     1      42.582 124.909  23.262  1.00  0.00     0.309 A 
ATOM     19  N   UNL     1      43.543 124.063  22.807  1.00  0.00    -0.217 NA
ENDBRANCH   7  11
BRANCH   8  20
ATOM     20  O   UNL     1      44.791 132.054  21.582  1.00  0.00    -0.388 OA
ATOM     21  H   UNL     1      45.561 132.622  21.849  1.00  0.00     0.211 HD
ENDBRANCH   8  20
ENDBRANCH   1   3
BRANCH   1  22
ATOM     22  C   UNL     1      44.438 130.228  19.710  1.00  0.00     0.079 A 
ATOM     23  C   UNL     1      45.652 130.291  19.015  1.00  0.00     0.030 A 
ATOM     24  C   UNL     1      43.355 131.039  19.306  1.00  0.00     0.161 A 
ATOM     25  C   UNL     1      45.785 131.116  17.899  1.00  0.00     0.005 A 
ATOM     26  C   UNL     1      43.483 131.852  18.153  1.00  0.00     0.076 A 
ATOM     27  C   UNL     1      44.706 131.885  17.466  1.00  0.00     0.029 A 
BRANCH  24  28
ATOM     28  O   UNL     1      42.196 131.047  20.087  1.00  0.00    -0.504 OA
ATOM     29  H   UNL     1      41.825 131.867  20.542  1.00  0.00     0.293 HD
ENDBRANCH  24  28
BRANCH  26  30
ATOM     30  N   UNL     1      42.393 132.638  17.654  1.00  0.00    -0.396 N 
ATOM     31  H   UNL     1      41.642 132.191  17.080  1.00  0.00     0.156 HD
ATOM     32  H   UNL     1      42.251 133.637  17.915  1.00  0.00     0.156 HD
ENDBRANCH  26  30
ENDBRANCH   1  22
TORSDOF 6
ENDMDL
MODEL 5
REMARK VINA RESULT:      -1.2      2.748      5.417
REMARK SMILES C[C@H]1C[C@@H](c2cccc3ncoc23)[C@@H](Nc2cccc(N)c2O)[C@@H](O)[C@@H]1F
REMARK SMILES IDX 15 1 14 3 2 4 3 5 26 6 4 7 24 8 1 9 27 10 5 11 6 12 13 13
REMARK SMILES IDX 7 14 12 15 9 16 8 17 11 18 10 19 25 20 16 22 17 23 22 24
REMARK SMILES IDX 18 25 20 26 19 27 23 28 21 30
REMARK H PARENT 15 2 25 21 23 29 21 31 21 32
ROOT
ATOM      1  N   UNL     1      41.919 126.223  23.007  1.00  0.00    -0.376 N 
ATOM      2  H   UNL     1      41.912 125.646  22.138  1.00  0.00     0.161 HD
ENDROOT
BRANCH   1   3
ATOM      3  C   UNL     1      42.988 125.985  23.989  1.00  0.00     0.118 C 
ATOM      4  C   UNL     1      45.077 124.298  22.660  1.00  0.00     0.024 C 
ATOM      5  C   UNL     1      44.924 125.792  22.317  1.00  0.00     0.017 C 
ATOM      6  C   UNL     1      43.725 123.697  23.101  1.00  0.00     0.200 C 
ATOM      7  C   UNL     1      44.340 126.573  23.513  1.00  0.00     0.048 C 
ATOM      8  C   UNL     1      43.129 124.472  24.290  1.00  0.00     0.171 C 
ATOM      9  C   UNL     1      45.646 123.535  21.456  1.00  0.00     0.011 C 
ATOM     10  F   UNL     1      43.907 122.375  23.477  1.00  0.00    -0.244 F 
BRANCH   7  11
ATOM     11  C   UNL     1      44.237 128.065  23.245  1.00  0.00     0.002 A 
ATOM     12  C   UNL     1      43.449 128.936  24.039  1.00  0.00     0.008 A 
ATOM     13  C   UNL     1      45.003 128.663  22.235  1.00  0.00     0.158 A 
ATOM     14  C   UNL     1      43.433 130.328  23.789  1.00  0.00     0.003 A 
ATOM     15  O   UNL     1      45.829 128.106  21.390  1.00  0.00    -0.443 OA
ATOM     16  C   UNL     1      44.986 130.004  21.999  1.00  0.00     0.109 A 
ATOM     17  C   UNL     1      44.210 130.876  22.754  1.00  0.00     0.032 A 
ATOM     18  C   UNL     1      46.309 129.089  20.647  1.00  0.00     0.309 A 
ATOM     19  N   UNL     1      45.814 130.307  20.985  1.00  0.00    -0.217 NA
ENDBRANCH   7  11
BRANCH   8  20
ATOM     20  O   UNL     1      41.880 123.921  24.621  1.00  0.00    -0.388 OA
ATOM     21  H   UNL     1      41.831 123.033  24.176  1.00  0.00     0.211 HD
ENDBRANCH   8  20
ENDBRANCH   1   3
BRANCH   1  22
ATOM     22  C   UNL     1      40.692 126.881  23.360  1.00  0.00     0.079 A 
ATOM     23  C   UNL     1      40.752 128.065  24.107  1.00  0.00     0.030 A 
ATOM     24  C   UNL     1      39.438 126.331  23.018  1.00  0.00     0.161 A 
ATOM     25  C   UNL     1      39.582 128.728  24.475  1.00  0.00     0.005 A 
ATOM     26  C   UNL     1      38.252 127.024  23.366  1.00  0.00     0.076 A 
ATOM     27  C   UNL     1      38.341 128.215  24.101  1.00  0.00     0.029 A 
BRANCH  24  28
ATOM     28  O   UNL     1      39.404 125.090  22.377  1.00  0.00    -0.504 OA
ATOM     29  H   UNL     1      39.264 124.967  21.386  1.00  0.00     0.293 HD
ENDBRANCH  24  28
BRANCH  26  30
ATOM     30  N   UNL     1      36.954 126.550  22.979  1.00  0.00    -0.396 N 
ATOM     31  H   UNL     1      36.450 126.995  22.179  1.00  0.00     0.156 HD
ATOM     32  H   UNL     1      36.514 125.704  23.399  1.00  0.00     0.156 HD
ENDBRANCH  26  30
ENDBRANCH   1  22
TORSDOF 6
ENDMDL
MODEL 6
REMARK VINA RESULT:      -0.8      2.405      3.824
REMARK SMILES C[C@H]1C[C@@H](c2cccc3ncoc23)[C@@H](Nc2cccc(N)c2O)[C@@H](O)[C@@H]1F
REMARK SMILES IDX 15 1 14 3 2 4 3 5 26 6 4 7 24 8 1 9 27 10 5 11 6 12 13 13
REMARK SMILES IDX 7 14 12 15 9 16 8 17 11 18 10 19 25 20 16 22 17 23 22 24
REMARK SMILES IDX 18 25 20 26 19 27 23 28 21 30
REMARK H PARENT 15 2 25 21 23 29 21 31 21 32
ROOT
ATOM      1  N   UNL     1      44.450 129.286  21.487  1.00  0.00    -0.376 N 
ATOM      2  H   UNL     1      44.150 128.338  21.168  1.00  0.00     0.161 HD
ENDROOT
BRANCH   1   3
ATOM      3  C   UNL     1      44.859 129.447  22.891  1.00  0.00     0.118 C 
ATOM      4  C   UNL     1      42.409 130.138  24.472  1.00  0.00     0.024 C 
ATOM      5  C   UNL     1      42.648 128.705  23.959  1.00  0.00     0.017 C 
ATOM      6  C   UNL     1      43.078 131.171  23.540  1.00  0.00     0.200 C 
ATOM      7  C   UNL     1      44.156 128.418  23.811  1.00  0.00     0.048 C 
ATOM      8  C   UNL     1      44.583 130.891  23.379  1.00  0.00     0.171 C 
ATOM      9  C   UNL     1      40.905 130.412  24.600  1.00  0.00     0.011 C 
ATOM     10  F   UNL     1      42.915 132.443  24.066  1.00  0.00    -0.244 F 
BRANCH   7  11
ATOM     11  C   UNL     1      44.441 126.991  23.374  1.00  0.00     0.002 A 
ATOM     12  C   UNL     1      43.505 126.206  22.653  1.00  0.00     0.008 A 
ATOM     13  C   UNL     1      45.699 126.414  23.596  1.00  0.00     0.158 A 
ATOM     14  C   UNL     1      43.837 124.904  22.215  1.00  0.00     0.003 A 
ATOM     15  O   UNL     1      46.741 126.921  24.197  1.00  0.00    -0.443 OA
ATOM     16  C   UNL     1      46.015 125.160  23.170  1.00  0.00     0.109 A 
ATOM     17  C   UNL     1      45.109 124.367  22.475  1.00  0.00     0.032 A 
ATOM     18  C   UNL     1      47.682 125.993  24.142  1.00  0.00     0.309 A 
ATOM     19  N   UNL     1      47.282 124.862  23.506  1.00  0.00    -0.217 NA
ENDBRANCH   7  11
BRANCH   8  20
ATOM     20  O   UNL     1      45.133 131.824  22.485  1.00  0.00    -0.388 OA
ATOM     21  H   UNL     1      45.449 131.311  21.694  1.00  0.00     0.211 HD
ENDBRANCH   8  20
ENDBRANCH   1   3
BRANCH   1  22
ATOM     22  C   UNL     1      44.051 130.402  20.675  1.00  0.00     0.079 A 
ATOM     23  C   UNL     1      42.796 130.983  20.898  1.00  0.00     0.030 A 
ATOM     24  C   UNL     1      44.871 130.881  19.631  1.00  0.00     0.161 A 
ATOM     25  C   UNL     1      42.370 132.062  20.124  1.00  0.00     0.005 A 
ATOM     26  C   UNL     1      44.449 131.998  18.868  1.00  0.00     0.076 A 
ATOM     27  C   UNL     1      43.194 132.570  19.121  1.00  0.00     0.029 A 
BRANCH  24  28
ATOM     28  O   UNL     1      46.063 130.208  19.353  1.00  0.00    -0.504 OA
ATOM     29  H   UNL     1      46.280 129.279  19.684  1.00  0.00     0.293 HD
ENDBRANCH  24  28
BRANCH  26  30
ATOM     30  N   UNL     1      45.273 132.573  17.845  1.00  0.00    -0.396 N 
ATOM     31  H   UNL     1      46.199 132.993  18.090  1.00  0.00     0.156 HD
ATOM     32  H   UNL     1      45.041 132.511  16.831  1.00  0.00     0.156 HD
ENDBRANCH  26  30
ENDBRANCH   1  22
TORSDOF 6
ENDMDL
MODEL 7
REMARK VINA RESULT:      -0.8      3.902      6.322
REMARK SMILES C[C@H]1C[C@@H](c2cccc3ncoc23)[C@@H](Nc2cccc(N)c2O)[C@@H](O)[C@@H]1F
REMARK SMILES IDX 15 1 14 3 2 4 3 5 26 6 4 7 24 8 1 9 27 10 5 11 6 12 13 13
REMARK SMILES IDX 7 14 12 15 9 16 8 17 11 18 10 19 25 20 16 22 17 23 22 24
REMARK SMILES IDX 18 25 20 26 19 27 23 28 21 30
REMARK H PARENT 15 2 25 21 23 29 21 31 21 32
ROOT
ATOM      1  N   UNL     1      44.627 130.289  19.108  1.00  0.00    -0.376 N 
ATOM      2  H   UNL     1      43.981 129.499  19.327  1.00  0.00     0.161 HD
ENDROOT
BRANCH   1   3
ATOM      3  C   UNL     1      45.048 131.167  20.211  1.00  0.00     0.118 C 
ATOM      4  C   UNL     1      42.587 132.463  21.324  1.00  0.00     0.024 C 
ATOM      5  C   UNL     1      42.904 130.982  21.607  1.00  0.00     0.017 C 
ATOM      6  C   UNL     1      43.176 132.899  19.965  1.00  0.00     0.200 C 
ATOM      7  C   UNL     1      44.424 130.726  21.559  1.00  0.00     0.048 C 
ATOM      8  C   UNL     1      44.692 132.643  19.903  1.00  0.00     0.171 C 
ATOM      9  C   UNL     1      41.071 132.697  21.362  1.00  0.00     0.011 C 
ATOM     10  F   UNL     1      42.944 134.252  19.772  1.00  0.00    -0.244 F 
BRANCH   7  11
ATOM     11  C   UNL     1      44.789 129.292  21.902  1.00  0.00     0.002 A 
ATOM     12  C   UNL     1      45.818 128.579  21.234  1.00  0.00     0.008 A 
ATOM     13  C   UNL     1      44.168 128.634  22.972  1.00  0.00     0.158 A 
ATOM     14  C   UNL     1      46.162 127.267  21.629  1.00  0.00     0.003 A 
ATOM     15  O   UNL     1      43.225 129.065  23.766  1.00  0.00    -0.443 OA
ATOM     16  C   UNL     1      44.504 127.370  23.350  1.00  0.00     0.109 A 
ATOM     17  C   UNL     1      45.499 126.646  22.702  1.00  0.00     0.032 A 
ATOM     18  C   UNL     1      42.986 128.081  24.617  1.00  0.00     0.309 A 
ATOM     19  N   UNL     1      43.762 126.988  24.403  1.00  0.00    -0.217 NA
ENDBRANCH   7  11
BRANCH   8  20
ATOM     20  O   UNL     1      45.170 133.006  18.633  1.00  0.00    -0.388 OA
ATOM     21  H   UNL     1      44.852 133.932  18.461  1.00  0.00     0.211 HD
ENDBRANCH   8  20
ENDBRANCH   1   3
BRANCH   1  22
ATOM     22  C   UNL     1      44.712 130.697  17.733  1.00  0.00     0.079 A 
ATOM     23  C   UNL     1      43.594 131.291  17.134  1.00  0.00     0.030 A 
ATOM     24  C   UNL     1      45.874 130.460  16.967  1.00  0.00     0.161 A 
ATOM     25  C   UNL     1      43.636 131.692  15.800  1.00  0.00     0.005 A 
ATOM     26  C   UNL     1      45.925 130.898  15.621  1.00  0.00     0.076 A 
ATOM     27  C   UNL     1      44.796 131.503  15.051  1.00  0.00     0.029 A 
BRANCH  24  28
ATOM     28  O   UNL     1      46.931 129.759  17.554  1.00  0.00    -0.504 OA
ATOM     29  H   UNL     1      47.738 130.197  17.974  1.00  0.00     0.293 HD
ENDBRANCH  24  28
BRANCH  26  30
ATOM     30  N   UNL     1      47.105 130.751  14.819  1.00  0.00    -0.396 N 
ATOM     31  H   UNL     1      47.867 131.466  14.869  1.00  0.00     0.156 HD
ATOM     32  H   UNL     1      47.296 129.903  14.245  1.00  0.00     0.156 HD
ENDBRANCH  26  30
ENDBRANCH   1  22
TORSDOF 6
ENDMDL
MODEL 8
REMARK VINA RESULT:      -0.6      2.682      4.683
REMARK SMILES C[C@H]1C[C@@H](c2cccc3ncoc23)[C@@H](Nc2cccc(N)c2O)[C@@H](O)[C@@H]1F
REMARK SMILES IDX 15 1 14 3 2 4 3 5 26 6 4 7 24 8 1 9 27 10 5 11 6 12 13 13
REMARK SMILES IDX 7 14 12 15 9 16 8 17 11 18 10 19 25 20 16 22 17 23 22 24
REMARK SMILES IDX 18 25 20 26 19 27 23 28 21 30
REMARK H PARENT 15 2 25 21 23 29 21 31 21 32
ROOT
ATOM      1  N   UNL     1      44.228 129.250  21.972  1.00  0.00    -0.376 N 
ATOM      2  H   UNL     1      43.499 128.511  21.863  1.00  0.00     0.161 HD
ENDROOT
BRANCH   1   3
ATOM      3  C   UNL     1      44.668 129.596  23.332  1.00  0.00     0.118 C 
ATOM      4  C   UNL     1      42.464 131.160  24.625  1.00  0.00     0.024 C 
ATOM      5  C   UNL     1      42.346 129.637  24.422  1.00  0.00     0.017 C 
ATOM      6  C   UNL     1      43.359 131.790  23.536  1.00  0.00     0.200 C 
ATOM      7  C   UNL     1      43.740 128.975  24.406  1.00  0.00     0.048 C 
ATOM      8  C   UNL     1      44.751 131.133  23.507  1.00  0.00     0.171 C 
ATOM      9  C   UNL     1      41.071 131.803  24.624  1.00  0.00     0.011 C 
ATOM     10  F   UNL     1      43.511 133.144  23.788  1.00  0.00    -0.244 F 
BRANCH   7  11
ATOM     11  C   UNL     1      43.669 127.463  24.279  1.00  0.00     0.002 A 
ATOM     12  C   UNL     1      42.469 126.773  23.970  1.00  0.00     0.008 A 
ATOM     13  C   UNL     1      44.830 126.684  24.377  1.00  0.00     0.158 A 
ATOM     14  C   UNL     1      42.464 125.370  23.802  1.00  0.00     0.003 A 
ATOM     15  O   UNL     1      46.056 127.062  24.617  1.00  0.00    -0.443 OA
ATOM     16  C   UNL     1      44.821 125.332  24.212  1.00  0.00     0.109 A 
ATOM     17  C   UNL     1      43.654 124.632  23.924  1.00  0.00     0.032 A 
ATOM     18  C   UNL     1      46.788 125.960  24.601  1.00  0.00     0.309 A 
ATOM     19  N   UNL     1      46.063 124.839  24.350  1.00  0.00    -0.217 NA
ENDBRANCH   7  11
BRANCH   8  20
ATOM     20  O   UNL     1      45.509 131.703  22.470  1.00  0.00    -0.388 OA
ATOM     21  H   UNL     1      46.397 131.928  22.854  1.00  0.00     0.211 HD
ENDBRANCH   8  20
ENDBRANCH   1   3
BRANCH   1  22
ATOM     22  C   UNL     1      44.428 130.134  20.857  1.00  0.00     0.079 A 
ATOM     23  C   UNL     1      45.694 130.191  20.260  1.00  0.00     0.030 A 
ATOM     24  C   UNL     1      43.395 130.978  20.394  1.00  0.00     0.161 A 
ATOM     25  C   UNL     1      45.928 131.043  19.181  1.00  0.00     0.005 A 
ATOM     26  C   UNL     1      43.628 131.819  19.278  1.00  0.00     0.076 A 
ATOM     27  C   UNL     1      44.900 131.846  18.690  1.00  0.00     0.029 A 
BRANCH  24  28
ATOM     28  O   UNL     1      42.179 130.988  21.083  1.00  0.00    -0.504 OA
ATOM     29  H   UNL     1      41.546 131.773  21.104  1.00  0.00     0.293 HD
ENDBRANCH  24  28
BRANCH  26  30
ATOM     30  N   UNL     1      42.594 132.642  18.719  1.00  0.00    -0.396 N 
ATOM     31  H   UNL     1      41.849 132.216  18.122  1.00  0.00     0.156 HD
ATOM     32  H   UNL     1      42.485 133.650  18.957  1.00  0.00     0.156 HD
ENDBRANCH  26  30
ENDBRANCH   1  22
TORSDOF 6
ENDMDL
MODEL 9
REMARK VINA RESULT:      -0.5      3.352      7.122
REMARK SMILES C[C@H]1C[C@@H](c2cccc3ncoc23)[C@@H](Nc2cccc(N)c2O)[C@@H](O)[C@@H]1F
REMARK SMILES IDX 15 1 14 3 2 4 3 5 26 6 4 7 24 8 1 9 27 10 5 11 6 12 13 13
REMARK SMILES IDX 7 14 12 15 9 16 8 17 11 18 10 19 25 20 16 22 17 23 22 24
REMARK SMILES IDX 18 25 20 26 19 27 23 28 21 30
REMARK H PARENT 15 2 25 21 23 29 21 31 21 32
ROOT
ATOM      1  N   UNL     1      45.125 129.708  21.893  1.00  0.00    -0.376 N 
ATOM      2  H   UNL     1      46.145 129.866  22.043  1.00  0.00     0.161 HD
ENDROOT
BRANCH   1   3
ATOM      3  C   UNL     1      44.273 130.877  21.624  1.00  0.00     0.118 C 
ATOM      4  C   UNL     1      45.805 133.318  22.442  1.00  0.00     0.024 C 
ATOM      5  C   UNL     1      46.161 132.549  21.155  1.00  0.00     0.017 C 
ATOM      6  C   UNL     1      45.190 132.370  23.494  1.00  0.00     0.200 C 
ATOM      7  C   UNL     1      44.922 131.826  20.586  1.00  0.00     0.048 C 
ATOM      8  C   UNL     1      43.956 131.638  22.935  1.00  0.00     0.171 C 
ATOM      9  C   UNL     1      47.050 134.019  23.002  1.00  0.00     0.011 C 
ATOM     10  F   UNL     1      44.808 133.099  24.608  1.00  0.00    -0.244 F 
BRANCH   7  11
ATOM     11  C   UNL     1      45.210 131.112  19.277  1.00  0.00     0.002 A 
ATOM     12  C   UNL     1      46.209 130.112  19.150  1.00  0.00     0.008 A 
ATOM     13  C   UNL     1      44.426 131.357  18.142  1.00  0.00     0.158 A 
ATOM     14  C   UNL     1      46.400 129.432  17.926  1.00  0.00     0.003 A 
ATOM     15  O   UNL     1      43.431 132.191  17.995  1.00  0.00    -0.443 OA
ATOM     16  C   UNL     1      44.612 130.697  16.965  1.00  0.00     0.109 A 
ATOM     17  C   UNL     1      45.593 129.725  16.813  1.00  0.00     0.032 A 
ATOM     18  C   UNL     1      43.015 132.046  16.748  1.00  0.00     0.309 A 
ATOM     19  N   UNL     1      43.721 131.119  16.051  1.00  0.00    -0.217 NA
ENDBRANCH   7  11
BRANCH   8  20
ATOM     20  O   UNL     1      43.465 130.752  23.908  1.00  0.00    -0.388 OA
ATOM     21  H   UNL     1      42.637 130.348  23.536  1.00  0.00     0.211 HD
ENDBRANCH   8  20
ENDBRANCH   1   3
BRANCH   1  22
ATOM     22  C   UNL     1      44.584 128.462  22.364  1.00  0.00     0.079 A 
ATOM     23  C   UNL     1      43.456 128.487  23.194  1.00  0.00     0.030 A 
ATOM     24  C   UNL     1      45.198 127.230  22.052  1.00  0.00     0.161 A 
ATOM     25  C   UNL     1      42.909 127.300  23.677  1.00  0.00     0.005 A 
ATOM     26  C   UNL     1      44.621 126.024  22.518  1.00  0.00     0.076 A 
ATOM     27  C   UNL     1      43.482 126.076  23.336  1.00  0.00     0.029 A 
BRANCH  24  28
ATOM     28  O   UNL     1      46.390 127.242  21.322  1.00  0.00    -0.504 OA
ATOM     29  H   UNL     1      46.442 127.130  20.320  1.00  0.00     0.293 HD
ENDBRANCH  24  28
BRANCH  26  30
ATOM     30  N   UNL     1      45.158 124.740  22.171  1.00  0.00    -0.396 N 
ATOM     31  H   UNL     1      45.549 124.116  22.912  1.00  0.00     0.156 HD
ATOM     32  H   UNL     1      45.094 124.343  21.210  1.00  0.00     0.156 HD
ENDBRANCH  26  30
ENDBRANCH   1  22
TORSDOF 6
ENDMDL


