REMARK SMILES Cn1c[nH+]c2cc(-c3ccc(CC[NH3+])cc3)cnc21
REMARK SMILES IDX 12 1 11 2 8 3 9 4 16 5 10 6 15 7 7 8 2 9 3 10 19 11 4 12
REMARK SMILES IDX 18 13 5 14 17 15 6 16 1 17 13 19 14 20
REMARK H PARENT 4 18 14 21 14 22 14 23
ROOT
ATOM      1  C   UNL     1      -0.564  -1.773  -4.696  1.00  0.00     0.096 C 
ENDROOT
BRANCH   1   2
ATOM      2  C   UNL     1      -0.199  -1.266  -3.324  1.00  0.00    -0.042 A 
ATOM      3  C   UNL     1       0.450  -0.274  -0.764  1.00  0.00    -0.017 A 
ATOM      4  C   UNL     1       1.148   0.171  -1.901  1.00  0.00     0.009 A 
ATOM      5  C   UNL     1      -0.580  -1.218  -0.924  1.00  0.00     0.009 A 
ATOM      6  C   UNL     1       0.823  -0.319  -3.170  1.00  0.00     0.004 A 
ATOM      7  C   UNL     1      -0.902  -1.708  -2.193  1.00  0.00     0.004 A 
BRANCH   3   8
ATOM      8  C   UNL     1       0.793   0.248   0.583  1.00  0.00     0.005 A 
ATOM      9  N   UNL     1       1.884   1.683   4.243  1.00  0.00    -0.217 N 
ATOM     10  C   UNL     1       3.225   1.718   4.034  1.00  0.00     0.404 A 
ATOM     11  C   UNL     1       1.383   1.212   3.091  1.00  0.00     0.268 A 
ATOM     12  N   UNL     1       3.567   1.262   2.801  1.00  0.00    -0.242 N 
ATOM     13  N   UNL     1       0.080   1.024   2.772  1.00  0.00    -0.213 NA
ATOM     14  C   UNL     1       2.394   0.952   2.224  1.00  0.00     0.192 A 
ATOM     15  C   UNL     1      -0.230   0.542   1.531  1.00  0.00     0.124 A 
ATOM     16  C   UNL     1       2.144   0.466   0.947  1.00  0.00     0.068 A 
ATOM     17  C   UNL     1       1.154   2.183   5.402  1.00  0.00     0.298 C 
ATOM     18  H   UNL     1       4.524   1.192   2.389  1.00  0.00     0.312 HD
ENDBRANCH   3   8
ENDBRANCH   1   2
BRANCH   1  19
ATOM     19  C   UNL     1      -1.448  -0.774  -5.458  1.00  0.00     0.263 C 
BRANCH  19  20
ATOM     20  N   UNL     1      -2.765  -0.625  -4.835  1.00  0.00    -0.357 N 
ATOM     21  H   UNL     1      -2.673  -0.170  -3.898  1.00  0.00     0.344 HD
ATOM     22  H   UNL     1      -3.227  -1.557  -4.735  1.00  0.00     0.344 HD
ATOM     23  H   UNL     1      -3.361  -0.017  -5.442  1.00  0.00     0.344 HD
ENDBRANCH  19  20
ENDBRANCH   1  19
TORSDOF 4


