REMARK SMILES Cc1cc(N)c(Nc2cc(F)c(C)[nH+]c2F)cc1F
REMARK SMILES IDX 1 1 2 2 3 3 4 4 6 5 17 6 18 7 19 8 5 9 7 12 8 14 9 15 15 16
REMARK SMILES IDX 10 17 14 18 12 19 16 20 11 21 13 23
REMARK H PARENT 5 10 5 11 7 13 14 22
ROOT
ATOM      1  C   UNL     1       1.650  -1.297  -4.662  1.00  0.00     0.047 C 
ATOM      2  C   UNL     1       0.753  -1.086  -3.476  1.00  0.00    -0.013 A 
ATOM      3  C   UNL     1       1.186  -1.445  -2.190  1.00  0.00     0.034 A 
ATOM      4  C   UNL     1       0.344  -1.283  -1.079  1.00  0.00     0.056 A 
ATOM      5  C   UNL     1      -0.947  -0.735  -1.259  1.00  0.00     0.065 A 
ATOM      6  C   UNL     1      -1.389  -0.420  -2.550  1.00  0.00     0.067 A 
ATOM      7  C   UNL     1      -0.548  -0.592  -3.652  1.00  0.00     0.128 A 
ATOM      8  F   UNL     1      -1.003  -0.274  -4.891  1.00  0.00    -0.207 F 
ENDROOT
BRANCH   4   9
ATOM      9  N   UNL     1       0.796  -1.717   0.210  1.00  0.00    -0.397 N 
ATOM     10  H   UNL     1       1.770  -2.072   0.339  1.00  0.00     0.156 HD
ATOM     11  H   UNL     1       0.157  -1.753   1.034  1.00  0.00     0.156 HD
ENDBRANCH   4   9
BRANCH   5  12
ATOM     12  N   UNL     1      -1.833  -0.516  -0.151  1.00  0.00    -0.346 N 
ATOM     13  H   UNL     1      -2.804  -0.894  -0.234  1.00  0.00     0.167 HD
BRANCH  12  14
ATOM     14  C   UNL     1      -1.526   0.348   0.960  1.00  0.00     0.147 A 
ATOM     15  C   UNL     1      -0.454   1.254   0.913  1.00  0.00     0.082 A 
ATOM     16  C   UNL     1      -2.324   0.317   2.114  1.00  0.00     0.382 A 
ATOM     17  C   UNL     1      -0.187   2.083   2.002  1.00  0.00     0.191 A 
ATOM     18  N   UNL     1      -2.047   1.135   3.167  1.00  0.00    -0.179 N 
ATOM     19  C   UNL     1      -0.995   2.003   3.145  1.00  0.00     0.215 A 
ATOM     20  F   UNL     1      -3.376  -0.538   2.193  1.00  0.00    -0.134 F 
ATOM     21  F   UNL     1       0.848   2.960   1.942  1.00  0.00    -0.200 F 
ATOM     22  H   UNL     1      -2.664   1.085   4.009  1.00  0.00     0.456 HD
ATOM     23  C   UNL     1      -0.735   2.906   4.315  1.00  0.00     0.127 C 
ENDBRANCH  12  14
ENDBRANCH   5  12
TORSDOF 3


