MODEL 1
REMARK VINA RESULT:      -8.6      0.000      0.000
REMARK SMILES Cc1cc(N=C=O)c(N)c(-n2[nH+]c3ccccc3[nH+]2)c1
REMARK SMILES IDX 3 1 4 2 8 3 10 4 20 5 2 6 1 7 5 8 6 9 7 10 9 11 11 14 12 15
REMARK SMILES IDX 19 16 13 17 18 18 14 19 17 20 15 21 16 22
REMARK H PARENT 9 12 9 13 12 23 19 24
ROOT
ATOM      1  C   UNL     1      43.080 131.896  20.655  1.00  0.00     0.035 A 
ATOM      2  C   UNL     1      44.353 131.315  20.825  1.00  0.00     0.102 A 
ATOM      3  C   UNL     1      45.131 131.001  19.688  1.00  0.00     0.095 A 
ATOM      4  C   UNL     1      44.637 131.303  18.398  1.00  0.00     0.193 A 
ATOM      5  C   UNL     1      43.360 131.862  18.254  1.00  0.00     0.044 A 
ATOM      6  C   UNL     1      42.573 132.145  19.375  1.00  0.00    -0.046 A 
ATOM      7  C   UNL     1      41.229 132.792  19.209  1.00  0.00     0.044 C 
ENDROOT
BRANCH   2   8
ATOM      8  N   UNL     1      44.872 131.022  22.135  1.00  0.00    -0.166 NA
BRANCH   8   9
ATOM      9  C   UNL     1      44.154 130.899  23.179  1.00  0.00     0.240 C 
ATOM     10  O   UNL     1      43.457 130.780  24.195  1.00  0.00    -0.211 OA
ENDBRANCH   8   9
ENDBRANCH   2   8
BRANCH   3  11
ATOM     11  N   UNL     1      46.392 130.332  19.848  1.00  0.00    -0.395 N 
ATOM     12  H   UNL     1      47.246 130.649  19.341  1.00  0.00     0.156 HD
ATOM     13  H   UNL     1      46.515 129.559  20.537  1.00  0.00     0.156 HD
ENDBRANCH   3  11
BRANCH   4  14
ATOM     14  N   UNL     1      45.431 131.080  17.222  1.00  0.00     0.082 N 
ATOM     15  N   UNL     1      46.012 129.919  16.925  1.00  0.00    -0.062 N 
ATOM     16  N   UNL     1      45.604 131.975  16.250  1.00  0.00    -0.062 N 
ATOM     17  C   UNL     1      46.593 130.089  15.726  1.00  0.00     0.306 A 
ATOM     18  C   UNL     1      46.338 131.363  15.307  1.00  0.00     0.306 A 
ATOM     19  C   UNL     1      47.322 129.187  14.959  1.00  0.00     0.089 A 
ATOM     20  C   UNL     1      46.789 131.846  14.084  1.00  0.00     0.089 A 
ATOM     21  C   UNL     1      47.802 129.641  13.713  1.00  0.00     0.007 A 
ATOM     22  C   UNL     1      47.536 130.962  13.278  1.00  0.00     0.007 A 
ATOM     23  H   UNL     1      46.006 129.058  17.517  1.00  0.00     0.495 HD
ATOM     24  H   UNL     1      45.210 132.942  16.227  1.00  0.00     0.495 HD
ENDBRANCH   4  14
TORSDOF 4
ENDMDL
MODEL 2
REMARK VINA RESULT:      -8.3      0.489      1.381
REMARK SMILES Cc1cc(N=C=O)c(N)c(-n2[nH+]c3ccccc3[nH+]2)c1
REMARK SMILES IDX 3 1 4 2 8 3 10 4 20 5 2 6 1 7 5 8 6 9 7 10 9 11 11 14 12 15
REMARK SMILES IDX 19 16 13 17 18 18 14 19 17 20 15 21 16 22
REMARK H PARENT 9 12 9 13 12 23 19 24
ROOT
ATOM      1  C   UNL     1      43.168 131.906  21.086  1.00  0.00     0.035 A 
ATOM      2  C   UNL     1      44.377 131.182  21.112  1.00  0.00     0.102 A 
ATOM      3  C   UNL     1      45.030 130.875  19.898  1.00  0.00     0.095 A 
ATOM      4  C   UNL     1      44.480 131.325  18.675  1.00  0.00     0.193 A 
ATOM      5  C   UNL     1      43.266 132.026  18.673  1.00  0.00     0.044 A 
ATOM      6  C   UNL     1      42.600 132.305  19.871  1.00  0.00    -0.046 A 
ATOM      7  C   UNL     1      41.328 133.102  19.858  1.00  0.00     0.044 C 
ENDROOT
BRANCH   2   8
ATOM      8  N   UNL     1      44.953 130.736  22.353  1.00  0.00    -0.166 NA
BRANCH   8   9
ATOM      9  C   UNL     1      44.293 130.191  23.296  1.00  0.00     0.240 C 
ATOM     10  O   UNL     1      43.652 129.662  24.212  1.00  0.00    -0.211 OA
ENDBRANCH   8   9
ENDBRANCH   2   8
BRANCH   3  11
ATOM     11  N   UNL     1      46.216 130.065  19.910  1.00  0.00    -0.395 N 
ATOM     12  H   UNL     1      46.473 129.485  20.738  1.00  0.00     0.156 HD
ATOM     13  H   UNL     1      46.815 129.963  19.062  1.00  0.00     0.156 HD
ENDBRANCH   3  11
BRANCH   4  14
ATOM     14  N   UNL     1      45.156 131.108  17.426  1.00  0.00     0.082 N 
ATOM     15  N   UNL     1      45.447 132.077  16.560  1.00  0.00    -0.062 N 
ATOM     16  N   UNL     1      45.650 129.936  17.033  1.00  0.00    -0.062 N 
ATOM     17  C   UNL     1      46.137 131.492  15.567  1.00  0.00     0.306 A 
ATOM     18  C   UNL     1      46.264 130.165  15.861  1.00  0.00     0.306 A 
ATOM     19  C   UNL     1      46.684 132.054  14.418  1.00  0.00     0.089 A 
ATOM     20  C   UNL     1      46.951 129.284  15.033  1.00  0.00     0.089 A 
ATOM     21  C   UNL     1      47.384 131.191  13.549  1.00  0.00     0.007 A 
ATOM     22  C   UNL     1      47.518 129.814  13.855  1.00  0.00     0.007 A 
ATOM     23  H   UNL     1      45.186 133.084  16.651  1.00  0.00     0.495 HD
ATOM     24  H   UNL     1      45.593 129.035  17.559  1.00  0.00     0.495 HD
ENDBRANCH   4  14
TORSDOF 4
ENDMDL
MODEL 3
REMARK VINA RESULT:      -8.0      1.832      3.039
REMARK SMILES Cc1cc(N=C=O)c(N)c(-n2[nH+]c3ccccc3[nH+]2)c1
REMARK SMILES IDX 3 1 4 2 8 3 10 4 20 5 2 6 1 7 5 8 6 9 7 10 9 11 11 14 12 15
REMARK SMILES IDX 19 16 13 17 18 18 14 19 17 20 15 21 16 22
REMARK H PARENT 9 12 9 13 12 23 19 24
ROOT
ATOM      1  C   UNL     1      43.674 131.408  20.409  1.00  0.00     0.035 A 
ATOM      2  C   UNL     1      43.070 131.841  19.212  1.00  0.00     0.102 A 
ATOM      3  C   UNL     1      43.762 131.691  17.990  1.00  0.00     0.095 A 
ATOM      4  C   UNL     1      45.037 131.079  17.979  1.00  0.00     0.193 A 
ATOM      5  C   UNL     1      45.625 130.674  19.185  1.00  0.00     0.044 A 
ATOM      6  C   UNL     1      44.957 130.850  20.401  1.00  0.00    -0.046 A 
ATOM      7  C   UNL     1      45.577 130.365  21.679  1.00  0.00     0.044 C 
ENDROOT
BRANCH   2   8
ATOM      8  N   UNL     1      41.765 132.448  19.210  1.00  0.00    -0.166 NA
BRANCH   8   9
ATOM      9  C   UNL     1      41.262 133.068  20.202  1.00  0.00     0.240 C 
ATOM     10  O   UNL     1      40.773 133.671  21.166  1.00  0.00    -0.211 OA
ENDBRANCH   8   9
ENDBRANCH   2   8
BRANCH   3  11
ATOM     11  N   UNL     1      43.191 132.206  16.777  1.00  0.00    -0.395 N 
ATOM     12  H   UNL     1      42.169 132.132  16.580  1.00  0.00     0.156 HD
ATOM     13  H   UNL     1      43.763 132.744  16.091  1.00  0.00     0.156 HD
ENDBRANCH   3  11
BRANCH   4  14
ATOM     14  N   UNL     1      45.737 130.829  16.750  1.00  0.00     0.082 N 
ATOM     15  N   UNL     1      45.908 131.738  15.792  1.00  0.00    -0.062 N 
ATOM     16  N   UNL     1      46.371 129.693  16.463  1.00  0.00    -0.062 N 
ATOM     17  C   UNL     1      46.665 131.150  14.852  1.00  0.00     0.306 A 
ATOM     18  C   UNL     1      46.953 129.883  15.269  1.00  0.00     0.306 A 
ATOM     19  C   UNL     1      47.140 131.663  13.649  1.00  0.00     0.089 A 
ATOM     20  C   UNL     1      47.743 129.017  14.520  1.00  0.00     0.089 A 
ATOM     21  C   UNL     1      47.941 130.813  12.859  1.00  0.00     0.007 A 
ATOM     22  C   UNL     1      48.242 129.498  13.292  1.00  0.00     0.007 A 
ATOM     23  H   UNL     1      45.525 132.710  15.791  1.00  0.00     0.495 HD
ATOM     24  H   UNL     1      46.424 128.846  17.073  1.00  0.00     0.495 HD
ENDBRANCH   4  14
TORSDOF 4
ENDMDL
MODEL 4
REMARK VINA RESULT:      -7.9      1.862      2.772
REMARK SMILES Cc1cc(N=C=O)c(N)c(-n2[nH+]c3ccccc3[nH+]2)c1
REMARK SMILES IDX 3 1 4 2 8 3 10 4 20 5 2 6 1 7 5 8 6 9 7 10 9 11 11 14 12 15
REMARK SMILES IDX 19 16 13 17 18 18 14 19 17 20 15 21 16 22
REMARK H PARENT 9 12 9 13 12 23 19 24
ROOT
ATOM      1  C   UNL     1      43.700 131.253  20.323  1.00  0.00     0.035 A 
ATOM      2  C   UNL     1      43.159 131.747  19.120  1.00  0.00     0.102 A 
ATOM      3  C   UNL     1      43.913 131.655  17.929  1.00  0.00     0.095 A 
ATOM      4  C   UNL     1      45.186 131.038  17.953  1.00  0.00     0.193 A 
ATOM      5  C   UNL     1      45.711 130.572  19.166  1.00  0.00     0.044 A 
ATOM      6  C   UNL     1      44.982 130.691  20.353  1.00  0.00    -0.046 A 
ATOM      7  C   UNL     1      45.534 130.140  21.636  1.00  0.00     0.044 C 
ENDROOT
BRANCH   2   8
ATOM      8  N   UNL     1      41.857 132.359  19.082  1.00  0.00    -0.166 NA
BRANCH   8   9
ATOM      9  C   UNL     1      41.331 132.986  20.058  1.00  0.00     0.240 C 
ATOM     10  O   UNL     1      40.820 133.595  21.006  1.00  0.00    -0.211 OA
ENDBRANCH   8   9
ENDBRANCH   2   8
BRANCH   3  11
ATOM     11  N   UNL     1      43.406 132.233  16.715  1.00  0.00    -0.395 N 
ATOM     12  H   UNL     1      43.414 133.263  16.557  1.00  0.00     0.156 HD
ATOM     13  H   UNL     1      43.089 131.638  15.919  1.00  0.00     0.156 HD
ENDBRANCH   3  11
BRANCH   4  14
ATOM     14  N   UNL     1      45.947 130.847  16.750  1.00  0.00     0.082 N 
ATOM     15  N   UNL     1      46.585 129.719  16.444  1.00  0.00    -0.062 N 
ATOM     16  N   UNL     1      46.028 131.737  15.762  1.00  0.00    -0.062 N 
ATOM     17  C   UNL     1      47.108 129.907  15.222  1.00  0.00     0.306 A 
ATOM     18  C   UNL     1      46.761 131.157  14.799  1.00  0.00     0.306 A 
ATOM     19  C   UNL     1      47.861 129.039  14.437  1.00  0.00     0.089 A 
ATOM     20  C   UNL     1      47.136 131.649  13.553  1.00  0.00     0.089 A 
ATOM     21  C   UNL     1      48.264 129.504  13.169  1.00  0.00     0.007 A 
ATOM     22  C   UNL     1      47.903 130.801  12.728  1.00  0.00     0.007 A 
ATOM     23  H   UNL     1      46.653 128.867  17.046  1.00  0.00     0.495 HD
ATOM     24  H   UNL     1      45.576 132.679  15.743  1.00  0.00     0.495 HD
ENDBRANCH   4  14
TORSDOF 4
ENDMDL
MODEL 5
REMARK VINA RESULT:      -7.6      1.289      1.432
REMARK SMILES Cc1cc(N=C=O)c(N)c(-n2[nH+]c3ccccc3[nH+]2)c1
REMARK SMILES IDX 3 1 4 2 8 3 10 4 20 5 2 6 1 7 5 8 6 9 7 10 9 11 11 14 12 15
REMARK SMILES IDX 19 16 13 17 18 18 14 19 17 20 15 21 16 22
REMARK H PARENT 9 12 9 13 12 23 19 24
ROOT
ATOM      1  C   UNL     1      42.945 131.970  21.930  1.00  0.00     0.035 A 
ATOM      2  C   UNL     1      44.098 131.162  21.866  1.00  0.00     0.102 A 
ATOM      3  C   UNL     1      44.687 130.888  20.611  1.00  0.00     0.095 A 
ATOM      4  C   UNL     1      44.131 131.455  19.440  1.00  0.00     0.193 A 
ATOM      5  C   UNL     1      42.973 132.239  19.528  1.00  0.00     0.044 A 
ATOM      6  C   UNL     1      42.368 132.486  20.764  1.00  0.00    -0.046 A 
ATOM      7  C   UNL     1      41.158 133.370  20.848  1.00  0.00     0.044 C 
ENDROOT
BRANCH   2   8
ATOM      8  N   UNL     1      44.681 130.597  23.054  1.00  0.00    -0.166 NA
BRANCH   8   9
ATOM      9  C   UNL     1      44.488 129.401  23.448  1.00  0.00     0.240 C 
ATOM     10  O   UNL     1      44.300 128.240  23.831  1.00  0.00    -0.211 OA
ENDBRANCH   8   9
ENDBRANCH   2   8
BRANCH   3  11
ATOM     11  N   UNL     1      45.810 129.997  20.528  1.00  0.00    -0.395 N 
ATOM     12  H   UNL     1      45.763 129.024  20.901  1.00  0.00     0.156 HD
ATOM     13  H   UNL     1      46.680 130.264  20.019  1.00  0.00     0.156 HD
ENDBRANCH   3  11
BRANCH   4  14
ATOM     14  N   UNL     1      44.749 131.273  18.156  1.00  0.00     0.082 N 
ATOM     15  N   UNL     1      45.762 130.439  17.929  1.00  0.00    -0.062 N 
ATOM     16  N   UNL     1      44.324 131.844  17.030  1.00  0.00    -0.062 N 
ATOM     17  C   UNL     1      46.003 130.498  16.609  1.00  0.00     0.306 A 
ATOM     18  C   UNL     1      45.111 131.367  16.052  1.00  0.00     0.306 A 
ATOM     19  C   UNL     1      46.950 129.818  15.850  1.00  0.00     0.089 A 
ATOM     20  C   UNL     1      45.087 131.633  14.687  1.00  0.00     0.089 A 
ATOM     21  C   UNL     1      46.961 130.065  14.462  1.00  0.00     0.007 A 
ATOM     22  C   UNL     1      46.034 130.967  13.883  1.00  0.00     0.007 A 
ATOM     23  H   UNL     1      46.257 129.861  18.645  1.00  0.00     0.495 HD
ATOM     24  H   UNL     1      43.518 132.502  16.939  1.00  0.00     0.495 HD
ENDBRANCH   4  14
TORSDOF 4
ENDMDL
MODEL 6
REMARK VINA RESULT:      -7.3      3.270      6.788
REMARK SMILES Cc1cc(N=C=O)c(N)c(-n2[nH+]c3ccccc3[nH+]2)c1
REMARK SMILES IDX 3 1 4 2 8 3 10 4 20 5 2 6 1 7 5 8 6 9 7 10 9 11 11 14 12 15
REMARK SMILES IDX 19 16 13 17 18 18 14 19 17 20 15 21 16 22
REMARK H PARENT 9 12 9 13 12 23 19 24
ROOT
ATOM      1  C   UNL     1      44.988 130.651  14.258  1.00  0.00     0.035 A 
ATOM      2  C   UNL     1      45.893 130.108  15.193  1.00  0.00     0.102 A 
ATOM      3  C   UNL     1      45.712 130.371  16.569  1.00  0.00     0.095 A 
ATOM      4  C   UNL     1      44.608 131.147  16.994  1.00  0.00     0.193 A 
ATOM      5  C   UNL     1      43.734 131.692  16.044  1.00  0.00     0.044 A 
ATOM      6  C   UNL     1      43.928 131.462  14.678  1.00  0.00    -0.046 A 
ATOM      7  C   UNL     1      42.954 132.009  13.676  1.00  0.00     0.044 C 
ENDROOT
BRANCH   2   8
ATOM      8  N   UNL     1      47.008 129.302  14.772  1.00  0.00    -0.166 NA
BRANCH   8   9
ATOM      9  C   UNL     1      47.827 129.633  13.856  1.00  0.00     0.240 C 
ATOM     10  O   UNL     1      48.624 129.955  12.965  1.00  0.00    -0.211 OA
ENDBRANCH   8   9
ENDBRANCH   2   8
BRANCH   3  11
ATOM     11  N   UNL     1      46.676 129.893  17.521  1.00  0.00    -0.395 N 
ATOM     12  H   UNL     1      47.635 130.299  17.576  1.00  0.00     0.156 HD
ATOM     13  H   UNL     1      46.424 129.184  18.243  1.00  0.00     0.156 HD
ENDBRANCH   3  11
BRANCH   4  14
ATOM     14  N   UNL     1      44.339 131.365  18.388  1.00  0.00     0.082 N 
ATOM     15  N   UNL     1      43.166 131.777  18.864  1.00  0.00    -0.062 N 
ATOM     16  N   UNL     1      45.198 131.095  19.370  1.00  0.00    -0.062 N 
ATOM     17  C   UNL     1      43.291 131.787  20.202  1.00  0.00     0.306 A 
ATOM     18  C   UNL     1      44.550 131.363  20.515  1.00  0.00     0.306 A 
ATOM     19  C   UNL     1      42.359 132.129  21.175  1.00  0.00     0.089 A 
ATOM     20  C   UNL     1      44.987 131.242  21.830  1.00  0.00     0.089 A 
ATOM     21  C   UNL     1      42.766 132.024  22.522  1.00  0.00     0.007 A 
ATOM     22  C   UNL     1      44.072 131.583  22.847  1.00  0.00     0.007 A 
ATOM     23  H   UNL     1      42.327 132.034  18.298  1.00  0.00     0.495 HD
ATOM     24  H   UNL     1      46.166 130.718  19.256  1.00  0.00     0.495 HD
ENDBRANCH   4  14
TORSDOF 4
ENDMDL
MODEL 7
REMARK VINA RESULT:      -7.0      3.288      6.752
REMARK SMILES Cc1cc(N=C=O)c(N)c(-n2[nH+]c3ccccc3[nH+]2)c1
REMARK SMILES IDX 3 1 4 2 8 3 10 4 20 5 2 6 1 7 5 8 6 9 7 10 9 11 11 14 12 15
REMARK SMILES IDX 19 16 13 17 18 18 14 19 17 20 15 21 16 22
REMARK H PARENT 9 12 9 13 12 23 19 24
ROOT
ATOM      1  C   UNL     1      45.120 130.759  14.326  1.00  0.00     0.035 A 
ATOM      2  C   UNL     1      46.023 130.234  15.272  1.00  0.00     0.102 A 
ATOM      3  C   UNL     1      45.775 130.423  16.649  1.00  0.00     0.095 A 
ATOM      4  C   UNL     1      44.608 131.108  17.062  1.00  0.00     0.193 A 
ATOM      5  C   UNL     1      43.736 131.637  16.102  1.00  0.00     0.044 A 
ATOM      6  C   UNL     1      43.994 131.481  14.737  1.00  0.00    -0.046 A 
ATOM      7  C   UNL     1      43.024 132.008  13.720  1.00  0.00     0.044 C 
ENDROOT
BRANCH   2   8
ATOM      8  N   UNL     1      47.204 129.520  14.861  1.00  0.00    -0.166 NA
BRANCH   8   9
ATOM      9  C   UNL     1      47.833 129.738  13.777  1.00  0.00     0.240 C 
ATOM     10  O   UNL     1      48.446 129.952  12.722  1.00  0.00    -0.211 OA
ENDBRANCH   8   9
ENDBRANCH   2   8
BRANCH   3  11
ATOM     11  N   UNL     1      46.733 129.966  17.617  1.00  0.00    -0.395 N 
ATOM     12  H   UNL     1      46.435 129.508  18.506  1.00  0.00     0.156 HD
ATOM     13  H   UNL     1      47.758 130.001  17.428  1.00  0.00     0.156 HD
ENDBRANCH   3  11
BRANCH   4  14
ATOM     14  N   UNL     1      44.275 131.246  18.452  1.00  0.00     0.082 N 
ATOM     15  N   UNL     1      45.115 130.978  19.450  1.00  0.00    -0.062 N 
ATOM     16  N   UNL     1      43.124 131.742  18.903  1.00  0.00    -0.062 N 
ATOM     17  C   UNL     1      44.465 131.299  20.580  1.00  0.00     0.306 A 
ATOM     18  C   UNL     1      43.232 131.774  20.241  1.00  0.00     0.306 A 
ATOM     19  C   UNL     1      44.894 131.219  21.901  1.00  0.00     0.089 A 
ATOM     20  C   UNL     1      42.318 132.214  21.194  1.00  0.00     0.089 A 
ATOM     21  C   UNL     1      43.993 131.651  22.897  1.00  0.00     0.007 A 
ATOM     22  C   UNL     1      42.713 132.146  22.545  1.00  0.00     0.007 A 
ATOM     23  H   UNL     1      46.083 130.597  19.354  1.00  0.00     0.495 HD
ATOM     24  H   UNL     1      42.322 132.069  18.318  1.00  0.00     0.495 HD
ENDBRANCH   4  14
TORSDOF 4
ENDMDL
MODEL 8
REMARK VINA RESULT:      -6.1      1.179      1.768
REMARK SMILES Cc1cc(N=C=O)c(N)c(-n2[nH+]c3ccccc3[nH+]2)c1
REMARK SMILES IDX 3 1 4 2 8 3 10 4 20 5 2 6 1 7 5 8 6 9 7 10 9 11 11 14 12 15
REMARK SMILES IDX 19 16 13 17 18 18 14 19 17 20 15 21 16 22
REMARK H PARENT 9 12 9 13 12 23 19 24
ROOT
ATOM      1  C   UNL     1      42.939 132.160  21.645  1.00  0.00     0.035 A 
ATOM      2  C   UNL     1      44.196 131.523  21.647  1.00  0.00     0.102 A 
ATOM      3  C   UNL     1      44.794 131.161  20.419  1.00  0.00     0.095 A 
ATOM      4  C   UNL     1      44.139 131.471  19.204  1.00  0.00     0.193 A 
ATOM      5  C   UNL     1      42.881 132.087  19.229  1.00  0.00     0.044 A 
ATOM      6  C   UNL     1      42.270 132.418  20.443  1.00  0.00    -0.046 A 
ATOM      7  C   UNL     1      40.946 133.125  20.453  1.00  0.00     0.044 C 
ENDROOT
BRANCH   2   8
ATOM      8  N   UNL     1      44.878 131.220  22.877  1.00  0.00    -0.166 NA
BRANCH   8   9
ATOM      9  C   UNL     1      45.185 132.086  23.759  1.00  0.00     0.240 C 
ATOM     10  O   UNL     1      45.483 132.927  24.617  1.00  0.00    -0.211 OA
ENDBRANCH   8   9
ENDBRANCH   2   8
BRANCH   3  11
ATOM     11  N   UNL     1      46.034 130.435  20.415  1.00  0.00    -0.395 N 
ATOM     12  H   UNL     1      46.645 130.405  19.570  1.00  0.00     0.156 HD
ATOM     13  H   UNL     1      46.405 129.985  21.279  1.00  0.00     0.156 HD
ENDBRANCH   3  11
BRANCH   4  14
ATOM     14  N   UNL     1      44.752 131.198  17.934  1.00  0.00     0.082 N 
ATOM     15  N   UNL     1      44.557 131.933  16.841  1.00  0.00    -0.062 N 
ATOM     16  N   UNL     1      45.652 130.239  17.724  1.00  0.00    -0.062 N 
ATOM     17  C   UNL     1      45.352 131.407  15.894  1.00  0.00     0.306 A 
ATOM     18  C   UNL     1      46.031 130.358  16.442  1.00  0.00     0.306 A 
ATOM     19  C   UNL     1      45.535 131.802  14.573  1.00  0.00     0.089 A 
ATOM     20  C   UNL     1      46.955 129.613  15.718  1.00  0.00     0.089 A 
ATOM     21  C   UNL     1      46.461 131.067  13.804  1.00  0.00     0.007 A 
ATOM     22  C   UNL     1      47.168 129.980  14.373  1.00  0.00     0.007 A 
ATOM     23  H   UNL     1      43.914 132.752  16.755  1.00  0.00     0.495 HD
ATOM     24  H   UNL     1      46.006 129.560  18.435  1.00  0.00     0.495 HD
ENDBRANCH   4  14
TORSDOF 4
ENDMDL
MODEL 9
REMARK VINA RESULT:      -5.9      1.395      1.904
REMARK SMILES Cc1cc(N=C=O)c(N)c(-n2[nH+]c3ccccc3[nH+]2)c1
REMARK SMILES IDX 3 1 4 2 8 3 10 4 20 5 2 6 1 7 5 8 6 9 7 10 9 11 11 14 12 15
REMARK SMILES IDX 19 16 13 17 18 18 14 19 17 20 15 21 16 22
REMARK H PARENT 9 12 9 13 12 23 19 24
ROOT
ATOM      1  C   UNL     1      43.256 132.079  20.215  1.00  0.00     0.035 A 
ATOM      2  C   UNL     1      44.622 131.762  20.355  1.00  0.00     0.102 A 
ATOM      3  C   UNL     1      45.365 131.370  19.220  1.00  0.00     0.095 A 
ATOM      4  C   UNL     1      44.737 131.332  17.952  1.00  0.00     0.193 A 
ATOM      5  C   UNL     1      43.373 131.633  17.842  1.00  0.00     0.044 A 
ATOM      6  C   UNL     1      42.626 131.990  18.968  1.00  0.00    -0.046 A 
ATOM      7  C   UNL     1      41.178 132.359  18.827  1.00  0.00     0.044 C 
ENDROOT
BRANCH   2   8
ATOM      8  N   UNL     1      45.273 131.816  21.637  1.00  0.00    -0.166 NA
BRANCH   8   9
ATOM      9  C   UNL     1      46.237 132.599  21.920  1.00  0.00     0.240 C 
ATOM     10  O   UNL     1      47.174 133.359  22.194  1.00  0.00    -0.211 OA
ENDBRANCH   8   9
ENDBRANCH   2   8
BRANCH   3  11
ATOM     11  N   UNL     1      46.735 130.964  19.367  1.00  0.00    -0.395 N 
ATOM     12  H   UNL     1      47.062 130.025  19.052  1.00  0.00     0.156 HD
ATOM     13  H   UNL     1      47.464 131.622  19.717  1.00  0.00     0.156 HD
ENDBRANCH   3  11
BRANCH   4  14
ATOM     14  N   UNL     1      45.477 131.023  16.761  1.00  0.00     0.082 N 
ATOM     15  N   UNL     1      45.764 131.911  15.811  1.00  0.00    -0.062 N 
ATOM     16  N   UNL     1      46.039 129.841  16.510  1.00  0.00    -0.062 N 
ATOM     17  C   UNL     1      46.522 131.263  14.912  1.00  0.00     0.306 A 
ATOM     18  C   UNL     1      46.694 129.980  15.346  1.00  0.00     0.306 A 
ATOM     19  C   UNL     1      47.094 131.731  13.734  1.00  0.00     0.089 A 
ATOM     20  C   UNL     1      47.454 129.053  14.641  1.00  0.00     0.089 A 
ATOM     21  C   UNL     1      47.869 130.819  12.987  1.00  0.00     0.007 A 
ATOM     22  C   UNL     1      48.049 129.488  13.439  1.00  0.00     0.007 A 
ATOM     23  H   UNL     1      45.455 132.909  15.787  1.00  0.00     0.495 HD
ATOM     24  H   UNL     1      45.998 128.997  17.124  1.00  0.00     0.495 HD
ENDBRANCH   4  14
TORSDOF 4
ENDMDL


