REMARK SMILES CC/C(O)=N/c1cc(F)c[n-]/c1=N\c1cnc2[nH]ccc2c1
REMARK SMILES IDX 6 1 7 2 8 3 9 4 10 5 11 6 12 7 5 8 3 9 4 10 2 12 1 13 13 14
REMARK SMILES IDX 14 15 15 16 22 17 16 18 21 19 17 20 20 21 18 22 19 23
REMARK H PARENT 4 11 18 24
ROOT
ATOM      1  C   UNL     1       0.355  -2.586  -0.212  1.00  0.00     0.069 A 
ATOM      2  C   UNL     1       0.988  -3.823   0.006  1.00  0.00     0.067 A 
ATOM      3  C   UNL     1       2.083  -3.906   0.865  1.00  0.00     0.121 A 
ATOM      4  F   UNL     1       2.700  -5.096   1.075  1.00  0.00    -0.207 F 
ATOM      5  C   UNL     1       2.531  -2.758   1.516  1.00  0.00     0.018 A 
ATOM      6  N   UNL     1       1.891  -1.575   1.321  1.00  0.00    -0.438 NA
ATOM      7  C   UNL     1       0.812  -1.459   0.496  1.00  0.00    -0.032 A 
ENDROOT
BRANCH   1   8
ATOM      8  N   UNL     1      -0.796  -2.466  -1.067  1.00  0.00    -0.218 NA
BRANCH   8   9
ATOM      9  C   UNL     1      -0.994  -3.098  -2.187  1.00  0.00     0.185 C 
BRANCH   9  10
ATOM     10  O   UNL     1      -0.018  -3.941  -2.719  1.00  0.00    -0.496 OA
ATOM     11  H   UNL     1      -0.171  -4.438  -3.588  1.00  0.00     0.294 HD
ENDBRANCH   9  10
BRANCH   9  12
ATOM     12  C   UNL     1      -2.289  -2.907  -2.918  1.00  0.00     0.093 C 
ATOM     13  C   UNL     1      -3.271  -4.017  -2.564  1.00  0.00     0.014 C 
ENDBRANCH   9  12
ENDBRANCH   8   9
ENDBRANCH   1   8
BRANCH   7  14
ATOM     14  N   UNL     1       0.228  -0.308   0.316  1.00  0.00    -0.433 NA
BRANCH  14  15
ATOM     15  C   UNL     1       0.529   0.929   0.983  1.00  0.00    -0.022 A 
ATOM     16  C   UNL     1       0.860   0.981   2.367  1.00  0.00     0.117 A 
ATOM     17  C   UNL     1       0.409   2.133   0.262  1.00  0.00     0.017 A 
ATOM     18  N   UNL     1       1.101   2.179   2.980  1.00  0.00    -0.238 NA
ATOM     19  C   UNL     1       0.671   3.319   0.936  1.00  0.00     0.019 A 
ATOM     20  C   UNL     1       1.011   3.321   2.256  1.00  0.00     0.137 A 
ATOM     21  C   UNL     1       0.652   4.632   0.518  1.00  0.00     0.029 A 
ATOM     22  N   UNL     1       1.212   4.566   2.710  1.00  0.00    -0.346 N 
ATOM     23  C   UNL     1       0.994   5.375   1.647  1.00  0.00     0.085 A 
ATOM     24  H   UNL     1       1.475   4.853   3.679  1.00  0.00     0.167 HD
ENDBRANCH  14  15
ENDBRANCH   7  14
TORSDOF 6


