REMARK SMILES C=Cc1ccc(-c2cnc3ocnc3c2)c(N=[N+]=[N-])c1F
REMARK SMILES IDX 3 1 4 2 5 3 6 4 16 5 20 6 21 7 2 8 1 9 17 10 18 11 19 12
REMARK SMILES IDX 7 13 8 14 15 15 9 16 14 17 10 18 13 19 11 20 12 21
REMARK H PARENT
ROOT
ATOM      1  C   UNL     1      -2.504   1.771   0.110  1.00  0.00     0.010 A 
ATOM      2  C   UNL     1      -1.140   1.922  -0.168  1.00  0.00     0.012 A 
ATOM      3  C   UNL     1      -0.221   0.960   0.243  1.00  0.00     0.010 A 
ATOM      4  C   UNL     1      -0.641  -0.176   0.950  1.00  0.00    -0.004 A 
ATOM      5  C   UNL     1      -2.008  -0.329   1.276  1.00  0.00     0.082 A 
ATOM      6  C   UNL     1      -2.936   0.655   0.857  1.00  0.00     0.140 A 
ATOM      7  F   UNL     1      -4.238   0.564   1.230  1.00  0.00    -0.206 F 
ENDROOT
BRANCH   1   8
ATOM      8  C   UNL     1      -3.433   2.827  -0.353  1.00  0.00     0.003 C 
ATOM      9  C   UNL     1      -4.674   2.580  -0.773  1.00  0.00     0.009 C 
ENDBRANCH   1   8
BRANCH   5  10
ATOM     10  N   UNL     1      -2.409  -1.461   2.070  1.00  0.00    -0.057 NA
BRANCH  10  11
ATOM     11  N   UNL     1      -3.580  -1.699   2.370  1.00  0.00     0.005 N 
ATOM     12  N   UNL     1      -4.748  -1.942   2.672  1.00  0.00    -0.003 NA
ENDBRANCH  10  11
ENDBRANCH   5  10
BRANCH   4  13
ATOM     13  C   UNL     1       0.367  -1.187   1.350  1.00  0.00     0.003 A 
ATOM     14  C   UNL     1       0.187  -2.561   1.026  1.00  0.00     0.124 A 
ATOM     15  C   UNL     1       1.539  -0.791   2.037  1.00  0.00     0.044 A 
ATOM     16  N   UNL     1       1.123  -3.492   1.383  1.00  0.00    -0.219 NA
ATOM     17  C   UNL     1       2.449  -1.784   2.372  1.00  0.00     0.130 A 
ATOM     18  C   UNL     1       2.228  -3.079   2.048  1.00  0.00     0.246 A 
ATOM     19  N   UNL     1       3.619  -1.669   3.022  1.00  0.00    -0.215 NA
ATOM     20  O   UNL     1       3.222  -3.809   2.470  1.00  0.00    -0.425 OA
ATOM     21  C   UNL     1       4.054  -2.959   3.054  1.00  0.00     0.311 A 
ENDBRANCH   4  13
TORSDOF 4


