MODEL 1
REMARK VINA RESULT:      -8.5      0.000      0.000
REMARK SMILES Cc1cc(-c2c[nH+]c3c(c2)C(=O)[N-]C3)c(N)c2cc[nH]c12
REMARK SMILES IDX 1 1 2 2 3 3 4 4 15 5 17 6 18 7 19 8 20 9 21 10 5 12 6 13
REMARK SMILES IDX 10 14 7 15 9 16 8 17 11 18 14 19 13 20 12 22 16 23
REMARK H PARENT 20 11 7 21 16 24 16 25
ROOT
ATOM      1  C   UNL     1      41.051 133.322  20.851  1.00  0.00     0.046 C 
ATOM      2  C   UNL     1      42.286 132.467  20.858  1.00  0.00    -0.026 A 
ATOM      3  C   UNL     1      42.956 132.144  19.662  1.00  0.00     0.016 A 
ATOM      4  C   UNL     1      44.127 131.342  19.669  1.00  0.00     0.012 A 
ATOM      5  C   UNL     1      44.628 130.836  20.900  1.00  0.00     0.049 A 
ATOM      6  C   UNL     1      43.943 131.185  22.071  1.00  0.00     0.023 A 
ATOM      7  C   UNL     1      44.181 130.854  23.391  1.00  0.00     0.030 A 
ATOM      8  C   UNL     1      43.171 131.471  24.117  1.00  0.00     0.083 A 
ATOM      9  N   UNL     1      42.340 132.151  23.296  1.00  0.00    -0.361 N 
ATOM     10  C   UNL     1      42.817 131.969  22.051  1.00  0.00     0.050 A 
ATOM     11  H   UNL     1      41.499 132.698  23.582  1.00  0.00     0.166 HD
ENDROOT
BRANCH   4  12
ATOM     12  C   UNL     1      44.810 131.082  18.384  1.00  0.00     0.048 A 
ATOM     13  C   UNL     1      46.067 130.427  18.361  1.00  0.00     0.315 A 
ATOM     14  C   UNL     1      44.202 131.441  17.164  1.00  0.00     0.031 A 
ATOM     15  N   UNL     1      46.693 130.164  17.174  1.00  0.00    -0.215 N 
ATOM     16  C   UNL     1      44.885 131.150  15.988  1.00  0.00     0.065 A 
ATOM     17  C   UNL     1      46.102 130.526  16.006  1.00  0.00     0.171 A 
ATOM     18  C   UNL     1      44.551 131.376  14.608  1.00  0.00     0.089 C 
ATOM     19  C   UNL     1      46.630 130.316  14.618  1.00  0.00    -0.006 C 
ATOM     20  N   UNL     1      45.585 130.885  13.759  1.00  0.00    -0.641 NA
ATOM     21  H   UNL     1      47.621 129.684  17.167  1.00  0.00     0.453 HD
ATOM     22  O   UNL     1      43.502 131.930  14.186  1.00  0.00    -0.315 OA
ENDBRANCH   4  12
BRANCH   5  23
ATOM     23  N   UNL     1      45.763 129.959  20.953  1.00  0.00    -0.398 N 
ATOM     24  H   UNL     1      45.655 128.952  21.203  1.00  0.00     0.156 HD
ATOM     25  H   UNL     1      46.718 130.280  20.683  1.00  0.00     0.156 HD
ENDBRANCH   5  23
TORSDOF 2
ENDMDL
MODEL 2
REMARK VINA RESULT:      -7.9      2.289      6.862
REMARK SMILES Cc1cc(-c2c[nH+]c3c(c2)C(=O)[N-]C3)c(N)c2cc[nH]c12
REMARK SMILES IDX 1 1 2 2 3 3 4 4 15 5 17 6 18 7 19 8 20 9 21 10 5 12 6 13
REMARK SMILES IDX 10 14 7 15 9 16 8 17 11 18 14 19 13 20 12 22 16 23
REMARK H PARENT 20 11 7 21 16 24 16 25
ROOT
ATOM      1  C   UNL     1      43.222 131.826  13.969  1.00  0.00     0.046 C 
ATOM      2  C   UNL     1      43.983 131.442  15.205  1.00  0.00    -0.026 A 
ATOM      3  C   UNL     1      43.484 131.734  16.490  1.00  0.00     0.016 A 
ATOM      4  C   UNL     1      44.200 131.366  17.657  1.00  0.00     0.012 A 
ATOM      5  C   UNL     1      45.454 130.705  17.538  1.00  0.00     0.049 A 
ATOM      6  C   UNL     1      45.916 130.422  16.245  1.00  0.00     0.023 A 
ATOM      7  C   UNL     1      47.074 129.804  15.814  1.00  0.00     0.030 A 
ATOM      8  C   UNL     1      47.005 129.811  14.428  1.00  0.00     0.083 A 
ATOM      9  N   UNL     1      45.866 130.405  14.010  1.00  0.00    -0.361 N 
ATOM     10  C   UNL     1      45.209 130.775  15.124  1.00  0.00     0.050 A 
ATOM     11  H   UNL     1      45.568 130.546  13.019  1.00  0.00     0.166 HD
ENDROOT
BRANCH   4  12
ATOM     12  C   UNL     1      43.596 131.657  18.975  1.00  0.00     0.048 A 
ATOM     13  C   UNL     1      42.442 132.474  19.070  1.00  0.00     0.315 A 
ATOM     14  C   UNL     1      44.132 131.091  20.149  1.00  0.00     0.031 A 
ATOM     15  N   UNL     1      41.866 132.729  20.283  1.00  0.00    -0.215 N 
ATOM     16  C   UNL     1      43.507 131.385  21.356  1.00  0.00     0.065 A 
ATOM     17  C   UNL     1      42.401 132.187  21.408  1.00  0.00     0.171 A 
ATOM     18  C   UNL     1      43.794 130.978  22.705  1.00  0.00     0.089 C 
ATOM     19  C   UNL     1      41.907 132.348  22.816  1.00  0.00    -0.006 C 
ATOM     20  N   UNL     1      42.847 131.544  23.607  1.00  0.00    -0.641 NA
ATOM     21  H   UNL     1      41.018 133.336  20.344  1.00  0.00     0.453 HD
ATOM     22  O   UNL     1      44.742 130.231  23.062  1.00  0.00    -0.315 OA
ENDBRANCH   4  12
BRANCH   5  23
ATOM     23  N   UNL     1      46.253 130.381  18.685  1.00  0.00    -0.398 N 
ATOM     24  H   UNL     1      47.087 129.761  18.604  1.00  0.00     0.156 HD
ATOM     25  H   UNL     1      46.065 130.802  19.621  1.00  0.00     0.156 HD
ENDBRANCH   5  23
TORSDOF 2
ENDMDL
MODEL 3
REMARK VINA RESULT:      -7.7      1.754      2.179
REMARK SMILES Cc1cc(-c2c[nH+]c3c(c2)C(=O)[N-]C3)c(N)c2cc[nH]c12
REMARK SMILES IDX 1 1 2 2 3 3 4 4 15 5 17 6 18 7 19 8 20 9 21 10 5 12 6 13
REMARK SMILES IDX 10 14 7 15 9 16 8 17 11 18 14 19 13 20 12 22 16 23
REMARK H PARENT 20 11 7 21 16 24 16 25
ROOT
ATOM      1  C   UNL     1      41.140 132.687  19.739  1.00  0.00     0.046 C 
ATOM      2  C   UNL     1      42.518 132.094  19.682  1.00  0.00    -0.026 A 
ATOM      3  C   UNL     1      43.231 132.019  18.469  1.00  0.00     0.016 A 
ATOM      4  C   UNL     1      44.535 131.465  18.416  1.00  0.00     0.012 A 
ATOM      5  C   UNL     1      45.135 130.956  19.601  1.00  0.00     0.049 A 
ATOM      6  C   UNL     1      44.403 131.055  20.792  1.00  0.00     0.023 A 
ATOM      7  C   UNL     1      44.710 130.657  22.079  1.00  0.00     0.030 A 
ATOM      8  C   UNL     1      43.604 130.996  22.846  1.00  0.00     0.083 A 
ATOM      9  N   UNL     1      42.651 131.572  22.082  1.00  0.00    -0.361 N 
ATOM     10  C   UNL     1      43.145 131.602  20.831  1.00  0.00     0.050 A 
ATOM     11  H   UNL     1      41.720 131.916  22.407  1.00  0.00     0.166 HD
ENDROOT
BRANCH   4  12
ATOM     12  C   UNL     1      45.248 131.462  17.120  1.00  0.00     0.048 A 
ATOM     13  C   UNL     1      45.466 132.675  16.420  1.00  0.00     0.315 A 
ATOM     14  C   UNL     1      45.757 130.262  16.586  1.00  0.00     0.031 A 
ATOM     15  N   UNL     1      46.144 132.682  15.233  1.00  0.00    -0.215 N 
ATOM     16  C   UNL     1      46.437 130.328  15.374  1.00  0.00     0.065 A 
ATOM     17  C   UNL     1      46.619 131.517  14.722  1.00  0.00     0.171 A 
ATOM     18  C   UNL     1      47.067 129.311  14.575  1.00  0.00     0.089 C 
ATOM     19  C   UNL     1      47.385 131.330  13.447  1.00  0.00    -0.006 C 
ATOM     20  N   UNL     1      47.646 129.886  13.407  1.00  0.00    -0.641 NA
ATOM     21  H   UNL     1      46.297 133.581  14.722  1.00  0.00     0.453 HD
ATOM     22  O   UNL     1      47.111 128.084  14.848  1.00  0.00    -0.315 OA
ENDBRANCH   4  12
BRANCH   5  23
ATOM     23  N   UNL     1      46.420 130.316  19.586  1.00  0.00    -0.398 N 
ATOM     24  H   UNL     1      46.629 129.511  20.215  1.00  0.00     0.156 HD
ATOM     25  H   UNL     1      47.161 130.591  18.907  1.00  0.00     0.156 HD
ENDBRANCH   5  23
TORSDOF 2
ENDMDL
MODEL 4
REMARK VINA RESULT:      -6.9      1.795      6.714
REMARK SMILES Cc1cc(-c2c[nH+]c3c(c2)C(=O)[N-]C3)c(N)c2cc[nH]c12
REMARK SMILES IDX 1 1 2 2 3 3 4 4 15 5 17 6 18 7 19 8 20 9 21 10 5 12 6 13
REMARK SMILES IDX 10 14 7 15 9 16 8 17 11 18 14 19 13 20 12 22 16 23
REMARK H PARENT 20 11 7 21 16 24 16 25
ROOT
ATOM      1  C   UNL     1      43.232 132.030  13.952  1.00  0.00     0.046 C 
ATOM      2  C   UNL     1      44.223 131.510  14.952  1.00  0.00    -0.026 A 
ATOM      3  C   UNL     1      43.967 131.581  16.336  1.00  0.00     0.016 A 
ATOM      4  C   UNL     1      44.901 131.084  17.282  1.00  0.00     0.012 A 
ATOM      5  C   UNL     1      46.127 130.519  16.834  1.00  0.00     0.049 A 
ATOM      6  C   UNL     1      46.345 130.456  15.451  1.00  0.00     0.023 A 
ATOM      7  C   UNL     1      47.417 129.974  14.725  1.00  0.00     0.030 A 
ATOM      8  C   UNL     1      47.086 130.181  13.393  1.00  0.00     0.083 A 
ATOM      9  N   UNL     1      45.873 130.767  13.287  1.00  0.00    -0.361 N 
ATOM     10  C   UNL     1      45.429 130.931  14.547  1.00  0.00     0.050 A 
ATOM     11  H   UNL     1      45.390 131.036  12.402  1.00  0.00     0.166 HD
ENDROOT
BRANCH   4  12
ATOM     12  C   UNL     1      44.549 131.143  18.717  1.00  0.00     0.048 A 
ATOM     13  C   UNL     1      45.370 130.509  19.683  1.00  0.00     0.315 A 
ATOM     14  C   UNL     1      43.420 131.868  19.148  1.00  0.00     0.031 A 
ATOM     15  N   UNL     1      45.062 130.580  21.013  1.00  0.00    -0.215 N 
ATOM     16  C   UNL     1      43.155 131.906  20.512  1.00  0.00     0.065 A 
ATOM     17  C   UNL     1      43.964 131.271  21.414  1.00  0.00     0.171 A 
ATOM     18  C   UNL     1      42.107 132.542  21.265  1.00  0.00     0.089 C 
ATOM     19  C   UNL     1      43.475 131.463  22.818  1.00  0.00    -0.006 C 
ATOM     20  N   UNL     1      42.274 132.291  22.658  1.00  0.00    -0.641 NA
ATOM     21  H   UNL     1      45.671 130.105  21.717  1.00  0.00     0.453 HD
ATOM     22  O   UNL     1      41.166 133.225  20.784  1.00  0.00    -0.315 OA
ENDBRANCH   4  12
BRANCH   5  23
ATOM     23  N   UNL     1      47.136 130.073  17.752  1.00  0.00    -0.398 N 
ATOM     24  H   UNL     1      47.222 129.067  18.013  1.00  0.00     0.156 HD
ATOM     25  H   UNL     1      47.854 130.725  18.138  1.00  0.00     0.156 HD
ENDBRANCH   5  23
TORSDOF 2
ENDMDL
MODEL 5
REMARK VINA RESULT:      -6.4      2.642      6.980
REMARK SMILES Cc1cc(-c2c[nH+]c3c(c2)C(=O)[N-]C3)c(N)c2cc[nH]c12
REMARK SMILES IDX 1 1 2 2 3 3 4 4 15 5 17 6 18 7 19 8 20 9 21 10 5 12 6 13
REMARK SMILES IDX 10 14 7 15 9 16 8 17 11 18 14 19 13 20 12 22 16 23
REMARK H PARENT 20 11 7 21 16 24 16 25
ROOT
ATOM      1  C   UNL     1      47.168 129.631  15.957  1.00  0.00     0.046 C 
ATOM      2  C   UNL     1      45.992 130.336  16.567  1.00  0.00    -0.026 A 
ATOM      3  C   UNL     1      45.872 130.481  17.963  1.00  0.00     0.016 A 
ATOM      4  C   UNL     1      44.763 131.153  18.539  1.00  0.00     0.012 A 
ATOM      5  C   UNL     1      43.741 131.677  17.700  1.00  0.00     0.049 A 
ATOM      6  C   UNL     1      43.897 131.524  16.316  1.00  0.00     0.023 A 
ATOM      7  C   UNL     1      43.089 131.916  15.266  1.00  0.00     0.030 A 
ATOM      8  C   UNL     1      43.739 131.486  14.117  1.00  0.00     0.083 A 
ATOM      9  N   UNL     1      44.892 130.854  14.429  1.00  0.00    -0.361 N 
ATOM     10  C   UNL     1      44.979 130.880  15.771  1.00  0.00     0.050 A 
ATOM     11  H   UNL     1      45.568 130.431  13.756  1.00  0.00     0.166 HD
ENDROOT
BRANCH   4  12
ATOM     12  C   UNL     1      44.723 131.315  20.009  1.00  0.00     0.048 A 
ATOM     13  C   UNL     1      45.602 132.220  20.654  1.00  0.00     0.315 A 
ATOM     14  C   UNL     1      43.782 130.605  20.781  1.00  0.00     0.031 A 
ATOM     15  N   UNL     1      45.554 132.390  22.010  1.00  0.00    -0.215 N 
ATOM     16  C   UNL     1      43.779 130.816  22.156  1.00  0.00     0.065 A 
ATOM     17  C   UNL     1      44.651 131.691  22.744  1.00  0.00     0.171 A 
ATOM     18  C   UNL     1      42.967 130.264  23.206  1.00  0.00     0.089 C 
ATOM     19  C   UNL     1      44.448 131.750  24.229  1.00  0.00    -0.006 C 
ATOM     20  N   UNL     1      43.348 130.807  24.467  1.00  0.00    -0.641 NA
ATOM     21  H   UNL     1      46.208 133.057  22.477  1.00  0.00     0.453 HD
ATOM     22  O   UNL     1      42.047 129.418  23.057  1.00  0.00    -0.315 OA
ENDBRANCH   4  12
BRANCH   5  23
ATOM     23  N   UNL     1      42.563 132.297  18.237  1.00  0.00    -0.398 N 
ATOM     24  H   UNL     1      42.472 133.335  18.284  1.00  0.00     0.156 HD
ATOM     25  H   UNL     1      41.737 131.736  18.539  1.00  0.00     0.156 HD
ENDBRANCH   5  23
TORSDOF 2
ENDMDL
MODEL 6
REMARK VINA RESULT:      -6.3      2.211      6.914
REMARK SMILES Cc1cc(-c2c[nH+]c3c(c2)C(=O)[N-]C3)c(N)c2cc[nH]c12
REMARK SMILES IDX 1 1 2 2 3 3 4 4 15 5 17 6 18 7 19 8 20 9 21 10 5 12 6 13
REMARK SMILES IDX 10 14 7 15 9 16 8 17 11 18 14 19 13 20 12 22 16 23
REMARK H PARENT 20 11 7 21 16 24 16 25
ROOT
ATOM      1  C   UNL     1      47.315 129.762  15.428  1.00  0.00     0.046 C 
ATOM      2  C   UNL     1      46.078 130.372  16.023  1.00  0.00    -0.026 A 
ATOM      3  C   UNL     1      45.887 130.418  17.418  1.00  0.00     0.016 A 
ATOM      4  C   UNL     1      44.721 131.000  17.980  1.00  0.00     0.012 A 
ATOM      5  C   UNL     1      43.715 131.532  17.127  1.00  0.00     0.049 A 
ATOM      6  C   UNL     1      43.943 131.478  15.745  1.00  0.00     0.023 A 
ATOM      7  C   UNL     1      43.168 131.903  14.683  1.00  0.00     0.030 A 
ATOM      8  C   UNL     1      43.891 131.580  13.543  1.00  0.00     0.083 A 
ATOM      9  N   UNL     1      45.056 130.981  13.870  1.00  0.00    -0.361 N 
ATOM     10  C   UNL     1      45.079 130.921  15.214  1.00  0.00     0.050 A 
ATOM     11  H   UNL     1      45.782 130.634  13.206  1.00  0.00     0.166 HD
ENDROOT
BRANCH   4  12
ATOM     12  C   UNL     1      44.605 131.061  19.453  1.00  0.00     0.048 A 
ATOM     13  C   UNL     1      45.646 130.561  20.275  1.00  0.00     0.315 A 
ATOM     14  C   UNL     1      43.480 131.656  20.058  1.00  0.00     0.031 A 
ATOM     15  N   UNL     1      45.554 130.636  21.637  1.00  0.00    -0.215 N 
ATOM     16  C   UNL     1      43.439 131.703  21.447  1.00  0.00     0.065 A 
ATOM     17  C   UNL     1      44.459 131.200  22.208  1.00  0.00     0.171 A 
ATOM     18  C   UNL     1      42.458 132.231  22.357  1.00  0.00     0.089 C 
ATOM     19  C   UNL     1      44.187 131.375  23.672  1.00  0.00    -0.006 C 
ATOM     20  N   UNL     1      42.882 132.046  23.705  1.00  0.00    -0.641 NA
ATOM     21  H   UNL     1      46.325 130.261  22.235  1.00  0.00     0.453 HD
ATOM     22  O   UNL     1      41.373 132.779  22.032  1.00  0.00    -0.315 OA
ENDBRANCH   4  12
BRANCH   5  23
ATOM     23  N   UNL     1      42.485 132.061  17.643  1.00  0.00    -0.398 N 
ATOM     24  H   UNL     1      42.457 132.573  18.551  1.00  0.00     0.156 HD
ATOM     25  H   UNL     1      41.595 132.007  17.102  1.00  0.00     0.156 HD
ENDBRANCH   5  23
TORSDOF 2
ENDMDL
MODEL 7
REMARK VINA RESULT:      -6.2      2.633      7.178
REMARK SMILES Cc1cc(-c2c[nH+]c3c(c2)C(=O)[N-]C3)c(N)c2cc[nH]c12
REMARK SMILES IDX 1 1 2 2 3 3 4 4 15 5 17 6 18 7 19 8 20 9 21 10 5 12 6 13
REMARK SMILES IDX 10 14 7 15 9 16 8 17 11 18 14 19 13 20 12 22 16 23
REMARK H PARENT 20 11 7 21 16 24 16 25
ROOT
ATOM      1  C   UNL     1      47.046 129.859  16.607  1.00  0.00     0.046 C 
ATOM      2  C   UNL     1      45.727 130.516  16.896  1.00  0.00    -0.026 A 
ATOM      3  C   UNL     1      45.264 130.670  18.218  1.00  0.00     0.016 A 
ATOM      4  C   UNL     1      44.020 131.296  18.492  1.00  0.00     0.012 A 
ATOM      5  C   UNL     1      43.213 131.764  17.417  1.00  0.00     0.049 A 
ATOM      6  C   UNL     1      43.710 131.603  16.117  1.00  0.00     0.023 A 
ATOM      7  C   UNL     1      43.168 131.948  14.893  1.00  0.00     0.030 A 
ATOM      8  C   UNL     1      44.097 131.536  13.947  1.00  0.00     0.083 A 
ATOM      9  N   UNL     1      45.164 130.960  14.544  1.00  0.00    -0.361 N 
ATOM     10  C   UNL     1      44.918 131.005  15.866  1.00  0.00     0.050 A 
ATOM     11  H   UNL     1      46.001 130.562  14.065  1.00  0.00     0.166 HD
ENDROOT
BRANCH   4  12
ATOM     12  C   UNL     1      43.615 131.471  19.903  1.00  0.00     0.048 A 
ATOM     13  C   UNL     1      42.649 132.446  20.256  1.00  0.00     0.315 A 
ATOM     14  C   UNL     1      44.150 130.641  20.909  1.00  0.00     0.031 A 
ATOM     15  N   UNL     1      42.254 132.596  21.556  1.00  0.00    -0.215 N 
ATOM     16  C   UNL     1      43.714 130.840  22.214  1.00  0.00     0.065 A 
ATOM     17  C   UNL     1      42.787 131.799  22.518  1.00  0.00     0.171 A 
ATOM     18  C   UNL     1      44.052 130.180  23.446  1.00  0.00     0.089 C 
ATOM     19  C   UNL     1      42.474 131.813  23.984  1.00  0.00    -0.006 C 
ATOM     20  N   UNL     1      43.321 130.746  24.530  1.00  0.00    -0.641 NA
ATOM     21  H   UNL     1      41.544 133.320  21.807  1.00  0.00     0.453 HD
ATOM     22  O   UNL     1      44.875 129.236  23.573  1.00  0.00    -0.315 OA
ENDBRANCH   4  12
BRANCH   5  23
ATOM     23  N   UNL     1      41.915 132.334  17.637  1.00  0.00    -0.398 N 
ATOM     24  H   UNL     1      41.194 132.341  16.884  1.00  0.00     0.156 HD
ATOM     25  H   UNL     1      41.629 132.703  18.570  1.00  0.00     0.156 HD
ENDBRANCH   5  23
TORSDOF 2
ENDMDL
MODEL 8
REMARK VINA RESULT:      -6.2      1.196      2.241
REMARK SMILES Cc1cc(-c2c[nH+]c3c(c2)C(=O)[N-]C3)c(N)c2cc[nH]c12
REMARK SMILES IDX 1 1 2 2 3 3 4 4 15 5 17 6 18 7 19 8 20 9 21 10 5 12 6 13
REMARK SMILES IDX 10 14 7 15 9 16 8 17 11 18 14 19 13 20 12 22 16 23
REMARK H PARENT 20 11 7 21 16 24 16 25
ROOT
ATOM      1  C   UNL     1      44.791 130.881  23.225  1.00  0.00     0.046 C 
ATOM      2  C   UNL     1      44.183 131.282  21.912  1.00  0.00    -0.026 A 
ATOM      3  C   UNL     1      44.828 130.999  20.693  1.00  0.00     0.016 A 
ATOM      4  C   UNL     1      44.251 131.372  19.452  1.00  0.00     0.012 A 
ATOM      5  C   UNL     1      43.007 132.061  19.431  1.00  0.00     0.049 A 
ATOM      6  C   UNL     1      42.388 132.319  20.661  1.00  0.00     0.023 A 
ATOM      7  C   UNL     1      41.200 132.957  20.960  1.00  0.00     0.030 A 
ATOM      8  C   UNL     1      41.102 132.931  22.345  1.00  0.00     0.083 A 
ATOM      9  N   UNL     1      42.174 132.312  22.887  1.00  0.00    -0.361 N 
ATOM     10  C   UNL     1      42.953 131.944  21.854  1.00  0.00     0.050 A 
ATOM     11  H   UNL     1      42.352 132.161  23.904  1.00  0.00     0.166 HD
ENDROOT
BRANCH   4  12
ATOM     12  C   UNL     1      44.956 131.000  18.206  1.00  0.00     0.048 A 
ATOM     13  C   UNL     1      46.115 130.185  18.255  1.00  0.00     0.315 A 
ATOM     14  C   UNL     1      44.460 131.411  16.953  1.00  0.00     0.031 A 
ATOM     15  N   UNL     1      46.758 129.820  17.106  1.00  0.00    -0.215 N 
ATOM     16  C   UNL     1      45.155 131.011  15.817  1.00  0.00     0.065 A 
ATOM     17  C   UNL     1      46.278 130.234  15.905  1.00  0.00     0.171 A 
ATOM     18  C   UNL     1      44.922 131.253  14.418  1.00  0.00     0.089 C 
ATOM     19  C   UNL     1      46.840 129.929  14.548  1.00  0.00    -0.006 C 
ATOM     20  N   UNL     1      45.922 130.615  13.630  1.00  0.00    -0.641 NA
ATOM     21  H   UNL     1      47.614 129.223  17.152  1.00  0.00     0.453 HD
ATOM     22  O   UNL     1      43.977 131.931  13.937  1.00  0.00    -0.315 OA
ENDBRANCH   4  12
BRANCH   5  23
ATOM     23  N   UNL     1      42.419 132.528  18.207  1.00  0.00    -0.398 N 
ATOM     24  H   UNL     1      41.555 132.089  17.822  1.00  0.00     0.156 HD
ATOM     25  H   UNL     1      42.797 133.356  17.698  1.00  0.00     0.156 HD
ENDBRANCH   5  23
TORSDOF 2
ENDMDL
MODEL 9
REMARK VINA RESULT:      -6.0      1.295      2.244
REMARK SMILES Cc1cc(-c2c[nH+]c3c(c2)C(=O)[N-]C3)c(N)c2cc[nH]c12
REMARK SMILES IDX 1 1 2 2 3 3 4 4 15 5 17 6 18 7 19 8 20 9 21 10 5 12 6 13
REMARK SMILES IDX 10 14 7 15 9 16 8 17 11 18 14 19 13 20 12 22 16 23
REMARK H PARENT 20 11 7 21 16 24 16 25
ROOT
ATOM      1  C   UNL     1      45.136 128.576  23.028  1.00  0.00     0.046 C 
ATOM      2  C   UNL     1      44.659 129.627  22.068  1.00  0.00    -0.026 A 
ATOM      3  C   UNL     1      45.137 129.676  20.743  1.00  0.00     0.016 A 
ATOM      4  C   UNL     1      44.681 130.665  19.834  1.00  0.00     0.012 A 
ATOM      5  C   UNL     1      43.738 131.639  20.264  1.00  0.00     0.049 A 
ATOM      6  C   UNL     1      43.276 131.555  21.584  1.00  0.00     0.023 A 
ATOM      7  C   UNL     1      42.378 132.340  22.280  1.00  0.00     0.030 A 
ATOM      8  C   UNL     1      42.317 131.794  23.555  1.00  0.00     0.083 A 
ATOM      9  N   UNL     1      43.137 130.725  23.656  1.00  0.00    -0.361 N 
ATOM     10  C   UNL     1      43.718 130.587  22.451  1.00  0.00     0.050 A 
ATOM     11  H   UNL     1      43.284 130.136  24.505  1.00  0.00     0.166 HD
ENDROOT
BRANCH   4  12
ATOM     12  C   UNL     1      45.186 130.630  18.444  1.00  0.00     0.048 A 
ATOM     13  C   UNL     1      46.451 130.060  18.156  1.00  0.00     0.315 A 
ATOM     14  C   UNL     1      44.398 131.122  17.384  1.00  0.00     0.031 A 
ATOM     15  N   UNL     1      46.913 130.005  16.870  1.00  0.00    -0.215 N 
ATOM     16  C   UNL     1      44.919 131.041  16.097  1.00  0.00     0.065 A 
ATOM     17  C   UNL     1      46.149 130.494  15.859  1.00  0.00     0.171 A 
ATOM     18  C   UNL     1      44.384 131.442  14.823  1.00  0.00     0.089 C 
ATOM     19  C   UNL     1      46.484 130.514  14.397  1.00  0.00    -0.006 C 
ATOM     20  N   UNL     1      45.306 131.137  13.780  1.00  0.00    -0.641 NA
ATOM     21  H   UNL     1      47.849 129.586  16.667  1.00  0.00     0.453 HD
ATOM     22  O   UNL     1      43.266 131.987  14.633  1.00  0.00    -0.315 OA
ENDBRANCH   4  12
BRANCH   5  23
ATOM     23  N   UNL     1      43.305 132.705  19.406  1.00  0.00    -0.398 N 
ATOM     24  H   UNL     1      43.988 133.372  18.988  1.00  0.00     0.156 HD
ATOM     25  H   UNL     1      42.306 132.810  19.124  1.00  0.00     0.156 HD
ENDBRANCH   5  23
TORSDOF 2
ENDMDL


