REMARK SMILES C=Cc1ccc(-c2cccc3c[nH+]oc23)nc1
REMARK SMILES IDX 3 1 4 2 5 3 6 4 16 5 17 6 2 7 1 8 7 9 8 10 15 11 9 12 14 13
REMARK SMILES IDX 11 14 10 15 13 16 12 17
REMARK H PARENT 13 18
ROOT
ATOM      1  C   UNL     1       3.822  -0.721  -2.083  1.00  0.00    -0.008 A 
ATOM      2  C   UNL     1       3.680  -1.944  -1.403  1.00  0.00     0.012 A 
ATOM      3  C   UNL     1       2.566  -2.178  -0.594  1.00  0.00     0.030 A 
ATOM      4  C   UNL     1       1.577  -1.185  -0.456  1.00  0.00     0.074 A 
ATOM      5  N   UNL     1       1.743  -0.012  -1.127  1.00  0.00    -0.255 NA
ATOM      6  C   UNL     1       2.817   0.241  -1.920  1.00  0.00     0.119 A 
ENDROOT
BRANCH   1   7
ATOM      7  C   UNL     1       4.978  -0.399  -2.961  1.00  0.00     0.002 C 
ATOM      8  C   UNL     1       6.002  -1.219  -3.204  1.00  0.00     0.009 C 
ENDBRANCH   1   7
BRANCH   4   9
ATOM      9  C   UNL     1       0.359  -1.369   0.394  1.00  0.00     0.051 A 
ATOM     10  C   UNL     1       0.094  -2.555   1.133  1.00  0.00     0.014 A 
ATOM     11  C   UNL     1      -0.605  -0.350   0.503  1.00  0.00     0.225 A 
ATOM     12  C   UNL     1      -1.073  -2.681   1.923  1.00  0.00     0.002 A 
ATOM     13  O   UNL     1      -0.622   0.836  -0.059  1.00  0.00    -0.238 OA
ATOM     14  C   UNL     1      -1.731  -0.483   1.272  1.00  0.00     0.093 A 
ATOM     15  C   UNL     1      -2.004  -1.633   1.998  1.00  0.00     0.019 A 
ATOM     16  N   UNL     1      -1.698   1.481   0.301  1.00  0.00    -0.035 N 
ATOM     17  C   UNL     1      -2.421   0.698   1.131  1.00  0.00     0.369 A 
ATOM     18  H   UNL     1      -1.946   2.446  -0.010  1.00  0.00     0.516 HD
ENDBRANCH   4   9
TORSDOF 2


