REMARK SMILES C[C@H]1NN(C(=O)C(C)(C)[NH2+]C2CC2)[C@H](c2cc3ccc(F)cc3[nH]2)O1
REMARK SMILES IDX 5 1 6 2 4 3 2 4 3 5 25 6 14 7 1 8 15 10 16 11 24 12 17 13
REMARK SMILES IDX 23 14 18 15 22 16 19 17 20 18 21 20 7 21 8 22 9 23 10 24
REMARK SMILES IDX 11 27 12 28 13 29
REMARK H PARENT 3 9 24 19 10 25 10 26
ROOT
ATOM      1  C   UNL     1       0.050  -0.757  -0.950  1.00  0.00     0.300 C 
ATOM      2  O   UNL     1      -1.077  -1.088  -1.412  1.00  0.00    -0.266 OA
ENDROOT
BRANCH   1   3
ATOM      3  N   UNL     1       0.098   0.259   0.072  1.00  0.00    -0.236 N 
ATOM      4  C   UNL     1       0.915   1.468   1.764  1.00  0.00     0.204 C 
ATOM      5  N   UNL     1       1.255   0.928   0.447  1.00  0.00    -0.201 NA
ATOM      6  O   UNL     1      -0.475   1.334   2.005  1.00  0.00    -0.332 OA
ATOM      7  C   UNL     1      -0.992   0.527   0.979  1.00  0.00     0.283 C 
ATOM      8  C   UNL     1       1.694   0.715   2.838  1.00  0.00     0.058 C 
ATOM      9  H   UNL     1       1.366   1.729  -0.219  1.00  0.00     0.151 HD
BRANCH   7  10
ATOM     10  C   UNL     1      -2.094   1.258   0.272  1.00  0.00     0.068 A 
ATOM     11  C   UNL     1      -3.369   0.750   0.035  1.00  0.00     0.036 A 
ATOM     12  N   UNL     1      -1.956   2.498  -0.254  1.00  0.00    -0.355 N 
ATOM     13  C   UNL     1      -4.021   1.743  -0.663  1.00  0.00     0.000 A 
ATOM     14  C   UNL     1      -3.141   2.783  -0.820  1.00  0.00     0.049 A 
ATOM     15  C   UNL     1      -5.318   1.794  -1.168  1.00  0.00     0.013 A 
ATOM     16  C   UNL     1      -3.498   3.949  -1.495  1.00  0.00     0.065 A 
ATOM     17  C   UNL     1      -5.708   2.959  -1.855  1.00  0.00     0.040 A 
ATOM     18  C   UNL     1      -4.802   4.032  -2.018  1.00  0.00     0.125 A 
ATOM     19  H   UNL     1      -1.106   3.104  -0.231  1.00  0.00     0.166 HD
ATOM     20  F   UNL     1      -5.193   5.148  -2.680  1.00  0.00    -0.207 F 
ENDBRANCH   7  10
ENDBRANCH   1   3
BRANCH   1  21
ATOM     21  C   UNL     1       1.313  -1.450  -1.483  1.00  0.00     0.171 C 
ATOM     22  C   UNL     1       0.924  -2.673  -2.355  1.00  0.00     0.090 C 
ATOM     23  C   UNL     1       2.071  -0.461  -2.394  1.00  0.00     0.090 C 
BRANCH  21  24
ATOM     24  N   UNL     1       2.213  -1.895  -0.383  1.00  0.00    -0.332 N 
ATOM     25  H   UNL     1       3.039  -2.389  -0.798  1.00  0.00     0.347 HD
ATOM     26  H   UNL     1       2.606  -1.072   0.125  1.00  0.00     0.347 HD
BRANCH  24  27
ATOM     27  C   UNL     1       1.530  -2.748   0.613  1.00  0.00     0.183 C 
ATOM     28  C   UNL     1       2.488  -3.402   1.599  1.00  0.00     0.071 C 
ATOM     29  C   UNL     1       1.817  -4.241   0.523  1.00  0.00     0.071 C 
ENDBRANCH  24  27
ENDBRANCH  21  24
ENDBRANCH   1  21
TORSDOF 5


