REMARK SMILES [NH3+]/C=C(\O)c1ccc(-c2c[nH+]c3cc[nH+]n3c2)c2c[n-]nc12
REMARK SMILES IDX 3 1 4 2 2 4 1 5 5 9 6 10 22 11 7 12 21 13 18 14 8 15 20 16
REMARK SMILES IDX 19 17 9 18 17 19 10 20 16 21 11 22 12 23 15 24 13 25 14 26
REMARK H PARENT 4 3 1 6 1 7 1 8 11 27 15 28
ROOT
ATOM      1  C   UNL     1      -3.711   1.732  -2.099  1.00  0.00     0.178 C 
ENDROOT
BRANCH   1   2
ATOM      2  O   UNL     1      -3.665   1.824  -3.491  1.00  0.00    -0.503 OA
ATOM      3  H   UNL     1      -2.861   1.506  -4.019  1.00  0.00     0.293 HD
ENDBRANCH   1   2
BRANCH   1   4
ATOM      4  C   UNL     1      -4.819   2.124  -1.454  1.00  0.00     0.265 C 
BRANCH   4   5
ATOM      5  N   UNL     1      -5.963   2.611  -2.167  1.00  0.00    -0.328 N 
ATOM      6  H   UNL     1      -5.699   3.459  -2.719  1.00  0.00     0.350 HD
ATOM      7  H   UNL     1      -6.710   2.868  -1.483  1.00  0.00     0.350 HD
ATOM      8  H   UNL     1      -6.324   1.863  -2.803  1.00  0.00     0.350 HD
ENDBRANCH   4   5
ENDBRANCH   1   4
BRANCH   1   9
ATOM      9  C   UNL     1      -2.530   1.225  -1.359  1.00  0.00     0.046 A 
ATOM     10  C   UNL     1      -1.229   1.633  -1.727  1.00  0.00     0.015 A 
ATOM     11  C   UNL     1      -2.635   0.324  -0.289  1.00  0.00     0.059 A 
ATOM     12  C   UNL     1      -0.096   1.159  -1.031  1.00  0.00     0.010 A 
ATOM     13  N   UNL     1      -3.752  -0.214   0.234  1.00  0.00    -0.367 NA
ATOM     14  C   UNL     1      -1.535  -0.143   0.377  1.00  0.00    -0.014 A 
ATOM     15  C   UNL     1      -0.232   0.248   0.040  1.00  0.00    -0.003 A 
ATOM     16  N   UNL     1      -3.383  -1.003   1.238  1.00  0.00    -0.581 NA
ATOM     17  C   UNL     1      -2.036  -0.975   1.354  1.00  0.00    -0.113 A 
BRANCH  15  18
ATOM     18  C   UNL     1       0.960  -0.262   0.754  1.00  0.00     0.067 A 
ATOM     19  C   UNL     1       1.973   0.619   1.180  1.00  0.00     0.290 A 
ATOM     20  C   UNL     1       1.131  -1.647   1.000  1.00  0.00     0.210 A 
ATOM     21  N   UNL     1       3.046   0.093   1.818  1.00  0.00     0.008 N 
ATOM     22  N   UNL     1       2.241  -2.108   1.650  1.00  0.00    -0.242 N 
ATOM     23  C   UNL     1       3.180  -1.216   2.049  1.00  0.00     0.346 A 
ATOM     24  N   UNL     1       4.094   0.734   2.301  1.00  0.00    -0.055 N 
ATOM     25  C   UNL     1       4.366  -1.457   2.710  1.00  0.00     0.180 A 
ATOM     26  C   UNL     1       4.920  -0.185   2.853  1.00  0.00     0.364 A 
ATOM     27  H   UNL     1       2.363  -3.130   1.828  1.00  0.00     0.312 HD
ATOM     28  H   UNL     1       4.246   1.766   2.256  1.00  0.00     0.514 HD
ENDBRANCH  15  18
ENDBRANCH   1   9
TORSDOF 5


