REMARK SMILES C=Cc1ccc(-c2cc3cc[nH]c3cc2[NH2+]c2cc(F)c(O)cc2N)[nH+]c1
REMARK SMILES IDX 7 1 8 2 9 3 10 4 11 5 12 6 13 7 14 8 15 9 6 11 3 12 4 13
REMARK SMILES IDX 27 14 5 15 26 16 2 18 1 19 16 20 17 23 18 24 24 25 19 26
REMARK SMILES IDX 23 27 21 28 20 29 25 30 22 33
REMARK H PARENT 12 10 26 17 16 21 16 22 25 31 25 32 22 34
ROOT
ATOM      1  C   UNL     1       0.208  -0.790  -1.615  1.00  0.00     0.108 A 
ATOM      2  C   UNL     1      -0.102   0.020  -2.728  1.00  0.00     0.031 A 
ATOM      3  C   UNL     1       0.846   0.148  -3.734  1.00  0.00     0.001 A 
ATOM      4  C   UNL     1       0.806   0.849  -4.920  1.00  0.00     0.028 A 
ATOM      5  C   UNL     1       2.028   0.595  -5.533  1.00  0.00     0.083 A 
ATOM      6  N   UNL     1       2.787  -0.221  -4.767  1.00  0.00    -0.361 N 
ATOM      7  C   UNL     1       2.053  -0.486  -3.673  1.00  0.00     0.051 A 
ATOM      8  C   UNL     1       2.409  -1.282  -2.591  1.00  0.00     0.095 A 
ATOM      9  C   UNL     1       1.495  -1.420  -1.515  1.00  0.00     0.150 A 
ATOM     10  H   UNL     1       3.747  -0.572  -4.984  1.00  0.00     0.166 HD
ENDROOT
BRANCH   1  11
ATOM     11  C   UNL     1      -0.833  -0.964  -0.586  1.00  0.00     0.216 A 
ATOM     12  C   UNL     1      -2.794  -1.266   1.377  1.00  0.00     0.038 A 
ATOM     13  C   UNL     1      -2.453  -2.344   0.548  1.00  0.00     0.021 A 
ATOM     14  C   UNL     1      -2.126  -0.041   1.186  1.00  0.00     0.314 A 
ATOM     15  C   UNL     1      -1.478  -2.196  -0.438  1.00  0.00     0.081 A 
ATOM     16  N   UNL     1      -1.180   0.083   0.215  1.00  0.00    -0.210 N 
ATOM     17  H   UNL     1      -0.694   1.002   0.104  1.00  0.00     0.453 HD
BRANCH  12  18
ATOM     18  C   UNL     1      -3.818  -1.473   2.431  1.00  0.00     0.006 C 
ATOM     19  C   UNL     1      -4.427  -0.489   3.093  1.00  0.00     0.009 C 
ENDBRANCH  12  18
ENDBRANCH   1  11
BRANCH   9  20
ATOM     20  N   UNL     1       1.874  -2.222  -0.366  1.00  0.00    -0.279 N 
ATOM     21  H   UNL     1       2.843  -2.603  -0.472  1.00  0.00     0.358 HD
ATOM     22  H   UNL     1       1.240  -3.053  -0.331  1.00  0.00     0.358 HD
BRANCH  20  23
ATOM     23  C   UNL     1       1.820  -1.472   0.874  1.00  0.00     0.161 A 
ATOM     24  C   UNL     1       0.928  -1.878   1.888  1.00  0.00     0.113 A 
ATOM     25  C   UNL     1       2.641  -0.337   1.107  1.00  0.00     0.098 A 
ATOM     26  C   UNL     1       0.784  -1.133   3.059  1.00  0.00     0.170 A 
ATOM     27  C   UNL     1       2.475   0.410   2.284  1.00  0.00     0.081 A 
ATOM     28  C   UNL     1       1.546   0.019   3.255  1.00  0.00     0.153 A 
ATOM     29  F   UNL     1      -0.110  -1.526   4.000  1.00  0.00    -0.203 F 
BRANCH  25  30
ATOM     30  N   UNL     1       3.661   0.059   0.182  1.00  0.00    -0.394 N 
ATOM     31  H   UNL     1       4.165   0.966   0.305  1.00  0.00     0.156 HD
ATOM     32  H   UNL     1       4.022  -0.589  -0.549  1.00  0.00     0.156 HD
ENDBRANCH  25  30
BRANCH  28  33
ATOM     33  O   UNL     1       1.383   0.764   4.420  1.00  0.00    -0.505 OA
ATOM     34  H   UNL     1       1.923   1.604   4.593  1.00  0.00     0.293 HD
ENDBRANCH  28  33
ENDBRANCH  20  23
ENDBRANCH   9  20
TORSDOF 6


