REMARK SMILES C=C[C@H]1C[C@](Nc2ccc3cc[nH]c3c2)(c2ccc(C(C)=O)cc2)[C@H](F)C[C@H]1O
REMARK SMILES IDX 3 1 4 2 5 3 25 4 26 5 27 6 28 7 2 8 1 9 29 10 6 12 7 14 8 15
REMARK SMILES IDX 15 16 9 17 14 18 10 19 13 20 11 21 12 22 16 24 17 25 24 26
REMARK SMILES IDX 18 27 23 28 19 29 20 30 21 31 22 32
REMARK H PARENT 29 11 6 13 13 23
ROOT
ATOM      1  C   UNL     1       0.579   3.641   0.585  1.00  0.00     0.043 C 
ATOM      2  C   UNL     1       0.787   2.351   1.401  1.00  0.00     0.046 C 
ATOM      3  C   UNL     1       0.256   1.073   0.672  1.00  0.00     0.095 C 
ATOM      4  C   UNL     1      -1.250   1.336   0.305  1.00  0.00     0.199 C 
ATOM      5  F   UNL     1      -1.783   0.306  -0.451  1.00  0.00    -0.244 F 
ATOM      6  C   UNL     1      -1.524   2.682  -0.404  1.00  0.00     0.073 C 
ATOM      7  C   UNL     1      -0.927   3.875   0.348  1.00  0.00     0.124 C 
ENDROOT
BRANCH   1   8
ATOM      8  C   UNL     1       1.214   4.828   1.277  1.00  0.00    -0.029 C 
ATOM      9  C   UNL     1       2.542   4.967   1.345  1.00  0.00     0.004 C 
ENDBRANCH   1   8
BRANCH   7  10
ATOM     10  O   UNL     1      -1.610   4.044   1.568  1.00  0.00    -0.392 OA
ATOM     11  H   UNL     1      -1.756   5.017   1.695  1.00  0.00     0.210 HD
ENDBRANCH   7  10
BRANCH   3  12
ATOM     12  N   UNL     1       0.315  -0.047   1.641  1.00  0.00    -0.373 N 
ATOM     13  H   UNL     1       0.720   0.141   2.588  1.00  0.00     0.161 HD
BRANCH  12  14
ATOM     14  C   UNL     1      -0.316  -1.334   1.486  1.00  0.00     0.037 A 
ATOM     15  C   UNL     1      -0.286  -2.046   0.255  1.00  0.00     0.026 A 
ATOM     16  C   UNL     1      -0.933  -1.925   2.611  1.00  0.00     0.052 A 
ATOM     17  C   UNL     1      -0.892  -3.310   0.140  1.00  0.00     0.012 A 
ATOM     18  C   UNL     1      -1.524  -3.178   2.462  1.00  0.00     0.047 A 
ATOM     19  C   UNL     1      -1.505  -3.844   1.268  1.00  0.00    -0.001 A 
ATOM     20  N   UNL     1      -2.164  -3.896   3.399  1.00  0.00    -0.361 N 
ATOM     21  C   UNL     1      -2.162  -5.041   1.452  1.00  0.00     0.028 A 
ATOM     22  C   UNL     1      -2.557  -5.036   2.786  1.00  0.00     0.083 A 
ATOM     23  H   UNL     1      -2.327  -3.633   4.396  1.00  0.00     0.166 HD
ENDBRANCH  12  14
ENDBRANCH   3  12
BRANCH   3  24
ATOM     24  C   UNL     1       1.200   0.748  -0.505  1.00  0.00    -0.020 A 
ATOM     25  C   UNL     1       2.543   0.421  -0.221  1.00  0.00     0.007 A 
ATOM     26  C   UNL     1       0.794   0.712  -1.857  1.00  0.00     0.007 A 
ATOM     27  C   UNL     1       3.450   0.120  -1.239  1.00  0.00     0.012 A 
ATOM     28  C   UNL     1       1.702   0.411  -2.877  1.00  0.00     0.012 A 
ATOM     29  C   UNL     1       3.044   0.118  -2.583  1.00  0.00     0.017 A 
BRANCH  29  30
ATOM     30  C   UNL     1       4.021  -0.204  -3.657  1.00  0.00     0.159 C 
ATOM     31  C   UNL     1       3.630  -0.224  -5.105  1.00  0.00     0.093 C 
ATOM     32  O   UNL     1       5.217  -0.469  -3.356  1.00  0.00    -0.295 OA
ENDBRANCH  29  30
ENDBRANCH   3  24
TORSDOF 6


