MODEL 1
REMARK VINA RESULT:      -5.1      0.000      0.000
REMARK SMILES C=C(C)C(=O)Oc1c([NH2+]N)cc(C)cc1-n1[nH+]c2ccccc2[nH+]1
REMARK SMILES IDX 7 1 8 2 11 3 12 4 13 5 14 6 15 7 6 8 4 9 5 10 2 11 1 12 3 13
REMARK SMILES IDX 9 14 10 17 16 20 17 21 24 22 18 23 23 24 19 25 22 26 20 27
REMARK SMILES IDX 21 28
REMARK H PARENT 9 15 9 16 10 18 10 19 17 29 24 30
ROOT
ATOM      1  C   UNL     1      44.137 131.287  20.865  1.00  0.00     0.229 A 
ATOM      2  C   UNL     1      43.666 131.012  22.166  1.00  0.00     0.194 A 
ATOM      3  C   UNL     1      44.100 129.849  22.826  1.00  0.00     0.077 A 
ATOM      4  C   UNL     1      45.018 128.984  22.221  1.00  0.00    -0.042 A 
ATOM      5  C   UNL     1      45.454 127.734  22.928  1.00  0.00     0.044 C 
ATOM      6  C   UNL     1      45.457 129.243  20.917  1.00  0.00     0.047 A 
ATOM      7  C   UNL     1      45.009 130.377  20.225  1.00  0.00     0.217 A 
ENDROOT
BRANCH   1   8
ATOM      8  O   UNL     1      43.715 132.462  20.227  1.00  0.00    -0.414 OA
BRANCH   8   9
ATOM      9  C   UNL     1      42.407 132.673  19.774  1.00  0.00     0.338 C 
ATOM     10  O   UNL     1      41.676 133.541  20.329  1.00  0.00    -0.246 OA
BRANCH   9  11
ATOM     11  C   UNL     1      41.889 131.864  18.649  1.00  0.00     0.027 C 
ATOM     12  C   UNL     1      40.974 130.909  18.852  1.00  0.00     0.020 C 
ATOM     13  C   UNL     1      42.327 132.193  17.248  1.00  0.00     0.051 C 
ENDBRANCH   9  11
ENDBRANCH   8   9
ENDBRANCH   1   8
BRANCH   2  14
ATOM     14  N   UNL     1      42.720 131.890  22.808  1.00  0.00    -0.236 N 
ATOM     15  H   UNL     1      43.223 132.674  23.289  1.00  0.00     0.376 HD
ATOM     16  H   UNL     1      42.054 132.306  22.114  1.00  0.00     0.376 HD
BRANCH  14  17
ATOM     17  N   UNL     1      42.005 131.152  23.772  1.00  0.00    -0.178 NA
ATOM     18  H   UNL     1      40.997 131.427  23.706  1.00  0.00     0.183 HD
ATOM     19  H   UNL     1      42.048 130.138  23.515  1.00  0.00     0.183 HD
ENDBRANCH  14  17
ENDBRANCH   2  14
BRANCH   7  20
ATOM     20  N   UNL     1      45.401 130.562  18.854  1.00  0.00     0.083 N 
ATOM     21  N   UNL     1      45.234 131.693  18.170  1.00  0.00    -0.062 N 
ATOM     22  N   UNL     1      45.967 129.618  18.105  1.00  0.00    -0.062 N 
ATOM     23  C   UNL     1      45.730 131.463  16.944  1.00  0.00     0.306 A 
ATOM     24  C   UNL     1      46.184 130.177  16.904  1.00  0.00     0.306 A 
ATOM     25  C   UNL     1      45.819 132.317  15.851  1.00  0.00     0.089 A 
ATOM     26  C   UNL     1      46.769 129.633  15.766  1.00  0.00     0.089 A 
ATOM     27  C   UNL     1      46.406 131.802  14.677  1.00  0.00     0.007 A 
ATOM     28  C   UNL     1      46.877 130.466  14.634  1.00  0.00     0.007 A 
ATOM     29  H   UNL     1      44.795 132.571  18.526  1.00  0.00     0.495 HD
ATOM     30  H   UNL     1      46.210 128.650  18.413  1.00  0.00     0.495 HD
ENDBRANCH   7  20
TORSDOF 6
ENDMDL
MODEL 2
REMARK VINA RESULT:      -5.0      0.388      1.429
REMARK SMILES C=C(C)C(=O)Oc1c([NH2+]N)cc(C)cc1-n1[nH+]c2ccccc2[nH+]1
REMARK SMILES IDX 7 1 8 2 11 3 12 4 13 5 14 6 15 7 6 8 4 9 5 10 2 11 1 12 3 13
REMARK SMILES IDX 9 14 10 17 16 20 17 21 24 22 18 23 23 24 19 25 22 26 20 27
REMARK SMILES IDX 21 28
REMARK H PARENT 9 15 9 16 10 18 10 19 17 29 24 30
ROOT
ATOM      1  C   UNL     1      44.003 131.321  21.049  1.00  0.00     0.229 A 
ATOM      2  C   UNL     1      43.520 131.042  22.343  1.00  0.00     0.194 A 
ATOM      3  C   UNL     1      43.953 129.881  23.008  1.00  0.00     0.077 A 
ATOM      4  C   UNL     1      44.884 129.023  22.413  1.00  0.00    -0.042 A 
ATOM      5  C   UNL     1      45.321 127.775  23.123  1.00  0.00     0.044 C 
ATOM      6  C   UNL     1      45.336 129.286  21.114  1.00  0.00     0.047 A 
ATOM      7  C   UNL     1      44.888 130.418  20.417  1.00  0.00     0.217 A 
ENDROOT
BRANCH   1   8
ATOM      8  O   UNL     1      43.581 132.495  20.407  1.00  0.00    -0.414 OA
BRANCH   8   9
ATOM      9  C   UNL     1      42.270 132.708  19.962  1.00  0.00     0.338 C 
ATOM     10  O   UNL     1      41.502 133.481  20.601  1.00  0.00    -0.246 OA
BRANCH   9  11
ATOM     11  C   UNL     1      41.794 132.012  18.747  1.00  0.00     0.027 C 
ATOM     12  C   UNL     1      42.111 132.463  17.528  1.00  0.00     0.020 C 
ATOM     13  C   UNL     1      41.029 130.726  18.892  1.00  0.00     0.051 C 
ENDBRANCH   9  11
ENDBRANCH   8   9
ENDBRANCH   1   8
BRANCH   2  14
ATOM     14  N   UNL     1      42.561 131.914  22.976  1.00  0.00    -0.236 N 
ATOM     15  H   UNL     1      42.524 132.834  22.478  1.00  0.00     0.376 HD
ATOM     16  H   UNL     1      41.600 131.496  22.963  1.00  0.00     0.376 HD
BRANCH  14  17
ATOM     17  N   UNL     1      42.966 132.135  24.308  1.00  0.00    -0.178 NA
ATOM     18  H   UNL     1      42.268 132.774  24.755  1.00  0.00     0.183 HD
ATOM     19  H   UNL     1      42.908 131.229  24.829  1.00  0.00     0.183 HD
ENDBRANCH  14  17
ENDBRANCH   2  14
BRANCH   7  20
ATOM     20  N   UNL     1      45.295 130.607  19.051  1.00  0.00     0.083 N 
ATOM     21  N   UNL     1      45.922 129.687  18.319  1.00  0.00    -0.062 N 
ATOM     22  N   UNL     1      45.099 131.728  18.362  1.00  0.00    -0.062 N 
ATOM     23  C   UNL     1      46.117 130.242  17.112  1.00  0.00     0.306 A 
ATOM     24  C   UNL     1      45.607 131.507  17.139  1.00  0.00     0.306 A 
ATOM     25  C   UNL     1      46.711 129.704  15.976  1.00  0.00     0.089 A 
ATOM     26  C   UNL     1      45.645 132.346  16.031  1.00  0.00     0.089 A 
ATOM     27  C   UNL     1      46.769 130.523  14.831  1.00  0.00     0.007 A 
ATOM     28  C   UNL     1      46.240 131.838  14.858  1.00  0.00     0.007 A 
ATOM     29  H   UNL     1      46.208 128.734  18.636  1.00  0.00     0.495 HD
ATOM     30  H   UNL     1      44.622 132.591  18.711  1.00  0.00     0.495 HD
ENDBRANCH   7  20
TORSDOF 6
ENDMDL
MODEL 3
REMARK VINA RESULT:      -4.7      5.022      7.606
REMARK SMILES C=C(C)C(=O)Oc1c([NH2+]N)cc(C)cc1-n1[nH+]c2ccccc2[nH+]1
REMARK SMILES IDX 7 1 8 2 11 3 12 4 13 5 14 6 15 7 6 8 4 9 5 10 2 11 1 12 3 13
REMARK SMILES IDX 9 14 10 17 16 20 17 21 24 22 18 23 23 24 19 25 22 26 20 27
REMARK SMILES IDX 21 28
REMARK H PARENT 9 15 9 16 10 18 10 19 17 29 24 30
ROOT
ATOM      1  C   UNL     1      44.984 124.865  23.454  1.00  0.00     0.229 A 
ATOM      2  C   UNL     1      45.587 123.603  23.274  1.00  0.00     0.194 A 
ATOM      3  C   UNL     1      46.922 123.530  22.840  1.00  0.00     0.077 A 
ATOM      4  C   UNL     1      47.666 124.695  22.619  1.00  0.00    -0.042 A 
ATOM      5  C   UNL     1      49.083 124.603  22.133  1.00  0.00     0.044 C 
ATOM      6  C   UNL     1      47.053 125.945  22.767  1.00  0.00     0.047 A 
ATOM      7  C   UNL     1      45.712 126.041  23.163  1.00  0.00     0.217 A 
ENDROOT
BRANCH   1   8
ATOM      8  O   UNL     1      43.659 124.923  23.911  1.00  0.00    -0.414 OA
BRANCH   8   9
ATOM      9  C   UNL     1      42.545 124.926  23.062  1.00  0.00     0.338 C 
ATOM     10  O   UNL     1      42.703 124.891  21.810  1.00  0.00    -0.246 OA
BRANCH   9  11
ATOM     11  C   UNL     1      41.187 124.981  23.646  1.00  0.00     0.027 C 
ATOM     12  C   UNL     1      40.448 123.872  23.774  1.00  0.00     0.020 C 
ATOM     13  C   UNL     1      40.678 126.285  24.195  1.00  0.00     0.051 C 
ENDBRANCH   9  11
ENDBRANCH   8   9
ENDBRANCH   1   8
BRANCH   2  14
ATOM     14  N   UNL     1      44.839 122.390  23.496  1.00  0.00    -0.236 N 
ATOM     15  H   UNL     1      45.437 121.554  23.298  1.00  0.00     0.376 HD
ATOM     16  H   UNL     1      44.505 122.325  24.488  1.00  0.00     0.376 HD
BRANCH  14  17
ATOM     17  N   UNL     1      43.735 122.376  22.620  1.00  0.00    -0.178 NA
ATOM     18  H   UNL     1      43.331 121.410  22.627  1.00  0.00     0.183 HD
ATOM     19  H   UNL     1      42.994 123.006  23.008  1.00  0.00     0.183 HD
ENDBRANCH  14  17
ENDBRANCH   2  14
BRANCH   7  20
ATOM     20  N   UNL     1      45.085 127.334  23.210  1.00  0.00     0.083 N 
ATOM     21  N   UNL     1      44.376 127.790  24.242  1.00  0.00    -0.062 N 
ATOM     22  N   UNL     1      45.134 128.224  22.221  1.00  0.00    -0.062 N 
ATOM     23  C   UNL     1      43.973 129.023  23.900  1.00  0.00     0.306 A 
ATOM     24  C   UNL     1      44.442 129.293  22.647  1.00  0.00     0.306 A 
ATOM     25  C   UNL     1      43.220 129.941  24.625  1.00  0.00     0.089 A 
ATOM     26  C   UNL     1      44.201 130.504  22.010  1.00  0.00     0.089 A 
ATOM     27  C   UNL     1      42.953 131.182  24.012  1.00  0.00     0.007 A 
ATOM     28  C   UNL     1      43.440 131.462  22.711  1.00  0.00     0.007 A 
ATOM     29  H   UNL     1      44.174 127.275  25.127  1.00  0.00     0.495 HD
ATOM     30  H   UNL     1      45.635 128.108  21.311  1.00  0.00     0.495 HD
ENDBRANCH   7  20
TORSDOF 6
ENDMDL
MODEL 4
REMARK VINA RESULT:      -3.8      2.474      5.760
REMARK SMILES C=C(C)C(=O)Oc1c([NH2+]N)cc(C)cc1-n1[nH+]c2ccccc2[nH+]1
REMARK SMILES IDX 7 1 8 2 11 3 12 4 13 5 14 6 15 7 6 8 4 9 5 10 2 11 1 12 3 13
REMARK SMILES IDX 9 14 10 17 16 20 17 21 24 22 18 23 23 24 19 25 22 26 20 27
REMARK SMILES IDX 21 28
REMARK H PARENT 9 15 9 16 10 18 10 19 17 29 24 30
ROOT
ATOM      1  C   UNL     1      43.949 130.553  21.151  1.00  0.00     0.229 A 
ATOM      2  C   UNL     1      43.296 131.797  21.031  1.00  0.00     0.194 A 
ATOM      3  C   UNL     1      42.719 132.388  22.169  1.00  0.00     0.077 A 
ATOM      4  C   UNL     1      42.818 131.772  23.422  1.00  0.00    -0.042 A 
ATOM      5  C   UNL     1      42.177 132.402  24.623  1.00  0.00     0.044 C 
ATOM      6  C   UNL     1      43.438 130.521  23.530  1.00  0.00     0.047 A 
ATOM      7  C   UNL     1      43.988 129.896  22.402  1.00  0.00     0.217 A 
ENDROOT
BRANCH   1   8
ATOM      8  O   UNL     1      44.541 129.987  20.013  1.00  0.00    -0.414 OA
BRANCH   8   9
ATOM      9  C   UNL     1      45.626 130.559  19.336  1.00  0.00     0.338 C 
ATOM     10  O   UNL     1      46.642 130.945  19.980  1.00  0.00    -0.246 OA
BRANCH   9  11
ATOM     11  C   UNL     1      45.566 130.714  17.867  1.00  0.00     0.027 C 
ATOM     12  C   UNL     1      45.054 131.820  17.313  1.00  0.00     0.020 C 
ATOM     13  C   UNL     1      46.180 129.657  16.993  1.00  0.00     0.051 C 
ENDBRANCH   9  11
ENDBRANCH   8   9
ENDBRANCH   1   8
BRANCH   2  14
ATOM     14  N   UNL     1      43.183 132.450  19.750  1.00  0.00    -0.236 N 
ATOM     15  H   UNL     1      43.918 133.191  19.655  1.00  0.00     0.376 HD
ATOM     16  H   UNL     1      43.303 131.768  18.963  1.00  0.00     0.376 HD
BRANCH  14  17
ATOM     17  N   UNL     1      41.914 133.056  19.665  1.00  0.00    -0.178 NA
ATOM     18  H   UNL     1      42.053 134.094  19.661  1.00  0.00     0.183 HD
ATOM     19  H   UNL     1      41.491 132.814  18.738  1.00  0.00     0.183 HD
ENDBRANCH  14  17
ENDBRANCH   2  14
BRANCH   7  20
ATOM     20  N   UNL     1      44.529 128.570  22.530  1.00  0.00     0.083 N 
ATOM     21  N   UNL     1      45.649 128.155  21.938  1.00  0.00    -0.062 N 
ATOM     22  N   UNL     1      43.967 127.600  23.246  1.00  0.00    -0.062 N 
ATOM     23  C   UNL     1      45.813 126.875  22.309  1.00  0.00     0.306 A 
ATOM     24  C   UNL     1      44.770 126.531  23.119  1.00  0.00     0.306 A 
ATOM     25  C   UNL     1      46.830 125.984  21.986  1.00  0.00     0.089 A 
ATOM     26  C   UNL     1      44.655 125.264  23.680  1.00  0.00     0.089 A 
ATOM     27  C   UNL     1      46.748 124.688  22.535  1.00  0.00     0.007 A 
ATOM     28  C   UNL     1      45.666 124.329  23.377  1.00  0.00     0.007 A 
ATOM     29  H   UNL     1      46.260 128.720  21.308  1.00  0.00     0.495 HD
ATOM     30  H   UNL     1      43.090 127.677  23.809  1.00  0.00     0.495 HD
ENDBRANCH   7  20
TORSDOF 6
ENDMDL
MODEL 5
REMARK VINA RESULT:      -3.7      5.873      8.117
REMARK SMILES C=C(C)C(=O)Oc1c([NH2+]N)cc(C)cc1-n1[nH+]c2ccccc2[nH+]1
REMARK SMILES IDX 7 1 8 2 11 3 12 4 13 5 14 6 15 7 6 8 4 9 5 10 2 11 1 12 3 13
REMARK SMILES IDX 9 14 10 17 16 20 17 21 24 22 18 23 23 24 19 25 22 26 20 27
REMARK SMILES IDX 21 28
REMARK H PARENT 9 15 9 16 10 18 10 19 17 29 24 30
ROOT
ATOM      1  C   UNL     1      41.703 125.571  23.061  1.00  0.00     0.229 A 
ATOM      2  C   UNL     1      41.049 124.323  23.110  1.00  0.00     0.194 A 
ATOM      3  C   UNL     1      39.743 124.247  23.624  1.00  0.00     0.077 A 
ATOM      4  C   UNL     1      39.076 125.399  24.054  1.00  0.00    -0.042 A 
ATOM      5  C   UNL     1      37.691 125.300  24.624  1.00  0.00     0.044 C 
ATOM      6  C   UNL     1      39.742 126.631  24.036  1.00  0.00     0.047 A 
ATOM      7  C   UNL     1      41.058 126.725  23.561  1.00  0.00     0.217 A 
ENDROOT
BRANCH   1   8
ATOM      8  O   UNL     1      42.997 125.637  22.523  1.00  0.00    -0.414 OA
BRANCH   8   9
ATOM      9  C   UNL     1      44.162 125.447  23.277  1.00  0.00     0.338 C 
ATOM     10  O   UNL     1      44.200 125.811  24.485  1.00  0.00    -0.246 OA
BRANCH   9  11
ATOM     11  C   UNL     1      45.345 124.826  22.642  1.00  0.00     0.027 C 
ATOM     12  C   UNL     1      46.584 125.151  23.030  1.00  0.00     0.020 C 
ATOM     13  C   UNL     1      45.143 123.743  21.618  1.00  0.00     0.051 C 
ENDBRANCH   9  11
ENDBRANCH   8   9
ENDBRANCH   1   8
BRANCH   2  14
ATOM     14  N   UNL     1      41.717 123.123  22.671  1.00  0.00    -0.236 N 
ATOM     15  H   UNL     1      41.023 122.351  22.532  1.00  0.00     0.376 HD
ATOM     16  H   UNL     1      42.220 123.277  21.764  1.00  0.00     0.376 HD
BRANCH  14  17
ATOM     17  N   UNL     1      42.637 122.731  23.665  1.00  0.00    -0.178 NA
ATOM     18  H   UNL     1      42.182 122.871  24.597  1.00  0.00     0.183 HD
ATOM     19  H   UNL     1      42.807 121.702  23.574  1.00  0.00     0.183 HD
ENDBRANCH  14  17
ENDBRANCH   2  14
BRANCH   7  20
ATOM     20  N   UNL     1      41.746 127.984  23.647  1.00  0.00     0.083 N 
ATOM     21  N   UNL     1      42.884 128.176  24.313  1.00  0.00    -0.062 N 
ATOM     22  N   UNL     1      41.319 129.109  23.077  1.00  0.00    -0.062 N 
ATOM     23  C   UNL     1      43.200 129.470  24.145  1.00  0.00     0.306 A 
ATOM     24  C   UNL     1      42.229 130.048  23.379  1.00  0.00     0.306 A 
ATOM     25  C   UNL     1      44.297 130.181  24.616  1.00  0.00     0.089 A 
ATOM     26  C   UNL     1      42.273 131.390  23.016  1.00  0.00     0.089 A 
ATOM     27  C   UNL     1      44.377 131.545  24.270  1.00  0.00     0.007 A 
ATOM     28  C   UNL     1      43.370 132.147  23.475  1.00  0.00     0.007 A 
ATOM     29  H   UNL     1      43.408 127.458  24.860  1.00  0.00     0.495 HD
ATOM     30  H   UNL     1      40.458 129.217  22.495  1.00  0.00     0.495 HD
ENDBRANCH   7  20
TORSDOF 6
ENDMDL
MODEL 6
REMARK VINA RESULT:      -3.7      1.786      3.844
REMARK SMILES C=C(C)C(=O)Oc1c([NH2+]N)cc(C)cc1-n1[nH+]c2ccccc2[nH+]1
REMARK SMILES IDX 7 1 8 2 11 3 12 4 13 5 14 6 15 7 6 8 4 9 5 10 2 11 1 12 3 13
REMARK SMILES IDX 9 14 10 17 16 20 17 21 24 22 18 23 23 24 19 25 22 26 20 27
REMARK SMILES IDX 21 28
REMARK H PARENT 9 15 9 16 10 18 10 19 17 29 24 30
ROOT
ATOM      1  C   UNL     1      44.303 131.120  21.484  1.00  0.00     0.229 A 
ATOM      2  C   UNL     1      43.670 131.460  22.697  1.00  0.00     0.194 A 
ATOM      3  C   UNL     1      42.505 132.246  22.673  1.00  0.00     0.077 A 
ATOM      4  C   UNL     1      41.949 132.663  21.459  1.00  0.00    -0.042 A 
ATOM      5  C   UNL     1      40.719 133.522  21.448  1.00  0.00     0.044 C 
ATOM      6  C   UNL     1      42.599 132.353  20.258  1.00  0.00     0.047 A 
ATOM      7  C   UNL     1      43.783 131.601  20.260  1.00  0.00     0.217 A 
ENDROOT
BRANCH   1   8
ATOM      8  O   UNL     1      45.450 130.315  21.521  1.00  0.00    -0.414 OA
BRANCH   8   9
ATOM      9  C   UNL     1      45.416 128.915  21.540  1.00  0.00     0.338 C 
ATOM     10  O   UNL     1      45.908 128.256  20.582  1.00  0.00    -0.246 OA
BRANCH   9  11
ATOM     11  C   UNL     1      44.792 128.220  22.687  1.00  0.00     0.027 C 
ATOM     12  C   UNL     1      45.543 127.619  23.618  1.00  0.00     0.020 C 
ATOM     13  C   UNL     1      43.299 128.280  22.855  1.00  0.00     0.051 C 
ENDBRANCH   9  11
ENDBRANCH   8   9
ENDBRANCH   1   8
BRANCH   2  14
ATOM     14  N   UNL     1      44.225 131.039  23.961  1.00  0.00    -0.236 N 
ATOM     15  H   UNL     1      43.476 130.626  24.565  1.00  0.00     0.376 HD
ATOM     16  H   UNL     1      44.973 130.318  23.827  1.00  0.00     0.376 HD
BRANCH  14  17
ATOM     17  N   UNL     1      44.763 132.167  24.613  1.00  0.00    -0.178 NA
ATOM     18  H   UNL     1      44.020 132.904  24.647  1.00  0.00     0.183 HD
ATOM     19  H   UNL     1      44.966 131.911  25.608  1.00  0.00     0.183 HD
ENDBRANCH  14  17
ENDBRANCH   2  14
BRANCH   7  20
ATOM     20  N   UNL     1      44.477 131.383  19.020  1.00  0.00     0.083 N 
ATOM     21  N   UNL     1      44.487 132.242  18.002  1.00  0.00    -0.062 N 
ATOM     22  N   UNL     1      45.184 130.290  18.742  1.00  0.00    -0.062 N 
ATOM     23  C   UNL     1      45.244 131.679  17.047  1.00  0.00     0.306 A 
ATOM     24  C   UNL     1      45.676 130.469  17.506  1.00  0.00     0.306 A 
ATOM     25  C   UNL     1      45.591 132.165  15.791  1.00  0.00     0.089 A 
ATOM     26  C   UNL     1      46.494 129.638  16.749  1.00  0.00     0.089 A 
ATOM     27  C   UNL     1      46.420 131.352  14.993  1.00  0.00     0.007 A 
ATOM     28  C   UNL     1      46.868 130.094  15.468  1.00  0.00     0.007 A 
ATOM     29  H   UNL     1      43.992 133.161  17.964  1.00  0.00     0.495 HD
ATOM     30  H   UNL     1      45.336 129.475  19.379  1.00  0.00     0.495 HD
ENDBRANCH   7  20
TORSDOF 6
ENDMDL
MODEL 7
REMARK VINA RESULT:      -3.6      2.484      5.765
REMARK SMILES C=C(C)C(=O)Oc1c([NH2+]N)cc(C)cc1-n1[nH+]c2ccccc2[nH+]1
REMARK SMILES IDX 7 1 8 2 11 3 12 4 13 5 14 6 15 7 6 8 4 9 5 10 2 11 1 12 3 13
REMARK SMILES IDX 9 14 10 17 16 20 17 21 24 22 18 23 23 24 19 25 22 26 20 27
REMARK SMILES IDX 21 28
REMARK H PARENT 9 15 9 16 10 18 10 19 17 29 24 30
ROOT
ATOM      1  C   UNL     1      43.948 130.547  21.233  1.00  0.00     0.229 A 
ATOM      2  C   UNL     1      43.135 131.683  21.043  1.00  0.00     0.194 A 
ATOM      3  C   UNL     1      42.527 132.292  22.154  1.00  0.00     0.077 A 
ATOM      4  C   UNL     1      42.749 131.804  23.447  1.00  0.00    -0.042 A 
ATOM      5  C   UNL     1      42.075 132.449  24.622  1.00  0.00     0.044 C 
ATOM      6  C   UNL     1      43.529 130.655  23.628  1.00  0.00     0.047 A 
ATOM      7  C   UNL     1      44.115 130.009  22.530  1.00  0.00     0.217 A 
ENDROOT
BRANCH   1   8
ATOM      8  O   UNL     1      44.568 129.964  20.118  1.00  0.00    -0.414 OA
BRANCH   8   9
ATOM      9  C   UNL     1      45.646 130.544  19.438  1.00  0.00     0.338 C 
ATOM     10  O   UNL     1      46.652 130.957  20.081  1.00  0.00    -0.246 OA
BRANCH   9  11
ATOM     11  C   UNL     1      45.590 130.677  17.966  1.00  0.00     0.027 C 
ATOM     12  C   UNL     1      46.151 129.757  17.171  1.00  0.00     0.020 C 
ATOM     13  C   UNL     1      44.804 131.807  17.362  1.00  0.00     0.051 C 
ENDBRANCH   9  11
ENDBRANCH   8   9
ENDBRANCH   1   8
BRANCH   2  14
ATOM     14  N   UNL     1      42.894 132.204  19.720  1.00  0.00    -0.236 N 
ATOM     15  H   UNL     1      43.786 132.567  19.305  1.00  0.00     0.376 HD
ATOM     16  H   UNL     1      42.515 131.464  19.082  1.00  0.00     0.376 HD
BRANCH  14  17
ATOM     17  N   UNL     1      41.974 133.267  19.816  1.00  0.00    -0.178 NA
ATOM     18  H   UNL     1      42.355 133.962  20.501  1.00  0.00     0.183 HD
ATOM     19  H   UNL     1      41.935 133.759  18.892  1.00  0.00     0.183 HD
ENDBRANCH  14  17
ENDBRANCH   2  14
BRANCH   7  20
ATOM     20  N   UNL     1      44.827 128.778  22.739  1.00  0.00     0.083 N 
ATOM     21  N   UNL     1      45.080 128.249  23.935  1.00  0.00    -0.062 N 
ATOM     22  N   UNL     1      45.327 128.029  21.759  1.00  0.00    -0.062 N 
ATOM     23  C   UNL     1      45.752 127.110  23.704  1.00  0.00     0.306 A 
ATOM     24  C   UNL     1      45.905 126.974  22.355  1.00  0.00     0.306 A 
ATOM     25  C   UNL     1      46.236 126.169  24.606  1.00  0.00     0.089 A 
ATOM     26  C   UNL     1      46.556 125.883  21.789  1.00  0.00     0.089 A 
ATOM     27  C   UNL     1      46.903 125.049  24.071  1.00  0.00     0.007 A 
ATOM     28  C   UNL     1      47.063 124.906  22.670  1.00  0.00     0.007 A 
ATOM     29  H   UNL     1      44.813 128.655  24.859  1.00  0.00     0.495 HD
ATOM     30  H   UNL     1      45.254 128.224  20.735  1.00  0.00     0.495 HD
ENDBRANCH   7  20
TORSDOF 6
ENDMDL
MODEL 8
REMARK VINA RESULT:      -3.6      1.244      1.974
REMARK SMILES C=C(C)C(=O)Oc1c([NH2+]N)cc(C)cc1-n1[nH+]c2ccccc2[nH+]1
REMARK SMILES IDX 7 1 8 2 11 3 12 4 13 5 14 6 15 7 6 8 4 9 5 10 2 11 1 12 3 13
REMARK SMILES IDX 9 14 10 17 16 20 17 21 24 22 18 23 23 24 19 25 22 26 20 27
REMARK SMILES IDX 21 28
REMARK H PARENT 9 15 9 16 10 18 10 19 17 29 24 30
ROOT
ATOM      1  C   UNL     1      44.676 130.312  21.720  1.00  0.00     0.229 A 
ATOM      2  C   UNL     1      44.392 129.754  22.983  1.00  0.00     0.194 A 
ATOM      3  C   UNL     1      44.805 128.441  23.268  1.00  0.00     0.077 A 
ATOM      4  C   UNL     1      45.523 127.697  22.324  1.00  0.00    -0.042 A 
ATOM      5  C   UNL     1      45.936 126.288  22.632  1.00  0.00     0.044 C 
ATOM      6  C   UNL     1      45.772 128.242  21.059  1.00  0.00     0.047 A 
ATOM      7  C   UNL     1      45.338 129.536  20.740  1.00  0.00     0.217 A 
ENDROOT
BRANCH   1   8
ATOM      8  O   UNL     1      44.280 131.631  21.458  1.00  0.00    -0.414 OA
BRANCH   8   9
ATOM      9  C   UNL     1      42.959 132.084  21.578  1.00  0.00     0.338 C 
ATOM     10  O   UNL     1      42.423 132.175  22.718  1.00  0.00    -0.246 OA
BRANCH   9  11
ATOM     11  C   UNL     1      42.201 132.443  20.360  1.00  0.00     0.027 C 
ATOM     12  C   UNL     1      42.366 131.759  19.222  1.00  0.00     0.020 C 
ATOM     13  C   UNL     1      41.161 133.525  20.438  1.00  0.00     0.051 C 
ENDBRANCH   9  11
ENDBRANCH   8   9
ENDBRANCH   1   8
BRANCH   2  14
ATOM     14  N   UNL     1      43.655 130.503  23.971  1.00  0.00    -0.236 N 
ATOM     15  H   UNL     1      44.285 130.777  24.762  1.00  0.00     0.376 HD
ATOM     16  H   UNL     1      43.247 131.376  23.560  1.00  0.00     0.376 HD
BRANCH  14  17
ATOM     17  N   UNL     1      42.624 129.686  24.476  1.00  0.00    -0.178 NA
ATOM     18  H   UNL     1      42.862 129.442  25.465  1.00  0.00     0.183 HD
ATOM     19  H   UNL     1      41.743 130.251  24.519  1.00  0.00     0.183 HD
ENDBRANCH  14  17
ENDBRANCH   2  14
BRANCH   7  20
ATOM     20  N   UNL     1      45.523 130.029  19.402  1.00  0.00     0.083 N 
ATOM     21  N   UNL     1      46.013 129.306  18.395  1.00  0.00    -0.062 N 
ATOM     22  N   UNL     1      45.236 131.270  19.017  1.00  0.00    -0.062 N 
ATOM     23  C   UNL     1      46.020 130.116  17.325  1.00  0.00     0.306 A 
ATOM     24  C   UNL     1      45.539 131.334  17.710  1.00  0.00     0.306 A 
ATOM     25  C   UNL     1      46.417 129.853  16.019  1.00  0.00     0.089 A 
ATOM     26  C   UNL     1      45.411 132.395  16.821  1.00  0.00     0.089 A 
ATOM     27  C   UNL     1      46.304 130.905  15.087  1.00  0.00     0.007 A 
ATOM     28  C   UNL     1      45.804 132.170  15.487  1.00  0.00     0.007 A 
ATOM     29  H   UNL     1      46.333 128.313  18.446  1.00  0.00     0.495 HD
ATOM     30  H   UNL     1      44.832 132.024  19.617  1.00  0.00     0.495 HD
ENDBRANCH   7  20
TORSDOF 6
ENDMDL
MODEL 9
REMARK VINA RESULT:      -3.5      1.001      1.710
REMARK SMILES C=C(C)C(=O)Oc1c([NH2+]N)cc(C)cc1-n1[nH+]c2ccccc2[nH+]1
REMARK SMILES IDX 7 1 8 2 11 3 12 4 13 5 14 6 15 7 6 8 4 9 5 10 2 11 1 12 3 13
REMARK SMILES IDX 9 14 10 17 16 20 17 21 24 22 18 23 23 24 19 25 22 26 20 27
REMARK SMILES IDX 21 28
REMARK H PARENT 9 15 9 16 10 18 10 19 17 29 24 30
ROOT
ATOM      1  C   UNL     1      44.607 131.035  20.353  1.00  0.00     0.229 A 
ATOM      2  C   UNL     1      44.194 130.789  21.678  1.00  0.00     0.194 A 
ATOM      3  C   UNL     1      44.621 129.618  22.329  1.00  0.00     0.077 A 
ATOM      4  C   UNL     1      45.478 128.716  21.688  1.00  0.00    -0.042 A 
ATOM      5  C   UNL     1      45.906 127.458  22.385  1.00  0.00     0.044 C 
ATOM      6  C   UNL     1      45.857 128.947  20.360  1.00  0.00     0.047 A 
ATOM      7  C   UNL     1      45.414 130.090  19.679  1.00  0.00     0.217 A 
ENDROOT
BRANCH   1   8
ATOM      8  O   UNL     1      44.194 132.219  19.724  1.00  0.00    -0.414 OA
BRANCH   8   9
ATOM      9  C   UNL     1      43.117 132.288  18.831  1.00  0.00     0.338 C 
ATOM     10  O   UNL     1      43.329 132.350  17.588  1.00  0.00    -0.246 OA
BRANCH   9  11
ATOM     11  C   UNL     1      41.736 132.299  19.359  1.00  0.00     0.027 C 
ATOM     12  C   UNL     1      40.851 131.365  18.989  1.00  0.00     0.020 C 
ATOM     13  C   UNL     1      41.358 133.315  20.401  1.00  0.00     0.051 C 
ENDBRANCH   9  11
ENDBRANCH   8   9
ENDBRANCH   1   8
BRANCH   2  14
ATOM     14  N   UNL     1      43.313 131.706  22.358  1.00  0.00    -0.236 N 
ATOM     15  H   UNL     1      43.853 132.286  23.043  1.00  0.00     0.376 HD
ATOM     16  H   UNL     1      42.841 132.352  21.682  1.00  0.00     0.376 HD
BRANCH  14  17
ATOM     17  N   UNL     1      42.344 130.960  23.060  1.00  0.00    -0.178 NA
ATOM     18  H   UNL     1      41.624 130.639  22.371  1.00  0.00     0.183 HD
ATOM     19  H   UNL     1      42.798 130.094  23.434  1.00  0.00     0.183 HD
ENDBRANCH  14  17
ENDBRANCH   2  14
BRANCH   7  20
ATOM     20  N   UNL     1      45.742 130.248  18.288  1.00  0.00     0.083 N 
ATOM     21  N   UNL     1      46.039 129.243  17.466  1.00  0.00    -0.062 N 
ATOM     22  N   UNL     1      45.796 131.422  17.663  1.00  0.00    -0.062 N 
ATOM     23  C   UNL     1      46.274 129.799  16.267  1.00  0.00     0.306 A 
ATOM     24  C   UNL     1      46.124 131.150  16.389  1.00  0.00     0.306 A 
ATOM     25  C   UNL     1      46.607 129.194  15.060  1.00  0.00     0.089 A 
ATOM     26  C   UNL     1      46.293 132.015  15.314  1.00  0.00     0.089 A 
ATOM     27  C   UNL     1      46.787 130.038  13.945  1.00  0.00     0.007 A 
ATOM     28  C   UNL     1      46.632 131.441  14.072  1.00  0.00     0.007 A 
ATOM     29  H   UNL     1      46.085 128.231  17.719  1.00  0.00     0.495 HD
ATOM     30  H   UNL     1      45.597 132.356  18.087  1.00  0.00     0.495 HD
ENDBRANCH   7  20
TORSDOF 6
ENDMDL


