REMARK SMILES C=Cc1ccc(-c2c[nH+]c3oc[nH+]c3c2)c(C#N)c1F
REMARK SMILES IDX 3 1 4 2 5 3 6 4 16 5 19 6 20 7 2 8 1 9 17 10 18 11 7 12 8 13
REMARK SMILES IDX 15 14 9 15 14 16 10 17 13 18 11 19 12 20
REMARK H PARENT 9 21 13 22
ROOT
ATOM      1  C   UNL     1      -2.506  -0.176  -1.118  1.00  0.00     0.011 A 
ATOM      2  C   UNL     1      -1.527   0.747  -1.527  1.00  0.00     0.012 A 
ATOM      3  C   UNL     1      -0.182   0.538  -1.217  1.00  0.00     0.011 A 
ATOM      4  C   UNL     1       0.220  -0.587  -0.483  1.00  0.00     0.009 A 
ATOM      5  C   UNL     1      -0.757  -1.520  -0.066  1.00  0.00     0.096 A 
ATOM      6  C   UNL     1      -2.110  -1.306  -0.378  1.00  0.00     0.148 A 
ATOM      7  F   UNL     1      -3.041  -2.214   0.021  1.00  0.00    -0.205 F 
ENDROOT
BRANCH   1   8
ATOM      8  C   UNL     1      -3.947   0.023  -1.419  1.00  0.00     0.003 C 
ATOM      9  C   UNL     1      -4.402   0.786  -2.414  1.00  0.00     0.009 C 
ENDBRANCH   1   8
BRANCH   5  10
ATOM     10  C   UNL     1      -0.390  -2.726   0.640  1.00  0.00     0.103 C 
ATOM     11  N   UNL     1      -0.095  -3.692   1.206  1.00  0.00    -0.192 NA
ENDBRANCH   5  10
BRANCH   4  12
ATOM     12  C   UNL     1       1.658  -0.758  -0.166  1.00  0.00     0.054 A 
ATOM     13  C   UNL     1       2.630  -0.720  -1.204  1.00  0.00     0.319 A 
ATOM     14  C   UNL     1       2.086  -0.928   1.172  1.00  0.00     0.105 A 
ATOM     15  N   UNL     1       3.962  -0.863  -0.921  1.00  0.00    -0.173 N 
ATOM     16  C   UNL     1       3.450  -1.067   1.390  1.00  0.00     0.320 A 
ATOM     17  C   UNL     1       4.339  -1.033   0.369  1.00  0.00     0.449 A 
ATOM     18  N   UNL     1       4.115  -1.241   2.541  1.00  0.00    -0.171 N 
ATOM     19  O   UNL     1       5.552  -1.182   0.836  1.00  0.00    -0.349 OA
ATOM     20  C   UNL     1       5.413  -1.308   2.148  1.00  0.00     0.526 A 
ATOM     21  H   UNL     1       4.674  -0.839  -1.685  1.00  0.00     0.457 HD
ATOM     22  H   UNL     1       3.730  -1.309   3.509  1.00  0.00     0.457 HD
ENDBRANCH   4  12
TORSDOF 3


