MODEL 1
REMARK VINA RESULT:      -6.7      0.000      0.000
REMARK SMILES CC(=O)c1ccc(Oc2c([NH2+]c3ccc(C)cc3)ccc3cc[nH]c23)nn1
REMARK SMILES IDX 9 1 10 2 19 3 20 4 21 5 22 6 23 7 24 8 25 9 8 11 7 12 4 13
REMARK SMILES IDX 5 14 27 15 6 16 26 17 2 18 1 19 3 20 11 21 12 24 13 25 18 26
REMARK SMILES IDX 14 27 17 28 15 29 16 30
REMARK H PARENT 24 10 11 22 11 23
ROOT
ATOM      1  C   UNL     1      44.458 130.547  21.452  1.00  0.00     0.214 A 
ATOM      2  C   UNL     1      44.752 130.869  20.101  1.00  0.00     0.180 A 
ATOM      3  C   UNL     1      43.935 131.804  19.410  1.00  0.00     0.073 A 
ATOM      4  C   UNL     1      42.844 132.419  20.046  1.00  0.00     0.017 A 
ATOM      5  C   UNL     1      42.597 132.094  21.374  1.00  0.00     0.004 A 
ATOM      6  C   UNL     1      41.647 132.579  22.245  1.00  0.00     0.028 A 
ATOM      7  C   UNL     1      41.910 131.947  23.455  1.00  0.00     0.083 A 
ATOM      8  N   UNL     1      42.966 131.112  23.341  1.00  0.00    -0.358 N 
ATOM      9  C   UNL     1      43.373 131.198  22.060  1.00  0.00     0.095 A 
ATOM     10  H   UNL     1      43.387 130.545  24.109  1.00  0.00     0.166 HD
ENDROOT
BRANCH   1  11
ATOM     11  O   UNL     1      45.257 129.631  22.147  1.00  0.00    -0.429 OA
BRANCH  11  12
ATOM     12  C   UNL     1      44.853 128.334  22.474  1.00  0.00     0.239 A 
ATOM     13  C   UNL     1      44.022 125.777  23.113  1.00  0.00     0.129 A 
ATOM     14  C   UNL     1      45.086 125.954  22.218  1.00  0.00     0.040 A 
ATOM     15  N   UNL     1      43.420 126.878  23.641  1.00  0.00    -0.144 NA
ATOM     16  C   UNL     1      45.501 127.244  21.896  1.00  0.00     0.073 A 
ATOM     17  N   UNL     1      43.820 128.113  23.332  1.00  0.00    -0.111 NA
BRANCH  13  18
ATOM     18  C   UNL     1      43.547 124.428  23.486  1.00  0.00     0.180 C 
ATOM     19  C   UNL     1      42.511 124.252  24.553  1.00  0.00     0.095 C 
ATOM     20  O   UNL     1      44.012 123.408  22.908  1.00  0.00    -0.293 OA
ENDBRANCH  13  18
ENDBRANCH  11  12
ENDBRANCH   1  11
BRANCH   2  21
ATOM     21  N   UNL     1      45.882 130.271  19.433  1.00  0.00    -0.278 N 
ATOM     22  H   UNL     1      46.774 130.668  19.809  1.00  0.00     0.358 HD
ATOM     23  H   UNL     1      45.914 129.242  19.624  1.00  0.00     0.358 HD
BRANCH  21  24
ATOM     24  C   UNL     1      45.783 130.491  18.012  1.00  0.00     0.134 A 
ATOM     25  C   UNL     1      46.117 129.469  17.104  1.00  0.00     0.068 A 
ATOM     26  C   UNL     1      45.369 131.739  17.512  1.00  0.00     0.068 A 
ATOM     27  C   UNL     1      46.042 129.694  15.726  1.00  0.00     0.009 A 
ATOM     28  C   UNL     1      45.296 131.962  16.134  1.00  0.00     0.009 A 
ATOM     29  C   UNL     1      45.647 130.946  15.233  1.00  0.00    -0.051 A 
ATOM     30  C   UNL     1      45.531 131.174  13.755  1.00  0.00     0.044 C 
ENDBRANCH  21  24
ENDBRANCH   2  21
TORSDOF 5
ENDMDL
MODEL 2
REMARK VINA RESULT:      -6.6      2.305      7.169
REMARK SMILES CC(=O)c1ccc(Oc2c([NH2+]c3ccc(C)cc3)ccc3cc[nH]c23)nn1
REMARK SMILES IDX 9 1 10 2 19 3 20 4 21 5 22 6 23 7 24 8 25 9 8 11 7 12 4 13
REMARK SMILES IDX 5 14 27 15 6 16 26 17 2 18 1 19 3 20 11 21 12 24 13 25 18 26
REMARK SMILES IDX 14 27 17 28 15 29 16 30
REMARK H PARENT 24 10 11 22 11 23
ROOT
ATOM      1  C   UNL     1      44.263 131.165  20.495  1.00  0.00     0.214 A 
ATOM      2  C   UNL     1      44.160 130.999  21.902  1.00  0.00     0.180 A 
ATOM      3  C   UNL     1      43.052 131.558  22.594  1.00  0.00     0.073 A 
ATOM      4  C   UNL     1      42.054 132.266  21.907  1.00  0.00     0.017 A 
ATOM      5  C   UNL     1      42.177 132.394  20.529  1.00  0.00     0.004 A 
ATOM      6  C   UNL     1      41.332 132.977  19.611  1.00  0.00     0.028 A 
ATOM      7  C   UNL     1      41.927 132.751  18.376  1.00  0.00     0.083 A 
ATOM      8  N   UNL     1      43.083 132.064  18.518  1.00  0.00    -0.358 N 
ATOM      9  C   UNL     1      43.235 131.862  19.841  1.00  0.00     0.095 A 
ATOM     10  H   UNL     1      43.704 131.740  17.746  1.00  0.00     0.166 HD
ENDROOT
BRANCH   1  11
ATOM     11  O   UNL     1      45.346 130.616  19.800  1.00  0.00    -0.429 OA
BRANCH  11  12
ATOM     12  C   UNL     1      45.511 130.705  18.414  1.00  0.00     0.239 A 
ATOM     13  C   UNL     1      45.856 130.908  15.681  1.00  0.00     0.129 A 
ATOM     14  C   UNL     1      46.146 129.698  16.325  1.00  0.00     0.040 A 
ATOM     15  N   UNL     1      45.417 131.959  16.427  1.00  0.00    -0.144 NA
ATOM     16  C   UNL     1      45.973 129.599  17.703  1.00  0.00     0.073 A 
ATOM     17  N   UNL     1      45.251 131.862  17.746  1.00  0.00    -0.111 NA
BRANCH  13  18
ATOM     18  C   UNL     1      46.023 131.061  14.220  1.00  0.00     0.180 C 
ATOM     19  C   UNL     1      47.299 131.600  13.650  1.00  0.00     0.095 C 
ATOM     20  O   UNL     1      45.089 130.740  13.437  1.00  0.00    -0.293 OA
ENDBRANCH  13  18
ENDBRANCH  11  12
ENDBRANCH   1  11
BRANCH   2  21
ATOM     21  N   UNL     1      45.160 130.253  22.628  1.00  0.00    -0.278 N 
ATOM     22  H   UNL     1      46.060 130.244  22.094  1.00  0.00     0.358 HD
ATOM     23  H   UNL     1      45.365 130.716  23.544  1.00  0.00     0.358 HD
BRANCH  21  24
ATOM     24  C   UNL     1      44.691 128.910  22.864  1.00  0.00     0.134 A 
ATOM     25  C   UNL     1      43.746 128.649  23.873  1.00  0.00     0.068 A 
ATOM     26  C   UNL     1      45.190 127.838  22.102  1.00  0.00     0.068 A 
ATOM     27  C   UNL     1      43.312 127.343  24.116  1.00  0.00     0.009 A 
ATOM     28  C   UNL     1      44.755 126.532  22.347  1.00  0.00     0.009 A 
ATOM     29  C   UNL     1      43.826 126.275  23.365  1.00  0.00    -0.051 A 
ATOM     30  C   UNL     1      43.331 124.878  23.601  1.00  0.00     0.044 C 
ENDBRANCH  21  24
ENDBRANCH   2  21
TORSDOF 5
ENDMDL
MODEL 3
REMARK VINA RESULT:      -6.3      2.165      6.863
REMARK SMILES CC(=O)c1ccc(Oc2c([NH2+]c3ccc(C)cc3)ccc3cc[nH]c23)nn1
REMARK SMILES IDX 9 1 10 2 19 3 20 4 21 5 22 6 23 7 24 8 25 9 8 11 7 12 4 13
REMARK SMILES IDX 5 14 27 15 6 16 26 17 2 18 1 19 3 20 11 21 12 24 13 25 18 26
REMARK SMILES IDX 14 27 17 28 15 29 16 30
REMARK H PARENT 24 10 11 22 11 23
ROOT
ATOM      1  C   UNL     1      44.230 131.095  21.081  1.00  0.00     0.214 A 
ATOM      2  C   UNL     1      44.146 130.739  22.453  1.00  0.00     0.180 A 
ATOM      3  C   UNL     1      43.082 131.248  23.245  1.00  0.00     0.073 A 
ATOM      4  C   UNL     1      42.108 132.092  22.688  1.00  0.00     0.017 A 
ATOM      5  C   UNL     1      42.210 132.405  21.339  1.00  0.00     0.004 A 
ATOM      6  C   UNL     1      41.379 133.150  20.533  1.00  0.00     0.028 A 
ATOM      7  C   UNL     1      41.938 133.071  19.263  1.00  0.00     0.083 A 
ATOM      8  N   UNL     1      43.060 132.317  19.279  1.00  0.00    -0.358 N 
ATOM      9  C   UNL     1      43.227 131.924  20.556  1.00  0.00     0.095 A 
ATOM     10  H   UNL     1      43.649 132.074  18.453  1.00  0.00     0.166 HD
ENDROOT
BRANCH   1  11
ATOM     11  O   UNL     1      45.271 130.598  20.288  1.00  0.00    -0.429 OA
BRANCH  11  12
ATOM     12  C   UNL     1      45.310 130.701  18.895  1.00  0.00     0.239 A 
ATOM     13  C   UNL     1      45.400 130.937  16.144  1.00  0.00     0.129 A 
ATOM     14  C   UNL     1      45.984 129.822  16.760  1.00  0.00     0.040 A 
ATOM     15  N   UNL     1      44.806 131.882  16.924  1.00  0.00    -0.144 NA
ATOM     16  C   UNL     1      45.940 129.708  18.148  1.00  0.00     0.073 A 
ATOM     17  N   UNL     1      44.763 131.769  18.252  1.00  0.00    -0.111 NA
BRANCH  13  18
ATOM     18  C   UNL     1      45.421 131.103  14.675  1.00  0.00     0.180 C 
ATOM     19  C   UNL     1      46.704 130.979  13.912  1.00  0.00     0.095 C 
ATOM     20  O   UNL     1      44.356 131.352  14.048  1.00  0.00    -0.293 OA
ENDBRANCH  13  18
ENDBRANCH  11  12
ENDBRANCH   1  11
BRANCH   2  21
ATOM     21  N   UNL     1      45.120 129.852  23.043  1.00  0.00    -0.278 N 
ATOM     22  H   UNL     1      46.050 129.980  22.579  1.00  0.00     0.358 HD
ATOM     23  H   UNL     1      45.260 130.086  24.054  1.00  0.00     0.358 HD
BRANCH  21  24
ATOM     24  C   UNL     1      44.673 128.487  22.924  1.00  0.00     0.134 A 
ATOM     25  C   UNL     1      45.372 127.572  22.116  1.00  0.00     0.068 A 
ATOM     26  C   UNL     1      43.518 128.055  23.601  1.00  0.00     0.068 A 
ATOM     27  C   UNL     1      44.922 126.255  21.984  1.00  0.00     0.009 A 
ATOM     28  C   UNL     1      43.069 126.738  23.468  1.00  0.00     0.009 A 
ATOM     29  C   UNL     1      43.759 125.835  22.646  1.00  0.00    -0.051 A 
ATOM     30  C   UNL     1      43.298 124.411  22.534  1.00  0.00     0.044 C 
ENDBRANCH  21  24
ENDBRANCH   2  21
TORSDOF 5
ENDMDL
MODEL 4
REMARK VINA RESULT:      -6.0      2.183      3.370
REMARK SMILES CC(=O)c1ccc(Oc2c([NH2+]c3ccc(C)cc3)ccc3cc[nH]c23)nn1
REMARK SMILES IDX 9 1 10 2 19 3 20 4 21 5 22 6 23 7 24 8 25 9 8 11 7 12 4 13
REMARK SMILES IDX 5 14 27 15 6 16 26 17 2 18 1 19 3 20 11 21 12 24 13 25 18 26
REMARK SMILES IDX 14 27 17 28 15 29 16 30
REMARK H PARENT 24 10 11 22 11 23
ROOT
ATOM      1  C   UNL     1      44.885 131.140  18.606  1.00  0.00     0.214 A 
ATOM      2  C   UNL     1      45.319 130.866  17.282  1.00  0.00     0.180 A 
ATOM      3  C   UNL     1      44.445 131.118  16.192  1.00  0.00     0.073 A 
ATOM      4  C   UNL     1      43.159 131.641  16.402  1.00  0.00     0.017 A 
ATOM      5  C   UNL     1      42.774 131.915  17.709  1.00  0.00     0.004 A 
ATOM      6  C   UNL     1      41.613 132.475  18.194  1.00  0.00     0.028 A 
ATOM      7  C   UNL     1      41.804 132.571  19.567  1.00  0.00     0.083 A 
ATOM      8  N   UNL     1      43.019 132.094  19.918  1.00  0.00    -0.358 N 
ATOM      9  C   UNL     1      43.601 131.682  18.775  1.00  0.00     0.095 A 
ATOM     10  H   UNL     1      43.421 132.082  20.880  1.00  0.00     0.166 HD
ENDROOT
BRANCH   1  11
ATOM     11  O   UNL     1      45.738 130.901  19.690  1.00  0.00    -0.429 OA
BRANCH  11  12
ATOM     12  C   UNL     1      45.414 130.076  20.771  1.00  0.00     0.239 A 
ATOM     13  C   UNL     1      44.808 128.433  22.908  1.00  0.00     0.129 A 
ATOM     14  C   UNL     1      44.477 129.793  22.968  1.00  0.00     0.040 A 
ATOM     15  N   UNL     1      45.429 127.957  21.793  1.00  0.00    -0.144 NA
ATOM     16  C   UNL     1      44.787 130.620  21.890  1.00  0.00     0.073 A 
ATOM     17  N   UNL     1      45.723 128.750  20.762  1.00  0.00    -0.111 NA
BRANCH  13  18
ATOM     18  C   UNL     1      44.499 127.517  24.027  1.00  0.00     0.180 C 
ATOM     19  C   UNL     1      43.085 127.302  24.469  1.00  0.00     0.095 C 
ATOM     20  O   UNL     1      45.429 126.907  24.623  1.00  0.00    -0.293 OA
ENDBRANCH  13  18
ENDBRANCH  11  12
ENDBRANCH   1  11
BRANCH   2  21
ATOM     21  N   UNL     1      46.645 130.352  17.037  1.00  0.00    -0.278 N 
ATOM     22  H   UNL     1      47.342 130.856  17.633  1.00  0.00     0.358 HD
ATOM     23  H   UNL     1      46.700 129.342  17.308  1.00  0.00     0.358 HD
BRANCH  21  24
ATOM     24  C   UNL     1      46.972 130.490  15.640  1.00  0.00     0.134 A 
ATOM     25  C   UNL     1      46.767 131.712  14.973  1.00  0.00     0.068 A 
ATOM     26  C   UNL     1      47.483 129.397  14.917  1.00  0.00     0.068 A 
ATOM     27  C   UNL     1      47.062 131.836  13.613  1.00  0.00     0.009 A 
ATOM     28  C   UNL     1      47.777 129.522  13.556  1.00  0.00     0.009 A 
ATOM     29  C   UNL     1      47.554 130.737  12.892  1.00  0.00    -0.051 A 
ATOM     30  C   UNL     1      47.906 130.882  11.441  1.00  0.00     0.044 C 
ENDBRANCH  21  24
ENDBRANCH   2  21
TORSDOF 5
ENDMDL
MODEL 5
REMARK VINA RESULT:      -4.9      2.739      7.561
REMARK SMILES CC(=O)c1ccc(Oc2c([NH2+]c3ccc(C)cc3)ccc3cc[nH]c23)nn1
REMARK SMILES IDX 9 1 10 2 19 3 20 4 21 5 22 6 23 7 24 8 25 9 8 11 7 12 4 13
REMARK SMILES IDX 5 14 27 15 6 16 26 17 2 18 1 19 3 20 11 21 12 24 13 25 18 26
REMARK SMILES IDX 14 27 17 28 15 29 16 30
REMARK H PARENT 24 10 11 22 11 23
ROOT
ATOM      1  C   UNL     1      44.363 131.334  19.474  1.00  0.00     0.214 A 
ATOM      2  C   UNL     1      44.115 131.363  20.872  1.00  0.00     0.180 A 
ATOM      3  C   UNL     1      42.863 131.835  21.351  1.00  0.00     0.073 A 
ATOM      4  C   UNL     1      41.866 132.268  20.462  1.00  0.00     0.017 A 
ATOM      5  C   UNL     1      42.137 132.208  19.101  1.00  0.00     0.004 A 
ATOM      6  C   UNL     1      41.336 132.509  18.022  1.00  0.00     0.028 A 
ATOM      7  C   UNL     1      42.103 132.200  16.905  1.00  0.00     0.083 A 
ATOM      8  N   UNL     1      43.318 131.733  17.271  1.00  0.00    -0.358 N 
ATOM      9  C   UNL     1      43.335 131.754  18.617  1.00  0.00     0.095 A 
ATOM     10  H   UNL     1      44.068 131.400  16.626  1.00  0.00     0.166 HD
ENDROOT
BRANCH   1  11
ATOM     11  O   UNL     1      45.590 130.867  18.988  1.00  0.00    -0.429 OA
BRANCH  11  12
ATOM     12  C   UNL     1      45.939 130.850  17.635  1.00  0.00     0.239 A 
ATOM     13  C   UNL     1      46.607 130.787  14.955  1.00  0.00     0.129 A 
ATOM     14  C   UNL     1      46.129 131.977  15.519  1.00  0.00     0.040 A 
ATOM     15  N   UNL     1      46.723 129.686  15.747  1.00  0.00    -0.144 NA
ATOM     16  C   UNL     1      45.790 132.005  16.870  1.00  0.00     0.073 A 
ATOM     17  N   UNL     1      46.400 129.715  17.040  1.00  0.00    -0.111 NA
BRANCH  13  18
ATOM     18  C   UNL     1      46.980 130.709  13.526  1.00  0.00     0.180 C 
ATOM     19  C   UNL     1      48.259 130.055  13.106  1.00  0.00     0.095 C 
ATOM     20  O   UNL     1      46.221 131.197  12.644  1.00  0.00    -0.293 OA
ENDBRANCH  13  18
ENDBRANCH  11  12
ENDBRANCH   1  11
BRANCH   2  21
ATOM     21  N   UNL     1      45.113 130.900  21.805  1.00  0.00    -0.278 N 
ATOM     22  H   UNL     1      46.004 130.684  21.300  1.00  0.00     0.358 HD
ATOM     23  H   UNL     1      45.341 131.652  22.497  1.00  0.00     0.358 HD
BRANCH  21  24
ATOM     24  C   UNL     1      44.627 129.738  22.505  1.00  0.00     0.134 A 
ATOM     25  C   UNL     1      43.853 129.876  23.672  1.00  0.00     0.068 A 
ATOM     26  C   UNL     1      44.938 128.447  22.042  1.00  0.00     0.068 A 
ATOM     27  C   UNL     1      43.403 128.746  24.361  1.00  0.00     0.009 A 
ATOM     28  C   UNL     1      44.488 127.318  22.733  1.00  0.00     0.009 A 
ATOM     29  C   UNL     1      43.731 127.461  23.905  1.00  0.00    -0.051 A 
ATOM     30  C   UNL     1      43.216 126.249  24.625  1.00  0.00     0.044 C 
ENDBRANCH  21  24
ENDBRANCH   2  21
TORSDOF 5
ENDMDL
MODEL 6
REMARK VINA RESULT:      -4.6      2.303      4.060
REMARK SMILES CC(=O)c1ccc(Oc2c([NH2+]c3ccc(C)cc3)ccc3cc[nH]c23)nn1
REMARK SMILES IDX 9 1 10 2 19 3 20 4 21 5 22 6 23 7 24 8 25 9 8 11 7 12 4 13
REMARK SMILES IDX 5 14 27 15 6 16 26 17 2 18 1 19 3 20 11 21 12 24 13 25 18 26
REMARK SMILES IDX 14 27 17 28 15 29 16 30
REMARK H PARENT 24 10 11 22 11 23
ROOT
ATOM      1  C   UNL     1      44.105 128.744  23.022  1.00  0.00     0.214 A 
ATOM      2  C   UNL     1      43.705 130.105  23.100  1.00  0.00     0.180 A 
ATOM      3  C   UNL     1      42.461 130.436  23.700  1.00  0.00     0.073 A 
ATOM      4  C   UNL     1      41.623 129.438  24.223  1.00  0.00     0.017 A 
ATOM      5  C   UNL     1      42.054 128.119  24.147  1.00  0.00     0.004 A 
ATOM      6  C   UNL     1      41.472 126.965  24.621  1.00  0.00     0.028 A 
ATOM      7  C   UNL     1      42.376 125.953  24.319  1.00  0.00     0.083 A 
ATOM      8  N   UNL     1      43.462 126.453  23.688  1.00  0.00    -0.358 N 
ATOM      9  C   UNL     1      43.251 127.778  23.575  1.00  0.00     0.095 A 
ATOM     10  H   UNL     1      44.300 125.910  23.384  1.00  0.00     0.166 HD
ENDROOT
BRANCH   1  11
ATOM     11  O   UNL     1      45.331 128.404  22.437  1.00  0.00    -0.429 OA
BRANCH  11  12
ATOM     12  C   UNL     1      45.872 127.116  22.452  1.00  0.00     0.239 A 
ATOM     13  C   UNL     1      46.940 124.567  22.445  1.00  0.00     0.129 A 
ATOM     14  C   UNL     1      47.615 125.597  23.113  1.00  0.00     0.040 A 
ATOM     15  N   UNL     1      45.771 124.856  21.807  1.00  0.00    -0.144 NA
ATOM     16  C   UNL     1      47.076 126.881  23.112  1.00  0.00     0.073 A 
ATOM     17  N   UNL     1      45.256 126.086  21.809  1.00  0.00    -0.111 NA
BRANCH  13  18
ATOM     18  C   UNL     1      47.473 123.188  22.418  1.00  0.00     0.180 C 
ATOM     19  C   UNL     1      47.558 122.379  23.675  1.00  0.00     0.095 C 
ATOM     20  O   UNL     1      47.863 122.679  21.332  1.00  0.00    -0.293 OA
ENDBRANCH  13  18
ENDBRANCH  11  12
ENDBRANCH   1  11
BRANCH   2  21
ATOM     21  N   UNL     1      44.560 131.151  22.593  1.00  0.00    -0.278 N 
ATOM     22  H   UNL     1      44.447 132.018  23.168  1.00  0.00     0.358 HD
ATOM     23  H   UNL     1      45.566 130.871  22.675  1.00  0.00     0.358 HD
BRANCH  21  24
ATOM     24  C   UNL     1      44.247 131.410  21.210  1.00  0.00     0.134 A 
ATOM     25  C   UNL     1      42.909 131.490  20.781  1.00  0.00     0.068 A 
ATOM     26  C   UNL     1      45.276 131.567  20.264  1.00  0.00     0.068 A 
ATOM     27  C   UNL     1      42.609 131.718  19.435  1.00  0.00     0.009 A 
ATOM     28  C   UNL     1      44.974 131.794  18.918  1.00  0.00     0.009 A 
ATOM     29  C   UNL     1      43.640 131.855  18.493  1.00  0.00    -0.051 A 
ATOM     30  C   UNL     1      43.316 132.137  17.055  1.00  0.00     0.044 C 
ENDBRANCH  21  24
ENDBRANCH   2  21
TORSDOF 5
ENDMDL
MODEL 7
REMARK VINA RESULT:      -4.1      0.963      1.292
REMARK SMILES CC(=O)c1ccc(Oc2c([NH2+]c3ccc(C)cc3)ccc3cc[nH]c23)nn1
REMARK SMILES IDX 9 1 10 2 19 3 20 4 21 5 22 6 23 7 24 8 25 9 8 11 7 12 4 13
REMARK SMILES IDX 5 14 27 15 6 16 26 17 2 18 1 19 3 20 11 21 12 24 13 25 18 26
REMARK SMILES IDX 14 27 17 28 15 29 16 30
REMARK H PARENT 24 10 11 22 11 23
ROOT
ATOM      1  C   UNL     1      44.602 130.928  21.085  1.00  0.00     0.214 A 
ATOM      2  C   UNL     1      44.700 131.456  19.770  1.00  0.00     0.180 A 
ATOM      3  C   UNL     1      43.738 132.400  19.321  1.00  0.00     0.073 A 
ATOM      4  C   UNL     1      42.695 132.824  20.161  1.00  0.00     0.017 A 
ATOM      5  C   UNL     1      42.641 132.302  21.447  1.00  0.00     0.004 A 
ATOM      6  C   UNL     1      41.778 132.578  22.483  1.00  0.00     0.028 A 
ATOM      7  C   UNL     1      42.235 131.813  23.549  1.00  0.00     0.083 A 
ATOM      8  N   UNL     1      43.325 131.098  23.194  1.00  0.00    -0.358 N 
ATOM      9  C   UNL     1      43.559 131.392  21.901  1.00  0.00     0.095 A 
ATOM     10  H   UNL     1      43.879 130.471  23.818  1.00  0.00     0.166 HD
ENDROOT
BRANCH   1  11
ATOM     11  O   UNL     1      45.545 130.001  21.542  1.00  0.00    -0.429 OA
BRANCH  11  12
ATOM     12  C   UNL     1      45.223 128.722  22.004  1.00  0.00     0.239 A 
ATOM     13  C   UNL     1      44.550 126.203  22.918  1.00  0.00     0.129 A 
ATOM     14  C   UNL     1      45.398 126.331  21.811  1.00  0.00     0.040 A 
ATOM     15  N   UNL     1      44.073 127.331  23.513  1.00  0.00    -0.144 NA
ATOM     16  C   UNL     1      45.733 127.602  21.350  1.00  0.00     0.073 A 
ATOM     17  N   UNL     1      44.396 128.547  23.072  1.00  0.00    -0.111 NA
BRANCH  13  18
ATOM     18  C   UNL     1      44.166 124.875  23.443  1.00  0.00     0.180 C 
ATOM     19  C   UNL     1      43.317 123.949  22.629  1.00  0.00     0.095 C 
ATOM     20  O   UNL     1      44.552 124.509  24.587  1.00  0.00    -0.293 OA
ENDBRANCH  13  18
ENDBRANCH  11  12
ENDBRANCH   1  11
BRANCH   2  21
ATOM     21  N   UNL     1      45.776 131.055  18.896  1.00  0.00    -0.278 N 
ATOM     22  H   UNL     1      46.593 131.699  19.013  1.00  0.00     0.358 HD
ATOM     23  H   UNL     1      46.115 130.098  19.152  1.00  0.00     0.358 HD
BRANCH  21  24
ATOM     24  C   UNL     1      45.320 131.051  17.529  1.00  0.00     0.134 A 
ATOM     25  C   UNL     1      44.041 131.537  17.199  1.00  0.00     0.068 A 
ATOM     26  C   UNL     1      46.140 130.540  16.507  1.00  0.00     0.068 A 
ATOM     27  C   UNL     1      43.593 131.509  15.875  1.00  0.00     0.009 A 
ATOM     28  C   UNL     1      45.689 130.512  15.183  1.00  0.00     0.009 A 
ATOM     29  C   UNL     1      44.408 130.982  14.862  1.00  0.00    -0.051 A 
ATOM     30  C   UNL     1      43.940 130.987  13.437  1.00  0.00     0.044 C 
ENDBRANCH  21  24
ENDBRANCH   2  21
TORSDOF 5
ENDMDL


