REMARK SMILES CC(=O)c1ccc(/C(O)=N/[C@@H]2C=CCC2)c(F)c1[O-]
REMARK SMILES IDX 7 1 6 2 5 3 4 4 18 5 19 6 16 7 17 8 8 9 9 10 10 12 11 13
REMARK SMILES IDX 12 14 15 15 13 16 14 17 2 18 3 19 1 20
REMARK H PARENT 9 11
ROOT
ATOM      1  C   UNL     1       1.826   0.748   0.024  1.00  0.00     0.071 A 
ATOM      2  C   UNL     1       1.549   1.539   1.149  1.00  0.00     0.017 A 
ATOM      3  C   UNL     1       2.576   1.957   1.996  1.00  0.00     0.012 A 
ATOM      4  C   UNL     1       3.914   1.603   1.738  1.00  0.00     0.012 A 
ATOM      5  C   UNL     1       4.195   0.824   0.593  1.00  0.00    -0.060 A 
ATOM      6  O   UNL     1       5.503   0.473   0.270  1.00  0.00    -0.870 OA
ATOM      7  C   UNL     1       3.160   0.403  -0.253  1.00  0.00     0.128 A 
ATOM      8  F   UNL     1       3.475  -0.298  -1.373  1.00  0.00    -0.207 F 
ENDROOT
BRANCH   1   9
ATOM      9  C   UNL     1       0.720   0.308  -0.856  1.00  0.00     0.217 C 
BRANCH   9  10
ATOM     10  O   UNL     1       0.740  -0.956  -1.452  1.00  0.00    -0.493 OA
ATOM     11  H   UNL     1       1.445  -1.645  -1.224  1.00  0.00     0.295 HD
ENDBRANCH   9  10
BRANCH   9  12
ATOM     12  N   UNL     1      -0.287   1.105  -1.061  1.00  0.00    -0.244 NA
BRANCH  12  13
ATOM     13  C   UNL     1      -1.438   0.767  -1.897  1.00  0.00     0.132 C 
ATOM     14  C   UNL     1      -2.294   1.968  -2.074  1.00  0.00    -0.005 C 
ATOM     15  C   UNL     1      -2.359  -0.256  -1.206  1.00  0.00     0.036 C 
ATOM     16  C   UNL     1      -3.529   1.777  -1.645  1.00  0.00    -0.029 C 
ATOM     17  C   UNL     1      -3.733   0.413  -1.095  1.00  0.00     0.029 C 
ENDBRANCH  12  13
ENDBRANCH   9  12
ENDBRANCH   1   9
BRANCH   4  18
ATOM     18  C   UNL     1       5.001   2.048   2.657  1.00  0.00     0.159 C 
ATOM     19  O   UNL     1       6.135   1.499   2.609  1.00  0.00    -0.295 OA
ATOM     20  C   UNL     1       4.780   3.124   3.679  1.00  0.00     0.093 C 
ENDBRANCH   4  18
TORSDOF 5


