REMARK SMILES Cc1ccc(-c2cc(N)c(NC3CC(=O)C3)c([NH2+]c3ccc(C)c(F)c3)c2)cc1
REMARK SMILES IDX 6 1 7 2 8 3 10 4 17 5 27 6 5 7 2 8 3 9 29 10 4 11 28 12 1 13
REMARK SMILES IDX 9 14 18 17 19 20 20 21 26 22 21 23 24 24 22 25 25 26 23 27
REMARK SMILES IDX 11 28 12 30 13 31 16 32 14 33 15 34
REMARK H PARENT 9 15 9 16 18 18 18 19 11 29
ROOT
ATOM      1  C   UNL     1      -0.476  -0.805  -2.050  1.00  0.00    -0.010 A 
ATOM      2  C   UNL     1      -1.251  -1.892  -1.625  1.00  0.00     0.037 A 
ATOM      3  C   UNL     1      -2.070  -1.793  -0.494  1.00  0.00     0.062 A 
ATOM      4  C   UNL     1      -2.077  -0.604   0.272  1.00  0.00     0.120 A 
ATOM      5  C   UNL     1      -1.353   0.525  -0.193  1.00  0.00     0.160 A 
ATOM      6  C   UNL     1      -0.553   0.402  -1.343  1.00  0.00     0.079 A 
ENDROOT
BRANCH   1   7
ATOM      7  C   UNL     1       0.393  -0.920  -3.249  1.00  0.00    -0.018 A 
ATOM      8  C   UNL     1       2.053  -1.147  -5.518  1.00  0.00    -0.051 A 
ATOM      9  C   UNL     1       0.760  -1.690  -5.529  1.00  0.00     0.004 A 
ATOM     10  C   UNL     1       2.503  -0.469  -4.377  1.00  0.00     0.004 A 
ATOM     11  C   UNL     1      -0.061  -1.584  -4.403  1.00  0.00     0.009 A 
ATOM     12  C   UNL     1       1.684  -0.361  -3.249  1.00  0.00     0.009 A 
ATOM     13  C   UNL     1       2.918  -1.228  -6.740  1.00  0.00     0.044 C 
ENDBRANCH   1   7
BRANCH   3  14
ATOM     14  N   UNL     1      -2.949  -2.881  -0.186  1.00  0.00    -0.397 N 
ATOM     15  H   UNL     1      -3.828  -2.723   0.353  1.00  0.00     0.156 HD
ATOM     16  H   UNL     1      -2.830  -3.808  -0.651  1.00  0.00     0.156 HD
ENDBRANCH   3  14
BRANCH   5  17
ATOM     17  N   UNL     1      -1.404   1.798   0.496  1.00  0.00    -0.280 N 
ATOM     18  H   UNL     1      -1.051   2.567  -0.121  1.00  0.00     0.358 HD
ATOM     19  H   UNL     1      -2.400   2.036   0.708  1.00  0.00     0.358 HD
BRANCH  17  20
ATOM     20  C   UNL     1      -0.597   1.782   1.693  1.00  0.00     0.137 A 
ATOM     21  C   UNL     1      -1.173   2.069   2.942  1.00  0.00     0.068 A 
ATOM     22  C   UNL     1       0.789   1.545   1.621  1.00  0.00     0.107 A 
ATOM     23  C   UNL     1      -0.390   2.081   4.099  1.00  0.00     0.012 A 
ATOM     24  C   UNL     1       1.571   1.546   2.779  1.00  0.00     0.132 A 
ATOM     25  C   UNL     1       0.987   1.819   4.027  1.00  0.00    -0.015 A 
ATOM     26  F   UNL     1       2.899   1.283   2.684  1.00  0.00    -0.206 F 
ATOM     27  C   UNL     1       1.820   1.787   5.275  1.00  0.00     0.047 C 
ENDBRANCH  17  20
ENDBRANCH   5  17
BRANCH   4  28
ATOM     28  N   UNL     1      -2.767  -0.548   1.536  1.00  0.00    -0.375 N 
ATOM     29  H   UNL     1      -3.373   0.278   1.736  1.00  0.00     0.161 HD
BRANCH  28  30
ATOM     30  C   UNL     1      -2.541  -1.540   2.601  1.00  0.00     0.094 C 
ATOM     31  C   UNL     1      -1.101  -1.672   3.004  1.00  0.00     0.100 C 
ATOM     32  C   UNL     1      -2.790  -1.001   3.981  1.00  0.00     0.100 C 
ATOM     33  C   UNL     1      -1.342  -1.155   4.410  1.00  0.00     0.137 C 
ATOM     34  O   UNL     1      -0.681  -0.959   5.416  1.00  0.00    -0.300 OA
ENDBRANCH  28  30
ENDBRANCH   4  28
TORSDOF 6


