REMARK SMILES C=Cc1cccc(-c2ccc3c(c2)[C@H](N=C=O)CC3)c1
REMARK SMILES IDX 8 1 9 2 10 3 11 4 12 5 13 6 14 7 18 8 19 9 7 10 3 11 4 12
REMARK SMILES IDX 20 13 5 14 6 15 2 16 1 17 15 18 16 19 17 20
REMARK H PARENT
ROOT
ATOM      1  C   UNL     1       1.143  -0.578  -0.641  1.00  0.00    -0.018 A 
ATOM      2  C   UNL     1       2.425  -0.566  -1.239  1.00  0.00     0.009 A 
ATOM      3  C   UNL     1       2.695   0.271  -2.332  1.00  0.00     0.005 A 
ATOM      4  C   UNL     1       1.677   1.090  -2.821  1.00  0.00    -0.042 A 
ATOM      5  C   UNL     1       0.429   1.084  -2.254  1.00  0.00    -0.019 A 
ATOM      6  C   UNL     1       0.136   0.264  -1.161  1.00  0.00     0.015 A 
ATOM      7  C   UNL     1      -0.497   2.025  -2.929  1.00  0.00     0.149 C 
ATOM      8  C   UNL     1       0.383   2.695  -4.015  1.00  0.00     0.038 C 
ATOM      9  C   UNL     1       1.774   2.034  -3.957  1.00  0.00     0.038 C 
ENDROOT
BRANCH   1  10
ATOM     10  C   UNL     1       0.859  -1.462   0.518  1.00  0.00    -0.018 A 
ATOM     11  C   UNL     1      -0.193  -1.834   2.699  1.00  0.00    -0.026 A 
ATOM     12  C   UNL     1       0.336  -3.134   2.715  1.00  0.00     0.008 A 
ATOM     13  C   UNL     1       0.085  -0.998   1.598  1.00  0.00     0.016 A 
ATOM     14  C   UNL     1       1.105  -3.600   1.648  1.00  0.00     0.001 A 
ATOM     15  C   UNL     1       1.364  -2.773   0.554  1.00  0.00     0.009 A 
BRANCH  11  16
ATOM     16  C   UNL     1      -0.996  -1.383   3.862  1.00  0.00     0.000 C 
ATOM     17  C   UNL     1      -1.834  -0.345   3.836  1.00  0.00     0.009 C 
ENDBRANCH  11  16
ENDBRANCH   1  10
BRANCH   7  18
ATOM     18  N   UNL     1      -1.609   1.285  -3.519  1.00  0.00    -0.198 NA
BRANCH  18  19
ATOM     19  C   UNL     1      -2.601   1.880  -4.050  1.00  0.00     0.235 C 
ATOM     20  O   UNL     1      -3.565   2.459  -4.566  1.00  0.00    -0.211 OA
ENDBRANCH  18  19
ENDBRANCH   7  18
TORSDOF 4


