MODEL 1
REMARK VINA RESULT:      -6.0      0.000      0.000
REMARK SMILES CC(C)(C#N)C(=O)O[C@H]1c2ccccc2C[C@@H]1NC(=O)C1CCCC1
REMARK SMILES IDX 6 1 7 2 2 3 1 4 3 5 4 6 5 7 8 8 9 9 10 10 17 11 11 12 15 13
REMARK SMILES IDX 16 14 12 15 14 16 13 17 18 18 19 19 20 21 21 22 22 23 25 24
REMARK SMILES IDX 23 25 24 26
REMARK H PARENT 18 20
ROOT
ATOM      1  C   UNL     1      45.200 126.807  22.640  1.00  0.00     0.326 C 
ATOM      2  O   UNL     1      43.960 126.576  22.697  1.00  0.00    -0.250 OA
ENDROOT
BRANCH   1   3
ATOM      3  C   UNL     1      46.187 125.721  23.007  1.00  0.00     0.149 C 
ATOM      4  C   UNL     1      46.530 125.833  24.500  1.00  0.00     0.040 C 
ATOM      5  C   UNL     1      47.471 125.841  22.166  1.00  0.00     0.040 C 
BRANCH   3   6
ATOM      6  C   UNL     1      45.581 124.400  22.746  1.00  0.00     0.080 C 
ATOM      7  N   UNL     1      45.106 123.365  22.541  1.00  0.00    -0.197 NA
ENDBRANCH   3   6
ENDBRANCH   1   3
BRANCH   1   8
ATOM      8  O   UNL     1      45.660 128.085  22.301  1.00  0.00    -0.454 OA
BRANCH   8   9
ATOM      9  C   UNL     1      44.841 129.065  21.665  1.00  0.00     0.229 C 
ATOM     10  C   UNL     1      44.222 129.944  22.685  1.00  0.00    -0.002 A 
ATOM     11  C   UNL     1      45.694 130.045  20.814  1.00  0.00     0.132 C 
ATOM     12  C   UNL     1      43.449 129.545  23.779  1.00  0.00     0.008 A 
ATOM     13  C   UNL     1      44.444 131.275  22.422  1.00  0.00    -0.039 A 
ATOM     14  C   UNL     1      45.249 131.474  21.195  1.00  0.00     0.065 C 
ATOM     15  C   UNL     1      42.912 130.530  24.622  1.00  0.00     0.000 A 
ATOM     16  C   UNL     1      43.911 132.271  23.243  1.00  0.00     0.004 A 
ATOM     17  C   UNL     1      43.143 131.891  24.354  1.00  0.00     0.000 A 
BRANCH  11  18
ATOM     18  N   UNL     1      45.532 129.807  19.376  1.00  0.00    -0.349 N 
ATOM     19  C   UNL     1      45.233 130.874  18.461  1.00  0.00     0.223 C 
ATOM     20  H   UNL     1      45.679 128.849  18.987  1.00  0.00     0.163 HD
ATOM     21  O   UNL     1      45.055 132.046  18.892  1.00  0.00    -0.275 OA
BRANCH  19  22
ATOM     22  C   UNL     1      45.119 130.607  16.980  1.00  0.00     0.078 C 
ATOM     23  C   UNL     1      44.998 131.902  16.162  1.00  0.00     0.013 C 
ATOM     24  C   UNL     1      46.341 129.855  16.440  1.00  0.00     0.013 C 
ATOM     25  C   UNL     1      46.211 131.949  15.245  1.00  0.00     0.001 C 
ATOM     26  C   UNL     1      46.680 130.511  15.113  1.00  0.00     0.001 C 
ENDBRANCH  19  22
ENDBRANCH  11  18
ENDBRANCH   8   9
ENDBRANCH   1   8
TORSDOF 6
ENDMDL
MODEL 2
REMARK VINA RESULT:      -5.7      3.980      5.198
REMARK SMILES CC(C)(C#N)C(=O)O[C@H]1c2ccccc2C[C@@H]1NC(=O)C1CCCC1
REMARK SMILES IDX 6 1 7 2 2 3 1 4 3 5 4 6 5 7 8 8 9 9 10 10 17 11 11 12 15 13
REMARK SMILES IDX 16 14 12 15 14 16 13 17 18 18 19 19 20 21 21 22 22 23 25 24
REMARK SMILES IDX 23 25 24 26
REMARK H PARENT 18 20
ROOT
ATOM      1  C   UNL     1      47.590 133.173  21.546  1.00  0.00     0.326 C 
ATOM      2  O   UNL     1      48.380 132.227  21.276  1.00  0.00    -0.250 OA
ENDROOT
BRANCH   1   3
ATOM      3  C   UNL     1      48.052 134.312  22.429  1.00  0.00     0.149 C 
ATOM      4  C   UNL     1      46.964 134.618  23.469  1.00  0.00     0.040 C 
ATOM      5  C   UNL     1      48.342 135.571  21.591  1.00  0.00     0.040 C 
BRANCH   3   6
ATOM      6  C   UNL     1      49.292 133.919  23.125  1.00  0.00     0.080 C 
ATOM      7  N   UNL     1      50.265 133.612  23.672  1.00  0.00    -0.197 NA
ENDBRANCH   3   6
ENDBRANCH   1   3
BRANCH   1   8
ATOM      8  O   UNL     1      46.268 133.136  21.086  1.00  0.00    -0.454 OA
BRANCH   8   9
ATOM      9  C   UNL     1      45.516 131.929  20.972  1.00  0.00     0.229 C 
ATOM     10  C   UNL     1      44.558 131.824  22.098  1.00  0.00    -0.002 A 
ATOM     11  C   UNL     1      44.599 131.955  19.718  1.00  0.00     0.132 C 
ATOM     12  C   UNL     1      44.856 131.886  23.462  1.00  0.00     0.008 A 
ATOM     13  C   UNL     1      43.274 131.597  21.662  1.00  0.00    -0.039 A 
ATOM     14  C   UNL     1      43.190 131.527  20.186  1.00  0.00     0.065 C 
ATOM     15  C   UNL     1      43.814 131.727  24.388  1.00  0.00     0.000 A 
ATOM     16  C   UNL     1      42.224 131.428  22.568  1.00  0.00     0.004 A 
ATOM     17  C   UNL     1      42.500 131.499  23.942  1.00  0.00     0.000 A 
BRANCH  11  18
ATOM     18  N   UNL     1      45.095 131.071  18.658  1.00  0.00    -0.349 N 
ATOM     19  C   UNL     1      44.556 131.110  17.327  1.00  0.00     0.223 C 
ATOM     20  H   UNL     1      45.891 130.422  18.852  1.00  0.00     0.163 HD
ATOM     21  O   UNL     1      43.600 131.884  17.053  1.00  0.00    -0.275 OA
BRANCH  19  22
ATOM     22  C   UNL     1      45.119 130.222  16.244  1.00  0.00     0.078 C 
ATOM     23  C   UNL     1      44.628 130.626  14.845  1.00  0.00     0.013 C 
ATOM     24  C   UNL     1      46.651 130.270  16.205  1.00  0.00     0.013 C 
ATOM     25  C   UNL     1      45.864 131.019  14.050  1.00  0.00     0.001 C 
ATOM     26  C   UNL     1      47.029 130.329  14.736  1.00  0.00     0.001 C 
ENDBRANCH  19  22
ENDBRANCH  11  18
ENDBRANCH   8   9
ENDBRANCH   1   8
TORSDOF 6
ENDMDL
MODEL 3
REMARK VINA RESULT:      -5.5      3.642      5.309
REMARK SMILES CC(C)(C#N)C(=O)O[C@H]1c2ccccc2C[C@@H]1NC(=O)C1CCCC1
REMARK SMILES IDX 6 1 7 2 2 3 1 4 3 5 4 6 5 7 8 8 9 9 10 10 17 11 11 12 15 13
REMARK SMILES IDX 16 14 12 15 14 16 13 17 18 18 19 19 20 21 21 22 22 23 25 24
REMARK SMILES IDX 23 25 24 26
REMARK H PARENT 18 20
ROOT
ATOM      1  C   UNL     1      46.825 133.339  21.220  1.00  0.00     0.326 C 
ATOM      2  O   UNL     1      46.029 134.039  20.534  1.00  0.00    -0.250 OA
ENDROOT
BRANCH   1   3
ATOM      3  C   UNL     1      47.799 134.012  22.163  1.00  0.00     0.149 C 
ATOM      4  C   UNL     1      49.008 133.091  22.382  1.00  0.00     0.040 C 
ATOM      5  C   UNL     1      47.128 134.322  23.514  1.00  0.00     0.040 C 
BRANCH   3   6
ATOM      6  C   UNL     1      48.258 135.282  21.568  1.00  0.00     0.080 C 
ATOM      7  N   UNL     1      48.619 136.277  21.101  1.00  0.00    -0.197 NA
ENDBRANCH   3   6
ENDBRANCH   1   3
BRANCH   1   8
ATOM      8  O   UNL     1      46.852 131.948  21.062  1.00  0.00    -0.454 OA
BRANCH   8   9
ATOM      9  C   UNL     1      45.694 131.178  20.740  1.00  0.00     0.229 C 
ATOM     10  C   UNL     1      44.636 131.410  21.750  1.00  0.00    -0.002 A 
ATOM     11  C   UNL     1      45.044 131.668  19.417  1.00  0.00     0.132 C 
ATOM     12  C   UNL     1      44.749 131.251  23.135  1.00  0.00     0.008 A 
ATOM     13  C   UNL     1      43.443 131.772  21.174  1.00  0.00    -0.039 A 
ATOM     14  C   UNL     1      43.534 131.840  19.697  1.00  0.00     0.065 C 
ATOM     15  C   UNL     1      43.620 131.483  23.935  1.00  0.00     0.000 A 
ATOM     16  C   UNL     1      42.305 131.999  21.952  1.00  0.00     0.004 A 
ATOM     17  C   UNL     1      42.400 131.857  23.344  1.00  0.00     0.000 A 
BRANCH  11  18
ATOM     18  N   UNL     1      45.272 130.730  18.312  1.00  0.00    -0.349 N 
ATOM     19  C   UNL     1      45.294 131.164  16.943  1.00  0.00     0.223 C 
ATOM     20  H   UNL     1      45.468 129.724  18.517  1.00  0.00     0.163 HD
ATOM     21  O   UNL     1      45.069 132.371  16.658  1.00  0.00    -0.275 OA
BRANCH  19  22
ATOM     22  C   UNL     1      45.579 130.184  15.832  1.00  0.00     0.078 C 
ATOM     23  C   UNL     1      45.202 130.742  14.450  1.00  0.00     0.013 C 
ATOM     24  C   UNL     1      47.065 129.809  15.766  1.00  0.00     0.013 C 
ATOM     25  C   UNL     1      46.490 130.801  13.642  1.00  0.00     0.001 C 
ATOM     26  C   UNL     1      47.427 129.801  14.292  1.00  0.00     0.001 C 
ENDBRANCH  19  22
ENDBRANCH  11  18
ENDBRANCH   8   9
ENDBRANCH   1   8
TORSDOF 6
ENDMDL
MODEL 4
REMARK VINA RESULT:      -5.2      2.536      4.630
REMARK SMILES CC(C)(C#N)C(=O)O[C@H]1c2ccccc2C[C@@H]1NC(=O)C1CCCC1
REMARK SMILES IDX 6 1 7 2 2 3 1 4 3 5 4 6 5 7 8 8 9 9 10 10 17 11 11 12 15 13
REMARK SMILES IDX 16 14 12 15 14 16 13 17 18 18 19 19 20 21 21 22 22 23 25 24
REMARK SMILES IDX 23 25 24 26
REMARK H PARENT 18 20
ROOT
ATOM      1  C   UNL     1      47.961 125.827  22.605  1.00  0.00     0.326 C 
ATOM      2  O   UNL     1      47.966 125.702  21.348  1.00  0.00    -0.250 OA
ENDROOT
BRANCH   1   3
ATOM      3  C   UNL     1      49.058 125.192  23.430  1.00  0.00     0.149 C 
ATOM      4  C   UNL     1      49.389 126.105  24.620  1.00  0.00     0.040 C 
ATOM      5  C   UNL     1      50.321 124.965  22.579  1.00  0.00     0.040 C 
BRANCH   3   6
ATOM      6  C   UNL     1      48.595 123.885  23.936  1.00  0.00     0.080 C 
ATOM      7  N   UNL     1      48.233 122.859  24.332  1.00  0.00    -0.197 NA
ENDBRANCH   3   6
ENDBRANCH   1   3
BRANCH   1   8
ATOM      8  O   UNL     1      46.906 126.497  23.238  1.00  0.00    -0.454 OA
BRANCH   8   9
ATOM      9  C   UNL     1      45.672 126.797  22.589  1.00  0.00     0.229 C 
ATOM     10  C   UNL     1      44.686 125.724  22.858  1.00  0.00    -0.002 A 
ATOM     11  C   UNL     1      45.007 128.060  23.202  1.00  0.00     0.132 C 
ATOM     12  C   UNL     1      44.848 124.356  22.618  1.00  0.00     0.008 A 
ATOM     13  C   UNL     1      43.504 126.221  23.351  1.00  0.00    -0.039 A 
ATOM     14  C   UNL     1      43.534 127.696  23.490  1.00  0.00     0.065 C 
ATOM     15  C   UNL     1      43.782 123.490  22.904  1.00  0.00     0.000 A 
ATOM     16  C   UNL     1      42.428 125.377  23.635  1.00  0.00     0.004 A 
ATOM     17  C   UNL     1      42.574 124.000  23.412  1.00  0.00     0.000 A 
BRANCH  11  18
ATOM     18  N   UNL     1      45.100 129.218  22.307  1.00  0.00    -0.349 N 
ATOM     19  C   UNL     1      44.214 130.342  22.430  1.00  0.00     0.223 C 
ATOM     20  H   UNL     1      45.854 129.258  21.585  1.00  0.00     0.163 HD
ATOM     21  O   UNL     1      43.296 130.334  23.294  1.00  0.00    -0.275 OA
BRANCH  19  22
ATOM     22  C   UNL     1      44.364 131.541  21.526  1.00  0.00     0.078 C 
ATOM     23  C   UNL     1      45.542 131.392  20.550  1.00  0.00     0.013 C 
ATOM     24  C   UNL     1      43.111 131.775  20.674  1.00  0.00     0.013 C 
ATOM     25  C   UNL     1      44.948 131.418  19.149  1.00  0.00     0.001 C 
ATOM     26  C   UNL     1      43.612 132.124  19.284  1.00  0.00     0.001 C 
ENDBRANCH  19  22
ENDBRANCH  11  18
ENDBRANCH   8   9
ENDBRANCH   1   8
TORSDOF 6
ENDMDL
MODEL 5
REMARK VINA RESULT:      -5.2      3.883      5.154
REMARK SMILES CC(C)(C#N)C(=O)O[C@H]1c2ccccc2C[C@@H]1NC(=O)C1CCCC1
REMARK SMILES IDX 6 1 7 2 2 3 1 4 3 5 4 6 5 7 8 8 9 9 10 10 17 11 11 12 15 13
REMARK SMILES IDX 16 14 12 15 14 16 13 17 18 18 19 19 20 21 21 22 22 23 25 24
REMARK SMILES IDX 23 25 24 26
REMARK H PARENT 18 20
ROOT
ATOM      1  C   UNL     1      47.496 133.107  21.604  1.00  0.00     0.326 C 
ATOM      2  O   UNL     1      48.252 132.131  21.340  1.00  0.00    -0.250 OA
ENDROOT
BRANCH   1   3
ATOM      3  C   UNL     1      47.981 134.209  22.520  1.00  0.00     0.149 C 
ATOM      4  C   UNL     1      47.942 135.547  21.766  1.00  0.00     0.040 C 
ATOM      5  C   UNL     1      49.415 133.926  23.005  1.00  0.00     0.040 C 
BRANCH   3   6
ATOM      6  C   UNL     1      47.097 134.291  23.698  1.00  0.00     0.080 C 
ATOM      7  N   UNL     1      46.404 134.355  24.623  1.00  0.00    -0.197 NA
ENDBRANCH   3   6
ENDBRANCH   1   3
BRANCH   1   8
ATOM      8  O   UNL     1      46.188 133.137  21.104  1.00  0.00    -0.454 OA
BRANCH   8   9
ATOM      9  C   UNL     1      45.454 131.960  20.770  1.00  0.00     0.229 C 
ATOM     10  C   UNL     1      44.537 131.606  21.878  1.00  0.00    -0.002 A 
ATOM     11  C   UNL     1      44.496 132.215  19.575  1.00  0.00     0.132 C 
ATOM     12  C   UNL     1      44.879 131.399  23.218  1.00  0.00     0.008 A 
ATOM     13  C   UNL     1      43.244 131.441  21.444  1.00  0.00    -0.039 A 
ATOM     14  C   UNL     1      43.111 131.667  19.986  1.00  0.00     0.065 C 
ATOM     15  C   UNL     1      43.871 131.031  24.123  1.00  0.00     0.000 A 
ATOM     16  C   UNL     1      42.228 131.067  22.327  1.00  0.00     0.004 A 
ATOM     17  C   UNL     1      42.548 130.865  23.678  1.00  0.00     0.000 A 
BRANCH  11  18
ATOM     18  N   UNL     1      44.972 131.576  18.343  1.00  0.00    -0.349 N 
ATOM     19  C   UNL     1      44.116 131.398  17.203  1.00  0.00     0.223 C 
ATOM     20  H   UNL     1      45.970 131.277  18.265  1.00  0.00     0.163 HD
ATOM     21  O   UNL     1      42.907 131.752  17.258  1.00  0.00    -0.275 OA
BRANCH  19  22
ATOM     22  C   UNL     1      44.647 130.781  15.933  1.00  0.00     0.078 C 
ATOM     23  C   UNL     1      45.307 131.818  15.011  1.00  0.00     0.013 C 
ATOM     24  C   UNL     1      45.704 129.707  16.218  1.00  0.00     0.013 C 
ATOM     25  C   UNL     1      46.765 131.406  14.871  1.00  0.00     0.001 C 
ATOM     26  C   UNL     1      46.804 129.924  15.194  1.00  0.00     0.001 C 
ENDBRANCH  19  22
ENDBRANCH  11  18
ENDBRANCH   8   9
ENDBRANCH   1   8
TORSDOF 6
ENDMDL
MODEL 6
REMARK VINA RESULT:      -5.0      3.942      5.541
REMARK SMILES CC(C)(C#N)C(=O)O[C@H]1c2ccccc2C[C@@H]1NC(=O)C1CCCC1
REMARK SMILES IDX 6 1 7 2 2 3 1 4 3 5 4 6 5 7 8 8 9 9 10 10 17 11 11 12 15 13
REMARK SMILES IDX 16 14 12 15 14 16 13 17 18 18 19 19 20 21 21 22 22 23 25 24
REMARK SMILES IDX 23 25 24 26
REMARK H PARENT 18 20
ROOT
ATOM      1  C   UNL     1      47.736 133.300  21.683  1.00  0.00     0.326 C 
ATOM      2  O   UNL     1      48.538 132.367  21.399  1.00  0.00    -0.250 OA
ENDROOT
BRANCH   1   3
ATOM      3  C   UNL     1      48.222 134.499  22.466  1.00  0.00     0.149 C 
ATOM      4  C   UNL     1      49.593 134.180  23.081  1.00  0.00     0.040 C 
ATOM      5  C   UNL     1      47.224 134.867  23.580  1.00  0.00     0.040 C 
BRANCH   3   6
ATOM      6  C   UNL     1      48.355 135.656  21.559  1.00  0.00     0.080 C 
ATOM      7  N   UNL     1      48.458 136.563  20.847  1.00  0.00    -0.197 NA
ENDBRANCH   3   6
ENDBRANCH   1   3
BRANCH   1   8
ATOM      8  O   UNL     1      46.385 133.194  21.332  1.00  0.00    -0.454 OA
BRANCH   8   9
ATOM      9  C   UNL     1      45.713 131.943  21.188  1.00  0.00     0.229 C 
ATOM     10  C   UNL     1      44.686 131.797  22.247  1.00  0.00    -0.002 A 
ATOM     11  C   UNL     1      44.886 131.898  19.874  1.00  0.00     0.132 C 
ATOM     12  C   UNL     1      44.884 131.896  23.627  1.00  0.00     0.008 A 
ATOM     13  C   UNL     1      43.451 131.490  21.728  1.00  0.00    -0.039 A 
ATOM     14  C   UNL     1      43.475 131.394  20.250  1.00  0.00     0.065 C 
ATOM     15  C   UNL     1      43.790 131.689  24.482  1.00  0.00     0.000 A 
ATOM     16  C   UNL     1      42.352 131.272  22.562  1.00  0.00     0.004 A 
ATOM     17  C   UNL     1      42.527 131.377  23.950  1.00  0.00     0.000 A 
BRANCH  11  18
ATOM     18  N   UNL     1      45.505 131.030  18.866  1.00  0.00    -0.349 N 
ATOM     19  C   UNL     1      45.426 131.325  17.463  1.00  0.00     0.223 C 
ATOM     20  H   UNL     1      46.058 130.196  19.167  1.00  0.00     0.163 HD
ATOM     21  O   UNL     1      44.773 132.326  17.062  1.00  0.00    -0.275 OA
BRANCH  19  22
ATOM     22  C   UNL     1      46.113 130.440  16.452  1.00  0.00     0.078 C 
ATOM     23  C   UNL     1      45.161 129.396  15.846  1.00  0.00     0.013 C 
ATOM     24  C   UNL     1      46.686 131.247  15.281  1.00  0.00     0.013 C 
ATOM     25  C   UNL     1      45.096 129.685  14.354  1.00  0.00     0.001 C 
ATOM     26  C   UNL     1      46.366 130.449  14.029  1.00  0.00     0.001 C 
ENDBRANCH  19  22
ENDBRANCH  11  18
ENDBRANCH   8   9
ENDBRANCH   1   8
TORSDOF 6
ENDMDL
MODEL 7
REMARK VINA RESULT:      -4.8      1.349      1.631
REMARK SMILES CC(C)(C#N)C(=O)O[C@H]1c2ccccc2C[C@@H]1NC(=O)C1CCCC1
REMARK SMILES IDX 6 1 7 2 2 3 1 4 3 5 4 6 5 7 8 8 9 9 10 10 17 11 11 12 15 13
REMARK SMILES IDX 16 14 12 15 14 16 13 17 18 18 19 19 20 21 21 22 22 23 25 24
REMARK SMILES IDX 23 25 24 26
REMARK H PARENT 18 20
ROOT
ATOM      1  C   UNL     1      44.961 126.910  22.200  1.00  0.00     0.326 C 
ATOM      2  O   UNL     1      44.339 126.412  21.221  1.00  0.00    -0.250 OA
ENDROOT
BRANCH   1   3
ATOM      3  C   UNL     1      45.043 126.149  23.506  1.00  0.00     0.149 C 
ATOM      4  C   UNL     1      46.014 126.871  24.452  1.00  0.00     0.040 C 
ATOM      5  C   UNL     1      45.522 124.705  23.269  1.00  0.00     0.040 C 
BRANCH   3   6
ATOM      6  C   UNL     1      43.706 126.099  24.128  1.00  0.00     0.080 C 
ATOM      7  N   UNL     1      42.657 126.061  24.617  1.00  0.00    -0.197 NA
ENDBRANCH   3   6
ENDBRANCH   1   3
BRANCH   1   8
ATOM      8  O   UNL     1      45.517 128.191  22.101  1.00  0.00    -0.454 OA
BRANCH   8   9
ATOM      9  C   UNL     1      44.919 129.244  21.346  1.00  0.00     0.229 C 
ATOM     10  C   UNL     1      43.968 129.997  22.197  1.00  0.00    -0.002 A 
ATOM     11  C   UNL     1      45.970 130.314  20.944  1.00  0.00     0.132 C 
ATOM     12  C   UNL     1      42.893 129.473  22.921  1.00  0.00     0.008 A 
ATOM     13  C   UNL     1      44.218 131.348  22.176  1.00  0.00    -0.039 A 
ATOM     14  C   UNL     1      45.374 131.690  21.317  1.00  0.00     0.065 C 
ATOM     15  C   UNL     1      42.074 130.354  23.645  1.00  0.00     0.000 A 
ATOM     16  C   UNL     1      43.410 132.242  22.884  1.00  0.00     0.004 A 
ATOM     17  C   UNL     1      42.332 131.736  23.626  1.00  0.00     0.000 A 
BRANCH  11  18
ATOM     18  N   UNL     1      46.299 130.251  19.515  1.00  0.00    -0.349 N 
ATOM     19  C   UNL     1      45.404 130.752  18.510  1.00  0.00     0.223 C 
ATOM     20  H   UNL     1      47.225 129.873  19.211  1.00  0.00     0.163 HD
ATOM     21  O   UNL     1      44.281 131.222  18.839  1.00  0.00    -0.275 OA
BRANCH  19  22
ATOM     22  C   UNL     1      45.790 130.718  17.052  1.00  0.00     0.078 C 
ATOM     23  C   UNL     1      44.938 129.724  16.246  1.00  0.00     0.013 C 
ATOM     24  C   UNL     1      45.622 132.087  16.383  1.00  0.00     0.013 C 
ATOM     25  C   UNL     1      44.193 130.542  15.201  1.00  0.00     0.001 C 
ATOM     26  C   UNL     1      45.001 131.814  15.025  1.00  0.00     0.001 C 
ENDBRANCH  19  22
ENDBRANCH  11  18
ENDBRANCH   8   9
ENDBRANCH   1   8
TORSDOF 6
ENDMDL
MODEL 8
REMARK VINA RESULT:      -4.5      3.585      5.288
REMARK SMILES CC(C)(C#N)C(=O)O[C@H]1c2ccccc2C[C@@H]1NC(=O)C1CCCC1
REMARK SMILES IDX 6 1 7 2 2 3 1 4 3 5 4 6 5 7 8 8 9 9 10 10 17 11 11 12 15 13
REMARK SMILES IDX 16 14 12 15 14 16 13 17 18 18 19 19 20 21 21 22 22 23 25 24
REMARK SMILES IDX 23 25 24 26
REMARK H PARENT 18 20
ROOT
ATOM      1  C   UNL     1      47.474 133.243  21.599  1.00  0.00     0.326 C 
ATOM      2  O   UNL     1      48.248 132.311  21.242  1.00  0.00    -0.250 OA
ENDROOT
BRANCH   1   3
ATOM      3  C   UNL     1      47.989 134.349  22.493  1.00  0.00     0.149 C 
ATOM      4  C   UNL     1      46.951 134.639  23.588  1.00  0.00     0.040 C 
ATOM      5  C   UNL     1      48.260 135.629  21.680  1.00  0.00     0.040 C 
BRANCH   3   6
ATOM      6  C   UNL     1      49.252 133.921  23.124  1.00  0.00     0.080 C 
ATOM      7  N   UNL     1      50.243 133.585  23.619  1.00  0.00    -0.197 NA
ENDBRANCH   3   6
ENDBRANCH   1   3
BRANCH   1   8
ATOM      8  O   UNL     1      46.125 133.216  21.224  1.00  0.00    -0.454 OA
BRANCH   8   9
ATOM      9  C   UNL     1      45.491 132.061  20.678  1.00  0.00     0.229 C 
ATOM     10  C   UNL     1      44.623 131.431  21.700  1.00  0.00    -0.002 A 
ATOM     11  C   UNL     1      44.496 132.447  19.548  1.00  0.00     0.132 C 
ATOM     12  C   UNL     1      45.001 131.013  22.979  1.00  0.00     0.008 A 
ATOM     13  C   UNL     1      43.343 131.236  21.241  1.00  0.00    -0.039 A 
ATOM     14  C   UNL     1      43.170 131.714  19.850  1.00  0.00     0.065 C 
ATOM     15  C   UNL     1      44.042 130.399  23.799  1.00  0.00     0.000 A 
ATOM     16  C   UNL     1      42.375 130.620  22.038  1.00  0.00     0.004 A 
ATOM     17  C   UNL     1      42.732 130.203  23.329  1.00  0.00     0.000 A 
BRANCH  11  18
ATOM     18  N   UNL     1      45.008 132.088  18.221  1.00  0.00    -0.349 N 
ATOM     19  C   UNL     1      45.640 130.823  17.970  1.00  0.00     0.223 C 
ATOM     20  H   UNL     1      44.875 132.744  17.418  1.00  0.00     0.163 HD
ATOM     21  O   UNL     1      45.812 130.003  18.912  1.00  0.00    -0.275 OA
BRANCH  19  22
ATOM     22  C   UNL     1      46.113 130.462  16.583  1.00  0.00     0.078 C 
ATOM     23  C   UNL     1      45.193 129.438  15.901  1.00  0.00     0.013 C 
ATOM     24  C   UNL     1      46.170 131.687  15.662  1.00  0.00     0.013 C 
ATOM     25  C   UNL     1      44.632 130.118  14.662  1.00  0.00     0.001 C 
ATOM     26  C   UNL     1      45.609 131.230  14.327  1.00  0.00     0.001 C 
ENDBRANCH  19  22
ENDBRANCH  11  18
ENDBRANCH   8   9
ENDBRANCH   1   8
TORSDOF 6
ENDMDL
MODEL 9
REMARK VINA RESULT:      -4.4      3.626      5.323
REMARK SMILES CC(C)(C#N)C(=O)O[C@H]1c2ccccc2C[C@@H]1NC(=O)C1CCCC1
REMARK SMILES IDX 6 1 7 2 2 3 1 4 3 5 4 6 5 7 8 8 9 9 10 10 17 11 11 12 15 13
REMARK SMILES IDX 16 14 12 15 14 16 13 17 18 18 19 19 20 21 21 22 22 23 25 24
REMARK SMILES IDX 23 25 24 26
REMARK H PARENT 18 20
ROOT
ATOM      1  C   UNL     1      47.261 133.046  21.359  1.00  0.00     0.326 C 
ATOM      2  O   UNL     1      47.942 132.038  21.020  1.00  0.00    -0.250 OA
ENDROOT
BRANCH   1   3
ATOM      3  C   UNL     1      47.855 134.076  22.294  1.00  0.00     0.149 C 
ATOM      4  C   UNL     1      49.198 133.559  22.829  1.00  0.00     0.040 C 
ATOM      5  C   UNL     1      46.901 134.364  23.469  1.00  0.00     0.040 C 
BRANCH   3   6
ATOM      6  C   UNL     1      48.078 135.335  21.557  1.00  0.00     0.080 C 
ATOM      7  N   UNL     1      48.254 136.322  20.979  1.00  0.00    -0.197 NA
ENDBRANCH   3   6
ENDBRANCH   1   3
BRANCH   1   8
ATOM      8  O   UNL     1      45.936 133.175  20.925  1.00  0.00    -0.454 OA
BRANCH   8   9
ATOM      9  C   UNL     1      45.118 132.060  20.573  1.00  0.00     0.229 C 
ATOM     10  C   UNL     1      44.446 131.527  21.780  1.00  0.00    -0.002 A 
ATOM     11  C   UNL     1      43.936 132.495  19.663  1.00  0.00     0.132 C 
ATOM     12  C   UNL     1      45.057 131.112  22.967  1.00  0.00     0.008 A 
ATOM     13  C   UNL     1      43.086 131.422  21.609  1.00  0.00    -0.039 A 
ATOM     14  C   UNL     1      42.656 131.877  20.267  1.00  0.00     0.065 C 
ATOM     15  C   UNL     1      44.253 130.596  23.995  1.00  0.00     0.000 A 
ATOM     16  C   UNL     1      42.270 130.903  22.617  1.00  0.00     0.004 A 
ATOM     17  C   UNL     1      42.862 130.492  23.821  1.00  0.00     0.000 A 
BRANCH  11  18
ATOM     18  N   UNL     1      44.126 132.064  18.274  1.00  0.00    -0.349 N 
ATOM     19  C   UNL     1      45.022 130.996  17.928  1.00  0.00     0.223 C 
ATOM     20  H   UNL     1      43.567 132.509  17.511  1.00  0.00     0.163 HD
ATOM     21  O   UNL     1      45.708 130.431  18.822  1.00  0.00    -0.275 OA
BRANCH  19  22
ATOM     22  C   UNL     1      45.160 130.542  16.496  1.00  0.00     0.078 C 
ATOM     23  C   UNL     1      45.144 131.719  15.507  1.00  0.00     0.013 C 
ATOM     24  C   UNL     1      46.472 129.785  16.260  1.00  0.00     0.013 C 
ATOM     25  C   UNL     1      46.490 131.706  14.798  1.00  0.00     0.001 C 
ATOM     26  C   UNL     1      47.009 130.286  14.931  1.00  0.00     0.001 C 
ENDBRANCH  19  22
ENDBRANCH  11  18
ENDBRANCH   8   9
ENDBRANCH   1   8
TORSDOF 6
ENDMDL


