REMARK SMILES Cc1ccc([C@H]2O[C@@H]2C(=O)c2ccc(F)cc2)cc1F
REMARK SMILES IDX 6 1 7 2 8 3 5 4 2 5 3 6 19 7 4 8 18 9 1 10 20 11 9 12 10 13
REMARK SMILES IDX 11 14 12 15 17 16 13 17 16 18 14 19 15 20
REMARK H PARENT
ROOT
ATOM      1  C   UNL     1       0.097  -0.368  -0.348  1.00  0.00     0.186 C 
ATOM      2  O   UNL     1       0.881   0.474   0.466  1.00  0.00    -0.356 OA
ATOM      3  C   UNL     1       1.137  -0.909   0.564  1.00  0.00     0.224 C 
ENDROOT
BRANCH   1   4
ATOM      4  C   UNL     1      -1.315  -0.457   0.150  1.00  0.00    -0.013 A 
ATOM      5  C   UNL     1      -3.988  -0.633   1.006  1.00  0.00    -0.015 A 
ATOM      6  C   UNL     1      -3.241  -1.798   0.771  1.00  0.00     0.007 A 
ATOM      7  C   UNL     1      -3.388   0.622   0.812  1.00  0.00     0.126 A 
ATOM      8  C   UNL     1      -1.915  -1.710   0.336  1.00  0.00     0.007 A 
ATOM      9  C   UNL     1      -2.061   0.708   0.377  1.00  0.00     0.046 A 
ATOM     10  C   UNL     1      -5.406  -0.724   1.493  1.00  0.00     0.047 C 
ATOM     11  F   UNL     1      -4.087   1.763   1.041  1.00  0.00    -0.207 F 
ENDBRANCH   1   4
BRANCH   3  12
ATOM     12  C   UNL     1       2.445  -1.267  -0.077  1.00  0.00     0.194 C 
ATOM     13  O   UNL     1       2.433  -2.029  -1.082  1.00  0.00    -0.291 OA
BRANCH  12  14
ATOM     14  C   UNL     1       3.740  -0.777   0.464  1.00  0.00     0.021 A 
ATOM     15  C   UNL     1       3.805  -0.079   1.687  1.00  0.00     0.015 A 
ATOM     16  C   UNL     1       4.935  -1.013  -0.244  1.00  0.00     0.015 A 
ATOM     17  C   UNL     1       5.032   0.373   2.181  1.00  0.00     0.040 A 
ATOM     18  C   UNL     1       6.159  -0.557   0.255  1.00  0.00     0.040 A 
ATOM     19  C   UNL     1       6.208   0.136   1.467  1.00  0.00     0.123 A 
ATOM     20  F   UNL     1       7.396   0.576   1.949  1.00  0.00    -0.207 F 
ENDBRANCH  12  14
ENDBRANCH   3  12
TORSDOF 3


