REMARK SMILES Cc1cc(N)c(OC(=O)/C=C(\N)C(N)=O)c(-n2nc3ccccc3[nH+]2)c1
REMARK SMILES IDX 8 1 9 2 10 3 11 4 13 5 14 6 15 7 12 10 7 13 6 14 4 15 16 16
REMARK SMILES IDX 3 17 26 18 2 19 1 20 5 21 17 24 18 25 25 26 19 27 24 28
REMARK SMILES IDX 20 29 23 30 21 31 22 32
REMARK H PARENT 14 8 14 9 12 11 12 12 5 22 5 23 25 33
ROOT
ATOM      1  C   UNL     1       1.565  -0.331  -0.071  1.00  0.00     0.338 C 
ATOM      2  O   UNL     1       1.103  -0.245  -1.242  1.00  0.00    -0.246 OA
ENDROOT
BRANCH   1   3
ATOM      3  C   UNL     1       2.591   0.609   0.419  1.00  0.00     0.125 C 
BRANCH   3   4
ATOM      4  C   UNL     1       3.376   1.391  -0.352  1.00  0.00     0.104 C 
BRANCH   4   5
ATOM      5  C   UNL     1       4.255   2.402   0.286  1.00  0.00     0.264 C 
ATOM      6  N   UNL     1       5.397   2.921  -0.399  1.00  0.00    -0.364 N 
ATOM      7  O   UNL     1       4.003   2.815   1.451  1.00  0.00    -0.268 OA
ATOM      8  H   UNL     1       5.714   2.526  -1.311  1.00  0.00     0.160 HD
ATOM      9  H   UNL     1       5.978   3.666   0.046  1.00  0.00     0.160 HD
ENDBRANCH   4   5
BRANCH   4  10
ATOM     10  N   UNL     1       3.400   1.251  -1.780  1.00  0.00    -0.394 N 
ATOM     11  H   UNL     1       3.728   2.036  -2.385  1.00  0.00     0.156 HD
ATOM     12  H   UNL     1       3.204   0.339  -2.246  1.00  0.00     0.156 HD
ENDBRANCH   4  10
ENDBRANCH   3   4
ENDBRANCH   1   3
BRANCH   1  13
ATOM     13  O   UNL     1       1.066  -1.294   0.814  1.00  0.00    -0.419 OA
BRANCH  13  14
ATOM     14  C   UNL     1      -0.073  -2.069   0.554  1.00  0.00     0.185 A 
ATOM     15  C   UNL     1       0.028  -3.471   0.621  1.00  0.00     0.078 A 
ATOM     16  C   UNL     1      -1.313  -1.468   0.234  1.00  0.00     0.173 A 
ATOM     17  C   UNL     1      -1.084  -4.266   0.309  1.00  0.00     0.033 A 
ATOM     18  C   UNL     1      -2.411  -2.282  -0.088  1.00  0.00     0.042 A 
ATOM     19  C   UNL     1      -2.296  -3.677  -0.071  1.00  0.00    -0.046 A 
ATOM     20  C   UNL     1      -3.491  -4.536  -0.368  1.00  0.00     0.044 C 
BRANCH  15  21
ATOM     21  N   UNL     1       1.264  -4.098   0.982  1.00  0.00    -0.396 N 
ATOM     22  H   UNL     1       2.112  -3.536   1.215  1.00  0.00     0.156 HD
ATOM     23  H   UNL     1       1.341  -5.139   1.022  1.00  0.00     0.156 HD
ENDBRANCH  15  21
BRANCH  16  24
ATOM     24  N   UNL     1      -1.484  -0.042   0.291  1.00  0.00    -0.009 N 
ATOM     25  N   UNL     1      -0.921   0.733   1.219  1.00  0.00     0.054 NA
ATOM     26  N   UNL     1      -2.229   0.657  -0.563  1.00  0.00    -0.161 N 
ATOM     27  C   UNL     1      -1.325   1.980   0.922  1.00  0.00     0.249 A 
ATOM     28  C   UNL     1      -2.130   1.935  -0.176  1.00  0.00     0.198 A 
ATOM     29  C   UNL     1      -1.012   3.176   1.560  1.00  0.00     0.064 A 
ATOM     30  C   UNL     1      -2.695   3.078  -0.735  1.00  0.00     0.058 A 
ATOM     31  C   UNL     1      -1.565   4.358   1.027  1.00  0.00     0.005 A 
ATOM     32  C   UNL     1      -2.402   4.309  -0.115  1.00  0.00     0.005 A 
ATOM     33  H   UNL     1      -2.755   0.277  -1.381  1.00  0.00     0.340 HD
ENDBRANCH  16  24
ENDBRANCH  13  14
ENDBRANCH   1  13
TORSDOF 8


