REMARK SMILES Cc1ccc(Nc2cccc(N=[N+]=[N-])c2[O-])cc1F
REMARK SMILES IDX 9 1 10 2 11 3 15 4 16 5 7 6 8 7 12 8 13 9 14 10 6 11 5 13
REMARK SMILES IDX 4 14 17 15 3 16 18 17 2 18 19 19 1 20
REMARK H PARENT 6 12
ROOT
ATOM      1  C   UNL     1      -1.442   3.180  -3.217  1.00  0.00     0.003 A 
ATOM      2  C   UNL     1      -0.478   4.016  -2.652  1.00  0.00     0.010 A 
ATOM      3  C   UNL     1       0.657   3.479  -2.031  1.00  0.00     0.032 A 
ATOM      4  C   UNL     1       0.817   2.074  -1.980  1.00  0.00    -0.075 A 
ATOM      5  O   UNL     1       1.962   1.509  -1.426  1.00  0.00    -0.871 OA
ATOM      6  C   UNL     1      -0.178   1.231  -2.519  1.00  0.00     0.031 A 
ATOM      7  C   UNL     1      -1.290   1.795  -3.157  1.00  0.00     0.025 A 
ENDROOT
BRANCH   3   8
ATOM      8  N   UNL     1       1.617   4.398  -1.482  1.00  0.00    -0.061 NA
BRANCH   8   9
ATOM      9  N   UNL     1       2.629   4.041  -0.878  1.00  0.00     0.005 N 
ATOM     10  N   UNL     1       3.641   3.692  -0.273  1.00  0.00    -0.003 NA
ENDBRANCH   8   9
ENDBRANCH   3   8
BRANCH   6  11
ATOM     11  N   UNL     1      -0.046  -0.199  -2.482  1.00  0.00    -0.356 N 
ATOM     12  H   UNL     1      -0.293  -0.731  -3.348  1.00  0.00     0.166 HD
BRANCH  11  13
ATOM     13  C   UNL     1       0.302  -0.948  -1.304  1.00  0.00     0.041 A 
ATOM     14  C   UNL     1       0.820  -2.244  -1.440  1.00  0.00     0.026 A 
ATOM     15  C   UNL     1       0.082  -0.431  -0.015  1.00  0.00     0.065 A 
ATOM     16  C   UNL     1       1.147  -2.999  -0.311  1.00  0.00     0.008 A 
ATOM     17  C   UNL     1       0.410  -1.185   1.117  1.00  0.00     0.128 A 
ATOM     18  C   UNL     1       0.960  -2.469   0.975  1.00  0.00    -0.015 A 
ATOM     19  F   UNL     1       0.182  -0.665   2.350  1.00  0.00    -0.207 F 
ATOM     20  C   UNL     1       1.285  -3.292   2.188  1.00  0.00     0.047 C 
ENDBRANCH  11  13
ENDBRANCH   6  11
TORSDOF 4


