MODEL 1
REMARK VINA RESULT:      -7.1      0.000      0.000
REMARK SMILES Oc1ccc(/N=c2\ccc3ccc(-c4cccnc4F)[nH]c-3c2F)c(F)c1
REMARK SMILES IDX 6 1 5 2 2 3 3 4 27 5 4 6 25 7 26 8 1 9 7 11 8 12 23 13 9 14
REMARK SMILES IDX 22 15 10 16 21 17 11 18 13 19 12 20 24 21 14 23 19 24 15 25
REMARK SMILES IDX 18 26 16 27 17 28 20 29
REMARK H PARENT 1 10 21 22
ROOT
ATOM      1  N   UNL     1      44.496 129.283  23.728  1.00  0.00    -0.243 NA
ENDROOT
BRANCH   1   2
ATOM      2  C   UNL     1      44.168 127.899  23.918  1.00  0.00     0.100 A 
ATOM      3  C   UNL     1      43.477 125.218  24.391  1.00  0.00     0.118 A 
ATOM      4  C   UNL     1      42.476 126.184  24.222  1.00  0.00     0.048 A 
ATOM      5  C   UNL     1      44.822 125.597  24.344  1.00  0.00     0.087 A 
ATOM      6  C   UNL     1      42.822 127.521  23.998  1.00  0.00     0.035 A 
ATOM      7  C   UNL     1      45.172 126.933  24.119  1.00  0.00     0.152 A 
ATOM      8  F   UNL     1      46.480 127.289  24.123  1.00  0.00    -0.204 F 
BRANCH   3   9
ATOM      9  O   UNL     1      43.144 123.884  24.614  1.00  0.00    -0.508 OA
ATOM     10  H   UNL     1      42.904 123.545  25.538  1.00  0.00     0.293 HD
ENDBRANCH   3   9
ENDBRANCH   1   2
BRANCH   1  11
ATOM     11  C   UNL     1      44.193 130.032  22.702  1.00  0.00     0.102 A 
ATOM     12  C   UNL     1      43.255 131.088  22.794  1.00  0.00     0.032 A 
ATOM     13  C   UNL     1      44.855 129.791  21.486  1.00  0.00     0.172 A 
ATOM     14  C   UNL     1      42.948 131.886  21.688  1.00  0.00     0.013 A 
ATOM     15  C   UNL     1      44.573 130.569  20.354  1.00  0.00     0.084 A 
ATOM     16  C   UNL     1      43.578 131.657  20.465  1.00  0.00     0.001 A 
ATOM     17  N   UNL     1      45.194 130.352  19.160  1.00  0.00    -0.352 N 
ATOM     18  C   UNL     1      43.309 132.428  19.336  1.00  0.00     0.012 A 
ATOM     19  C   UNL     1      44.914 131.114  18.058  1.00  0.00     0.050 A 
ATOM     20  C   UNL     1      43.974 132.159  18.140  1.00  0.00     0.027 A 
ATOM     21  F   UNL     1      45.768 128.787  21.407  1.00  0.00    -0.202 F 
ATOM     22  H   UNL     1      45.917 129.601  19.088  1.00  0.00     0.167 HD
BRANCH  19  23
ATOM     23  C   UNL     1      45.605 130.845  16.775  1.00  0.00     0.053 A 
ATOM     24  C   UNL     1      46.023 131.897  15.938  1.00  0.00     0.222 A 
ATOM     25  C   UNL     1      45.855 129.525  16.363  1.00  0.00     0.016 A 
ATOM     26  N   UNL     1      46.649 131.627  14.762  1.00  0.00    -0.228 NA
ATOM     27  C   UNL     1      46.497 129.279  15.148  1.00  0.00     0.021 A 
ATOM     28  C   UNL     1      46.890 130.354  14.352  1.00  0.00     0.114 A 
ATOM     29  F   UNL     1      45.846 133.190  16.307  1.00  0.00    -0.184 F 
ENDBRANCH  19  23
ENDBRANCH   1  11
TORSDOF 4
ENDMDL
MODEL 2
REMARK VINA RESULT:      -6.7      1.336      1.660
REMARK SMILES Oc1ccc(/N=c2\ccc3ccc(-c4cccnc4F)[nH]c-3c2F)c(F)c1
REMARK SMILES IDX 6 1 5 2 2 3 3 4 27 5 4 6 25 7 26 8 1 9 7 11 8 12 23 13 9 14
REMARK SMILES IDX 22 15 10 16 21 17 11 18 13 19 12 20 24 21 14 23 19 24 15 25
REMARK SMILES IDX 18 26 16 27 17 28 20 29
REMARK H PARENT 1 10 21 22
ROOT
ATOM      1  N   UNL     1      45.050 128.725  23.609  1.00  0.00    -0.243 NA
ENDROOT
BRANCH   1   2
ATOM      2  C   UNL     1      44.825 127.308  23.659  1.00  0.00     0.100 A 
ATOM      3  C   UNL     1      44.435 124.527  23.648  1.00  0.00     0.118 A 
ATOM      4  C   UNL     1      45.733 125.056  23.623  1.00  0.00     0.048 A 
ATOM      5  C   UNL     1      43.334 125.389  23.657  1.00  0.00     0.087 A 
ATOM      6  C   UNL     1      45.925 126.441  23.617  1.00  0.00     0.035 A 
ATOM      7  C   UNL     1      43.523 126.775  23.652  1.00  0.00     0.152 A 
ATOM      8  F   UNL     1      42.443 127.595  23.614  1.00  0.00    -0.204 F 
BRANCH   3   9
ATOM      9  O   UNL     1      44.231 123.149  23.656  1.00  0.00    -0.508 OA
ATOM     10  H   UNL     1      43.831 122.677  24.458  1.00  0.00     0.293 HD
ENDBRANCH   3   9
ENDBRANCH   1   2
BRANCH   1  11
ATOM     11  C   UNL     1      44.583 129.568  22.727  1.00  0.00     0.102 A 
ATOM     12  C   UNL     1      43.650 130.575  23.070  1.00  0.00     0.032 A 
ATOM     13  C   UNL     1      45.061 129.479  21.408  1.00  0.00     0.172 A 
ATOM     14  C   UNL     1      43.167 131.474  22.116  1.00  0.00     0.013 A 
ATOM     15  C   UNL     1      44.600 130.363  20.422  1.00  0.00     0.084 A 
ATOM     16  C   UNL     1      43.612 131.398  20.796  1.00  0.00     0.001 A 
ATOM     17  N   UNL     1      45.040 130.295  19.134  1.00  0.00    -0.352 N 
ATOM     18  C   UNL     1      43.164 132.274  19.810  1.00  0.00     0.012 A 
ATOM     19  C   UNL     1      44.586 131.159  18.175  1.00  0.00     0.050 A 
ATOM     20  C   UNL     1      43.648 132.156  18.507  1.00  0.00     0.027 A 
ATOM     21  F   UNL     1      45.972 128.522  21.088  1.00  0.00    -0.202 F 
ATOM     22  H   UNL     1      45.758 129.581  18.875  1.00  0.00     0.167 HD
BRANCH  19  23
ATOM     23  C   UNL     1      45.082 131.051  16.783  1.00  0.00     0.053 A 
ATOM     24  C   UNL     1      44.293 131.467  15.694  1.00  0.00     0.222 A 
ATOM     25  C   UNL     1      46.359 130.526  16.520  1.00  0.00     0.016 A 
ATOM     26  N   UNL     1      44.767 131.354  14.424  1.00  0.00    -0.228 NA
ATOM     27  C   UNL     1      46.816 130.418  15.206  1.00  0.00     0.021 A 
ATOM     28  C   UNL     1      45.997 130.841  14.160  1.00  0.00     0.114 A 
ATOM     29  F   UNL     1      43.072 132.021  15.894  1.00  0.00    -0.184 F 
ENDBRANCH  19  23
ENDBRANCH   1  11
TORSDOF 4
ENDMDL
MODEL 3
REMARK VINA RESULT:      -5.8      1.181      1.433
REMARK SMILES Oc1ccc(/N=c2\ccc3ccc(-c4cccnc4F)[nH]c-3c2F)c(F)c1
REMARK SMILES IDX 6 1 5 2 2 3 3 4 27 5 4 6 25 7 26 8 1 9 7 11 8 12 23 13 9 14
REMARK SMILES IDX 22 15 10 16 21 17 11 18 13 19 12 20 24 21 14 23 19 24 15 25
REMARK SMILES IDX 18 26 16 27 17 28 20 29
REMARK H PARENT 1 10 21 22
ROOT
ATOM      1  N   UNL     1      45.141 128.324  23.707  1.00  0.00    -0.243 NA
ENDROOT
BRANCH   1   2
ATOM      2  C   UNL     1      44.614 127.004  23.910  1.00  0.00     0.100 A 
ATOM      3  C   UNL     1      43.518 124.464  24.394  1.00  0.00     0.118 A 
ATOM      4  C   UNL     1      42.697 125.515  23.963  1.00  0.00     0.048 A 
ATOM      5  C   UNL     1      44.883 124.690  24.602  1.00  0.00     0.087 A 
ATOM      6  C   UNL     1      43.242 126.782  23.734  1.00  0.00     0.035 A 
ATOM      7  C   UNL     1      45.431 125.956  24.373  1.00  0.00     0.152 A 
ATOM      8  F   UNL     1      46.747 126.168  24.625  1.00  0.00    -0.204 F 
BRANCH   3   9
ATOM      9  O   UNL     1      42.987 123.198  24.625  1.00  0.00    -0.508 OA
ATOM     10  H   UNL     1      43.448 122.361  24.289  1.00  0.00     0.293 HD
ENDBRANCH   3   9
ENDBRANCH   1   2
BRANCH   1  11
ATOM     11  C   UNL     1      44.654 129.258  22.934  1.00  0.00     0.102 A 
ATOM     12  C   UNL     1      43.803 130.275  23.428  1.00  0.00     0.032 A 
ATOM     13  C   UNL     1      45.027 129.257  21.579  1.00  0.00     0.172 A 
ATOM     14  C   UNL     1      43.298 131.271  22.589  1.00  0.00     0.013 A 
ATOM     15  C   UNL     1      44.540 130.240  20.705  1.00  0.00     0.084 A 
ATOM     16  C   UNL     1      43.638 131.285  21.236  1.00  0.00     0.001 A 
ATOM     17  N   UNL     1      44.878 130.260  19.385  1.00  0.00    -0.352 N 
ATOM     18  C   UNL     1      43.164 132.260  20.361  1.00  0.00     0.012 A 
ATOM     19  C   UNL     1      44.400 131.220  18.536  1.00  0.00     0.050 A 
ATOM     20  C   UNL     1      43.543 132.228  19.019  1.00  0.00     0.027 A 
ATOM     21  F   UNL     1      45.860 128.289  21.113  1.00  0.00    -0.202 F 
ATOM     22  H   UNL     1      45.537 129.537  19.014  1.00  0.00     0.167 HD
BRANCH  19  23
ATOM     23  C   UNL     1      44.785 131.206  17.105  1.00  0.00     0.053 A 
ATOM     24  C   UNL     1      46.003 130.640  16.684  1.00  0.00     0.222 A 
ATOM     25  C   UNL     1      43.936 131.762  16.133  1.00  0.00     0.016 A 
ATOM     26  N   UNL     1      46.339 130.644  15.367  1.00  0.00    -0.228 NA
ATOM     27  C   UNL     1      44.310 131.754  14.788  1.00  0.00     0.021 A 
ATOM     28  C   UNL     1      45.529 131.186  14.421  1.00  0.00     0.114 A 
ATOM     29  F   UNL     1      46.839 130.051  17.575  1.00  0.00    -0.184 F 
ENDBRANCH  19  23
ENDBRANCH   1  11
TORSDOF 4
ENDMDL
MODEL 4
REMARK VINA RESULT:      -5.8      2.640      3.794
REMARK SMILES Oc1ccc(/N=c2\ccc3ccc(-c4cccnc4F)[nH]c-3c2F)c(F)c1
REMARK SMILES IDX 6 1 5 2 2 3 3 4 27 5 4 6 25 7 26 8 1 9 7 11 8 12 23 13 9 14
REMARK SMILES IDX 22 15 10 16 21 17 11 18 13 19 12 20 24 21 14 23 19 24 15 25
REMARK SMILES IDX 18 26 16 27 17 28 20 29
REMARK H PARENT 1 10 21 22
ROOT
ATOM      1  N   UNL     1      43.463 132.271  21.006  1.00  0.00    -0.243 NA
ENDROOT
BRANCH   1   2
ATOM      2  C   UNL     1      43.874 131.248  21.924  1.00  0.00     0.100 A 
ATOM      3  C   UNL     1      44.569 129.200  23.715  1.00  0.00     0.118 A 
ATOM      4  C   UNL     1      44.212 128.890  22.396  1.00  0.00     0.048 A 
ATOM      5  C   UNL     1      44.558 130.531  24.143  1.00  0.00     0.087 A 
ATOM      6  C   UNL     1      43.854 129.910  21.508  1.00  0.00     0.035 A 
ATOM      7  C   UNL     1      44.202 131.553  23.258  1.00  0.00     0.152 A 
ATOM      8  F   UNL     1      44.152 132.834  23.704  1.00  0.00    -0.204 F 
BRANCH   3   9
ATOM      9  O   UNL     1      44.928 128.192  24.608  1.00  0.00    -0.508 OA
ATOM     10  H   UNL     1      45.763 128.262  25.178  1.00  0.00     0.293 HD
ENDBRANCH   3   9
ENDBRANCH   1   2
BRANCH   1  11
ATOM     11  C   UNL     1      43.296 132.153  19.716  1.00  0.00     0.102 A 
ATOM     12  C   UNL     1      42.071 132.476  19.084  1.00  0.00     0.032 A 
ATOM     13  C   UNL     1      44.389 131.726  18.942  1.00  0.00     0.172 A 
ATOM     14  C   UNL     1      41.912 132.352  17.701  1.00  0.00     0.013 A 
ATOM     15  C   UNL     1      44.268 131.589  17.552  1.00  0.00     0.084 A 
ATOM     16  C   UNL     1      42.975 131.914  16.912  1.00  0.00     0.001 A 
ATOM     17  N   UNL     1      45.308 131.168  16.778  1.00  0.00    -0.352 N 
ATOM     18  C   UNL     1      42.866 131.779  15.530  1.00  0.00     0.012 A 
ATOM     19  C   UNL     1      45.184 131.035  15.422  1.00  0.00     0.050 A 
ATOM     20  C   UNL     1      43.965 131.343  14.789  1.00  0.00     0.027 A 
ATOM     21  F   UNL     1      45.569 131.435  19.552  1.00  0.00    -0.202 F 
ATOM     22  H   UNL     1      46.230 130.963  17.227  1.00  0.00     0.167 HD
BRANCH  19  23
ATOM     23  C   UNL     1      46.336 130.569  14.614  1.00  0.00     0.053 A 
ATOM     24  C   UNL     1      46.861 129.272  14.773  1.00  0.00     0.222 A 
ATOM     25  C   UNL     1      46.932 131.419  13.667  1.00  0.00     0.016 A 
ATOM     26  N   UNL     1      47.922 128.868  14.024  1.00  0.00    -0.228 NA
ATOM     27  C   UNL     1      48.023 130.977  12.916  1.00  0.00     0.021 A 
ATOM     28  C   UNL     1      48.509 129.685  13.112  1.00  0.00     0.114 A 
ATOM     29  F   UNL     1      46.296 128.397  15.641  1.00  0.00    -0.184 F 
ENDBRANCH  19  23
ENDBRANCH   1  11
TORSDOF 4
ENDMDL
MODEL 5
REMARK VINA RESULT:      -5.6      1.923      2.813
REMARK SMILES Oc1ccc(/N=c2\ccc3ccc(-c4cccnc4F)[nH]c-3c2F)c(F)c1
REMARK SMILES IDX 6 1 5 2 2 3 3 4 27 5 4 6 25 7 26 8 1 9 7 11 8 12 23 13 9 14
REMARK SMILES IDX 22 15 10 16 21 17 11 18 13 19 12 20 24 21 14 23 19 24 15 25
REMARK SMILES IDX 18 26 16 27 17 28 20 29
REMARK H PARENT 1 10 21 22
ROOT
ATOM      1  N   UNL     1      43.477 131.433  21.930  1.00  0.00    -0.243 NA
ENDROOT
BRANCH   1   2
ATOM      2  C   UNL     1      43.595 130.189  22.636  1.00  0.00     0.100 A 
ATOM      3  C   UNL     1      43.824 127.699  23.915  1.00  0.00     0.118 A 
ATOM      4  C   UNL     1      44.845 128.153  23.070  1.00  0.00     0.048 A 
ATOM      5  C   UNL     1      42.680 128.481  24.104  1.00  0.00     0.087 A 
ATOM      6  C   UNL     1      44.725 129.388  22.424  1.00  0.00     0.035 A 
ATOM      7  C   UNL     1      42.556 129.717  23.460  1.00  0.00     0.152 A 
ATOM      8  F   UNL     1      41.419 130.440  23.618  1.00  0.00    -0.204 F 
BRANCH   3   9
ATOM      9  O   UNL     1      43.934 126.472  24.564  1.00  0.00    -0.508 OA
ATOM     10  H   UNL     1      44.795 125.939  24.548  1.00  0.00     0.293 HD
ENDBRANCH   3   9
ENDBRANCH   1   2
BRANCH   1  11
ATOM     11  C   UNL     1      43.297 131.598  20.646  1.00  0.00     0.102 A 
ATOM     12  C   UNL     1      42.141 132.225  20.124  1.00  0.00     0.032 A 
ATOM     13  C   UNL     1      44.310 131.164  19.774  1.00  0.00     0.172 A 
ATOM     14  C   UNL     1      41.968 132.401  18.749  1.00  0.00     0.013 A 
ATOM     15  C   UNL     1      44.172 131.323  18.388  1.00  0.00     0.084 A 
ATOM     16  C   UNL     1      42.949 131.965  17.860  1.00  0.00     0.001 A 
ATOM     17  N   UNL     1      45.135 130.905  17.518  1.00  0.00    -0.352 N 
ATOM     18  C   UNL     1      42.825 132.123  16.481  1.00  0.00     0.012 A 
ATOM     19  C   UNL     1      44.995 131.061  16.166  1.00  0.00     0.050 A 
ATOM     20  C   UNL     1      43.842 131.674  15.639  1.00  0.00     0.027 A 
ATOM     21  F   UNL     1      45.427 130.579  20.281  1.00  0.00    -0.202 F 
ATOM     22  H   UNL     1      46.011 130.475  17.891  1.00  0.00     0.167 HD
BRANCH  19  23
ATOM     23  C   UNL     1      46.060 130.588  15.249  1.00  0.00     0.053 A 
ATOM     24  C   UNL     1      46.092 130.991  13.901  1.00  0.00     0.222 A 
ATOM     25  C   UNL     1      47.065 129.722  15.711  1.00  0.00     0.016 A 
ATOM     26  N   UNL     1      47.075 130.540  13.077  1.00  0.00    -0.228 NA
ATOM     27  C   UNL     1      48.059 129.272  14.841  1.00  0.00     0.021 A 
ATOM     28  C   UNL     1      48.047 129.696  13.512  1.00  0.00     0.114 A 
ATOM     29  F   UNL     1      45.172 131.860  13.414  1.00  0.00    -0.184 F 
ENDBRANCH  19  23
ENDBRANCH   1  11
TORSDOF 4
ENDMDL
MODEL 6
REMARK VINA RESULT:      -5.4      1.464      1.679
REMARK SMILES Oc1ccc(/N=c2\ccc3ccc(-c4cccnc4F)[nH]c-3c2F)c(F)c1
REMARK SMILES IDX 6 1 5 2 2 3 3 4 27 5 4 6 25 7 26 8 1 9 7 11 8 12 23 13 9 14
REMARK SMILES IDX 22 15 10 16 21 17 11 18 13 19 12 20 24 21 14 23 19 24 15 25
REMARK SMILES IDX 18 26 16 27 17 28 20 29
REMARK H PARENT 1 10 21 22
ROOT
ATOM      1  N   UNL     1      45.228 128.047  24.049  1.00  0.00    -0.243 NA
ENDROOT
BRANCH   1   2
ATOM      2  C   UNL     1      45.168 126.644  23.749  1.00  0.00     0.100 A 
ATOM      3  C   UNL     1      45.013 123.881  23.272  1.00  0.00     0.118 A 
ATOM      4  C   UNL     1      43.851 124.615  23.546  1.00  0.00     0.048 A 
ATOM      5  C   UNL     1      46.254 124.526  23.257  1.00  0.00     0.087 A 
ATOM      6  C   UNL     1      43.931 125.988  23.795  1.00  0.00     0.035 A 
ATOM      7  C   UNL     1      46.337 125.900  23.505  1.00  0.00     0.152 A 
ATOM      8  F   UNL     1      47.554 126.499  23.533  1.00  0.00    -0.204 F 
BRANCH   3   9
ATOM      9  O   UNL     1      44.945 122.512  23.021  1.00  0.00    -0.508 OA
ATOM     10  H   UNL     1      44.309 122.131  22.332  1.00  0.00     0.293 HD
ENDBRANCH   3   9
ENDBRANCH   1   2
BRANCH   1  11
ATOM     11  C   UNL     1      44.908 129.037  23.259  1.00  0.00     0.102 A 
ATOM     12  C   UNL     1      44.316 130.226  23.747  1.00  0.00     0.032 A 
ATOM     13  C   UNL     1      45.202 128.914  21.890  1.00  0.00     0.172 A 
ATOM     14  C   UNL     1      43.988 131.280  22.890  1.00  0.00     0.013 A 
ATOM     15  C   UNL     1      44.887 129.949  20.999  1.00  0.00     0.084 A 
ATOM     16  C   UNL     1      44.253 131.177  21.524  1.00  0.00     0.001 A 
ATOM     17  N   UNL     1      45.153 129.855  19.665  1.00  0.00    -0.352 N 
ATOM     18  C   UNL     1      43.949 132.202  20.631  1.00  0.00     0.012 A 
ATOM     19  C   UNL     1      44.843 130.867  18.799  1.00  0.00     0.050 A 
ATOM     20  C   UNL     1      44.244 132.048  19.276  1.00  0.00     0.027 A 
ATOM     21  F   UNL     1      45.788 127.777  21.430  1.00  0.00    -0.202 F 
ATOM     22  H   UNL     1      45.626 128.998  19.297  1.00  0.00     0.167 HD
BRANCH  19  23
ATOM     23  C   UNL     1      45.142 130.726  17.354  1.00  0.00     0.053 A 
ATOM     24  C   UNL     1      44.208 131.116  16.375  1.00  0.00     0.222 A 
ATOM     25  C   UNL     1      46.371 130.194  16.929  1.00  0.00     0.016 A 
ATOM     26  N   UNL     1      44.501 130.972  15.056  1.00  0.00    -0.228 NA
ATOM     27  C   UNL     1      46.642 130.054  15.567  1.00  0.00     0.021 A 
ATOM     28  C   UNL     1      45.683 130.452  14.635  1.00  0.00     0.114 A 
ATOM     29  F   UNL     1      43.024 131.675  16.730  1.00  0.00    -0.184 F 
ENDBRANCH  19  23
ENDBRANCH   1  11
TORSDOF 4
ENDMDL
MODEL 7
REMARK VINA RESULT:      -4.8      1.657      2.322
REMARK SMILES Oc1ccc(/N=c2\ccc3ccc(-c4cccnc4F)[nH]c-3c2F)c(F)c1
REMARK SMILES IDX 6 1 5 2 2 3 3 4 27 5 4 6 25 7 26 8 1 9 7 11 8 12 23 13 9 14
REMARK SMILES IDX 22 15 10 16 21 17 11 18 13 19 12 20 24 21 14 23 19 24 15 25
REMARK SMILES IDX 18 26 16 27 17 28 20 29
REMARK H PARENT 1 10 21 22
ROOT
ATOM      1  N   UNL     1      44.698 127.058  24.323  1.00  0.00    -0.243 NA
ENDROOT
BRANCH   1   2
ATOM      2  C   UNL     1      43.875 125.896  24.142  1.00  0.00     0.100 A 
ATOM      3  C   UNL     1      42.325 123.598  23.691  1.00  0.00     0.118 A 
ATOM      4  C   UNL     1      43.696 123.482  23.957  1.00  0.00     0.048 A 
ATOM      5  C   UNL     1      41.735 124.864  23.629  1.00  0.00     0.087 A 
ATOM      6  C   UNL     1      44.469 124.628  24.170  1.00  0.00     0.035 A 
ATOM      7  C   UNL     1      42.505 126.013  23.842  1.00  0.00     0.152 A 
ATOM      8  F   UNL     1      41.925 127.234  23.733  1.00  0.00    -0.204 F 
BRANCH   3   9
ATOM      9  O   UNL     1      41.545 122.464  23.478  1.00  0.00    -0.508 OA
ATOM     10  H   UNL     1      40.620 122.374  23.880  1.00  0.00     0.293 HD
ENDBRANCH   3   9
ENDBRANCH   1   2
BRANCH   1  11
ATOM     11  C   UNL     1      44.592 128.204  23.705  1.00  0.00     0.102 A 
ATOM     12  C   UNL     1      44.156 129.377  24.367  1.00  0.00     0.032 A 
ATOM     13  C   UNL     1      44.962 128.264  22.350  1.00  0.00     0.172 A 
ATOM     14  C   UNL     1      44.056 130.597  23.694  1.00  0.00     0.013 A 
ATOM     15  C   UNL     1      44.875 129.470  21.641  1.00  0.00     0.084 A 
ATOM     16  C   UNL     1      44.400 130.681  22.345  1.00  0.00     0.001 A 
ATOM     17  N   UNL     1      45.219 129.556  20.325  1.00  0.00    -0.352 N 
ATOM     18  C   UNL     1      44.323 131.876  21.632  1.00  0.00     0.012 A 
ATOM     19  C   UNL     1      45.131 130.735  19.636  1.00  0.00     0.050 A 
ATOM     20  C   UNL     1      44.687 131.903  20.286  1.00  0.00     0.027 A 
ATOM     21  F   UNL     1      45.399 127.139  21.724  1.00  0.00    -0.202 F 
ATOM     22  H   UNL     1      45.580 128.707  19.833  1.00  0.00     0.167 HD
BRANCH  19  23
ATOM     23  C   UNL     1      45.508 130.789  18.204  1.00  0.00     0.053 A 
ATOM     24  C   UNL     1      45.143 131.882  17.395  1.00  0.00     0.222 A 
ATOM     25  C   UNL     1      46.241 129.742  17.620  1.00  0.00     0.016 A 
ATOM     26  N   UNL     1      45.494 131.907  16.082  1.00  0.00    -0.228 NA
ATOM     27  C   UNL     1      46.584 129.794  16.268  1.00  0.00     0.021 A 
ATOM     28  C   UNL     1      46.196 130.897  15.507  1.00  0.00     0.114 A 
ATOM     29  F   UNL     1      44.473 132.939  17.918  1.00  0.00    -0.184 F 
ENDBRANCH  19  23
ENDBRANCH   1  11
TORSDOF 4
ENDMDL
MODEL 8
REMARK VINA RESULT:      -4.8      2.571      3.899
REMARK SMILES Oc1ccc(/N=c2\ccc3ccc(-c4cccnc4F)[nH]c-3c2F)c(F)c1
REMARK SMILES IDX 6 1 5 2 2 3 3 4 27 5 4 6 25 7 26 8 1 9 7 11 8 12 23 13 9 14
REMARK SMILES IDX 22 15 10 16 21 17 11 18 13 19 12 20 24 21 14 23 19 24 15 25
REMARK SMILES IDX 18 26 16 27 17 28 20 29
REMARK H PARENT 1 10 21 22
ROOT
ATOM      1  N   UNL     1      43.991 132.085  20.685  1.00  0.00    -0.243 NA
ENDROOT
BRANCH   1   2
ATOM      2  C   UNL     1      43.836 131.096  21.714  1.00  0.00     0.100 A 
ATOM      3  C   UNL     1      43.518 129.081  23.644  1.00  0.00     0.118 A 
ATOM      4  C   UNL     1      44.595 129.036  22.749  1.00  0.00     0.048 A 
ATOM      5  C   UNL     1      42.589 130.123  23.558  1.00  0.00     0.087 A 
ATOM      6  C   UNL     1      44.747 130.033  21.781  1.00  0.00     0.035 A 
ATOM      7  C   UNL     1      42.737 131.123  22.592  1.00  0.00     0.152 A 
ATOM      8  F   UNL     1      41.801 132.100  22.494  1.00  0.00    -0.204 F 
BRANCH   3   9
ATOM      9  O   UNL     1      43.358 128.093  24.613  1.00  0.00    -0.508 OA
ATOM     10  H   UNL     1      44.115 127.830  25.231  1.00  0.00     0.293 HD
ENDBRANCH   3   9
ENDBRANCH   1   2
BRANCH   1  11
ATOM     11  C   UNL     1      43.822 131.919  19.400  1.00  0.00     0.102 A 
ATOM     12  C   UNL     1      42.573 132.137  18.772  1.00  0.00     0.032 A 
ATOM     13  C   UNL     1      44.937 131.548  18.628  1.00  0.00     0.172 A 
ATOM     14  C   UNL     1      42.412 131.964  17.394  1.00  0.00     0.013 A 
ATOM     15  C   UNL     1      44.815 131.364  17.243  1.00  0.00     0.084 A 
ATOM     16  C   UNL     1      43.497 131.580  16.607  1.00  0.00     0.001 A 
ATOM     17  N   UNL     1      45.876 130.996  16.471  1.00  0.00    -0.352 N 
ATOM     18  C   UNL     1      43.387 131.399  15.230  1.00  0.00     0.012 A 
ATOM     19  C   UNL     1      45.751 130.817  15.120  1.00  0.00     0.050 A 
ATOM     20  C   UNL     1      44.508 131.021  14.490  1.00  0.00     0.027 A 
ATOM     21  F   UNL     1      46.139 131.358  19.233  1.00  0.00    -0.202 F 
ATOM     22  H   UNL     1      46.813 130.870  16.915  1.00  0.00     0.167 HD
BRANCH  19  23
ATOM     23  C   UNL     1      46.926 130.411  14.313  1.00  0.00     0.053 A 
ATOM     24  C   UNL     1      47.161 130.962  13.039  1.00  0.00     0.222 A 
ATOM     25  C   UNL     1      47.835 129.459  14.806  1.00  0.00     0.016 A 
ATOM     26  N   UNL     1      48.242 130.570  12.314  1.00  0.00    -0.228 NA
ATOM     27  C   UNL     1      48.934 129.073  14.036  1.00  0.00     0.021 A 
ATOM     28  C   UNL     1      49.122 129.646  12.779  1.00  0.00     0.114 A 
ATOM     29  F   UNL     1      46.340 131.917  12.534  1.00  0.00    -0.184 F 
ENDBRANCH  19  23
ENDBRANCH   1  11
TORSDOF 4
ENDMDL
MODEL 9
REMARK VINA RESULT:      -4.8      1.352      1.638
REMARK SMILES Oc1ccc(/N=c2\ccc3ccc(-c4cccnc4F)[nH]c-3c2F)c(F)c1
REMARK SMILES IDX 6 1 5 2 2 3 3 4 27 5 4 6 25 7 26 8 1 9 7 11 8 12 23 13 9 14
REMARK SMILES IDX 22 15 10 16 21 17 11 18 13 19 12 20 24 21 14 23 19 24 15 25
REMARK SMILES IDX 18 26 16 27 17 28 20 29
REMARK H PARENT 1 10 21 22
ROOT
ATOM      1  N   UNL     1      45.592 128.062  23.299  1.00  0.00    -0.243 NA
ENDROOT
BRANCH   1   2
ATOM      2  C   UNL     1      44.896 126.843  23.597  1.00  0.00     0.100 A 
ATOM      3  C   UNL     1      43.528 124.491  24.293  1.00  0.00     0.118 A 
ATOM      4  C   UNL     1      42.895 125.735  24.412  1.00  0.00     0.048 A 
ATOM      5  C   UNL     1      44.851 124.426  23.847  1.00  0.00     0.087 A 
ATOM      6  C   UNL     1      43.581 126.907  24.076  1.00  0.00     0.035 A 
ATOM      7  C   UNL     1      45.541 125.595  23.509  1.00  0.00     0.152 A 
ATOM      8  F   UNL     1      46.838 125.515  23.123  1.00  0.00    -0.204 F 
BRANCH   3   9
ATOM      9  O   UNL     1      42.854 123.318  24.624  1.00  0.00    -0.508 OA
ATOM     10  H   UNL     1      42.383 122.761  23.921  1.00  0.00     0.293 HD
ENDBRANCH   3   9
ENDBRANCH   1   2
BRANCH   1  11
ATOM     11  C   UNL     1      45.181 129.038  22.534  1.00  0.00     0.102 A 
ATOM     12  C   UNL     1      44.401 130.108  23.034  1.00  0.00     0.032 A 
ATOM     13  C   UNL     1      45.565 129.027  21.182  1.00  0.00     0.172 A 
ATOM     14  C   UNL     1      43.977 131.149  22.204  1.00  0.00     0.013 A 
ATOM     15  C   UNL     1      45.158 130.053  20.317  1.00  0.00     0.084 A 
ATOM     16  C   UNL     1      44.330 131.154  20.855  1.00  0.00     0.001 A 
ATOM     17  N   UNL     1      45.509 130.064  19.001  1.00  0.00    -0.352 N 
ATOM     18  C   UNL     1      43.936 132.172  19.989  1.00  0.00     0.012 A 
ATOM     19  C   UNL     1      45.108 131.067  18.160  1.00  0.00     0.050 A 
ATOM     20  C   UNL     1      44.323 132.129  18.650  1.00  0.00     0.027 A 
ATOM     21  F   UNL     1      46.329 128.007  20.710  1.00  0.00    -0.202 F 
ATOM     22  H   UNL     1      46.116 129.301  18.626  1.00  0.00     0.167 HD
BRANCH  19  23
ATOM     23  C   UNL     1      45.504 131.043  16.732  1.00  0.00     0.053 A 
ATOM     24  C   UNL     1      45.289 129.901  15.936  1.00  0.00     0.222 A 
ATOM     25  C   UNL     1      46.108 132.165  16.140  1.00  0.00     0.016 A 
ATOM     26  N   UNL     1      45.666 129.899  14.630  1.00  0.00    -0.228 NA
ATOM     27  C   UNL     1      46.487 132.132  14.798  1.00  0.00     0.021 A 
ATOM     28  C   UNL     1      46.256 130.977  14.051  1.00  0.00     0.114 A 
ATOM     29  F   UNL     1      44.671 128.807  16.446  1.00  0.00    -0.184 F 
ENDBRANCH  19  23
ENDBRANCH   1  11
TORSDOF 4
ENDMDL


