REMARK SMILES Cc1ccc(-c2ccc3[nH]ccc3c2)c(F)n1
REMARK SMILES IDX 6 1 7 2 8 3 9 4 10 5 11 6 12 7 13 8 14 9 5 11 2 12 3 13
REMARK SMILES IDX 17 14 4 15 15 16 1 17 16 18
REMARK H PARENT 10 10
ROOT
ATOM      1  C   UNL     1       0.605   0.941   0.062  1.00  0.00    -0.013 A 
ATOM      2  C   UNL     1       1.583   1.730   0.725  1.00  0.00     0.011 A 
ATOM      3  C   UNL     1       1.317   2.301   1.983  1.00  0.00     0.027 A 
ATOM      4  C   UNL     1       0.067   2.071   2.552  1.00  0.00     0.045 A 
ATOM      5  N   UNL     1      -0.389   2.522   3.731  1.00  0.00    -0.361 N 
ATOM      6  C   UNL     1      -1.650   2.046   3.846  1.00  0.00     0.083 A 
ATOM      7  C   UNL     1      -1.995   1.288   2.732  1.00  0.00     0.028 A 
ATOM      8  C   UNL     1      -0.883   1.317   1.919  1.00  0.00    -0.000 A 
ATOM      9  C   UNL     1      -0.655   0.736   0.674  1.00  0.00     0.019 A 
ATOM     10  H   UNL     1       0.120   3.120   4.420  1.00  0.00     0.166 HD
ENDROOT
BRANCH   1  11
ATOM     11  C   UNL     1       0.898   0.353  -1.267  1.00  0.00     0.037 A 
ATOM     12  C   UNL     1       1.435  -0.755  -3.771  1.00  0.00     0.041 A 
ATOM     13  C   UNL     1       1.772   0.579  -3.521  1.00  0.00     0.024 A 
ATOM     14  N   UNL     1       0.862  -1.501  -2.789  1.00  0.00    -0.225 NA
ATOM     15  C   UNL     1       1.503   1.131  -2.267  1.00  0.00     0.015 A 
ATOM     16  C   UNL     1       0.586  -0.988  -1.560  1.00  0.00     0.220 A 
ATOM     17  C   UNL     1       1.727  -1.372  -5.101  1.00  0.00     0.067 C 
ATOM     18  F   UNL     1       0.044  -1.799  -0.617  1.00  0.00    -0.184 F 
ENDBRANCH   1  11
TORSDOF 1


