REMARK SMILES C#CCOCn1[nH+]c2cc(-c3cnc(F)cc3C)ccc2c1C
REMARK SMILES IDX 4 1 3 2 2 3 1 4 5 5 6 6 7 7 22 8 8 9 21 10 9 11 20 12 10 13
REMARK SMILES IDX 19 14 23 16 11 17 12 18 17 19 13 20 16 21 14 22 18 23 15 24
REMARK H PARENT 7 15
ROOT
ATOM      1  O   UNL     1       4.403   0.656   0.099  1.00  0.00    -0.342 OA
ENDROOT
BRANCH   1   2
ATOM      2  C   UNL     1       5.754   0.788   0.481  1.00  0.00     0.251 C 
BRANCH   2   3
ATOM      3  C   UNL     1       6.493   1.424  -0.610  1.00  0.00    -0.078 C 
ATOM      4  C   UNL     1       7.102   1.948  -1.509  1.00  0.00     0.006 C 
ENDBRANCH   2   3
ENDBRANCH   1   2
BRANCH   1   5
ATOM      5  C   UNL     1       3.675   0.055   1.148  1.00  0.00     0.351 C 
BRANCH   5   6
ATOM      6  N   UNL     1       2.288  -0.121   0.724  1.00  0.00    -0.133 N 
ATOM      7  N   UNL     1       1.301   0.703   1.060  1.00  0.00    -0.121 N 
ATOM      8  C   UNL     1       1.809  -1.086  -0.104  1.00  0.00     0.090 A 
ATOM      9  C   UNL     1       0.178   0.256   0.473  1.00  0.00     0.236 A 
ATOM     10  C   UNL     1       0.452  -0.868  -0.259  1.00  0.00     0.073 A 
ATOM     11  C   UNL     1      -1.105   0.790   0.554  1.00  0.00     0.091 A 
ATOM     12  C   UNL     1      -0.540  -1.546  -0.964  1.00  0.00     0.018 A 
ATOM     13  C   UNL     1      -2.141   0.127  -0.141  1.00  0.00    -0.010 A 
ATOM     14  C   UNL     1      -1.849  -1.034  -0.905  1.00  0.00     0.010 A 
ATOM     15  H   UNL     1       1.397   1.543   1.675  1.00  0.00     0.489 HD
ATOM     16  C   UNL     1       2.607  -2.224  -0.666  1.00  0.00     0.071 C 
BRANCH  13  17
ATOM     17  C   UNL     1      -3.520   0.664  -0.093  1.00  0.00     0.003 A 
ATOM     18  C   UNL     1      -3.754   1.975  -0.539  1.00  0.00     0.123 A 
ATOM     19  C   UNL     1      -4.612  -0.095   0.393  1.00  0.00    -0.037 A 
ATOM     20  N   UNL     1      -5.011   2.490  -0.534  1.00  0.00    -0.228 NA
ATOM     21  C   UNL     1      -5.898   0.467   0.366  1.00  0.00     0.064 A 
ATOM     22  C   UNL     1      -6.076   1.769  -0.101  1.00  0.00     0.213 A 
ATOM     23  C   UNL     1      -4.439  -1.494   0.924  1.00  0.00     0.045 C 
ATOM     24  F   UNL     1      -7.314   2.320  -0.118  1.00  0.00    -0.185 F 
ENDBRANCH  13  17
ENDBRANCH   5   6
ENDBRANCH   1   5
TORSDOF 5


