REMARK SMILES Cc1cc(N)c(N[C@H]2CC[C@@H](C)N(c3cnc(CC#N)n3C)[C@@H]2F)cc1F
REMARK SMILES IDX 8 1 9 2 10 3 11 4 12 5 13 6 23 7 24 8 7 9 6 11 2 12 3 13
REMARK SMILES IDX 26 14 4 15 25 16 1 17 27 18 5 19 14 22 15 23 21 24 16 25
REMARK SMILES IDX 17 26 22 27 18 28 19 29 20 30
REMARK H PARENT 7 10 5 20 5 21
ROOT
ATOM      1  C   UNL     1       1.744  -0.096   1.241  1.00  0.00     0.134 C 
ATOM      2  C   UNL     1       2.125   0.959   2.293  1.00  0.00     0.032 C 
ATOM      3  C   UNL     1       0.885   1.460   3.040  1.00  0.00     0.027 C 
ATOM      4  C   UNL     1      -0.184   2.015   2.082  1.00  0.00     0.083 C 
ATOM      5  C   UNL     1       0.182   3.405   1.545  1.00  0.00     0.031 C 
ATOM      6  N   UNL     1      -0.418   1.083   0.968  1.00  0.00    -0.322 N 
ATOM      7  C   UNL     1       0.720   0.486   0.248  1.00  0.00     0.286 C 
ATOM      8  F   UNL     1       0.275  -0.525  -0.590  1.00  0.00    -0.221 F 
ENDROOT
BRANCH   1   9
ATOM      9  N   UNL     1       2.946  -0.549   0.527  1.00  0.00    -0.376 N 
ATOM     10  H   UNL     1       3.841  -0.024   0.657  1.00  0.00     0.161 HD
BRANCH   9  11
ATOM     11  C   UNL     1       2.946  -1.655  -0.394  1.00  0.00     0.061 A 
ATOM     12  C   UNL     1       3.013  -3.865  -2.144  1.00  0.00    -0.013 A 
ATOM     13  C   UNL     1       3.648  -2.664  -2.494  1.00  0.00     0.034 A 
ATOM     14  C   UNL     1       2.328  -3.949  -0.924  1.00  0.00     0.128 A 
ATOM     15  C   UNL     1       3.621  -1.558  -1.631  1.00  0.00     0.055 A 
ATOM     16  C   UNL     1       2.302  -2.857  -0.054  1.00  0.00     0.067 A 
ATOM     17  C   UNL     1       3.021  -5.032  -3.088  1.00  0.00     0.047 C 
ATOM     18  F   UNL     1       1.692  -5.095  -0.570  1.00  0.00    -0.207 F 
BRANCH  15  19
ATOM     19  N   UNL     1       4.244  -0.336  -2.046  1.00  0.00    -0.397 N 
ATOM     20  H   UNL     1       4.781  -0.292  -2.941  1.00  0.00     0.156 HD
ATOM     21  H   UNL     1       4.130   0.553  -1.512  1.00  0.00     0.156 HD
ENDBRANCH  15  19
ENDBRANCH   9  11
ENDBRANCH   1   9
BRANCH   6  22
ATOM     22  C   UNL     1      -1.752   0.959   0.447  1.00  0.00     0.131 A 
ATOM     23  C   UNL     1      -2.834   0.469   1.140  1.00  0.00     0.158 A 
ATOM     24  N   UNL     1      -2.142   1.309  -0.794  1.00  0.00    -0.317 N 
ATOM     25  N   UNL     1      -3.913   0.480   0.331  1.00  0.00    -0.238 NA
ATOM     26  C   UNL     1      -3.456   0.982  -0.839  1.00  0.00     0.124 A 
ATOM     27  C   UNL     1      -1.326   1.893  -1.857  1.00  0.00     0.153 C 
BRANCH  26  28
ATOM     28  C   UNL     1      -4.348   1.197  -2.024  1.00  0.00     0.195 C 
BRANCH  28  29
ATOM     29  C   UNL     1      -4.818   2.584  -2.050  1.00  0.00     0.070 C 
ATOM     30  N   UNL     1      -5.189   3.680  -2.071  1.00  0.00    -0.198 NA
ENDBRANCH  28  29
ENDBRANCH  26  28
ENDBRANCH   6  22
TORSDOF 6


