MODEL 1
REMARK VINA RESULT:      -4.2      0.000      0.000
REMARK SMILES C[C@@H]1CC[C@@H](c2ccc3ncccc3c2)[C@H](F)N1c1[nH+]cnc2c1CCC2
REMARK SMILES IDX 19 1 20 2 21 3 22 4 23 5 24 6 25 7 26 8 27 9 18 11 2 12 3 13
REMARK SMILES IDX 4 14 16 15 5 16 1 17 17 18 6 19 7 20 15 21 8 22 14 23 9 24
REMARK SMILES IDX 13 25 10 26 12 27 11 28
REMARK H PARENT 20 10
ROOT
ATOM      1  C   UNL     1      44.122 131.834  21.601  1.00  0.00     0.230 A 
ATOM      2  N   UNL     1      45.108 132.655  22.065  1.00  0.00    -0.250 N 
ATOM      3  C   UNL     1      45.520 132.595  23.366  1.00  0.00     0.367 A 
ATOM      4  N   UNL     1      44.944 131.713  24.229  1.00  0.00    -0.116 NA
ATOM      5  C   UNL     1      43.959 130.893  23.784  1.00  0.00     0.125 A 
ATOM      6  C   UNL     1      43.531 130.931  22.491  1.00  0.00     0.063 A 
ATOM      7  C   UNL     1      42.453 129.947  22.234  1.00  0.00     0.046 C 
ATOM      8  C   UNL     1      42.228 129.278  23.606  1.00  0.00     0.013 C 
ATOM      9  C   UNL     1      43.241 129.888  24.596  1.00  0.00     0.076 C 
ATOM     10  H   UNL     1      45.560 133.338  21.416  1.00  0.00     0.266 HD
ENDROOT
BRANCH   1  11
ATOM     11  N   UNL     1      43.703 131.918  20.228  1.00  0.00    -0.259 N 
ATOM     12  C   UNL     1      42.617 132.839  19.826  1.00  0.00     0.145 C 
ATOM     13  C   UNL     1      41.874 132.276  18.601  1.00  0.00     0.042 C 
ATOM     14  C   UNL     1      42.852 131.921  17.479  1.00  0.00     0.018 C 
ATOM     15  C   UNL     1      44.652 131.467  19.198  1.00  0.00     0.331 C 
ATOM     16  C   UNL     1      43.894 130.907  17.980  1.00  0.00     0.090 C 
ATOM     17  C   UNL     1      41.609 133.090  20.962  1.00  0.00     0.049 C 
ATOM     18  F   UNL     1      45.482 130.477  19.704  1.00  0.00    -0.205 F 
BRANCH  16  19
ATOM     19  C   UNL     1      44.848 130.504  16.868  1.00  0.00    -0.038 A 
ATOM     20  C   UNL     1      45.101 129.142  16.623  1.00  0.00     0.006 A 
ATOM     21  C   UNL     1      45.491 131.474  16.074  1.00  0.00     0.014 A 
ATOM     22  C   UNL     1      45.977 128.751  15.607  1.00  0.00     0.029 A 
ATOM     23  C   UNL     1      46.371 131.085  15.054  1.00  0.00     0.000 A 
ATOM     24  C   UNL     1      46.614 129.715  14.821  1.00  0.00     0.070 A 
ATOM     25  C   UNL     1      47.021 132.034  14.253  1.00  0.00     0.012 A 
ATOM     26  N   UNL     1      47.468 129.335  13.832  1.00  0.00    -0.256 NA
ATOM     27  C   UNL     1      47.891 131.613  13.245  1.00  0.00     0.021 A 
ATOM     28  C   UNL     1      48.104 130.246  13.048  1.00  0.00     0.112 A 
ENDBRANCH  16  19
ENDBRANCH   1  11
TORSDOF 2
ENDMDL
MODEL 2
REMARK VINA RESULT:      -4.0      6.201      9.735
REMARK SMILES C[C@@H]1CC[C@@H](c2ccc3ncccc3c2)[C@H](F)N1c1[nH+]cnc2c1CCC2
REMARK SMILES IDX 19 1 20 2 21 3 22 4 23 5 24 6 25 7 26 8 27 9 18 11 2 12 3 13
REMARK SMILES IDX 4 14 16 15 5 16 1 17 17 18 6 19 7 20 15 21 8 22 14 23 9 24
REMARK SMILES IDX 13 25 10 26 12 27 11 28
REMARK H PARENT 20 10
ROOT
ATOM      1  C   UNL     1      48.630 124.610  21.924  1.00  0.00     0.230 A 
ATOM      2  N   UNL     1      48.477 124.052  20.689  1.00  0.00    -0.250 N 
ATOM      3  C   UNL     1      49.495 124.072  19.777  1.00  0.00     0.367 A 
ATOM      4  N   UNL     1      50.685 124.659  20.087  1.00  0.00    -0.116 NA
ATOM      5  C   UNL     1      50.850 125.222  21.310  1.00  0.00     0.125 A 
ATOM      6  C   UNL     1      49.851 125.214  22.238  1.00  0.00     0.063 A 
ATOM      7  C   UNL     1      50.259 125.883  23.497  1.00  0.00     0.046 C 
ATOM      8  C   UNL     1      51.698 126.362  23.212  1.00  0.00     0.013 C 
ATOM      9  C   UNL     1      52.075 125.893  21.792  1.00  0.00     0.076 C 
ATOM     10  H   UNL     1      47.572 123.598  20.434  1.00  0.00     0.266 HD
ENDROOT
BRANCH   1  11
ATOM     11  N   UNL     1      47.544 124.580  22.866  1.00  0.00    -0.259 N 
ATOM     12  C   UNL     1      47.572 123.652  24.019  1.00  0.00     0.145 C 
ATOM     13  C   UNL     1      46.136 123.264  24.418  1.00  0.00     0.042 C 
ATOM     14  C   UNL     1      45.267 124.507  24.625  1.00  0.00     0.018 C 
ATOM     15  C   UNL     1      46.680 125.769  22.948  1.00  0.00     0.331 C 
ATOM     16  C   UNL     1      45.249 125.364  23.348  1.00  0.00     0.090 C 
ATOM     17  C   UNL     1      48.381 122.377  23.726  1.00  0.00     0.049 C 
ATOM     18  F   UNL     1      46.637 126.422  21.725  1.00  0.00    -0.205 F 
BRANCH  16  19
ATOM     19  C   UNL     1      44.354 126.580  23.516  1.00  0.00    -0.038 A 
ATOM     20  C   UNL     1      42.971 126.468  23.283  1.00  0.00     0.006 A 
ATOM     21  C   UNL     1      44.884 127.827  23.900  1.00  0.00     0.014 A 
ATOM     22  C   UNL     1      42.131 127.575  23.429  1.00  0.00     0.029 A 
ATOM     23  C   UNL     1      44.044 128.941  24.047  1.00  0.00     0.000 A 
ATOM     24  C   UNL     1      42.659 128.811  23.809  1.00  0.00     0.070 A 
ATOM     25  C   UNL     1      44.552 130.190  24.428  1.00  0.00     0.012 A 
ATOM     26  N   UNL     1      41.842 129.890  23.951  1.00  0.00    -0.256 NA
ATOM     27  C   UNL     1      43.688 131.278  24.566  1.00  0.00     0.021 A 
ATOM     28  C   UNL     1      42.323 131.107  24.320  1.00  0.00     0.112 A 
ENDBRANCH  16  19
ENDBRANCH   1  11
TORSDOF 2
ENDMDL
MODEL 3
REMARK VINA RESULT:      -3.9      0.734      1.445
REMARK SMILES C[C@@H]1CC[C@@H](c2ccc3ncccc3c2)[C@H](F)N1c1[nH+]cnc2c1CCC2
REMARK SMILES IDX 19 1 20 2 21 3 22 4 23 5 24 6 25 7 26 8 27 9 18 11 2 12 3 13
REMARK SMILES IDX 4 14 16 15 5 16 1 17 17 18 6 19 7 20 15 21 8 22 14 23 9 24
REMARK SMILES IDX 13 25 10 26 12 27 11 28
REMARK H PARENT 20 10
ROOT
ATOM      1  C   UNL     1      44.215 131.806  21.750  1.00  0.00     0.230 A 
ATOM      2  N   UNL     1      45.175 132.640  22.247  1.00  0.00    -0.250 N 
ATOM      3  C   UNL     1      45.642 132.493  23.522  1.00  0.00     0.367 A 
ATOM      4  N   UNL     1      45.151 131.509  24.326  1.00  0.00    -0.116 NA
ATOM      5  C   UNL     1      44.193 130.675  23.848  1.00  0.00     0.125 A 
ATOM      6  C   UNL     1      43.711 130.799  22.579  1.00  0.00     0.063 A 
ATOM      7  C   UNL     1      42.677 129.780  22.277  1.00  0.00     0.046 C 
ATOM      8  C   UNL     1      42.545 128.986  23.593  1.00  0.00     0.013 C 
ATOM      9  C   UNL     1      43.564 129.566  24.594  1.00  0.00     0.076 C 
ATOM     10  H   UNL     1      45.562 133.400  21.644  1.00  0.00     0.266 HD
ENDROOT
BRANCH   1  11
ATOM     11  N   UNL     1      43.736 131.981  20.406  1.00  0.00    -0.259 N 
ATOM     12  C   UNL     1      42.472 132.706  20.145  1.00  0.00     0.145 C 
ATOM     13  C   UNL     1      41.812 132.169  18.862  1.00  0.00     0.042 C 
ATOM     14  C   UNL     1      42.798 132.172  17.692  1.00  0.00     0.018 C 
ATOM     15  C   UNL     1      44.716 131.874  19.314  1.00  0.00     0.331 C 
ATOM     16  C   UNL     1      44.041 131.336  18.039  1.00  0.00     0.090 C 
ATOM     17  C   UNL     1      41.479 132.594  21.315  1.00  0.00     0.049 C 
ATOM     18  F   UNL     1      45.748 131.017  19.672  1.00  0.00    -0.205 F 
BRANCH  16  19
ATOM     19  C   UNL     1      45.013 131.287  16.873  1.00  0.00    -0.038 A 
ATOM     20  C   UNL     1      45.355 132.472  16.197  1.00  0.00     0.006 A 
ATOM     21  C   UNL     1      45.582 130.070  16.450  1.00  0.00     0.014 A 
ATOM     22  C   UNL     1      46.246 132.448  15.120  1.00  0.00     0.029 A 
ATOM     23  C   UNL     1      46.476 130.042  15.369  1.00  0.00     0.000 A 
ATOM     24  C   UNL     1      46.808 131.240  14.702  1.00  0.00     0.070 A 
ATOM     25  C   UNL     1      47.052 128.841  14.932  1.00  0.00     0.012 A 
ATOM     26  N   UNL     1      47.675 131.216  13.653  1.00  0.00    -0.256 NA
ATOM     27  C   UNL     1      47.939 128.849  13.854  1.00  0.00     0.021 A 
ATOM     28  C   UNL     1      48.241 130.057  13.221  1.00  0.00     0.112 A 
ENDBRANCH  16  19
ENDBRANCH   1  11
TORSDOF 2
ENDMDL
MODEL 4
REMARK VINA RESULT:      -3.2      1.340      1.834
REMARK SMILES C[C@@H]1CC[C@@H](c2ccc3ncccc3c2)[C@H](F)N1c1[nH+]cnc2c1CCC2
REMARK SMILES IDX 19 1 20 2 21 3 22 4 23 5 24 6 25 7 26 8 27 9 18 11 2 12 3 13
REMARK SMILES IDX 4 14 16 15 5 16 1 17 17 18 6 19 7 20 15 21 8 22 14 23 9 24
REMARK SMILES IDX 13 25 10 26 12 27 11 28
REMARK H PARENT 20 10
ROOT
ATOM      1  C   UNL     1      43.965 131.341  21.988  1.00  0.00     0.230 A 
ATOM      2  N   UNL     1      43.989 132.292  22.966  1.00  0.00    -0.250 N 
ATOM      3  C   UNL     1      44.408 131.991  24.231  1.00  0.00     0.367 A 
ATOM      4  N   UNL     1      44.806 130.725  24.540  1.00  0.00    -0.116 NA
ATOM      5  C   UNL     1      44.784 129.767  23.580  1.00  0.00     0.125 A 
ATOM      6  C   UNL     1      44.372 130.042  22.310  1.00  0.00     0.063 A 
ATOM      7  C   UNL     1      44.435 128.846  21.436  1.00  0.00     0.046 C 
ATOM      8  C   UNL     1      44.933 127.727  22.375  1.00  0.00     0.013 C 
ATOM      9  C   UNL     1      45.183 128.356  23.760  1.00  0.00     0.076 C 
ATOM     10  H   UNL     1      43.686 133.268  22.746  1.00  0.00     0.266 HD
ENDROOT
BRANCH   1  11
ATOM     11  N   UNL     1      43.517 131.680  20.665  1.00  0.00    -0.259 N 
ATOM     12  C   UNL     1      42.299 132.498  20.469  1.00  0.00     0.145 C 
ATOM     13  C   UNL     1      41.629 132.134  19.131  1.00  0.00     0.042 C 
ATOM     14  C   UNL     1      42.632 132.202  17.976  1.00  0.00     0.018 C 
ATOM     15  C   UNL     1      44.506 131.631  19.577  1.00  0.00     0.331 C 
ATOM     16  C   UNL     1      43.822 131.266  18.247  1.00  0.00     0.090 C 
ATOM     17  C   UNL     1      41.283 132.322  21.611  1.00  0.00     0.049 C 
ATOM     18  F   UNL     1      45.483 130.686  19.854  1.00  0.00    -0.205 F 
BRANCH  16  19
ATOM     19  C   UNL     1      44.808 131.283  17.091  1.00  0.00    -0.038 A 
ATOM     20  C   UNL     1      45.239 132.511  16.558  1.00  0.00     0.006 A 
ATOM     21  C   UNL     1      45.301 130.085  16.537  1.00  0.00     0.014 A 
ATOM     22  C   UNL     1      46.144 132.549  15.493  1.00  0.00     0.029 A 
ATOM     23  C   UNL     1      46.209 130.119  15.468  1.00  0.00     0.000 A 
ATOM     24  C   UNL     1      46.631 131.360  14.945  1.00  0.00     0.070 A 
ATOM     25  C   UNL     1      46.711 128.939  14.903  1.00  0.00     0.012 A 
ATOM     26  N   UNL     1      47.512 131.395  13.908  1.00  0.00    -0.256 NA
ATOM     27  C   UNL     1      47.613 129.009  13.840  1.00  0.00     0.021 A 
ATOM     28  C   UNL     1      48.006 130.257  13.351  1.00  0.00     0.112 A 
ENDBRANCH  16  19
ENDBRANCH   1  11
TORSDOF 2
ENDMDL
MODEL 5
REMARK VINA RESULT:      -3.1      7.976     10.779
REMARK SMILES C[C@@H]1CC[C@@H](c2ccc3ncccc3c2)[C@H](F)N1c1[nH+]cnc2c1CCC2
REMARK SMILES IDX 19 1 20 2 21 3 22 4 23 5 24 6 25 7 26 8 27 9 18 11 2 12 3 13
REMARK SMILES IDX 4 14 16 15 5 16 1 17 17 18 6 19 7 20 15 21 8 22 14 23 9 24
REMARK SMILES IDX 13 25 10 26 12 27 11 28
REMARK H PARENT 20 10
ROOT
ATOM      1  C   UNL     1      51.348 124.231  22.206  1.00  0.00     0.230 A 
ATOM      2  N   UNL     1      52.269 123.576  22.970  1.00  0.00    -0.250 N 
ATOM      3  C   UNL     1      53.240 122.805  22.396  1.00  0.00     0.367 A 
ATOM      4  N   UNL     1      53.300 122.672  21.042  1.00  0.00    -0.116 NA
ATOM      5  C   UNL     1      52.389 123.314  20.268  1.00  0.00     0.125 A 
ATOM      6  C   UNL     1      51.412 124.091  20.816  1.00  0.00     0.063 A 
ATOM      7  C   UNL     1      50.537 124.692  19.781  1.00  0.00     0.046 C 
ATOM      8  C   UNL     1      51.099 124.140  18.455  1.00  0.00     0.013 C 
ATOM      9  C   UNL     1      52.325 123.268  18.793  1.00  0.00     0.076 C 
ATOM     10  H   UNL     1      52.236 123.667  24.011  1.00  0.00     0.266 HD
ENDROOT
BRANCH   1  11
ATOM     11  N   UNL     1      50.334 125.035  22.833  1.00  0.00    -0.259 N 
ATOM     12  C   UNL     1      50.681 126.327  23.465  1.00  0.00     0.145 C 
ATOM     13  C   UNL     1      49.713 126.623  24.625  1.00  0.00     0.042 C 
ATOM     14  C   UNL     1      48.256 126.511  24.170  1.00  0.00     0.018 C 
ATOM     15  C   UNL     1      48.938 124.811  22.424  1.00  0.00     0.331 C 
ATOM     16  C   UNL     1      47.983 125.111  23.594  1.00  0.00     0.090 C 
ATOM     17  C   UNL     1      52.127 126.355  23.989  1.00  0.00     0.049 C 
ATOM     18  F   UNL     1      48.757 123.496  22.022  1.00  0.00    -0.205 F 
BRANCH  16  19
ATOM     19  C   UNL     1      46.530 124.962  23.178  1.00  0.00    -0.038 A 
ATOM     20  C   UNL     1      45.634 126.028  23.374  1.00  0.00     0.006 A 
ATOM     21  C   UNL     1      46.057 123.768  22.598  1.00  0.00     0.014 A 
ATOM     22  C   UNL     1      44.292 125.910  22.999  1.00  0.00     0.029 A 
ATOM     23  C   UNL     1      44.711 123.646  22.222  1.00  0.00     0.000 A 
ATOM     24  C   UNL     1      43.826 124.725  22.426  1.00  0.00     0.070 A 
ATOM     25  C   UNL     1      44.222 122.467  21.644  1.00  0.00     0.012 A 
ATOM     26  N   UNL     1      42.519 124.610  22.061  1.00  0.00    -0.256 NA
ATOM     27  C   UNL     1      42.876 122.379  21.281  1.00  0.00     0.021 A 
ATOM     28  C   UNL     1      42.032 123.470  21.500  1.00  0.00     0.112 A 
ENDBRANCH  16  19
ENDBRANCH   1  11
TORSDOF 2
ENDMDL
MODEL 6
REMARK VINA RESULT:      -2.9      2.165      3.046
REMARK SMILES C[C@@H]1CC[C@@H](c2ccc3ncccc3c2)[C@H](F)N1c1[nH+]cnc2c1CCC2
REMARK SMILES IDX 19 1 20 2 21 3 22 4 23 5 24 6 25 7 26 8 27 9 18 11 2 12 3 13
REMARK SMILES IDX 4 14 16 15 5 16 1 17 17 18 6 19 7 20 15 21 8 22 14 23 9 24
REMARK SMILES IDX 13 25 10 26 12 27 11 28
REMARK H PARENT 20 10
ROOT
ATOM      1  C   UNL     1      44.902 128.795  22.160  1.00  0.00     0.230 A 
ATOM      2  N   UNL     1      45.998 127.983  22.112  1.00  0.00    -0.250 N 
ATOM      3  C   UNL     1      46.025 126.797  22.789  1.00  0.00     0.367 A 
ATOM      4  N   UNL     1      44.953 126.405  23.533  1.00  0.00    -0.116 NA
ATOM      5  C   UNL     1      43.858 127.204  23.593  1.00  0.00     0.125 A 
ATOM      6  C   UNL     1      43.805 128.391  22.926  1.00  0.00     0.063 A 
ATOM      7  C   UNL     1      42.513 129.088  23.137  1.00  0.00     0.046 C 
ATOM      8  C   UNL     1      41.741 128.155  24.093  1.00  0.00     0.013 C 
ATOM      9  C   UNL     1      42.624 126.918  24.354  1.00  0.00     0.076 C 
ATOM     10  H   UNL     1      46.829 128.269  21.546  1.00  0.00     0.266 HD
ENDROOT
BRANCH   1  11
ATOM     11  N   UNL     1      44.898 130.041  21.441  1.00  0.00    -0.259 N 
ATOM     12  C   UNL     1      44.825 131.328  22.166  1.00  0.00     0.145 C 
ATOM     13  C   UNL     1      44.125 132.386  21.294  1.00  0.00     0.042 C 
ATOM     14  C   UNL     1      44.770 132.474  19.909  1.00  0.00     0.018 C 
ATOM     15  C   UNL     1      45.442 130.040  20.074  1.00  0.00     0.331 C 
ATOM     16  C   UNL     1      44.731 131.102  19.215  1.00  0.00     0.090 C 
ATOM     17  C   UNL     1      44.085 131.205  23.510  1.00  0.00     0.049 C 
ATOM     18  F   UNL     1      45.269 128.796  19.484  1.00  0.00    -0.205 F 
BRANCH  16  19
ATOM     19  C   UNL     1      45.325 131.177  17.818  1.00  0.00    -0.038 A 
ATOM     20  C   UNL     1      45.203 132.361  17.069  1.00  0.00     0.006 A 
ATOM     21  C   UNL     1      45.999 130.076  17.254  1.00  0.00     0.014 A 
ATOM     22  C   UNL     1      45.741 132.449  15.781  1.00  0.00     0.029 A 
ATOM     23  C   UNL     1      46.539 130.160  15.962  1.00  0.00     0.000 A 
ATOM     24  C   UNL     1      46.407 131.355  15.224  1.00  0.00     0.070 A 
ATOM     25  C   UNL     1      47.211 129.076  15.383  1.00  0.00     0.012 A 
ATOM     26  N   UNL     1      46.931 131.440  13.970  1.00  0.00    -0.256 NA
ATOM     27  C   UNL     1      47.738 129.194  14.095  1.00  0.00     0.021 A 
ATOM     28  C   UNL     1      47.586 130.394  13.398  1.00  0.00     0.112 A 
ENDBRANCH  16  19
ENDBRANCH   1  11
TORSDOF 2
ENDMDL
MODEL 7
REMARK VINA RESULT:      -2.8      1.938      3.215
REMARK SMILES C[C@@H]1CC[C@@H](c2ccc3ncccc3c2)[C@H](F)N1c1[nH+]cnc2c1CCC2
REMARK SMILES IDX 19 1 20 2 21 3 22 4 23 5 24 6 25 7 26 8 27 9 18 11 2 12 3 13
REMARK SMILES IDX 4 14 16 15 5 16 1 17 17 18 6 19 7 20 15 21 8 22 14 23 9 24
REMARK SMILES IDX 13 25 10 26 12 27 11 28
REMARK H PARENT 20 10
ROOT
ATOM      1  C   UNL     1      43.344 130.318  23.029  1.00  0.00     0.230 A 
ATOM      2  N   UNL     1      42.252 130.913  23.590  1.00  0.00    -0.250 N 
ATOM      3  C   UNL     1      41.395 130.205  24.384  1.00  0.00     0.367 A 
ATOM      4  N   UNL     1      41.614 128.882  24.625  1.00  0.00    -0.116 NA
ATOM      5  C   UNL     1      42.693 128.275  24.070  1.00  0.00     0.125 A 
ATOM      6  C   UNL     1      43.565 128.959  23.276  1.00  0.00     0.063 A 
ATOM      7  C   UNL     1      44.664 128.093  22.786  1.00  0.00     0.046 C 
ATOM      8  C   UNL     1      44.335 126.707  23.378  1.00  0.00     0.013 C 
ATOM      9  C   UNL     1      43.063 126.854  24.236  1.00  0.00     0.076 C 
ATOM     10  H   UNL     1      42.069 131.927  23.416  1.00  0.00     0.266 HD
ENDROOT
BRANCH   1  11
ATOM     11  N   UNL     1      44.230 131.082  22.194  1.00  0.00    -0.259 N 
ATOM     12  C   UNL     1      45.387 131.795  22.779  1.00  0.00     0.145 C 
ATOM     13  C   UNL     1      45.717 133.043  21.940  1.00  0.00     0.042 C 
ATOM     14  C   UNL     1      45.874 132.686  20.460  1.00  0.00     0.018 C 
ATOM     15  C   UNL     1      44.264 130.758  20.759  1.00  0.00     0.331 C 
ATOM     16  C   UNL     1      44.595 132.015  19.934  1.00  0.00     0.090 C 
ATOM     17  C   UNL     1      45.142 132.215  24.239  1.00  0.00     0.049 C 
ATOM     18  F   UNL     1      43.037 130.259  20.346  1.00  0.00    -0.205 F 
BRANCH  16  19
ATOM     19  C   UNL     1      44.712 131.693  18.453  1.00  0.00    -0.038 A 
ATOM     20  C   UNL     1      43.682 132.072  17.572  1.00  0.00     0.006 A 
ATOM     21  C   UNL     1      45.836 131.017  17.942  1.00  0.00     0.014 A 
ATOM     22  C   UNL     1      43.770 131.783  16.207  1.00  0.00     0.029 A 
ATOM     23  C   UNL     1      45.927 130.725  16.573  1.00  0.00     0.000 A 
ATOM     24  C   UNL     1      44.886 131.111  15.703  1.00  0.00     0.070 A 
ATOM     25  C   UNL     1      47.037 130.052  16.045  1.00  0.00     0.012 A 
ATOM     26  N   UNL     1      44.971 130.829  14.374  1.00  0.00    -0.256 NA
ATOM     27  C   UNL     1      47.095 129.777  14.677  1.00  0.00     0.021 A 
ATOM     28  C   UNL     1      46.043 130.177  13.850  1.00  0.00     0.112 A 
ENDBRANCH  16  19
ENDBRANCH   1  11
TORSDOF 2
ENDMDL
MODEL 8
REMARK VINA RESULT:      -2.7      6.496      9.515
REMARK SMILES C[C@@H]1CC[C@@H](c2ccc3ncccc3c2)[C@H](F)N1c1[nH+]cnc2c1CCC2
REMARK SMILES IDX 19 1 20 2 21 3 22 4 23 5 24 6 25 7 26 8 27 9 18 11 2 12 3 13
REMARK SMILES IDX 4 14 16 15 5 16 1 17 17 18 6 19 7 20 15 21 8 22 14 23 9 24
REMARK SMILES IDX 13 25 10 26 12 27 11 28
REMARK H PARENT 20 10
ROOT
ATOM      1  C   UNL     1      50.105 124.904  22.825  1.00  0.00     0.230 A 
ATOM      2  N   UNL     1      51.198 125.225  23.576  1.00  0.00    -0.250 N 
ATOM      3  C   UNL     1      52.453 125.212  23.035  1.00  0.00     0.367 A 
ATOM      4  N   UNL     1      52.634 124.870  21.728  1.00  0.00    -0.116 NA
ATOM      5  C   UNL     1      51.558 124.545  20.970  1.00  0.00     0.125 A 
ATOM      6  C   UNL     1      50.296 124.552  21.485  1.00  0.00     0.063 A 
ATOM      7  C   UNL     1      49.282 124.166  20.474  1.00  0.00     0.046 C 
ATOM      8  C   UNL     1      50.115 123.871  19.209  1.00  0.00     0.013 C 
ATOM      9  C   UNL     1      51.593 124.154  19.545  1.00  0.00     0.076 C 
ATOM     10  H   UNL     1      51.077 125.489  24.580  1.00  0.00     0.266 HD
ENDROOT
BRANCH   1  11
ATOM     11  N   UNL     1      48.795 124.922  23.417  1.00  0.00    -0.259 N 
ATOM     12  C   UNL     1      48.410 123.909  24.424  1.00  0.00     0.145 C 
ATOM     13  C   UNL     1      46.892 123.655  24.362  1.00  0.00     0.042 C 
ATOM     14  C   UNL     1      46.109 124.967  24.451  1.00  0.00     0.018 C 
ATOM     15  C   UNL     1      48.050 126.190  23.383  1.00  0.00     0.331 C 
ATOM     16  C   UNL     1      46.535 125.919  23.321  1.00  0.00     0.090 C 
ATOM     17  C   UNL     1      49.157 122.577  24.233  1.00  0.00     0.049 C 
ATOM     18  F   UNL     1      48.418 126.939  22.274  1.00  0.00    -0.205 F 
BRANCH  16  19
ATOM     19  C   UNL     1      45.737 127.212  23.363  1.00  0.00    -0.038 A 
ATOM     20  C   UNL     1      45.087 127.594  24.550  1.00  0.00     0.006 A 
ATOM     21  C   UNL     1      45.631 128.039  22.228  1.00  0.00     0.014 A 
ATOM     22  C   UNL     1      44.346 128.778  24.609  1.00  0.00     0.029 A 
ATOM     23  C   UNL     1      44.888 129.227  22.282  1.00  0.00     0.000 A 
ATOM     24  C   UNL     1      44.242 129.596  23.482  1.00  0.00     0.070 A 
ATOM     25  C   UNL     1      44.770 130.064  21.164  1.00  0.00     0.012 A 
ATOM     26  N   UNL     1      43.521 130.749  23.538  1.00  0.00    -0.256 NA
ATOM     27  C   UNL     1      44.023 131.240  21.253  1.00  0.00     0.021 A 
ATOM     28  C   UNL     1      43.399 131.569  22.459  1.00  0.00     0.112 A 
ENDBRANCH  16  19
ENDBRANCH   1  11
TORSDOF 2
ENDMDL
MODEL 9
REMARK VINA RESULT:      -2.3      2.185      3.172
REMARK SMILES C[C@@H]1CC[C@@H](c2ccc3ncccc3c2)[C@H](F)N1c1[nH+]cnc2c1CCC2
REMARK SMILES IDX 19 1 20 2 21 3 22 4 23 5 24 6 25 7 26 8 27 9 18 11 2 12 3 13
REMARK SMILES IDX 4 14 16 15 5 16 1 17 17 18 6 19 7 20 15 21 8 22 14 23 9 24
REMARK SMILES IDX 13 25 10 26 12 27 11 28
REMARK H PARENT 20 10
ROOT
ATOM      1  C   UNL     1      44.352 128.796  23.054  1.00  0.00     0.230 A 
ATOM      2  N   UNL     1      45.567 128.308  23.438  1.00  0.00    -0.250 N 
ATOM      3  C   UNL     1      45.662 127.188  24.214  1.00  0.00     0.367 A 
ATOM      4  N   UNL     1      44.537 126.538  24.625  1.00  0.00    -0.116 NA
ATOM      5  C   UNL     1      43.322 127.014  24.255  1.00  0.00     0.125 A 
ATOM      6  C   UNL     1      43.199 128.128  23.480  1.00  0.00     0.063 A 
ATOM      7  C   UNL     1      41.780 128.457  23.202  1.00  0.00     0.046 C 
ATOM      8  C   UNL     1      40.993 127.371  23.966  1.00  0.00     0.013 C 
ATOM      9  C   UNL     1      42.018 126.423  24.620  1.00  0.00     0.076 C 
ATOM     10  H   UNL     1      46.439 128.794  23.132  1.00  0.00     0.266 HD
ENDROOT
BRANCH   1  11
ATOM     11  N   UNL     1      44.276 129.979  22.240  1.00  0.00    -0.259 N 
ATOM     12  C   UNL     1      44.073 131.308  22.859  1.00  0.00     0.145 C 
ATOM     13  C   UNL     1      43.324 132.235  21.884  1.00  0.00     0.042 C 
ATOM     14  C   UNL     1      44.013 132.270  20.518  1.00  0.00     0.018 C 
ATOM     15  C   UNL     1      44.870 129.919  20.895  1.00  0.00     0.331 C 
ATOM     16  C   UNL     1      44.110 130.851  19.933  1.00  0.00     0.090 C 
ATOM     17  C   UNL     1      43.294 131.226  24.183  1.00  0.00     0.049 C 
ATOM     18  F   UNL     1      44.819 128.624  20.400  1.00  0.00    -0.205 F 
BRANCH  16  19
ATOM     19  C   UNL     1      44.750 130.867  18.555  1.00  0.00    -0.038 A 
ATOM     20  C   UNL     1      46.107 130.529  18.410  1.00  0.00     0.006 A 
ATOM     21  C   UNL     1      44.007 131.220  17.411  1.00  0.00     0.014 A 
ATOM     22  C   UNL     1      46.716 130.540  17.152  1.00  0.00     0.029 A 
ATOM     23  C   UNL     1      44.614 131.233  16.147  1.00  0.00     0.000 A 
ATOM     24  C   UNL     1      45.977 130.891  16.019  1.00  0.00     0.070 A 
ATOM     25  C   UNL     1      43.892 131.582  14.997  1.00  0.00     0.012 A 
ATOM     26  N   UNL     1      46.568 130.903  14.794  1.00  0.00    -0.256 NA
ATOM     27  C   UNL     1      44.527 131.584  13.753  1.00  0.00     0.021 A 
ATOM     28  C   UNL     1      45.878 131.239  13.671  1.00  0.00     0.112 A 
ENDBRANCH  16  19
ENDBRANCH   1  11
TORSDOF 2
ENDMDL


