REMARK SMILES Cc1[nH][nH+]c2cc([C@@]34C(=O)[N-]C[C@@H]3NCC[C@H]4C)ccc12
REMARK SMILES IDX 1 1 2 2 3 3 4 4 5 5 6 6 7 7 19 8 20 9 21 10 8 13 9 14 13 15
REMARK SMILES IDX 17 16 11 17 12 18 14 19 16 20 15 21 10 22 18 23
REMARK H PARENT 3 11 4 12 14 24
ROOT
ATOM      1  C   UNL     1      -0.487   0.597   4.860  1.00  0.00     0.071 C 
ATOM      2  C   UNL     1      -0.609  -0.414   3.767  1.00  0.00     0.084 A 
ATOM      3  N   UNL     1      -0.792  -1.742   3.957  1.00  0.00    -0.171 N 
ATOM      4  N   UNL     1      -0.899  -2.339   2.776  1.00  0.00    -0.126 N 
ATOM      5  C   UNL     1      -0.794  -1.395   1.825  1.00  0.00     0.236 A 
ATOM      6  C   UNL     1      -0.853  -1.553   0.445  1.00  0.00     0.087 A 
ATOM      7  C   UNL     1      -0.732  -0.397  -0.379  1.00  0.00    -0.028 A 
ATOM      8  C   UNL     1      -0.534   0.867   0.258  1.00  0.00     0.006 A 
ATOM      9  C   UNL     1      -0.481   0.986   1.657  1.00  0.00     0.017 A 
ATOM     10  C   UNL     1      -0.614  -0.173   2.408  1.00  0.00     0.073 A 
ATOM     11  H   UNL     1      -0.849  -2.236   4.875  1.00  0.00     0.238 HD
ATOM     12  H   UNL     1      -1.048  -3.363   2.634  1.00  0.00     0.488 HD
ENDROOT
BRANCH   7  13
ATOM     13  C   UNL     1      -0.731  -0.490  -1.923  1.00  0.00     0.053 C 
ATOM     14  C   UNL     1      -1.301  -1.793  -2.416  1.00  0.00     0.064 C 
ATOM     15  C   UNL     1      -1.769   0.519  -2.534  1.00  0.00     0.052 C 
ATOM     16  C   UNL     1       0.706  -0.288  -2.533  1.00  0.00     0.005 C 
ATOM     17  N   UNL     1      -2.587  -1.686  -2.984  1.00  0.00    -0.651 NA
ATOM     18  C   UNL     1      -3.017  -0.309  -2.913  1.00  0.00    -0.097 C 
ATOM     19  N   UNL     1      -1.221   1.179  -3.731  1.00  0.00    -0.314 NA
ATOM     20  C   UNL     1       1.066   1.199  -2.728  1.00  0.00     0.020 C 
ATOM     21  C   UNL     1      -0.074   2.018  -3.366  1.00  0.00     0.081 C 
ATOM     22  O   UNL     1      -0.685  -2.892  -2.390  1.00  0.00    -0.319 OA
ATOM     23  C   UNL     1       1.820  -1.001  -1.743  1.00  0.00     0.009 C 
ATOM     24  H   UNL     1      -1.954   1.818  -4.120  1.00  0.00     0.122 HD
ENDBRANCH   7  13
TORSDOF 1


