MODEL 1
REMARK VINA RESULT:      -6.8      0.000      0.000
REMARK SMILES [H]/N=c1\[nH]c(C(=O)N2N[C@H](C)O[C@H]2c2ccc3cc(C)[nH]c3c2)cs1
REMARK SMILES IDX 6 1 7 2 5 3 3 4 25 5 4 6 24 7 2 9 1 10 8 11 9 12 13 13 10 14
REMARK SMILES IDX 12 15 11 17 14 18 15 19 23 20 16 21 22 22 17 23 21 24 18 25
REMARK SMILES IDX 19 26 20 28
REMARK H PARENT 4 8 9 16 21 27
ROOT
ATOM      1  C   UNL     1      45.332 130.840  20.334  1.00  0.00     0.288 C 
ATOM      2  O   UNL     1      46.494 131.157  19.959  1.00  0.00    -0.266 OA
ENDROOT
BRANCH   1   3
ATOM      3  C   UNL     1      45.171 129.733  21.298  1.00  0.00     0.118 A 
ATOM      4  C   UNL     1      45.476 127.677  22.158  1.00  0.00     0.179 A 
ATOM      5  S   UNL     1      44.519 128.409  23.324  1.00  0.00    -0.105 S 
ATOM      6  N   UNL     1      45.751 128.509  21.131  1.00  0.00    -0.327 N 
ATOM      7  C   UNL     1      44.447 129.869  22.484  1.00  0.00     0.100 A 
ATOM      8  H   UNL     1      46.369 128.251  20.331  1.00  0.00     0.169 HD
BRANCH   4   9
ATOM      9  N   UNL     1      45.915 126.463  22.235  1.00  0.00    -0.275 NA
ATOM     10  H   UNL     1      45.989 125.968  23.151  1.00  0.00     0.190 HD
ENDBRANCH   4   9
ENDBRANCH   1   3
BRANCH   1  11
ATOM     11  N   UNL     1      44.200 131.572  19.830  1.00  0.00    -0.237 N 
ATOM     12  N   UNL     1      43.768 132.775  20.372  1.00  0.00    -0.201 NA
ATOM     13  C   UNL     1      43.351 131.126  18.752  1.00  0.00     0.267 C 
ATOM     14  C   UNL     1      42.528 133.048  19.643  1.00  0.00     0.204 C 
ATOM     15  O   UNL     1      42.304 132.057  18.652  1.00  0.00    -0.333 OA
ATOM     16  H   UNL     1      44.479 133.500  20.116  1.00  0.00     0.151 HD
ATOM     17  C   UNL     1      41.357 133.062  20.619  1.00  0.00     0.058 C 
BRANCH  13  18
ATOM     18  C   UNL     1      44.110 131.073  17.449  1.00  0.00     0.005 A 
ATOM     19  C   UNL     1      43.629 131.768  16.309  1.00  0.00     0.009 A 
ATOM     20  C   UNL     1      45.310 130.329  17.360  1.00  0.00     0.035 A 
ATOM     21  C   UNL     1      44.332 131.729  15.093  1.00  0.00     0.011 A 
ATOM     22  C   UNL     1      45.984 130.314  16.140  1.00  0.00     0.046 A 
ATOM     23  C   UNL     1      45.511 130.990  15.047  1.00  0.00    -0.000 A 
ATOM     24  N   UNL     1      47.126 129.670  15.849  1.00  0.00    -0.359 N 
ATOM     25  C   UNL     1      46.390 130.769  14.009  1.00  0.00     0.031 A 
ATOM     26  C   UNL     1      47.382 129.955  14.551  1.00  0.00     0.013 A 
ATOM     27  H   UNL     1      47.691 129.067  16.488  1.00  0.00     0.166 HD
ATOM     28  C   UNL     1      48.533 129.385  13.789  1.00  0.00     0.064 C 
ENDBRANCH  13  18
ENDBRANCH   1  11
TORSDOF 4
ENDMDL
MODEL 2
REMARK VINA RESULT:      -6.5      3.344      7.172
REMARK SMILES [H]/N=c1\[nH]c(C(=O)N2N[C@H](C)O[C@H]2c2ccc3cc(C)[nH]c3c2)cs1
REMARK SMILES IDX 6 1 7 2 5 3 3 4 25 5 4 6 24 7 2 9 1 10 8 11 9 12 13 13 10 14
REMARK SMILES IDX 12 15 11 17 14 18 15 19 23 20 16 21 22 22 17 23 21 24 18 25
REMARK SMILES IDX 19 26 20 28
REMARK H PARENT 4 8 9 16 21 27
ROOT
ATOM      1  C   UNL     1      44.999 130.542  20.908  1.00  0.00     0.288 C 
ATOM      2  O   UNL     1      46.165 130.064  20.860  1.00  0.00    -0.266 OA
ENDROOT
BRANCH   1   3
ATOM      3  C   UNL     1      44.377 131.031  19.661  1.00  0.00     0.118 A 
ATOM      4  C   UNL     1      42.831 132.042  18.378  1.00  0.00     0.179 A 
ATOM      5  S   UNL     1      43.998 131.613  17.253  1.00  0.00    -0.105 S 
ATOM      6  N   UNL     1      43.173 131.671  19.630  1.00  0.00    -0.327 N 
ATOM      7  C   UNL     1      45.000 130.916  18.416  1.00  0.00     0.100 A 
ATOM      8  H   UNL     1      42.596 131.890  20.473  1.00  0.00     0.169 HD
BRANCH   4   9
ATOM      9  N   UNL     1      41.737 132.669  18.089  1.00  0.00    -0.275 NA
ATOM     10  H   UNL     1      40.803 132.281  18.347  1.00  0.00     0.190 HD
ENDBRANCH   4   9
ENDBRANCH   1   3
BRANCH   1  11
ATOM     11  N   UNL     1      44.301 130.584  22.166  1.00  0.00    -0.237 N 
ATOM     12  N   UNL     1      43.256 131.461  22.429  1.00  0.00    -0.201 NA
ATOM     13  C   UNL     1      44.631 129.774  23.313  1.00  0.00     0.267 C 
ATOM     14  C   UNL     1      42.979 131.239  23.850  1.00  0.00     0.204 C 
ATOM     15  O   UNL     1      43.800 130.200  24.361  1.00  0.00    -0.333 OA
ATOM     16  H   UNL     1      42.434 131.135  21.867  1.00  0.00     0.151 HD
ATOM     17  C   UNL     1      43.246 132.525  24.625  1.00  0.00     0.058 C 
BRANCH  13  18
ATOM     18  C   UNL     1      44.386 128.311  23.033  1.00  0.00     0.005 A 
ATOM     19  C   UNL     1      45.388 127.522  22.411  1.00  0.00     0.009 A 
ATOM     20  C   UNL     1      43.153 127.720  23.393  1.00  0.00     0.035 A 
ATOM     21  C   UNL     1      45.171 126.157  22.151  1.00  0.00     0.011 A 
ATOM     22  C   UNL     1      42.971 126.365  23.124  1.00  0.00     0.046 A 
ATOM     23  C   UNL     1      43.946 125.611  22.525  1.00  0.00    -0.000 A 
ATOM     24  N   UNL     1      41.881 125.622  23.380  1.00  0.00    -0.359 N 
ATOM     25  C   UNL     1      43.458 124.329  22.392  1.00  0.00     0.031 A 
ATOM     26  C   UNL     1      42.181 124.376  22.944  1.00  0.00     0.013 A 
ATOM     27  H   UNL     1      40.988 125.942  23.816  1.00  0.00     0.166 HD
ATOM     28  C   UNL     1      41.217 123.235  22.973  1.00  0.00     0.064 C 
ENDBRANCH  13  18
ENDBRANCH   1  11
TORSDOF 4
ENDMDL
MODEL 3
REMARK VINA RESULT:      -6.4      1.083      1.242
REMARK SMILES [H]/N=c1\[nH]c(C(=O)N2N[C@H](C)O[C@H]2c2ccc3cc(C)[nH]c3c2)cs1
REMARK SMILES IDX 6 1 7 2 5 3 3 4 25 5 4 6 24 7 2 9 1 10 8 11 9 12 13 13 10 14
REMARK SMILES IDX 12 15 11 17 14 18 15 19 23 20 16 21 22 22 17 23 21 24 18 25
REMARK SMILES IDX 19 26 20 28
REMARK H PARENT 4 8 9 16 21 27
ROOT
ATOM      1  C   UNL     1      45.144 130.656  20.212  1.00  0.00     0.288 C 
ATOM      2  O   UNL     1      46.254 130.666  19.613  1.00  0.00    -0.266 OA
ENDROOT
BRANCH   1   3
ATOM      3  C   UNL     1      44.984 129.798  21.404  1.00  0.00     0.118 A 
ATOM      4  C   UNL     1      44.298 129.234  23.470  1.00  0.00     0.179 A 
ATOM      5  S   UNL     1      45.055 127.829  22.952  1.00  0.00    -0.105 S 
ATOM      6  N   UNL     1      44.333 130.204  22.532  1.00  0.00    -0.327 N 
ATOM      7  C   UNL     1      45.450 128.482  21.450  1.00  0.00     0.100 A 
ATOM      8  H   UNL     1      43.877 131.135  22.650  1.00  0.00     0.169 HD
BRANCH   4   9
ATOM      9  N   UNL     1      43.733 129.372  24.625  1.00  0.00    -0.275 NA
ATOM     10  H   UNL     1      43.610 130.313  25.060  1.00  0.00     0.190 HD
ENDBRANCH   4   9
ENDBRANCH   1   3
BRANCH   1  11
ATOM     11  N   UNL     1      44.072 131.489  19.733  1.00  0.00    -0.237 N 
ATOM     12  N   UNL     1      43.719 132.694  20.328  1.00  0.00    -0.201 NA
ATOM     13  C   UNL     1      43.207 131.155  18.628  1.00  0.00     0.267 C 
ATOM     14  C   UNL     1      42.510 133.087  19.601  1.00  0.00     0.204 C 
ATOM     15  O   UNL     1      42.230 132.161  18.562  1.00  0.00    -0.333 OA
ATOM     16  H   UNL     1      44.483 133.377  20.113  1.00  0.00     0.151 HD
ATOM     17  C   UNL     1      41.332 133.138  20.566  1.00  0.00     0.058 C 
BRANCH  13  18
ATOM     18  C   UNL     1      43.977 131.108  17.330  1.00  0.00     0.005 A 
ATOM     19  C   UNL     1      43.488 131.783  16.182  1.00  0.00     0.009 A 
ATOM     20  C   UNL     1      45.194 130.393  17.256  1.00  0.00     0.035 A 
ATOM     21  C   UNL     1      44.201 131.751  14.970  1.00  0.00     0.011 A 
ATOM     22  C   UNL     1      45.877 130.383  16.041  1.00  0.00     0.046 A 
ATOM     23  C   UNL     1      45.397 131.039  14.939  1.00  0.00    -0.000 A 
ATOM     24  N   UNL     1      47.036 129.763  15.763  1.00  0.00    -0.359 N 
ATOM     25  C   UNL     1      46.288 130.830  13.909  1.00  0.00     0.031 A 
ATOM     26  C   UNL     1      47.294 130.044  14.465  1.00  0.00     0.013 A 
ATOM     27  H   UNL     1      47.610 129.180  16.411  1.00  0.00     0.166 HD
ATOM     28  C   UNL     1      48.464 129.494  13.715  1.00  0.00     0.064 C 
ENDBRANCH  13  18
ENDBRANCH   1  11
TORSDOF 4
ENDMDL
MODEL 4
REMARK VINA RESULT:      -6.3      2.458      6.475
REMARK SMILES [H]/N=c1\[nH]c(C(=O)N2N[C@H](C)O[C@H]2c2ccc3cc(C)[nH]c3c2)cs1
REMARK SMILES IDX 6 1 7 2 5 3 3 4 25 5 4 6 24 7 2 9 1 10 8 11 9 12 13 13 10 14
REMARK SMILES IDX 12 15 11 17 14 18 15 19 23 20 16 21 22 22 17 23 21 24 18 25
REMARK SMILES IDX 19 26 20 28
REMARK H PARENT 4 8 9 16 21 27
ROOT
ATOM      1  C   UNL     1      45.381 131.098  19.657  1.00  0.00     0.288 C 
ATOM      2  O   UNL     1      46.458 131.010  20.306  1.00  0.00    -0.266 OA
ENDROOT
BRANCH   1   3
ATOM      3  C   UNL     1      45.408 130.884  18.196  1.00  0.00     0.118 A 
ATOM      4  C   UNL     1      44.945 131.300  16.035  1.00  0.00     0.179 A 
ATOM      5  S   UNL     1      45.957 129.966  15.929  1.00  0.00    -0.105 S 
ATOM      6  N   UNL     1      44.744 131.684  17.313  1.00  0.00    -0.327 N 
ATOM      7  C   UNL     1      46.158 129.867  17.600  1.00  0.00     0.100 A 
ATOM      8  H   UNL     1      44.180 132.521  17.580  1.00  0.00     0.169 HD
BRANCH   4   9
ATOM      9  N   UNL     1      44.427 131.902  15.014  1.00  0.00    -0.275 NA
ATOM     10  H   UNL     1      43.411 131.815  14.789  1.00  0.00     0.190 HD
ENDBRANCH   4   9
ENDBRANCH   1   3
BRANCH   1  11
ATOM     11  N   UNL     1      44.155 131.386  20.354  1.00  0.00    -0.237 N 
ATOM     12  N   UNL     1      42.938 131.575  19.711  1.00  0.00    -0.201 NA
ATOM     13  C   UNL     1      44.048 131.570  21.781  1.00  0.00     0.267 C 
ATOM     14  C   UNL     1      42.043 131.983  20.795  1.00  0.00     0.204 C 
ATOM     15  O   UNL     1      42.721 131.950  22.041  1.00  0.00    -0.333 OA
ATOM     16  H   UNL     1      42.633 130.640  19.351  1.00  0.00     0.151 HD
ATOM     17  C   UNL     1      41.537 133.397  20.530  1.00  0.00     0.058 C 
BRANCH  13  18
ATOM     18  C   UNL     1      44.363 130.290  22.517  1.00  0.00     0.005 A 
ATOM     19  C   UNL     1      44.241 130.227  23.930  1.00  0.00     0.009 A 
ATOM     20  C   UNL     1      44.780 129.146  21.800  1.00  0.00     0.035 A 
ATOM     21  C   UNL     1      44.527 129.039  24.625  1.00  0.00     0.011 A 
ATOM     22  C   UNL     1      45.053 127.983  22.518  1.00  0.00     0.046 A 
ATOM     23  C   UNL     1      44.930 127.933  23.882  1.00  0.00    -0.000 A 
ATOM     24  N   UNL     1      45.464 126.801  22.030  1.00  0.00    -0.359 N 
ATOM     25  C   UNL     1      45.278 126.661  24.284  1.00  0.00     0.031 A 
ATOM     26  C   UNL     1      45.591 125.989  23.105  1.00  0.00     0.013 A 
ATOM     27  H   UNL     1      45.654 126.563  21.031  1.00  0.00     0.166 HD
ATOM     28  C   UNL     1      46.095 124.585  23.028  1.00  0.00     0.064 C 
ENDBRANCH  13  18
ENDBRANCH   1  11
TORSDOF 4
ENDMDL
MODEL 5
REMARK VINA RESULT:      -6.2      3.346      6.848
REMARK SMILES [H]/N=c1\[nH]c(C(=O)N2N[C@H](C)O[C@H]2c2ccc3cc(C)[nH]c3c2)cs1
REMARK SMILES IDX 6 1 7 2 5 3 3 4 25 5 4 6 24 7 2 9 1 10 8 11 9 12 13 13 10 14
REMARK SMILES IDX 12 15 11 17 14 18 15 19 23 20 16 21 22 22 17 23 21 24 18 25
REMARK SMILES IDX 19 26 20 28
REMARK H PARENT 4 8 9 16 21 27
ROOT
ATOM      1  C   UNL     1      44.718 130.604  21.090  1.00  0.00     0.288 C 
ATOM      2  O   UNL     1      45.859 130.067  21.103  1.00  0.00    -0.266 OA
ENDROOT
BRANCH   1   3
ATOM      3  C   UNL     1      44.181 131.107  19.811  1.00  0.00     0.118 A 
ATOM      4  C   UNL     1      42.705 132.097  18.433  1.00  0.00     0.179 A 
ATOM      5  S   UNL     1      43.977 131.750  17.397  1.00  0.00    -0.105 S 
ATOM      6  N   UNL     1      42.957 131.699  19.698  1.00  0.00    -0.327 N 
ATOM      7  C   UNL     1      44.908 131.057  18.619  1.00  0.00     0.100 A 
ATOM      8  H   UNL     1      42.305 131.868  20.495  1.00  0.00     0.169 HD
BRANCH   4   9
ATOM      9  N   UNL     1      41.613 132.688  18.070  1.00  0.00    -0.275 NA
ATOM     10  H   UNL     1      41.589 133.713  17.876  1.00  0.00     0.190 HD
ENDBRANCH   4   9
ENDBRANCH   1   3
BRANCH   1  11
ATOM     11  N   UNL     1      43.965 130.696  22.314  1.00  0.00    -0.237 N 
ATOM     12  N   UNL     1      42.872 131.540  22.474  1.00  0.00    -0.201 NA
ATOM     13  C   UNL     1      44.280 129.980  23.526  1.00  0.00     0.267 C 
ATOM     14  C   UNL     1      42.544 131.400  23.894  1.00  0.00     0.204 C 
ATOM     15  O   UNL     1      43.386 130.437  24.508  1.00  0.00    -0.333 OA
ATOM     16  H   UNL     1      42.091 131.140  21.903  1.00  0.00     0.151 HD
ATOM     17  C   UNL     1      42.721 132.745  24.589  1.00  0.00     0.058 C 
BRANCH  13  18
ATOM     18  C   UNL     1      44.110 128.492  23.337  1.00  0.00     0.005 A 
ATOM     19  C   UNL     1      42.845 127.883  23.543  1.00  0.00     0.009 A 
ATOM     20  C   UNL     1      45.214 127.699  22.949  1.00  0.00     0.035 A 
ATOM     21  C   UNL     1      42.676 126.498  23.364  1.00  0.00     0.011 A 
ATOM     22  C   UNL     1      45.012 126.331  22.777  1.00  0.00     0.046 A 
ATOM     23  C   UNL     1      43.786 125.753  22.978  1.00  0.00    -0.000 A 
ATOM     24  N   UNL     1      45.923 125.411  22.421  1.00  0.00    -0.359 N 
ATOM     25  C   UNL     1      43.919 124.402  22.739  1.00  0.00     0.031 A 
ATOM     26  C   UNL     1      45.256 124.234  22.386  1.00  0.00     0.013 A 
ATOM     27  H   UNL     1      46.936 125.570  22.222  1.00  0.00     0.166 HD
ATOM     28  C   UNL     1      45.907 122.920  22.097  1.00  0.00     0.064 C 
ENDBRANCH  13  18
ENDBRANCH   1  11
TORSDOF 4
ENDMDL
MODEL 6
REMARK VINA RESULT:      -6.2      2.309      6.389
REMARK SMILES [H]/N=c1\[nH]c(C(=O)N2N[C@H](C)O[C@H]2c2ccc3cc(C)[nH]c3c2)cs1
REMARK SMILES IDX 6 1 7 2 5 3 3 4 25 5 4 6 24 7 2 9 1 10 8 11 9 12 13 13 10 14
REMARK SMILES IDX 12 15 11 17 14 18 15 19 23 20 16 21 22 22 17 23 21 24 18 25
REMARK SMILES IDX 19 26 20 28
REMARK H PARENT 4 8 9 16 21 27
ROOT
ATOM      1  C   UNL     1      45.518 130.983  19.596  1.00  0.00     0.288 C 
ATOM      2  O   UNL     1      46.527 130.697  20.297  1.00  0.00    -0.266 OA
ENDROOT
BRANCH   1   3
ATOM      3  C   UNL     1      45.640 130.955  18.125  1.00  0.00     0.118 A 
ATOM      4  C   UNL     1      46.302 130.188  16.117  1.00  0.00     0.179 A 
ATOM      5  S   UNL     1      45.340 131.496  15.696  1.00  0.00    -0.105 S 
ATOM      6  N   UNL     1      46.367 130.016  17.455  1.00  0.00    -0.327 N 
ATOM      7  C   UNL     1      44.978 131.868  17.300  1.00  0.00     0.100 A 
ATOM      8  H   UNL     1      46.880 129.229  17.909  1.00  0.00     0.169 HD
BRANCH   4   9
ATOM      9  N   UNL     1      46.903 129.423  15.265  1.00  0.00    -0.275 NA
ATOM     10  H   UNL     1      47.570 128.683  15.575  1.00  0.00     0.190 HD
ENDBRANCH   4   9
ENDBRANCH   1   3
BRANCH   1  11
ATOM     11  N   UNL     1      44.276 131.310  20.245  1.00  0.00    -0.237 N 
ATOM     12  N   UNL     1      43.083 131.499  19.556  1.00  0.00    -0.201 NA
ATOM     13  C   UNL     1      44.126 131.537  21.661  1.00  0.00     0.267 C 
ATOM     14  C   UNL     1      42.160 131.952  20.598  1.00  0.00     0.204 C 
ATOM     15  O   UNL     1      42.798 131.945  21.867  1.00  0.00    -0.333 OA
ATOM     16  H   UNL     1      42.775 130.558  19.214  1.00  0.00     0.151 HD
ATOM     17  C   UNL     1      41.687 133.365  20.277  1.00  0.00     0.058 C 
BRANCH  13  18
ATOM     18  C   UNL     1      44.396 130.275  22.444  1.00  0.00     0.005 A 
ATOM     19  C   UNL     1      44.165 130.236  23.844  1.00  0.00     0.009 A 
ATOM     20  C   UNL     1      44.880 129.123  21.783  1.00  0.00     0.035 A 
ATOM     21  C   UNL     1      44.408 129.064  24.581  1.00  0.00     0.011 A 
ATOM     22  C   UNL     1      45.108 127.977  22.542  1.00  0.00     0.046 A 
ATOM     23  C   UNL     1      44.880 127.949  23.893  1.00  0.00    -0.000 A 
ATOM     24  N   UNL     1      45.568 126.791  22.110  1.00  0.00    -0.359 N 
ATOM     25  C   UNL     1      45.208 126.690  24.345  1.00  0.00     0.031 A 
ATOM     26  C   UNL     1      45.620 126.000  23.207  1.00  0.00     0.013 A 
ATOM     27  H   UNL     1      45.838 126.537  21.134  1.00  0.00     0.166 HD
ATOM     28  C   UNL     1      46.143 124.601  23.196  1.00  0.00     0.064 C 
ENDBRANCH  13  18
ENDBRANCH   1  11
TORSDOF 4
ENDMDL
MODEL 7
REMARK VINA RESULT:      -6.0      2.098      2.939
REMARK SMILES [H]/N=c1\[nH]c(C(=O)N2N[C@H](C)O[C@H]2c2ccc3cc(C)[nH]c3c2)cs1
REMARK SMILES IDX 6 1 7 2 5 3 3 4 25 5 4 6 24 7 2 9 1 10 8 11 9 12 13 13 10 14
REMARK SMILES IDX 12 15 11 17 14 18 15 19 23 20 16 21 22 22 17 23 21 24 18 25
REMARK SMILES IDX 19 26 20 28
REMARK H PARENT 4 8 9 16 21 27
ROOT
ATOM      1  C   UNL     1      44.904 129.262  21.977  1.00  0.00     0.288 C 
ATOM      2  O   UNL     1      45.827 129.207  21.119  1.00  0.00    -0.266 OA
ENDROOT
BRANCH   1   3
ATOM      3  C   UNL     1      44.510 128.026  22.682  1.00  0.00     0.118 A 
ATOM      4  C   UNL     1      44.575 125.845  23.228  1.00  0.00     0.179 A 
ATOM      5  S   UNL     1      43.395 126.434  24.264  1.00  0.00    -0.105 S 
ATOM      6  N   UNL     1      45.089 126.814  22.441  1.00  0.00    -0.327 N 
ATOM      7  C   UNL     1      43.540 128.011  23.687  1.00  0.00     0.100 A 
ATOM      8  H   UNL     1      45.866 126.653  21.763  1.00  0.00     0.169 HD
BRANCH   4   9
ATOM      9  N   UNL     1      44.963 124.612  23.194  1.00  0.00    -0.275 NA
ATOM     10  H   UNL     1      45.094 124.058  24.069  1.00  0.00     0.190 HD
ENDBRANCH   4   9
ENDBRANCH   1   3
BRANCH   1  11
ATOM     11  N   UNL     1      44.273 130.525  22.259  1.00  0.00    -0.237 N 
ATOM     12  N   UNL     1      44.739 131.411  23.222  1.00  0.00    -0.201 NA
ATOM     13  C   UNL     1      43.065 130.995  21.627  1.00  0.00     0.267 C 
ATOM     14  C   UNL     1      43.710 132.453  23.247  1.00  0.00     0.204 C 
ATOM     15  O   UNL     1      42.721 132.200  22.262  1.00  0.00    -0.333 OA
ATOM     16  H   UNL     1      45.630 131.822  22.855  1.00  0.00     0.151 HD
ATOM     17  C   UNL     1      43.057 132.487  24.624  1.00  0.00     0.058 C 
BRANCH  13  18
ATOM     18  C   UNL     1      43.282 131.241  20.154  1.00  0.00     0.005 A 
ATOM     19  C   UNL     1      42.208 131.672  19.332  1.00  0.00     0.009 A 
ATOM     20  C   UNL     1      44.562 131.045  19.586  1.00  0.00     0.035 A 
ATOM     21  C   UNL     1      42.402 131.909  17.960  1.00  0.00     0.011 A 
ATOM     22  C   UNL     1      44.721 131.292  18.224  1.00  0.00     0.046 A 
ATOM     23  C   UNL     1      43.678 131.709  17.440  1.00  0.00    -0.000 A 
ATOM     24  N   UNL     1      45.843 131.161  17.498  1.00  0.00    -0.359 N 
ATOM     25  C   UNL     1      44.154 131.852  16.155  1.00  0.00     0.031 A 
ATOM     26  C   UNL     1      45.502 131.514  16.236  1.00  0.00     0.013 A 
ATOM     27  H   UNL     1      46.780 130.845  17.835  1.00  0.00     0.166 HD
ATOM     28  C   UNL     1      46.441 131.450  15.076  1.00  0.00     0.064 C 
ENDBRANCH  13  18
ENDBRANCH   1  11
TORSDOF 4
ENDMDL
MODEL 8
REMARK VINA RESULT:      -5.0      1.527      1.720
REMARK SMILES [H]/N=c1\[nH]c(C(=O)N2N[C@H](C)O[C@H]2c2ccc3cc(C)[nH]c3c2)cs1
REMARK SMILES IDX 6 1 7 2 5 3 3 4 25 5 4 6 24 7 2 9 1 10 8 11 9 12 13 13 10 14
REMARK SMILES IDX 12 15 11 17 14 18 15 19 23 20 16 21 22 22 17 23 21 24 18 25
REMARK SMILES IDX 19 26 20 28
REMARK H PARENT 4 8 9 16 21 27
ROOT
ATOM      1  C   UNL     1      45.222 131.030  19.921  1.00  0.00     0.288 C 
ATOM      2  O   UNL     1      46.387 131.061  19.440  1.00  0.00    -0.266 OA
ENDROOT
BRANCH   1   3
ATOM      3  C   UNL     1      45.021 130.457  21.267  1.00  0.00     0.118 A 
ATOM      4  C   UNL     1      44.543 130.454  23.465  1.00  0.00     0.179 A 
ATOM      5  S   UNL     1      44.783 128.823  23.153  1.00  0.00    -0.105 S 
ATOM      6  N   UNL     1      44.698 131.210  22.357  1.00  0.00    -0.327 N 
ATOM      7  C   UNL     1      45.100 129.085  21.518  1.00  0.00     0.100 A 
ATOM      8  H   UNL     1      44.546 132.243  22.340  1.00  0.00     0.169 HD
BRANCH   4   9
ATOM      9  N   UNL     1      44.231 130.934  24.624  1.00  0.00    -0.275 NA
ATOM     10  H   UNL     1      44.653 130.556  25.501  1.00  0.00     0.190 HD
ENDBRANCH   4   9
ENDBRANCH   1   3
BRANCH   1  11
ATOM     11  N   UNL     1      44.125 131.567  19.158  1.00  0.00    -0.237 N 
ATOM     12  N   UNL     1      43.386 132.672  19.561  1.00  0.00    -0.201 NA
ATOM     13  C   UNL     1      43.628 131.001  17.929  1.00  0.00     0.267 C 
ATOM     14  C   UNL     1      42.314 132.742  18.566  1.00  0.00     0.204 C 
ATOM     15  O   UNL     1      42.490 131.743  17.573  1.00  0.00    -0.333 OA
ATOM     16  H   UNL     1      44.004 133.510  19.455  1.00  0.00     0.151 HD
ATOM     17  C   UNL     1      40.969 132.542  19.254  1.00  0.00     0.058 C 
BRANCH  13  18
ATOM     18  C   UNL     1      44.660 131.097  16.831  1.00  0.00     0.005 A 
ATOM     19  C   UNL     1      44.880 132.328  16.159  1.00  0.00     0.009 A 
ATOM     20  C   UNL     1      45.415 129.958  16.469  1.00  0.00     0.035 A 
ATOM     21  C   UNL     1      45.842 132.428  15.139  1.00  0.00     0.011 A 
ATOM     22  C   UNL     1      46.363 130.092  15.456  1.00  0.00     0.046 A 
ATOM     23  C   UNL     1      46.568 131.285  14.815  1.00  0.00    -0.000 A 
ATOM     24  N   UNL     1      47.171 129.139  14.965  1.00  0.00    -0.359 N 
ATOM     25  C   UNL     1      47.552 131.086  13.871  1.00  0.00     0.031 A 
ATOM     26  C   UNL     1      47.906 129.746  14.005  1.00  0.00     0.013 A 
ATOM     27  H   UNL     1      47.215 128.137  15.257  1.00  0.00     0.166 HD
ATOM     28  C   UNL     1      48.898 129.032  13.144  1.00  0.00     0.064 C 
ENDBRANCH  13  18
ENDBRANCH   1  11
TORSDOF 4
ENDMDL
MODEL 9
REMARK VINA RESULT:      -4.6      6.434      8.839
REMARK SMILES [H]/N=c1\[nH]c(C(=O)N2N[C@H](C)O[C@H]2c2ccc3cc(C)[nH]c3c2)cs1
REMARK SMILES IDX 6 1 7 2 5 3 3 4 25 5 4 6 24 7 2 9 1 10 8 11 9 12 13 13 10 14
REMARK SMILES IDX 12 15 11 17 14 18 15 19 23 20 16 21 22 22 17 23 21 24 18 25
REMARK SMILES IDX 19 26 20 28
REMARK H PARENT 4 8 9 16 21 27
ROOT
ATOM      1  C   UNL     1      44.670 126.473  22.602  1.00  0.00     0.288 C 
ATOM      2  O   UNL     1      45.808 126.678  22.098  1.00  0.00    -0.266 OA
ENDROOT
BRANCH   1   3
ATOM      3  C   UNL     1      43.922 127.616  23.163  1.00  0.00     0.118 A 
ATOM      4  C   UNL     1      42.173 128.698  24.072  1.00  0.00     0.179 A 
ATOM      5  S   UNL     1      43.350 129.892  24.042  1.00  0.00    -0.105 S 
ATOM      6  N   UNL     1      42.625 127.527  23.573  1.00  0.00    -0.327 N 
ATOM      7  C   UNL     1      44.505 128.870  23.361  1.00  0.00     0.100 A 
ATOM      8  H   UNL     1      42.053 126.654  23.549  1.00  0.00     0.169 HD
BRANCH   4   9
ATOM      9  N   UNL     1      40.976 128.869  24.530  1.00  0.00    -0.275 NA
ATOM     10  H   UNL     1      40.649 128.379  25.392  1.00  0.00     0.190 HD
ENDBRANCH   4   9
ENDBRANCH   1   3
BRANCH   1  11
ATOM     11  N   UNL     1      44.125 125.141  22.603  1.00  0.00    -0.237 N 
ATOM     12  N   UNL     1      43.064 124.751  21.795  1.00  0.00    -0.201 NA
ATOM     13  C   UNL     1      44.566 124.076  23.470  1.00  0.00     0.267 C 
ATOM     14  C   UNL     1      42.776 123.389  22.249  1.00  0.00     0.204 C 
ATOM     15  O   UNL     1      43.708 122.988  23.242  1.00  0.00    -0.333 OA
ATOM     16  H   UNL     1      43.426 124.712  20.813  1.00  0.00     0.151 HD
ATOM     17  C   UNL     1      41.366 123.334  22.825  1.00  0.00     0.058 C 
BRANCH  13  18
ATOM     18  C   UNL     1      45.988 123.675  23.158  1.00  0.00     0.005 A 
ATOM     19  C   UNL     1      46.321 123.149  21.883  1.00  0.00     0.009 A 
ATOM     20  C   UNL     1      46.996 123.827  24.137  1.00  0.00     0.035 A 
ATOM     21  C   UNL     1      47.643 122.778  21.581  1.00  0.00     0.011 A 
ATOM     22  C   UNL     1      48.296 123.452  23.805  1.00  0.00     0.046 A 
ATOM     23  C   UNL     1      48.608 122.947  22.570  1.00  0.00    -0.000 A 
ATOM     24  N   UNL     1      49.386 123.511  24.587  1.00  0.00    -0.359 N 
ATOM     25  C   UNL     1      49.957 122.669  22.563  1.00  0.00     0.031 A 
ATOM     26  C   UNL     1      50.404 123.043  23.827  1.00  0.00     0.013 A 
ATOM     27  H   UNL     1      49.435 123.839  25.578  1.00  0.00     0.166 HD
ATOM     28  C   UNL     1      51.801 122.870  24.329  1.00  0.00     0.064 C 
ENDBRANCH  13  18
ENDBRANCH   1  11
TORSDOF 4
ENDMDL


