MODEL 1
REMARK VINA RESULT:      -9.8      0.000      0.000
REMARK SMILES c1cc(-c2ccc([C@@H]3CO3)cn2)c2occc2c1
REMARK SMILES IDX 4 1 5 2 6 3 7 4 11 5 12 6 3 7 1 8 2 9 18 10 17 11 13 12
REMARK SMILES IDX 16 13 14 14 15 15 8 16 9 17 10 18
REMARK H PARENT
ROOT
ATOM      1  C   UNL     1      45.425 130.988  17.432  1.00  0.00     0.074 A 
ATOM      2  C   UNL     1      45.780 129.728  16.923  1.00  0.00     0.029 A 
ATOM      3  C   UNL     1      46.214 129.615  15.600  1.00  0.00     0.010 A 
ATOM      4  C   UNL     1      46.287 130.752  14.788  1.00  0.00     0.001 A 
ATOM      5  C   UNL     1      45.955 131.995  15.337  1.00  0.00     0.118 A 
ATOM      6  N   UNL     1      45.536 132.083  16.626  1.00  0.00    -0.256 NA
ENDROOT
BRANCH   1   7
ATOM      7  C   UNL     1      44.967 131.162  18.831  1.00  0.00     0.043 A 
ATOM      8  C   UNL     1      45.388 130.977  21.246  1.00  0.00     0.002 A 
ATOM      9  C   UNL     1      45.812 130.810  19.910  1.00  0.00     0.014 A 
ATOM     10  C   UNL     1      44.119 131.509  21.531  1.00  0.00     0.012 A 
ATOM     11  C   UNL     1      43.310 131.862  20.456  1.00  0.00     0.021 A 
ATOM     12  C   UNL     1      43.713 131.703  19.156  1.00  0.00     0.143 A 
ATOM     13  C   UNL     1      42.055 132.422  20.427  1.00  0.00     0.050 A 
ATOM     14  O   UNL     1      42.781 132.140  18.342  1.00  0.00    -0.464 OA
ATOM     15  C   UNL     1      41.773 132.575  19.075  1.00  0.00     0.196 A 
ENDBRANCH   1   7
BRANCH   4  16
ATOM     16  C   UNL     1      46.785 130.654  13.376  1.00  0.00     0.176 C 
ATOM     17  C   UNL     1      48.146 130.099  13.201  1.00  0.00     0.198 C 
ATOM     18  O   UNL     1      47.901 131.485  13.157  1.00  0.00    -0.368 OA
ENDBRANCH   4  16
TORSDOF 2
ENDMDL
MODEL 2
REMARK VINA RESULT:      -9.8      0.655      1.135
REMARK SMILES c1cc(-c2ccc([C@@H]3CO3)cn2)c2occc2c1
REMARK SMILES IDX 4 1 5 2 6 3 7 4 11 5 12 6 3 7 1 8 2 9 18 10 17 11 13 12
REMARK SMILES IDX 16 13 14 14 15 15 8 16 9 17 10 18
REMARK H PARENT
ROOT
ATOM      1  C   UNL     1      45.466 130.999  17.480  1.00  0.00     0.074 A 
ATOM      2  C   UNL     1      45.452 132.077  16.579  1.00  0.00     0.029 A 
ATOM      3  C   UNL     1      45.917 131.892  15.275  1.00  0.00     0.010 A 
ATOM      4  C   UNL     1      46.398 130.640  14.874  1.00  0.00     0.001 A 
ATOM      5  C   UNL     1      46.368 129.582  15.788  1.00  0.00     0.118 A 
ATOM      6  N   UNL     1      45.911 129.784  17.052  1.00  0.00    -0.256 NA
ENDROOT
BRANCH   1   7
ATOM      7  C   UNL     1      44.975 131.142  18.871  1.00  0.00     0.043 A 
ATOM      8  C   UNL     1      45.335 130.893  21.291  1.00  0.00     0.002 A 
ATOM      9  C   UNL     1      45.791 130.756  19.962  1.00  0.00     0.014 A 
ATOM     10  C   UNL     1      44.063 131.428  21.558  1.00  0.00     0.012 A 
ATOM     11  C   UNL     1      43.284 131.815  20.473  1.00  0.00     0.021 A 
ATOM     12  C   UNL     1      43.718 131.685  19.180  1.00  0.00     0.143 A 
ATOM     13  C   UNL     1      42.034 132.385  20.428  1.00  0.00     0.050 A 
ATOM     14  O   UNL     1      42.809 132.150  18.355  1.00  0.00    -0.464 OA
ATOM     15  C   UNL     1      41.787 132.575  19.073  1.00  0.00     0.196 A 
ENDBRANCH   1   7
BRANCH   4  16
ATOM     16  C   UNL     1      46.867 130.416  13.467  1.00  0.00     0.176 C 
ATOM     17  C   UNL     1      48.254 129.919  13.314  1.00  0.00     0.198 C 
ATOM     18  O   UNL     1      47.929 131.277  13.127  1.00  0.00    -0.368 OA
ENDBRANCH   4  16
TORSDOF 2
ENDMDL
MODEL 3
REMARK VINA RESULT:      -9.3      1.228      2.466
REMARK SMILES c1cc(-c2ccc([C@@H]3CO3)cn2)c2occc2c1
REMARK SMILES IDX 4 1 5 2 6 3 7 4 11 5 12 6 3 7 1 8 2 9 18 10 17 11 13 12
REMARK SMILES IDX 16 13 14 14 15 15 8 16 9 17 10 18
REMARK H PARENT
ROOT
ATOM      1  C   UNL     1      44.909 131.229  16.780  1.00  0.00     0.074 A 
ATOM      2  C   UNL     1      45.609 132.232  16.089  1.00  0.00     0.029 A 
ATOM      3  C   UNL     1      46.337 131.901  14.945  1.00  0.00     0.010 A 
ATOM      4  C   UNL     1      46.372 130.576  14.495  1.00  0.00     0.001 A 
ATOM      5  C   UNL     1      45.638 129.609  15.190  1.00  0.00     0.118 A 
ATOM      6  N   UNL     1      44.935 129.953  16.301  1.00  0.00    -0.256 NA
ENDROOT
BRANCH   1   7
ATOM      7  C   UNL     1      44.114 131.531  17.994  1.00  0.00     0.043 A 
ATOM      8  C   UNL     1      41.999 132.235  19.034  1.00  0.00     0.002 A 
ATOM      9  C   UNL     1      42.767 131.951  17.884  1.00  0.00     0.014 A 
ATOM     10  C   UNL     1      42.557 132.093  20.316  1.00  0.00     0.012 A 
ATOM     11  C   UNL     1      43.877 131.665  20.403  1.00  0.00     0.021 A 
ATOM     12  C   UNL     1      44.629 131.388  19.292  1.00  0.00     0.143 A 
ATOM     13  C   UNL     1      44.665 131.414  21.502  1.00  0.00     0.050 A 
ATOM     14  O   UNL     1      45.823 130.976  19.652  1.00  0.00    -0.464 OA
ATOM     15  C   UNL     1      45.875 130.984  20.971  1.00  0.00     0.196 A 
ENDBRANCH   1   7
BRANCH   4  16
ATOM     16  C   UNL     1      47.120 130.210  13.248  1.00  0.00     0.176 C 
ATOM     17  C   UNL     1      48.474 129.644  13.442  1.00  0.00     0.198 C 
ATOM     18  O   UNL     1      48.280 130.993  13.086  1.00  0.00    -0.368 OA
ENDBRANCH   4  16
TORSDOF 2
ENDMDL
MODEL 4
REMARK VINA RESULT:      -9.1      1.133      2.236
REMARK SMILES c1cc(-c2ccc([C@@H]3CO3)cn2)c2occc2c1
REMARK SMILES IDX 4 1 5 2 6 3 7 4 11 5 12 6 3 7 1 8 2 9 18 10 17 11 13 12
REMARK SMILES IDX 16 13 14 14 15 15 8 16 9 17 10 18
REMARK H PARENT
ROOT
ATOM      1  C   UNL     1      44.704 131.335  16.747  1.00  0.00     0.074 A 
ATOM      2  C   UNL     1      44.541 130.124  16.056  1.00  0.00     0.029 A 
ATOM      3  C   UNL     1      45.249 129.904  14.872  1.00  0.00     0.010 A 
ATOM      4  C   UNL     1      46.112 130.889  14.379  1.00  0.00     0.001 A 
ATOM      5  C   UNL     1      46.274 132.071  15.110  1.00  0.00     0.118 A 
ATOM      6  N   UNL     1      45.575 132.264  16.260  1.00  0.00    -0.256 NA
ENDROOT
BRANCH   1   7
ATOM      7  C   UNL     1      43.982 131.614  18.012  1.00  0.00     0.043 A 
ATOM      8  C   UNL     1      41.942 132.327  19.186  1.00  0.00     0.002 A 
ATOM      9  C   UNL     1      42.641 132.065  17.987  1.00  0.00     0.014 A 
ATOM     10  C   UNL     1      42.564 132.133  20.431  1.00  0.00     0.012 A 
ATOM     11  C   UNL     1      43.877 131.674  20.433  1.00  0.00     0.021 A 
ATOM     12  C   UNL     1      44.563 131.418  19.275  1.00  0.00     0.143 A 
ATOM     13  C   UNL     1      44.717 131.371  21.479  1.00  0.00     0.050 A 
ATOM     14  O   UNL     1      45.764 130.970  19.557  1.00  0.00    -0.464 OA
ATOM     15  C   UNL     1      45.886 130.933  20.870  1.00  0.00     0.196 A 
ENDBRANCH   1   7
BRANCH   4  16
ATOM     16  C   UNL     1      46.907 130.654  13.129  1.00  0.00     0.176 C 
ATOM     17  C   UNL     1      48.229 130.011  13.308  1.00  0.00     0.198 C 
ATOM     18  O   UNL     1      48.102 131.402  13.123  1.00  0.00    -0.368 OA
ENDBRANCH   4  16
TORSDOF 2
ENDMDL
MODEL 5
REMARK VINA RESULT:      -7.7      1.470      2.558
REMARK SMILES c1cc(-c2ccc([C@@H]3CO3)cn2)c2occc2c1
REMARK SMILES IDX 4 1 5 2 6 3 7 4 11 5 12 6 3 7 1 8 2 9 18 10 17 11 13 12
REMARK SMILES IDX 16 13 14 14 15 15 8 16 9 17 10 18
REMARK H PARENT
ROOT
ATOM      1  C   UNL     1      44.272 131.311  18.117  1.00  0.00     0.074 A 
ATOM      2  C   UNL     1      45.498 130.632  18.208  1.00  0.00     0.029 A 
ATOM      3  C   UNL     1      46.173 130.266  17.042  1.00  0.00     0.010 A 
ATOM      4  C   UNL     1      45.625 130.571  15.791  1.00  0.00     0.001 A 
ATOM      5  C   UNL     1      44.418 131.275  15.737  1.00  0.00     0.118 A 
ATOM      6  N   UNL     1      43.778 131.622  16.885  1.00  0.00    -0.256 NA
ENDROOT
BRANCH   1   7
ATOM      7  C   UNL     1      43.521 131.728  19.325  1.00  0.00     0.043 A 
ATOM      8  C   UNL     1      41.683 132.994  20.357  1.00  0.00     0.002 A 
ATOM      9  C   UNL     1      42.408 132.596  19.213  1.00  0.00     0.014 A 
ATOM     10  C   UNL     1      42.046 132.526  21.631  1.00  0.00     0.012 A 
ATOM     11  C   UNL     1      43.133 131.663  21.717  1.00  0.00     0.021 A 
ATOM     12  C   UNL     1      43.843 131.272  20.613  1.00  0.00     0.143 A 
ATOM     13  C   UNL     1      43.692 131.034  22.805  1.00  0.00     0.050 A 
ATOM     14  O   UNL     1      44.793 130.437  20.965  1.00  0.00    -0.464 OA
ATOM     15  C   UNL     1      44.729 130.276  22.274  1.00  0.00     0.196 A 
ENDBRANCH   1   7
BRANCH   4  16
ATOM     16  C   UNL     1      46.355 130.218  14.529  1.00  0.00     0.176 C 
ATOM     17  C   UNL     1      47.203 131.282  13.946  1.00  0.00     0.198 C 
ATOM     18  O   UNL     1      45.920 130.998  13.439  1.00  0.00    -0.368 OA
ENDBRANCH   4  16
TORSDOF 2
ENDMDL
MODEL 6
REMARK VINA RESULT:      -7.6      1.998      6.561
REMARK SMILES c1cc(-c2ccc([C@@H]3CO3)cn2)c2occc2c1
REMARK SMILES IDX 4 1 5 2 6 3 7 4 11 5 12 6 3 7 1 8 2 9 18 10 17 11 13 12
REMARK SMILES IDX 16 13 14 14 15 15 8 16 9 17 10 18
REMARK H PARENT
ROOT
ATOM      1  C   UNL     1      44.634 131.186  18.147  1.00  0.00     0.074 A 
ATOM      2  C   UNL     1      45.668 130.623  18.914  1.00  0.00     0.029 A 
ATOM      3  C   UNL     1      45.598 130.671  20.308  1.00  0.00     0.010 A 
ATOM      4  C   UNL     1      44.505 131.282  20.933  1.00  0.00     0.001 A 
ATOM      5  C   UNL     1      43.479 131.805  20.139  1.00  0.00     0.118 A 
ATOM      6  N   UNL     1      43.567 131.747  18.784  1.00  0.00    -0.256 NA
ENDROOT
BRANCH   1   7
ATOM      7  C   UNL     1      44.657 131.153  16.665  1.00  0.00     0.043 A 
ATOM      8  C   UNL     1      43.632 131.734  14.507  1.00  0.00     0.002 A 
ATOM      9  C   UNL     1      43.616 131.755  15.919  1.00  0.00     0.014 A 
ATOM     10  C   UNL     1      44.691 131.123  13.814  1.00  0.00     0.012 A 
ATOM     11  C   UNL     1      45.710 130.550  14.567  1.00  0.00     0.021 A 
ATOM     12  C   UNL     1      45.703 130.565  15.937  1.00  0.00     0.143 A 
ATOM     13  C   UNL     1      46.867 129.919  14.173  1.00  0.00     0.050 A 
ATOM     14  O   UNL     1      46.789 129.988  16.396  1.00  0.00    -0.464 OA
ATOM     15  C   UNL     1      47.505 129.588  15.362  1.00  0.00     0.196 A 
ENDBRANCH   1   7
BRANCH   4  16
ATOM     16  C   UNL     1      44.397 131.311  22.429  1.00  0.00     0.176 C 
ATOM     17  C   UNL     1      43.388 130.408  23.028  1.00  0.00     0.198 C 
ATOM     18  O   UNL     1      43.139 131.784  22.853  1.00  0.00    -0.368 OA
ENDBRANCH   4  16
TORSDOF 2
ENDMDL
MODEL 7
REMARK VINA RESULT:      -7.6      1.344      2.497
REMARK SMILES c1cc(-c2ccc([C@@H]3CO3)cn2)c2occc2c1
REMARK SMILES IDX 4 1 5 2 6 3 7 4 11 5 12 6 3 7 1 8 2 9 18 10 17 11 13 12
REMARK SMILES IDX 16 13 14 14 15 15 8 16 9 17 10 18
REMARK H PARENT
ROOT
ATOM      1  C   UNL     1      44.167 131.690  17.474  1.00  0.00     0.074 A 
ATOM      2  C   UNL     1      43.405 131.651  16.294  1.00  0.00     0.029 A 
ATOM      3  C   UNL     1      44.041 131.438  15.069  1.00  0.00     0.010 A 
ATOM      4  C   UNL     1      45.429 131.269  15.020  1.00  0.00     0.001 A 
ATOM      5  C   UNL     1      46.152 131.283  16.218  1.00  0.00     0.118 A 
ATOM      6  N   UNL     1      45.514 131.492  17.399  1.00  0.00    -0.256 NA
ENDROOT
BRANCH   1   7
ATOM      7  C   UNL     1      43.539 131.904  18.799  1.00  0.00     0.043 A 
ATOM      8  C   UNL     1      41.721 132.837  20.168  1.00  0.00     0.002 A 
ATOM      9  C   UNL     1      42.330 132.632  18.911  1.00  0.00     0.014 A 
ATOM     10  C   UNL     1      42.300 132.310  21.335  1.00  0.00     0.012 A 
ATOM     11  C   UNL     1      43.479 131.586  21.202  1.00  0.00     0.021 A 
ATOM     12  C   UNL     1      44.078 131.383  19.986  1.00  0.00     0.143 A 
ATOM     13  C   UNL     1      44.244 130.940  22.145  1.00  0.00     0.050 A 
ATOM     14  O   UNL     1      45.154 130.646  20.135  1.00  0.00    -0.464 OA
ATOM     15  C   UNL     1      45.281 130.367  21.419  1.00  0.00     0.196 A 
ENDBRANCH   1   7
BRANCH   4  16
ATOM     16  C   UNL     1      46.123 131.004  13.717  1.00  0.00     0.176 C 
ATOM     17  C   UNL     1      47.204 129.993  13.748  1.00  0.00     0.198 C 
ATOM     18  O   UNL     1      47.481 131.374  13.764  1.00  0.00    -0.368 OA
ENDBRANCH   4  16
TORSDOF 2
ENDMDL
MODEL 8
REMARK VINA RESULT:      -7.5      1.863      6.155
REMARK SMILES c1cc(-c2ccc([C@@H]3CO3)cn2)c2occc2c1
REMARK SMILES IDX 4 1 5 2 6 3 7 4 11 5 12 6 3 7 1 8 2 9 18 10 17 11 13 12
REMARK SMILES IDX 16 13 14 14 15 15 8 16 9 17 10 18
REMARK H PARENT
ROOT
ATOM      1  C   UNL     1      45.204 130.890  18.373  1.00  0.00     0.074 A 
ATOM      2  C   UNL     1      45.951 130.305  19.410  1.00  0.00     0.029 A 
ATOM      3  C   UNL     1      45.586 130.535  20.738  1.00  0.00     0.010 A 
ATOM      4  C   UNL     1      44.485 131.349  21.031  1.00  0.00     0.001 A 
ATOM      5  C   UNL     1      43.746 131.890  19.973  1.00  0.00     0.118 A 
ATOM      6  N   UNL     1      44.119 131.653  18.688  1.00  0.00    -0.256 NA
ENDROOT
BRANCH   1   7
ATOM      7  C   UNL     1      45.545 130.670  16.948  1.00  0.00     0.043 A 
ATOM      8  C   UNL     1      47.058 129.758  15.237  1.00  0.00     0.002 A 
ATOM      9  C   UNL     1      46.728 129.978  16.592  1.00  0.00     0.014 A 
ATOM     10  C   UNL     1      46.211 130.213  14.213  1.00  0.00     0.012 A 
ATOM     11  C   UNL     1      45.048 130.878  14.584  1.00  0.00     0.021 A 
ATOM     12  C   UNL     1      44.719 131.096  15.896  1.00  0.00     0.143 A 
ATOM     13  C   UNL     1      44.033 131.401  13.817  1.00  0.00     0.050 A 
ATOM     14  O   UNL     1      43.563 131.714  15.970  1.00  0.00    -0.464 OA
ATOM     15  C   UNL     1      43.128 131.912  14.739  1.00  0.00     0.196 A 
ENDBRANCH   1   7
BRANCH   4  16
ATOM     16  C   UNL     1      44.058 131.577  22.450  1.00  0.00     0.176 C 
ATOM     17  C   UNL     1      43.116 130.584  23.016  1.00  0.00     0.198 C 
ATOM     18  O   UNL     1      42.677 131.837  22.545  1.00  0.00    -0.368 OA
ENDBRANCH   4  16
TORSDOF 2
ENDMDL
MODEL 9
REMARK VINA RESULT:      -7.5      1.906      6.243
REMARK SMILES c1cc(-c2ccc([C@@H]3CO3)cn2)c2occc2c1
REMARK SMILES IDX 4 1 5 2 6 3 7 4 11 5 12 6 3 7 1 8 2 9 18 10 17 11 13 12
REMARK SMILES IDX 16 13 14 14 15 15 8 16 9 17 10 18
REMARK H PARENT
ROOT
ATOM      1  C   UNL     1      45.088 130.919  18.334  1.00  0.00     0.074 A 
ATOM      2  C   UNL     1      43.954 131.675  18.678  1.00  0.00     0.029 A 
ATOM      3  C   UNL     1      43.635 131.866  20.024  1.00  0.00     0.010 A 
ATOM      4  C   UNL     1      44.439 131.302  21.021  1.00  0.00     0.001 A 
ATOM      5  C   UNL     1      45.577 130.582  20.643  1.00  0.00     0.118 A 
ATOM      6  N   UNL     1      45.869 130.408  19.328  1.00  0.00    -0.256 NA
ENDROOT
BRANCH   1   7
ATOM      7  C   UNL     1      45.474 130.695  16.921  1.00  0.00     0.043 A 
ATOM      8  C   UNL     1      47.047 129.787  15.262  1.00  0.00     0.002 A 
ATOM      9  C   UNL     1      46.673 130.011  16.605  1.00  0.00     0.014 A 
ATOM     10  C   UNL     1      46.228 130.230  14.210  1.00  0.00     0.012 A 
ATOM     11  C   UNL     1      45.048 130.886  14.542  1.00  0.00     0.021 A 
ATOM     12  C   UNL     1      44.677 131.109  15.842  1.00  0.00     0.143 A 
ATOM     13  C   UNL     1      44.053 131.398  13.742  1.00  0.00     0.050 A 
ATOM     14  O   UNL     1      43.514 131.716  15.878  1.00  0.00    -0.464 OA
ATOM     15  C   UNL     1      43.115 131.905  14.634  1.00  0.00     0.196 A 
ENDBRANCH   1   7
BRANCH   4  16
ATOM     16  C   UNL     1      44.130 131.528  22.472  1.00  0.00     0.176 C 
ATOM     17  C   UNL     1      43.150 130.601  23.082  1.00  0.00     0.198 C 
ATOM     18  O   UNL     1      42.785 131.897  22.668  1.00  0.00    -0.368 OA
ENDBRANCH   4  16
TORSDOF 2
ENDMDL


