MODEL 1
REMARK VINA RESULT:      -9.0      0.000      0.000
REMARK SMILES Cc1c(F)c(F)c(CCC([O-])=C2CCC2)c(N)c1Nc1ccc(F)cc1
REMARK SMILES IDX 1 1 2 2 3 3 4 4 5 5 6 6 7 7 16 8 18 9 19 10 20 12 21 13
REMARK SMILES IDX 26 14 22 15 25 16 23 17 24 18 17 19 8 22 9 23 10 24 11 25
REMARK SMILES IDX 12 26 13 27 15 28 14 29
REMARK H PARENT 19 11 17 20 17 21
ROOT
ATOM      1  C   UNL     1      43.629 131.216  16.191  1.00  0.00     0.050 C 
ATOM      2  C   UNL     1      43.808 131.350  17.683  1.00  0.00     0.013 A 
ATOM      3  C   UNL     1      42.839 132.032  18.432  1.00  0.00     0.164 A 
ATOM      4  F   UNL     1      41.742 132.554  17.827  1.00  0.00    -0.203 F 
ATOM      5  C   UNL     1      42.991 132.192  19.809  1.00  0.00     0.164 A 
ATOM      6  F   UNL     1      42.032 132.867  20.494  1.00  0.00    -0.203 F 
ATOM      7  C   UNL     1      44.109 131.661  20.477  1.00  0.00     0.016 A 
ATOM      8  C   UNL     1      45.071 130.920  19.739  1.00  0.00     0.062 A 
ATOM      9  C   UNL     1      44.910 130.763  18.342  1.00  0.00     0.068 A 
ENDROOT
BRANCH   9  10
ATOM     10  N   UNL     1      45.894 130.036  17.591  1.00  0.00    -0.354 N 
ATOM     11  H   UNL     1      46.305 129.184  18.037  1.00  0.00     0.167 HD
BRANCH  10  12
ATOM     12  C   UNL     1      46.269 130.361  16.240  1.00  0.00     0.039 A 
ATOM     13  C   UNL     1      46.280 131.704  15.833  1.00  0.00     0.029 A 
ATOM     14  C   UNL     1      46.645 129.365  15.317  1.00  0.00     0.029 A 
ATOM     15  C   UNL     1      46.649 132.047  14.528  1.00  0.00     0.041 A 
ATOM     16  C   UNL     1      47.013 129.712  14.014  1.00  0.00     0.041 A 
ATOM     17  C   UNL     1      47.014 131.051  13.619  1.00  0.00     0.123 A 
ATOM     18  F   UNL     1      47.372 131.386  12.355  1.00  0.00    -0.207 F 
ENDBRANCH  10  12
ENDBRANCH   9  10
BRANCH   8  19
ATOM     19  N   UNL     1      46.192 130.298  20.394  1.00  0.00    -0.397 N 
ATOM     20  H   UNL     1      46.342 129.267  20.403  1.00  0.00     0.156 HD
ATOM     21  H   UNL     1      46.937 130.863  20.858  1.00  0.00     0.156 HD
ENDBRANCH   8  19
BRANCH   7  22
ATOM     22  C   UNL     1      44.223 131.857  21.977  1.00  0.00     0.044 C 
BRANCH  22  23
ATOM     23  C   UNL     1      43.134 131.092  22.745  1.00  0.00     0.023 C 
BRANCH  23  24
ATOM     24  C   UNL     1      43.547 129.674  23.026  1.00  0.00    -0.133 C 
ATOM     25  O   UNL     1      44.842 129.269  22.725  1.00  0.00    -0.875 OA
BRANCH  24  26
ATOM     26  C   UNL     1      42.707 128.809  23.588  1.00  0.00    -0.082 C 
ATOM     27  C   UNL     1      42.695 127.330  23.918  1.00  0.00     0.030 C 
ATOM     28  C   UNL     1      41.325 128.831  24.213  1.00  0.00     0.030 C 
ATOM     29  C   UNL     1      41.334 127.371  24.534  1.00  0.00     0.009 C 
ENDBRANCH  24  26
ENDBRANCH  23  24
ENDBRANCH  22  23
ENDBRANCH   7  22
TORSDOF 7
ENDMDL
MODEL 2
REMARK VINA RESULT:      -8.5      0.808      1.249
REMARK SMILES Cc1c(F)c(F)c(CCC([O-])=C2CCC2)c(N)c1Nc1ccc(F)cc1
REMARK SMILES IDX 1 1 2 2 3 3 4 4 5 5 6 6 7 7 16 8 18 9 19 10 20 12 21 13
REMARK SMILES IDX 26 14 22 15 25 16 23 17 24 18 17 19 8 22 9 23 10 24 11 25
REMARK SMILES IDX 12 26 13 27 15 28 14 29
REMARK H PARENT 19 11 17 20 17 21
ROOT
ATOM      1  C   UNL     1      43.706 131.126  16.089  1.00  0.00     0.050 C 
ATOM      2  C   UNL     1      43.911 131.278  17.575  1.00  0.00     0.013 A 
ATOM      3  C   UNL     1      42.957 131.969  18.333  1.00  0.00     0.164 A 
ATOM      4  F   UNL     1      41.850 132.486  17.742  1.00  0.00    -0.203 F 
ATOM      5  C   UNL     1      43.133 132.145  19.705  1.00  0.00     0.164 A 
ATOM      6  F   UNL     1      42.187 132.829  20.399  1.00  0.00    -0.203 F 
ATOM      7  C   UNL     1      44.262 131.621  20.360  1.00  0.00     0.016 A 
ATOM      8  C   UNL     1      45.210 130.869  19.614  1.00  0.00     0.062 A 
ATOM      9  C   UNL     1      45.024 130.697  18.222  1.00  0.00     0.068 A 
ENDROOT
BRANCH   9  10
ATOM     10  N   UNL     1      45.994 129.959  17.462  1.00  0.00    -0.354 N 
ATOM     11  H   UNL     1      46.337 129.059  17.867  1.00  0.00     0.167 HD
BRANCH  10  12
ATOM     12  C   UNL     1      46.441 130.343  16.149  1.00  0.00     0.039 A 
ATOM     13  C   UNL     1      47.027 129.380  15.312  1.00  0.00     0.029 A 
ATOM     14  C   UNL     1      46.290 131.660  15.672  1.00  0.00     0.029 A 
ATOM     15  C   UNL     1      47.461 129.725  14.029  1.00  0.00     0.041 A 
ATOM     16  C   UNL     1      46.726 132.001  14.388  1.00  0.00     0.041 A 
ATOM     17  C   UNL     1      47.312 131.036  13.567  1.00  0.00     0.123 A 
ATOM     18  F   UNL     1      47.734 131.368  12.323  1.00  0.00    -0.207 F 
ENDBRANCH  10  12
ENDBRANCH   9  10
BRANCH   8  19
ATOM     19  N   UNL     1      46.342 130.253  20.256  1.00  0.00    -0.397 N 
ATOM     20  H   UNL     1      46.272 129.754  21.167  1.00  0.00     0.156 HD
ATOM     21  H   UNL     1      47.285 130.243  19.809  1.00  0.00     0.156 HD
ENDBRANCH   8  19
BRANCH   7  22
ATOM     22  C   UNL     1      44.403 131.834  21.855  1.00  0.00     0.044 C 
BRANCH  22  23
ATOM     23  C   UNL     1      44.461 130.506  22.626  1.00  0.00     0.023 C 
BRANCH  23  24
ATOM     24  C   UNL     1      43.277 130.342  23.536  1.00  0.00    -0.133 C 
ATOM     25  O   UNL     1      42.702 131.466  24.116  1.00  0.00    -0.875 OA
BRANCH  24  26
ATOM     26  C   UNL     1      42.746 129.144  23.769  1.00  0.00    -0.082 C 
ATOM     27  C   UNL     1      43.164 127.862  24.462  1.00  0.00     0.030 C 
ATOM     28  C   UNL     1      41.444 128.418  23.488  1.00  0.00     0.030 C 
ATOM     29  C   UNL     1      41.873 127.165  24.179  1.00  0.00     0.009 C 
ENDBRANCH  24  26
ENDBRANCH  23  24
ENDBRANCH  22  23
ENDBRANCH   7  22
TORSDOF 7
ENDMDL
MODEL 3
REMARK VINA RESULT:      -7.9      1.386      1.922
REMARK SMILES Cc1c(F)c(F)c(CCC([O-])=C2CCC2)c(N)c1Nc1ccc(F)cc1
REMARK SMILES IDX 1 1 2 2 3 3 4 4 5 5 6 6 7 7 16 8 18 9 19 10 20 12 21 13
REMARK SMILES IDX 26 14 22 15 25 16 23 17 24 18 17 19 8 22 9 23 10 24 11 25
REMARK SMILES IDX 12 26 13 27 15 28 14 29
REMARK H PARENT 19 11 17 20 17 21
ROOT
ATOM      1  C   UNL     1      43.503 131.665  17.110  1.00  0.00     0.050 C 
ATOM      2  C   UNL     1      43.650 131.585  18.609  1.00  0.00     0.013 A 
ATOM      3  C   UNL     1      42.645 132.119  19.426  1.00  0.00     0.164 A 
ATOM      4  F   UNL     1      41.542 132.689  18.879  1.00  0.00    -0.203 F 
ATOM      5  C   UNL     1      42.765 132.080  20.815  1.00  0.00     0.164 A 
ATOM      6  F   UNL     1      41.771 132.617  21.569  1.00  0.00    -0.203 F 
ATOM      7  C   UNL     1      43.889 131.492  21.424  1.00  0.00     0.016 A 
ATOM      8  C   UNL     1      44.889 130.897  20.609  1.00  0.00     0.062 A 
ATOM      9  C   UNL     1      44.759 130.942  19.201  1.00  0.00     0.068 A 
ENDROOT
BRANCH   9  10
ATOM     10  N   UNL     1      45.781 130.364  18.375  1.00  0.00    -0.354 N 
ATOM     11  H   UNL     1      46.460 129.715  18.835  1.00  0.00     0.167 HD
BRANCH  10  12
ATOM     12  C   UNL     1      45.862 130.556  16.950  1.00  0.00     0.039 A 
ATOM     13  C   UNL     1      45.678 129.456  16.097  1.00  0.00     0.029 A 
ATOM     14  C   UNL     1      46.103 131.824  16.387  1.00  0.00     0.029 A 
ATOM     15  C   UNL     1      45.742 129.617  14.709  1.00  0.00     0.041 A 
ATOM     16  C   UNL     1      46.166 131.981  15.000  1.00  0.00     0.041 A 
ATOM     17  C   UNL     1      45.988 130.879  14.161  1.00  0.00     0.123 A 
ATOM     18  F   UNL     1      46.049 131.033  12.815  1.00  0.00    -0.207 F 
ENDBRANCH  10  12
ENDBRANCH   9  10
BRANCH   8  19
ATOM     19  N   UNL     1      46.018 130.221  21.192  1.00  0.00    -0.397 N 
ATOM     20  H   UNL     1      46.481 129.403  20.743  1.00  0.00     0.156 HD
ATOM     21  H   UNL     1      46.454 130.553  22.080  1.00  0.00     0.156 HD
ENDBRANCH   8  19
BRANCH   7  22
ATOM     22  C   UNL     1      43.968 131.469  22.940  1.00  0.00     0.044 C 
BRANCH  22  23
ATOM     23  C   UNL     1      42.707 130.863  23.576  1.00  0.00     0.023 C 
BRANCH  23  24
ATOM     24  C   UNL     1      42.654 129.373  23.387  1.00  0.00    -0.133 C 
ATOM     25  O   UNL     1      41.442 128.769  23.075  1.00  0.00    -0.875 OA
BRANCH  24  26
ATOM     26  C   UNL     1      43.751 128.626  23.478  1.00  0.00    -0.082 C 
ATOM     27  C   UNL     1      44.816 128.344  24.519  1.00  0.00     0.030 C 
ATOM     28  C   UNL     1      44.519 127.648  22.611  1.00  0.00     0.030 C 
ATOM     29  C   UNL     1      45.558 127.380  23.651  1.00  0.00     0.009 C 
ENDBRANCH  24  26
ENDBRANCH  23  24
ENDBRANCH  22  23
ENDBRANCH   7  22
TORSDOF 7
ENDMDL
MODEL 4
REMARK VINA RESULT:      -7.7      0.996      1.288
REMARK SMILES Cc1c(F)c(F)c(CCC([O-])=C2CCC2)c(N)c1Nc1ccc(F)cc1
REMARK SMILES IDX 1 1 2 2 3 3 4 4 5 5 6 6 7 7 16 8 18 9 19 10 20 12 21 13
REMARK SMILES IDX 26 14 22 15 25 16 23 17 24 18 17 19 8 22 9 23 10 24 11 25
REMARK SMILES IDX 12 26 13 27 15 28 14 29
REMARK H PARENT 19 11 17 20 17 21
ROOT
ATOM      1  C   UNL     1      43.758 131.612  16.388  1.00  0.00     0.050 C 
ATOM      2  C   UNL     1      43.731 131.606  17.896  1.00  0.00     0.013 A 
ATOM      3  C   UNL     1      42.612 132.117  18.565  1.00  0.00     0.164 A 
ATOM      4  F   UNL     1      41.553 132.600  17.867  1.00  0.00    -0.203 F 
ATOM      5  C   UNL     1      42.570 132.145  19.958  1.00  0.00     0.164 A 
ATOM      6  F   UNL     1      41.469 132.658  20.565  1.00  0.00    -0.203 F 
ATOM      7  C   UNL     1      43.643 131.649  20.722  1.00  0.00     0.016 A 
ATOM      8  C   UNL     1      44.761 131.076  20.057  1.00  0.00     0.062 A 
ATOM      9  C   UNL     1      44.795 131.053  18.643  1.00  0.00     0.068 A 
ENDROOT
BRANCH   9  10
ATOM     10  N   UNL     1      45.935 130.497  17.969  1.00  0.00    -0.354 N 
ATOM     11  H   UNL     1      46.592 129.915  18.537  1.00  0.00     0.167 HD
BRANCH  10  12
ATOM     12  C   UNL     1      46.167 130.622  16.554  1.00  0.00     0.039 A 
ATOM     13  C   UNL     1      46.294 131.900  15.987  1.00  0.00     0.029 A 
ATOM     14  C   UNL     1      46.288 129.492  15.722  1.00  0.00     0.029 A 
ATOM     15  C   UNL     1      46.528 132.049  14.617  1.00  0.00     0.041 A 
ATOM     16  C   UNL     1      46.521 129.644  14.352  1.00  0.00     0.041 A 
ATOM     17  C   UNL     1      46.640 130.922  13.799  1.00  0.00     0.123 A 
ATOM     18  F   UNL     1      46.868 131.067  12.471  1.00  0.00    -0.207 F 
ENDBRANCH  10  12
ENDBRANCH   9  10
BRANCH   8  19
ATOM     19  N   UNL     1      45.847 130.491  20.799  1.00  0.00    -0.397 N 
ATOM     20  H   UNL     1      46.144 129.500  20.679  1.00  0.00     0.156 HD
ATOM     21  H   UNL     1      46.418 131.053  21.466  1.00  0.00     0.156 HD
ENDBRANCH   8  19
BRANCH   7  22
ATOM     22  C   UNL     1      43.545 131.696  22.235  1.00  0.00     0.044 C 
BRANCH  22  23
ATOM     23  C   UNL     1      44.351 130.570  22.902  1.00  0.00     0.023 C 
BRANCH  23  24
ATOM     24  C   UNL     1      43.455 129.598  23.616  1.00  0.00    -0.133 C 
ATOM     25  O   UNL     1      42.321 130.066  24.267  1.00  0.00    -0.875 OA
BRANCH  24  26
ATOM     26  C   UNL     1      43.710 128.291  23.608  1.00  0.00    -0.082 C 
ATOM     27  C   UNL     1      42.908 127.006  23.637  1.00  0.00     0.030 C 
ATOM     28  C   UNL     1      44.924 127.385  23.548  1.00  0.00     0.030 C 
ATOM     29  C   UNL     1      44.116 126.128  23.574  1.00  0.00     0.009 C 
ENDBRANCH  24  26
ENDBRANCH  23  24
ENDBRANCH  22  23
ENDBRANCH   7  22
TORSDOF 7
ENDMDL
MODEL 5
REMARK VINA RESULT:      -6.3      0.939      1.396
REMARK SMILES Cc1c(F)c(F)c(CCC([O-])=C2CCC2)c(N)c1Nc1ccc(F)cc1
REMARK SMILES IDX 1 1 2 2 3 3 4 4 5 5 6 6 7 7 16 8 18 9 19 10 20 12 21 13
REMARK SMILES IDX 26 14 22 15 25 16 23 17 24 18 17 19 8 22 9 23 10 24 11 25
REMARK SMILES IDX 12 26 13 27 15 28 14 29
REMARK H PARENT 19 11 17 20 17 21
ROOT
ATOM      1  C   UNL     1      44.003 130.664  15.691  1.00  0.00     0.050 C 
ATOM      2  C   UNL     1      44.338 131.000  17.123  1.00  0.00     0.013 A 
ATOM      3  C   UNL     1      43.393 131.673  17.909  1.00  0.00     0.164 A 
ATOM      4  F   UNL     1      42.182 132.008  17.396  1.00  0.00    -0.203 F 
ATOM      5  C   UNL     1      43.685 132.018  19.229  1.00  0.00     0.164 A 
ATOM      6  F   UNL     1      42.743 132.677  19.951  1.00  0.00    -0.203 F 
ATOM      7  C   UNL     1      44.925 131.685  19.803  1.00  0.00     0.016 A 
ATOM      8  C   UNL     1      45.872 130.953  19.035  1.00  0.00     0.062 A 
ATOM      9  C   UNL     1      45.568 130.609  17.697  1.00  0.00     0.068 A 
ENDROOT
BRANCH   9  10
ATOM     10  N   UNL     1      46.532 129.892  16.912  1.00  0.00    -0.354 N 
ATOM     11  H   UNL     1      46.991 129.063  17.354  1.00  0.00     0.167 HD
BRANCH  10  12
ATOM     12  C   UNL     1      46.828 130.195  15.536  1.00  0.00     0.039 A 
ATOM     13  C   UNL     1      47.353 129.191  14.707  1.00  0.00     0.029 A 
ATOM     14  C   UNL     1      46.587 131.472  14.992  1.00  0.00     0.029 A 
ATOM     15  C   UNL     1      47.640 129.457  13.365  1.00  0.00     0.041 A 
ATOM     16  C   UNL     1      46.876 131.734  13.650  1.00  0.00     0.041 A 
ATOM     17  C   UNL     1      47.404 130.729  12.837  1.00  0.00     0.123 A 
ATOM     18  F   UNL     1      47.683 130.985  11.535  1.00  0.00    -0.207 F 
ENDBRANCH  10  12
ENDBRANCH   9  10
BRANCH   8  19
ATOM     19  N   UNL     1      47.123 130.529  19.606  1.00  0.00    -0.397 N 
ATOM     20  H   UNL     1      47.741 129.824  19.153  1.00  0.00     0.156 HD
ATOM     21  H   UNL     1      47.490 130.946  20.489  1.00  0.00     0.156 HD
ENDBRANCH   8  19
BRANCH   7  22
ATOM     22  C   UNL     1      45.190 132.076  21.245  1.00  0.00     0.044 C 
BRANCH  22  23
ATOM     23  C   UNL     1      44.058 131.630  22.182  1.00  0.00     0.023 C 
BRANCH  23  24
ATOM     24  C   UNL     1      44.142 130.162  22.492  1.00  0.00    -0.133 C 
ATOM     25  O   UNL     1      45.190 129.414  21.970  1.00  0.00    -0.875 OA
BRANCH  24  26
ATOM     26  C   UNL     1      43.251 129.572  23.285  1.00  0.00    -0.082 C 
ATOM     27  C   UNL     1      43.268 128.792  24.584  1.00  0.00     0.030 C 
ATOM     28  C   UNL     1      41.748 129.372  23.331  1.00  0.00     0.030 C 
ATOM     29  C   UNL     1      41.785 128.609  24.615  1.00  0.00     0.009 C 
ENDBRANCH  24  26
ENDBRANCH  23  24
ENDBRANCH  22  23
ENDBRANCH   7  22
TORSDOF 7
ENDMDL
MODEL 6
REMARK VINA RESULT:      -6.0      3.154      7.737
REMARK SMILES Cc1c(F)c(F)c(CCC([O-])=C2CCC2)c(N)c1Nc1ccc(F)cc1
REMARK SMILES IDX 1 1 2 2 3 3 4 4 5 5 6 6 7 7 16 8 18 9 19 10 20 12 21 13
REMARK SMILES IDX 26 14 22 15 25 16 23 17 24 18 17 19 8 22 9 23 10 24 11 25
REMARK SMILES IDX 12 26 13 27 15 28 14 29
REMARK H PARENT 19 11 17 20 17 21
ROOT
ATOM      1  C   UNL     1      42.255 132.151  21.750  1.00  0.00     0.050 C 
ATOM      2  C   UNL     1      43.120 131.932  20.533  1.00  0.00     0.013 A 
ATOM      3  C   UNL     1      42.575 132.133  19.258  1.00  0.00     0.164 A 
ATOM      4  F   UNL     1      41.287 132.535  19.115  1.00  0.00    -0.203 F 
ATOM      5  C   UNL     1      43.344 131.915  18.116  1.00  0.00     0.164 A 
ATOM      6  F   UNL     1      42.773 132.114  16.901  1.00  0.00    -0.203 F 
ATOM      7  C   UNL     1      44.686 131.504  18.219  1.00  0.00     0.016 A 
ATOM      8  C   UNL     1      45.268 131.349  19.506  1.00  0.00     0.062 A 
ATOM      9  C   UNL     1      44.480 131.572  20.659  1.00  0.00     0.068 A 
ENDROOT
BRANCH   9  10
ATOM     10  N   UNL     1      45.059 131.392  21.961  1.00  0.00    -0.354 N 
ATOM     11  H   UNL     1      44.972 130.447  22.399  1.00  0.00     0.167 HD
BRANCH  10  12
ATOM     12  C   UNL     1      45.823 132.405  22.643  1.00  0.00     0.039 A 
ATOM     13  C   UNL     1      46.885 133.033  21.973  1.00  0.00     0.029 A 
ATOM     14  C   UNL     1      45.521 132.796  23.962  1.00  0.00     0.029 A 
ATOM     15  C   UNL     1      47.636 134.026  22.610  1.00  0.00     0.041 A 
ATOM     16  C   UNL     1      46.275 133.788  24.595  1.00  0.00     0.041 A 
ATOM     17  C   UNL     1      47.333 134.402  23.920  1.00  0.00     0.123 A 
ATOM     18  F   UNL     1      48.062 135.365  24.536  1.00  0.00    -0.207 F 
ENDBRANCH  10  12
ENDBRANCH   9  10
BRANCH   8  19
ATOM     19  N   UNL     1      46.656 131.001  19.657  1.00  0.00    -0.397 N 
ATOM     20  H   UNL     1      47.006 130.388  20.422  1.00  0.00     0.156 HD
ATOM     21  H   UNL     1      47.377 131.319  18.972  1.00  0.00     0.156 HD
ENDBRANCH   8  19
BRANCH   7  22
ATOM     22  C   UNL     1      45.482 131.287  16.945  1.00  0.00     0.044 C 
BRANCH  22  23
ATOM     23  C   UNL     1      44.882 130.176  16.070  1.00  0.00     0.023 C 
BRANCH  23  24
ATOM     24  C   UNL     1      45.170 130.404  14.613  1.00  0.00    -0.133 C 
ATOM     25  O   UNL     1      44.142 130.810  13.770  1.00  0.00    -0.875 OA
BRANCH  24  26
ATOM     26  C   UNL     1      46.398 130.257  14.121  1.00  0.00    -0.082 C 
ATOM     27  C   UNL     1      47.494 129.213  14.172  1.00  0.00     0.030 C 
ATOM     28  C   UNL     1      47.353 131.036  13.238  1.00  0.00     0.030 C 
ATOM     29  C   UNL     1      48.422 129.993  13.297  1.00  0.00     0.009 C 
ENDBRANCH  24  26
ENDBRANCH  23  24
ENDBRANCH  22  23
ENDBRANCH   7  22
TORSDOF 7
ENDMDL


