REMARK SMILES C=Cc1ccc(-c2cccc3cnoc23)[nH+]c1
REMARK SMILES IDX 3 1 4 2 5 3 6 4 16 5 17 6 2 8 1 9 7 10 8 11 15 12 9 13 14 14
REMARK SMILES IDX 11 15 10 16 13 17 12 18
REMARK H PARENT 16 7
ROOT
ATOM      1  C   UNL     1       1.159   0.875  -3.333  1.00  0.00     0.038 A 
ATOM      2  C   UNL     1       2.105   0.900  -2.293  1.00  0.00     0.021 A 
ATOM      3  C   UNL     1       1.701   0.695  -0.974  1.00  0.00     0.081 A 
ATOM      4  C   UNL     1       0.349   0.454  -0.688  1.00  0.00     0.214 A 
ATOM      5  N   UNL     1      -0.554   0.425  -1.711  1.00  0.00    -0.210 N 
ATOM      6  C   UNL     1      -0.180   0.623  -3.005  1.00  0.00     0.314 A 
ATOM      7  H   UNL     1      -1.568   0.272  -1.512  1.00  0.00     0.453 HD
ENDROOT
BRANCH   1   8
ATOM      8  C   UNL     1       1.521   1.077  -4.758  1.00  0.00     0.006 C 
ATOM      9  C   UNL     1       2.675   1.599  -5.175  1.00  0.00     0.009 C 
ENDBRANCH   1   8
BRANCH   4  10
ATOM     10  C   UNL     1      -0.091   0.229   0.711  1.00  0.00     0.092 A 
ATOM     11  C   UNL     1       0.432   0.991   1.784  1.00  0.00     0.019 A 
ATOM     12  C   UNL     1      -1.042  -0.747   1.035  1.00  0.00     0.180 A 
ATOM     13  C   UNL     1      -0.002   0.765   3.111  1.00  0.00     0.002 A 
ATOM     14  O   UNL     1      -1.659  -1.595   0.248  1.00  0.00    -0.355 OA
ATOM     15  C   UNL     1      -1.455  -0.959   2.318  1.00  0.00     0.043 A 
ATOM     16  C   UNL     1      -0.961  -0.225   3.390  1.00  0.00     0.014 A 
ATOM     17  N   UNL     1      -2.465  -2.354   0.942  1.00  0.00    -0.087 NA
ATOM     18  C   UNL     1      -2.364  -1.986   2.241  1.00  0.00     0.166 A 
ENDBRANCH   4  10
TORSDOF 2


