REMARK SMILES Cc1cc(-c2c(Nc3cccc4c3CCC4)ccc3[nH]ccc23)cc([O-])c1F
REMARK SMILES IDX 5 1 6 2 17 3 18 4 19 5 20 6 21 7 22 8 23 9 4 11 2 12 3 13
REMARK SMILES IDX 27 14 25 15 24 16 1 17 28 18 26 19 7 20 8 22 9 23 13 24
REMARK SMILES IDX 10 25 12 26 14 27 11 28 16 29 15 30
REMARK H PARENT 20 10 7 21
ROOT
ATOM      1  C   UNL     1      -1.013   1.644  -0.931  1.00  0.00     0.015 A 
ATOM      2  C   UNL     1      -1.949   1.697   0.145  1.00  0.00     0.047 A 
ATOM      3  C   UNL     1      -3.184   2.366  -0.029  1.00  0.00     0.029 A 
ATOM      4  C   UNL     1      -3.490   3.018  -1.234  1.00  0.00     0.029 A 
ATOM      5  C   UNL     1      -2.548   2.974  -2.256  1.00  0.00     0.046 A 
ATOM      6  N   UNL     1      -2.662   3.508  -3.484  1.00  0.00    -0.361 N 
ATOM      7  C   UNL     1      -1.528   3.175  -4.139  1.00  0.00     0.083 A 
ATOM      8  C   UNL     1      -0.691   2.426  -3.322  1.00  0.00     0.028 A 
ATOM      9  C   UNL     1      -1.357   2.312  -2.116  1.00  0.00     0.009 A 
ATOM     10  H   UNL     1      -3.466   4.055  -3.863  1.00  0.00     0.166 HD
ENDROOT
BRANCH   1  11
ATOM     11  C   UNL     1       0.254   0.881  -0.838  1.00  0.00    -0.016 A 
ATOM     12  C   UNL     1       1.436  -1.192  -0.342  1.00  0.00    -0.015 A 
ATOM     13  C   UNL     1       0.236  -0.486  -0.519  1.00  0.00     0.015 A 
ATOM     14  C   UNL     1       2.661  -0.523  -0.497  1.00  0.00     0.118 A 
ATOM     15  C   UNL     1       2.682   0.834  -0.836  1.00  0.00    -0.071 A 
ATOM     16  C   UNL     1       1.484   1.533  -1.010  1.00  0.00     0.003 A 
ATOM     17  C   UNL     1       1.416  -2.639   0.059  1.00  0.00     0.047 C 
ATOM     18  F   UNL     1       3.832  -1.185  -0.312  1.00  0.00    -0.207 F 
ATOM     19  O   UNL     1       3.895   1.494  -0.991  1.00  0.00    -0.870 OA
ENDBRANCH   1  11
BRANCH   2  20
ATOM     20  N   UNL     1      -1.686   1.068   1.412  1.00  0.00    -0.355 N 
ATOM     21  H   UNL     1      -2.465   0.539   1.866  1.00  0.00     0.167 HD
BRANCH  20  22
ATOM     22  C   UNL     1      -0.439   1.185   2.116  1.00  0.00     0.042 A 
ATOM     23  C   UNL     1       0.348   2.352   2.024  1.00  0.00     0.026 A 
ATOM     24  C   UNL     1       0.042   0.120   2.894  1.00  0.00    -0.021 A 
ATOM     25  C   UNL     1       1.596   2.420   2.665  1.00  0.00     0.002 A 
ATOM     26  C   UNL     1       1.268   0.188   3.509  1.00  0.00    -0.043 A 
ATOM     27  C   UNL     1      -0.608  -1.196   3.111  1.00  0.00     0.038 C 
ATOM     28  C   UNL     1       2.067   1.329   3.408  1.00  0.00     0.004 A 
ATOM     29  C   UNL     1       1.611  -1.064   4.219  1.00  0.00     0.036 C 
ATOM     30  C   UNL     1       0.391  -1.974   3.987  1.00  0.00     0.010 C 
ENDBRANCH  20  22
ENDBRANCH   2  20
TORSDOF 3


