REMARK SMILES C=CCC[C@H](O)Cn1cc(F)cc(N)/c1=N\c1cnc2[nH]ccc2c1
REMARK SMILES IDX 5 1 6 2 7 4 8 5 9 6 15 7 10 8 13 9 12 10 11 11 16 12 17 13
REMARK SMILES IDX 18 14 25 15 19 16 24 17 20 18 23 19 21 20 22 21 14 23 4 26
REMARK SMILES IDX 3 27 2 28 1 29
REMARK H PARENT 6 3 21 22 14 24 14 25
ROOT
ATOM      1  C   UNL     1      -1.719  -1.147  -1.751  1.00  0.00     0.134 C 
ENDROOT
BRANCH   1   2
ATOM      2  O   UNL     1      -1.723  -2.260  -2.608  1.00  0.00    -0.391 OA
ATOM      3  H   UNL     1      -1.326  -1.964  -3.469  1.00  0.00     0.211 HD
ENDBRANCH   1   2
BRANCH   1   4
ATOM      4  C   UNL     1      -1.839  -1.641  -0.297  1.00  0.00     0.155 C 
BRANCH   4   5
ATOM      5  N   UNL     1      -0.774  -2.616   0.016  1.00  0.00    -0.326 N 
ATOM      6  C   UNL     1      -1.101  -3.944   0.030  1.00  0.00     0.127 A 
ATOM      7  C   UNL     1       0.511  -2.198   0.301  1.00  0.00     0.156 A 
ATOM      8  C   UNL     1      -0.152  -4.911   0.338  1.00  0.00     0.141 A 
ATOM      9  C   UNL     1       1.525  -3.180   0.514  1.00  0.00     0.078 A 
ATOM     10  C   UNL     1       1.160  -4.528   0.573  1.00  0.00     0.070 A 
ATOM     11  F   UNL     1      -0.496  -6.222   0.362  1.00  0.00    -0.205 F 
BRANCH   7  12
ATOM     12  N   UNL     1       0.742  -0.910   0.378  1.00  0.00    -0.227 NA
BRANCH  12  13
ATOM     13  C   UNL     1       1.881  -0.209   0.894  1.00  0.00     0.085 A 
ATOM     14  C   UNL     1       2.385  -0.488   2.191  1.00  0.00     0.142 A 
ATOM     15  C   UNL     1       2.432   0.852   0.152  1.00  0.00     0.042 A 
ATOM     16  N   UNL     1       3.429   0.232   2.702  1.00  0.00    -0.236 NA
ATOM     17  C   UNL     1       3.492   1.549   0.719  1.00  0.00     0.021 A 
ATOM     18  C   UNL     1       3.966   1.229   1.957  1.00  0.00     0.137 A 
ATOM     19  C   UNL     1       4.242   2.607   0.256  1.00  0.00     0.030 A 
ATOM     20  N   UNL     1       4.982   2.028   2.316  1.00  0.00    -0.346 N 
ATOM     21  C   UNL     1       5.156   2.875   1.274  1.00  0.00     0.085 A 
ATOM     22  H   UNL     1       5.522   2.005   3.209  1.00  0.00     0.167 HD
ENDBRANCH  12  13
ENDBRANCH   7  12
BRANCH   9  23
ATOM     23  N   UNL     1       2.925  -2.869   0.519  1.00  0.00    -0.396 N 
ATOM     24  H   UNL     1       3.616  -3.558   0.890  1.00  0.00     0.156 HD
ATOM     25  H   UNL     1       3.304  -2.079  -0.047  1.00  0.00     0.156 HD
ENDBRANCH   9  23
ENDBRANCH   4   5
ENDBRANCH   1   4
BRANCH   1  26
ATOM     26  C   UNL     1      -2.881  -0.206  -2.143  1.00  0.00     0.038 C 
BRANCH  26  27
ATOM     27  C   UNL     1      -2.925   1.116  -1.360  1.00  0.00     0.029 C 
BRANCH  27  28
ATOM     28  C   UNL     1      -1.683   1.938  -1.577  1.00  0.00    -0.035 C 
ATOM     29  C   UNL     1      -0.827   2.198  -0.585  1.00  0.00     0.004 C 
ENDBRANCH  27  28
ENDBRANCH  26  27
ENDBRANCH   1  26
TORSDOF 9


