REMARK SMILES C[C@H]1CCc2ccc(-c3cccnc3F)nc2[C@@H]1F
REMARK SMILES IDX 1 1 2 2 3 3 4 4 5 5 6 6 7 7 8 8 16 9 17 10 18 11 19 12 9 13
REMARK SMILES IDX 10 14 14 15 11 16 13 17 12 18 15 19
REMARK H PARENT
ROOT
ATOM      1  C   UNL     1       2.372   0.874  -4.143  1.00  0.00     0.011 C 
ATOM      2  C   UNL     1       1.273   0.918  -3.075  1.00  0.00     0.027 C 
ATOM      3  C   UNL     1      -0.061   0.420  -3.654  1.00  0.00     0.011 C 
ATOM      4  C   UNL     1      -1.188   0.598  -2.632  1.00  0.00     0.038 C 
ATOM      5  C   UNL     1      -0.819   0.069  -1.268  1.00  0.00    -0.023 A 
ATOM      6  C   UNL     1      -1.828  -0.157  -0.324  1.00  0.00     0.008 A 
ATOM      7  C   UNL     1      -1.505  -0.585   0.964  1.00  0.00     0.029 A 
ATOM      8  C   UNL     1      -0.160  -0.784   1.311  1.00  0.00     0.075 A 
ATOM      9  N   UNL     1       0.806  -0.540   0.383  1.00  0.00    -0.249 NA
ATOM     10  C   UNL     1       0.526  -0.106  -0.876  1.00  0.00     0.079 A 
ATOM     11  C   UNL     1       1.665   0.068  -1.850  1.00  0.00     0.218 C 
ATOM     12  F   UNL     1       2.735   0.662  -1.201  1.00  0.00    -0.240 F 
ENDROOT
BRANCH   8  13
ATOM     13  C   UNL     1       0.230  -1.249   2.667  1.00  0.00     0.055 A 
ATOM     14  C   UNL     1      -0.588  -2.137   3.391  1.00  0.00     0.017 A 
ATOM     15  C   UNL     1       1.441  -0.832   3.255  1.00  0.00     0.222 A 
ATOM     16  C   UNL     1      -0.201  -2.575   4.658  1.00  0.00     0.021 A 
ATOM     17  N   UNL     1       1.790  -1.275   4.492  1.00  0.00    -0.228 NA
ATOM     18  C   UNL     1       1.003  -2.128   5.199  1.00  0.00     0.114 A 
ATOM     19  F   UNL     1       2.265   0.035   2.614  1.00  0.00    -0.184 F 
ENDBRANCH   8  13
TORSDOF 1


