MODEL 1
REMARK VINA RESULT:      -4.5      0.000      0.000
REMARK SMILES CC(=O)c1cc(-c2ccc(C)cc2)c(/C(O)=N/[C@@H]2C=CCC2)c(F)c1[O-]
REMARK SMILES IDX 14 1 23 2 24 3 25 4 26 5 4 6 5 7 6 8 15 9 16 10 17 12 18 13
REMARK SMILES IDX 19 14 22 15 20 16 21 17 7 18 8 19 13 20 9 21 12 22 10 23
REMARK SMILES IDX 11 24 2 25 3 26 1 27
REMARK H PARENT 16 11
ROOT
ATOM      1  C   UNL     1      44.312 125.063  23.551  1.00  0.00     0.079 A 
ATOM      2  C   UNL     1      43.105 125.678  23.927  1.00  0.00     0.129 A 
ATOM      3  F   UNL     1      42.119 124.953  24.515  1.00  0.00    -0.207 F 
ATOM      4  C   UNL     1      42.920 127.055  23.759  1.00  0.00    -0.060 A 
ATOM      5  O   UNL     1      41.715 127.619  24.166  1.00  0.00    -0.870 OA
ATOM      6  C   UNL     1      43.943 127.854  23.206  1.00  0.00     0.013 A 
ATOM      7  C   UNL     1      45.150 127.236  22.830  1.00  0.00     0.021 A 
ATOM      8  C   UNL     1      45.342 125.855  22.988  1.00  0.00    -0.002 A 
ENDROOT
BRANCH   1   9
ATOM      9  C   UNL     1      44.500 123.614  23.810  1.00  0.00     0.217 C 
BRANCH   9  10
ATOM     10  O   UNL     1      45.774 123.097  24.052  1.00  0.00    -0.493 OA
ATOM     11  H   UNL     1      46.317 123.378  24.859  1.00  0.00     0.295 HD
ENDBRANCH   9  10
BRANCH   9  12
ATOM     12  N   UNL     1      43.466 122.826  23.811  1.00  0.00    -0.244 NA
BRANCH  12  13
ATOM     13  C   UNL     1      42.745 122.407  22.612  1.00  0.00     0.132 C 
ATOM     14  C   UNL     1      43.125 123.295  21.483  1.00  0.00    -0.005 C 
ATOM     15  C   UNL     1      41.226 122.619  22.760  1.00  0.00     0.036 C 
ATOM     16  C   UNL     1      42.109 124.012  21.037  1.00  0.00    -0.029 C 
ATOM     17  C   UNL     1      40.852 123.731  21.775  1.00  0.00     0.029 C 
ENDBRANCH  12  13
ENDBRANCH   9  12
ENDBRANCH   1   9
BRANCH   8  18
ATOM     18  C   UNL     1      46.615 125.262  22.519  1.00  0.00    -0.017 A 
ATOM     19  C   UNL     1      46.619 124.351  21.452  1.00  0.00     0.009 A 
ATOM     20  C   UNL     1      47.828 125.616  23.128  1.00  0.00     0.009 A 
ATOM     21  C   UNL     1      47.825 123.827  20.978  1.00  0.00     0.004 A 
ATOM     22  C   UNL     1      49.034 125.088  22.657  1.00  0.00     0.004 A 
ATOM     23  C   UNL     1      49.042 124.209  21.564  1.00  0.00    -0.051 A 
ATOM     24  C   UNL     1      50.333 123.629  21.069  1.00  0.00     0.044 C 
ENDBRANCH   8  18
BRANCH   6  25
ATOM     25  C   UNL     1      43.759 129.320  23.014  1.00  0.00     0.159 C 
ATOM     26  O   UNL     1      44.731 130.106  23.178  1.00  0.00    -0.295 OA
ATOM     27  C   UNL     1      42.426 129.909  22.662  1.00  0.00     0.093 C 
ENDBRANCH   6  25
TORSDOF 6
ENDMDL
MODEL 2
REMARK VINA RESULT:      -4.4      4.941      7.321
REMARK SMILES CC(=O)c1cc(-c2ccc(C)cc2)c(/C(O)=N/[C@@H]2C=CCC2)c(F)c1[O-]
REMARK SMILES IDX 14 1 23 2 24 3 25 4 26 5 4 6 5 7 6 8 15 9 16 10 17 12 18 13
REMARK SMILES IDX 19 14 22 15 20 16 21 17 7 18 8 19 13 20 9 21 12 22 10 23
REMARK SMILES IDX 11 24 2 25 3 26 1 27
REMARK H PARENT 16 11
ROOT
ATOM      1  C   UNL     1      44.788 131.913  21.971  1.00  0.00     0.079 A 
ATOM      2  C   UNL     1      45.074 132.516  23.209  1.00  0.00     0.129 A 
ATOM      3  F   UNL     1      44.271 132.296  24.282  1.00  0.00    -0.207 F 
ATOM      4  C   UNL     1      46.218 133.304  23.374  1.00  0.00    -0.060 A 
ATOM      5  O   UNL     1      46.466 133.862  24.625  1.00  0.00    -0.870 OA
ATOM      6  C   UNL     1      47.110 133.509  22.300  1.00  0.00     0.013 A 
ATOM      7  C   UNL     1      46.822 132.904  21.062  1.00  0.00     0.021 A 
ATOM      8  C   UNL     1      45.672 132.120  20.885  1.00  0.00    -0.002 A 
ENDROOT
BRANCH   1   9
ATOM      9  C   UNL     1      43.604 131.028  21.851  1.00  0.00     0.217 C 
BRANCH   9  10
ATOM     10  O   UNL     1      42.371 131.543  21.444  1.00  0.00    -0.493 OA
ATOM     11  H   UNL     1      42.305 132.259  20.731  1.00  0.00     0.295 HD
ENDBRANCH   9  10
BRANCH   9  12
ATOM     12  N   UNL     1      43.721 129.763  22.127  1.00  0.00    -0.244 NA
BRANCH  12  13
ATOM     13  C   UNL     1      43.595 129.194  23.466  1.00  0.00     0.132 C 
ATOM     14  C   UNL     1      44.047 127.778  23.436  1.00  0.00    -0.005 C 
ATOM     15  C   UNL     1      42.122 129.106  23.910  1.00  0.00     0.036 C 
ATOM     16  C   UNL     1      43.072 126.929  23.705  1.00  0.00    -0.029 C 
ATOM     17  C   UNL     1      41.784 127.614  23.980  1.00  0.00     0.029 C 
ENDBRANCH  12  13
ENDBRANCH   9  12
ENDBRANCH   1   9
BRANCH   8  18
ATOM     18  C   UNL     1      45.402 131.561  19.541  1.00  0.00    -0.017 A 
ATOM     19  C   UNL     1      44.442 132.156  18.708  1.00  0.00     0.009 A 
ATOM     20  C   UNL     1      46.110 130.439  19.084  1.00  0.00     0.009 A 
ATOM     21  C   UNL     1      44.219 131.658  17.421  1.00  0.00     0.004 A 
ATOM     22  C   UNL     1      45.884 129.938  17.799  1.00  0.00     0.004 A 
ATOM     23  C   UNL     1      44.954 130.558  16.951  1.00  0.00    -0.051 A 
ATOM     24  C   UNL     1      44.700 130.010  15.579  1.00  0.00     0.044 C 
ENDBRANCH   8  18
BRANCH   6  25
ATOM     25  C   UNL     1      48.330 134.350  22.459  1.00  0.00     0.159 C 
ATOM     26  O   UNL     1      49.167 134.085  23.364  1.00  0.00    -0.295 OA
ATOM     27  C   UNL     1      48.585 135.543  21.587  1.00  0.00     0.093 C 
ENDBRANCH   6  25
TORSDOF 6
ENDMDL
MODEL 3
REMARK VINA RESULT:      -4.0      2.006      5.315
REMARK SMILES CC(=O)c1cc(-c2ccc(C)cc2)c(/C(O)=N/[C@@H]2C=CCC2)c(F)c1[O-]
REMARK SMILES IDX 14 1 23 2 24 3 25 4 26 5 4 6 5 7 6 8 15 9 16 10 17 12 18 13
REMARK SMILES IDX 19 14 22 15 20 16 21 17 7 18 8 19 13 20 9 21 12 22 10 23
REMARK SMILES IDX 11 24 2 25 3 26 1 27
REMARK H PARENT 16 11
ROOT
ATOM      1  C   UNL     1      44.984 125.875  23.375  1.00  0.00     0.079 A 
ATOM      2  C   UNL     1      45.565 124.647  23.736  1.00  0.00     0.129 A 
ATOM      3  F   UNL     1      44.855 123.734  24.448  1.00  0.00    -0.207 F 
ATOM      4  C   UNL     1      46.859 124.318  23.319  1.00  0.00    -0.060 A 
ATOM      5  O   UNL     1      47.381 123.081  23.686  1.00  0.00    -0.870 OA
ATOM      6  C   UNL     1      47.608 125.214  22.528  1.00  0.00     0.013 A 
ATOM      7  C   UNL     1      47.024 126.442  22.167  1.00  0.00     0.021 A 
ATOM      8  C   UNL     1      45.730 126.785  22.588  1.00  0.00    -0.002 A 
ENDROOT
BRANCH   1   9
ATOM      9  C   UNL     1      43.584 126.161  23.775  1.00  0.00     0.217 C 
BRANCH   9  10
ATOM     10  O   UNL     1      43.294 127.231  24.624  1.00  0.00    -0.493 OA
ATOM     11  H   UNL     1      43.211 128.178  24.276  1.00  0.00     0.295 HD
ENDBRANCH   9  10
BRANCH   9  12
ATOM     12  N   UNL     1      42.624 125.408  23.326  1.00  0.00    -0.244 NA
BRANCH  12  13
ATOM     13  C   UNL     1      41.499 124.936  24.129  1.00  0.00     0.132 C 
ATOM     14  C   UNL     1      40.893 123.753  23.466  1.00  0.00    -0.005 C 
ATOM     15  C   UNL     1      40.357 125.969  24.169  1.00  0.00     0.036 C 
ATOM     16  C   UNL     1      39.654 123.975  23.066  1.00  0.00    -0.029 C 
ATOM     17  C   UNL     1      39.190 125.346  23.396  1.00  0.00     0.029 C 
ENDBRANCH  12  13
ENDBRANCH   9  12
ENDBRANCH   1   9
BRANCH   8  18
ATOM     18  C   UNL     1      45.200 128.117  22.220  1.00  0.00    -0.017 A 
ATOM     19  C   UNL     1      44.176 128.705  22.979  1.00  0.00     0.009 A 
ATOM     20  C   UNL     1      45.724 128.810  21.118  1.00  0.00     0.009 A 
ATOM     21  C   UNL     1      43.708 129.982  22.661  1.00  0.00     0.004 A 
ATOM     22  C   UNL     1      45.252 130.085  20.797  1.00  0.00     0.004 A 
ATOM     23  C   UNL     1      44.258 130.689  21.580  1.00  0.00    -0.051 A 
ATOM     24  C   UNL     1      43.739 132.051  21.226  1.00  0.00     0.044 C 
ENDBRANCH   8  18
BRANCH   6  25
ATOM     25  C   UNL     1      48.990 124.880  22.081  1.00  0.00     0.159 C 
ATOM     26  O   UNL     1      49.168 124.132  21.081  1.00  0.00    -0.295 OA
ATOM     27  C   UNL     1      50.199 125.382  22.812  1.00  0.00     0.093 C 
ENDBRANCH   6  25
TORSDOF 6
ENDMDL
MODEL 4
REMARK VINA RESULT:      -3.6      2.303      4.968
REMARK SMILES CC(=O)c1cc(-c2ccc(C)cc2)c(/C(O)=N/[C@@H]2C=CCC2)c(F)c1[O-]
REMARK SMILES IDX 14 1 23 2 24 3 25 4 26 5 4 6 5 7 6 8 15 9 16 10 17 12 18 13
REMARK SMILES IDX 19 14 22 15 20 16 21 17 7 18 8 19 13 20 9 21 12 22 10 23
REMARK SMILES IDX 11 24 2 25 3 26 1 27
REMARK H PARENT 16 11
ROOT
ATOM      1  C   UNL     1      44.413 126.226  22.859  1.00  0.00     0.079 A 
ATOM      2  C   UNL     1      43.088 126.605  23.133  1.00  0.00     0.129 A 
ATOM      3  F   UNL     1      42.723 127.913  23.088  1.00  0.00    -0.207 F 
ATOM      4  C   UNL     1      42.108 125.642  23.398  1.00  0.00    -0.060 A 
ATOM      5  O   UNL     1      40.806 126.068  23.644  1.00  0.00    -0.870 OA
ATOM      6  C   UNL     1      42.432 124.269  23.397  1.00  0.00     0.013 A 
ATOM      7  C   UNL     1      43.760 123.892  23.122  1.00  0.00     0.021 A 
ATOM      8  C   UNL     1      44.751 124.851  22.863  1.00  0.00    -0.002 A 
ENDROOT
BRANCH   1   9
ATOM      9  C   UNL     1      45.410 127.270  22.512  1.00  0.00     0.217 C 
BRANCH   9  10
ATOM     10  O   UNL     1      46.636 126.918  21.944  1.00  0.00    -0.493 OA
ATOM     11  H   UNL     1      47.198 127.589  21.436  1.00  0.00     0.295 HD
ENDBRANCH   9  10
BRANCH   9  12
ATOM     12  N   UNL     1      45.132 128.519  22.740  1.00  0.00    -0.244 NA
BRANCH  12  13
ATOM     13  C   UNL     1      44.520 129.420  21.768  1.00  0.00     0.132 C 
ATOM     14  C   UNL     1      45.545 129.827  20.772  1.00  0.00    -0.005 C 
ATOM     15  C   UNL     1      44.083 130.746  22.418  1.00  0.00     0.036 C 
ATOM     16  C   UNL     1      45.805 131.122  20.813  1.00  0.00    -0.029 C 
ATOM     17  C   UNL     1      44.995 131.830  21.836  1.00  0.00     0.029 C 
ENDBRANCH  12  13
ENDBRANCH   9  12
ENDBRANCH   1   9
BRANCH   8  18
ATOM     18  C   UNL     1      46.139 124.387  22.638  1.00  0.00    -0.017 A 
ATOM     19  C   UNL     1      47.111 124.560  23.634  1.00  0.00     0.009 A 
ATOM     20  C   UNL     1      46.490 123.760  21.433  1.00  0.00     0.009 A 
ATOM     21  C   UNL     1      48.410 124.080  23.441  1.00  0.00     0.004 A 
ATOM     22  C   UNL     1      47.790 123.284  21.238  1.00  0.00     0.004 A 
ATOM     23  C   UNL     1      48.751 123.421  22.250  1.00  0.00    -0.051 A 
ATOM     24  C   UNL     1      50.150 122.926  22.035  1.00  0.00     0.044 C 
ENDBRANCH   8  18
BRANCH   6  25
ATOM     25  C   UNL     1      41.402 123.232  23.683  1.00  0.00     0.159 C 
ATOM     26  O   UNL     1      41.589 122.390  24.604  1.00  0.00    -0.295 OA
ATOM     27  C   UNL     1      40.141 123.128  22.878  1.00  0.00     0.093 C 
ENDBRANCH   6  25
TORSDOF 6
ENDMDL
MODEL 5
REMARK VINA RESULT:      -3.2      5.649      8.789
REMARK SMILES CC(=O)c1cc(-c2ccc(C)cc2)c(/C(O)=N/[C@@H]2C=CCC2)c(F)c1[O-]
REMARK SMILES IDX 14 1 23 2 24 3 25 4 26 5 4 6 5 7 6 8 15 9 16 10 17 12 18 13
REMARK SMILES IDX 19 14 22 15 20 16 21 17 7 18 8 19 13 20 9 21 12 22 10 23
REMARK SMILES IDX 11 24 2 25 3 26 1 27
REMARK H PARENT 16 11
ROOT
ATOM      1  C   UNL     1      45.364 130.701  18.576  1.00  0.00     0.079 A 
ATOM      2  C   UNL     1      46.256 130.268  17.580  1.00  0.00     0.129 A 
ATOM      3  F   UNL     1      47.395 129.610  17.917  1.00  0.00    -0.207 F 
ATOM      4  C   UNL     1      45.961 130.455  16.225  1.00  0.00    -0.060 A 
ATOM      5  O   UNL     1      46.868 129.990  15.277  1.00  0.00    -0.870 OA
ATOM      6  C   UNL     1      44.760 131.082  15.832  1.00  0.00     0.013 A 
ATOM      7  C   UNL     1      43.868 131.514  16.831  1.00  0.00     0.021 A 
ATOM      8  C   UNL     1      44.160 131.339  18.192  1.00  0.00    -0.002 A 
ENDROOT
BRANCH   1   9
ATOM      9  C   UNL     1      45.676 130.424  20.001  1.00  0.00     0.217 C 
BRANCH   9  10
ATOM     10  O   UNL     1      46.479 131.301  20.734  1.00  0.00    -0.493 OA
ATOM     11  H   UNL     1      47.450 131.093  20.931  1.00  0.00     0.295 HD
ENDBRANCH   9  10
BRANCH   9  12
ATOM     12  N   UNL     1      45.194 129.357  20.565  1.00  0.00    -0.244 NA
BRANCH  12  13
ATOM     13  C   UNL     1      45.480 128.947  21.937  1.00  0.00     0.132 C 
ATOM     14  C   UNL     1      45.519 127.463  22.001  1.00  0.00    -0.005 C 
ATOM     15  C   UNL     1      44.337 129.332  22.896  1.00  0.00     0.036 C 
ATOM     16  C   UNL     1      44.559 126.962  22.756  1.00  0.00    -0.029 C 
ATOM     17  C   UNL     1      43.700 128.016  23.352  1.00  0.00     0.029 C 
ENDBRANCH  12  13
ENDBRANCH   9  12
ENDBRANCH   1   9
BRANCH   8  18
ATOM     18  C   UNL     1      43.203 131.869  19.190  1.00  0.00    -0.017 A 
ATOM     19  C   UNL     1      43.477 131.754  20.562  1.00  0.00     0.009 A 
ATOM     20  C   UNL     1      42.021 132.500  18.774  1.00  0.00     0.009 A 
ATOM     21  C   UNL     1      42.598 132.295  21.504  1.00  0.00     0.004 A 
ATOM     22  C   UNL     1      41.140 133.037  19.716  1.00  0.00     0.004 A 
ATOM     23  C   UNL     1      41.434 132.958  21.086  1.00  0.00    -0.051 A 
ATOM     24  C   UNL     1      40.479 133.520  22.097  1.00  0.00     0.044 C 
ENDBRANCH   8  18
BRANCH   6  25
ATOM     25  C   UNL     1      44.435 131.292  14.393  1.00  0.00     0.159 C 
ATOM     26  O   UNL     1      45.332 131.163  13.516  1.00  0.00    -0.295 OA
ATOM     27  C   UNL     1      43.061 131.694  13.945  1.00  0.00     0.093 C 
ENDBRANCH   6  25
TORSDOF 6
ENDMDL
MODEL 6
REMARK VINA RESULT:      -2.3      5.748      8.777
REMARK SMILES CC(=O)c1cc(-c2ccc(C)cc2)c(/C(O)=N/[C@@H]2C=CCC2)c(F)c1[O-]
REMARK SMILES IDX 14 1 23 2 24 3 25 4 26 5 4 6 5 7 6 8 15 9 16 10 17 12 18 13
REMARK SMILES IDX 19 14 22 15 20 16 21 17 7 18 8 19 13 20 9 21 12 22 10 23
REMARK SMILES IDX 11 24 2 25 3 26 1 27
REMARK H PARENT 16 11
ROOT
ATOM      1  C   UNL     1      45.449 130.627  18.517  1.00  0.00     0.079 A 
ATOM      2  C   UNL     1      46.330 130.123  17.544  1.00  0.00     0.129 A 
ATOM      3  F   UNL     1      47.422 129.404  17.912  1.00  0.00    -0.207 F 
ATOM      4  C   UNL     1      46.068 130.301  16.181  1.00  0.00    -0.060 A 
ATOM      5  O   UNL     1      46.961 129.765  15.257  1.00  0.00    -0.870 OA
ATOM      6  C   UNL     1      44.913 130.991  15.756  1.00  0.00     0.013 A 
ATOM      7  C   UNL     1      44.033 131.494  16.732  1.00  0.00     0.021 A 
ATOM      8  C   UNL     1      44.292 131.328  18.102  1.00  0.00    -0.002 A 
ENDROOT
BRANCH   1   9
ATOM      9  C   UNL     1      45.722 130.359  19.951  1.00  0.00     0.217 C 
BRANCH   9  10
ATOM     10  O   UNL     1      46.542 131.215  20.689  1.00  0.00    -0.493 OA
ATOM     11  H   UNL     1      46.951 132.045  20.277  1.00  0.00     0.295 HD
ENDBRANCH   9  10
BRANCH   9  12
ATOM     12  N   UNL     1      45.189 129.319  20.520  1.00  0.00    -0.244 NA
BRANCH  12  13
ATOM     13  C   UNL     1      45.296 129.008  21.943  1.00  0.00     0.132 C 
ATOM     14  C   UNL     1      45.395 127.535  22.112  1.00  0.00    -0.005 C 
ATOM     15  C   UNL     1      44.013 129.387  22.706  1.00  0.00     0.036 C 
ATOM     16  C   UNL     1      44.361 127.029  22.759  1.00  0.00    -0.029 C 
ATOM     17  C   UNL     1      43.379 128.068  23.158  1.00  0.00     0.029 C 
ENDBRANCH  12  13
ENDBRANCH   9  12
ENDBRANCH   1   9
BRANCH   8  18
ATOM     18  C   UNL     1      43.353 131.932  19.074  1.00  0.00    -0.017 A 
ATOM     19  C   UNL     1      42.067 132.319  18.668  1.00  0.00     0.009 A 
ATOM     20  C   UNL     1      43.737 132.113  20.412  1.00  0.00     0.009 A 
ATOM     21  C   UNL     1      41.165 132.847  19.595  1.00  0.00     0.004 A 
ATOM     22  C   UNL     1      42.836 132.645  21.338  1.00  0.00     0.004 A 
ATOM     23  C   UNL     1      41.537 132.993  20.941  1.00  0.00    -0.051 A 
ATOM     24  C   UNL     1      40.575 133.579  21.931  1.00  0.00     0.044 C 
ENDBRANCH   8  18
BRANCH   6  25
ATOM     25  C   UNL     1      44.624 131.193  14.309  1.00  0.00     0.159 C 
ATOM     26  O   UNL     1      43.444 131.419  13.925  1.00  0.00    -0.295 OA
ATOM     27  C   UNL     1      45.699 131.100  13.268  1.00  0.00     0.093 C 
ENDBRANCH   6  25
TORSDOF 6
ENDMDL
MODEL 7
REMARK VINA RESULT:      -2.0      1.906      5.414
REMARK SMILES CC(=O)c1cc(-c2ccc(C)cc2)c(/C(O)=N/[C@@H]2C=CCC2)c(F)c1[O-]
REMARK SMILES IDX 14 1 23 2 24 3 25 4 26 5 4 6 5 7 6 8 15 9 16 10 17 12 18 13
REMARK SMILES IDX 19 14 22 15 20 16 21 17 7 18 8 19 13 20 9 21 12 22 10 23
REMARK SMILES IDX 11 24 2 25 3 26 1 27
REMARK H PARENT 16 11
ROOT
ATOM      1  C   UNL     1      44.078 125.863  22.845  1.00  0.00     0.079 A 
ATOM      2  C   UNL     1      45.065 126.845  22.652  1.00  0.00     0.129 A 
ATOM      3  F   UNL     1      46.357 126.488  22.436  1.00  0.00    -0.207 F 
ATOM      4  C   UNL     1      44.727 128.203  22.620  1.00  0.00    -0.060 A 
ATOM      5  O   UNL     1      45.738 129.135  22.406  1.00  0.00    -0.870 OA
ATOM      6  C   UNL     1      43.386 128.613  22.782  1.00  0.00     0.013 A 
ATOM      7  C   UNL     1      42.400 127.627  22.974  1.00  0.00     0.021 A 
ATOM      8  C   UNL     1      42.731 126.264  23.016  1.00  0.00    -0.002 A 
ENDROOT
BRANCH   1   9
ATOM      9  C   UNL     1      44.462 124.430  22.803  1.00  0.00     0.217 C 
BRANCH   9  10
ATOM     10  O   UNL     1      44.105 123.570  23.843  1.00  0.00    -0.493 OA
ATOM     11  H   UNL     1      43.610 123.903  24.661  1.00  0.00     0.295 HD
ENDBRANCH   9  10
BRANCH   9  12
ATOM     12  N   UNL     1      45.135 123.978  21.786  1.00  0.00    -0.244 NA
BRANCH  12  13
ATOM     13  C   UNL     1      46.336 123.155  21.890  1.00  0.00     0.132 C 
ATOM     14  C   UNL     1      46.749 123.078  23.316  1.00  0.00    -0.005 C 
ATOM     15  C   UNL     1      47.539 123.812  21.188  1.00  0.00     0.036 C 
ATOM     16  C   UNL     1      47.922 123.643  23.536  1.00  0.00    -0.029 C 
ATOM     17  C   UNL     1      48.525 124.195  22.296  1.00  0.00     0.029 C 
ENDBRANCH  12  13
ENDBRANCH   9  12
ENDBRANCH   1   9
BRANCH   8  18
ATOM     18  C   UNL     1      41.652 125.285  23.279  1.00  0.00    -0.017 A 
ATOM     19  C   UNL     1      41.647 124.046  22.622  1.00  0.00     0.009 A 
ATOM     20  C   UNL     1      40.632 125.584  24.196  1.00  0.00     0.009 A 
ATOM     21  C   UNL     1      40.655 123.103  22.904  1.00  0.00     0.004 A 
ATOM     22  C   UNL     1      39.638 124.643  24.475  1.00  0.00     0.004 A 
ATOM     23  C   UNL     1      39.656 123.388  23.848  1.00  0.00    -0.051 A 
ATOM     24  C   UNL     1      38.579 122.384  24.135  1.00  0.00     0.044 C 
ENDBRANCH   8  18
BRANCH   6  25
ATOM     25  C   UNL     1      43.011 130.055  22.756  1.00  0.00     0.159 C 
ATOM     26  O   UNL     1      43.836 130.915  22.344  1.00  0.00    -0.295 OA
ATOM     27  C   UNL     1      41.676 130.532  23.244  1.00  0.00     0.093 C 
ENDBRANCH   6  25
TORSDOF 6
ENDMDL
MODEL 8
REMARK VINA RESULT:      -1.9      5.171      7.369
REMARK SMILES CC(=O)c1cc(-c2ccc(C)cc2)c(/C(O)=N/[C@@H]2C=CCC2)c(F)c1[O-]
REMARK SMILES IDX 14 1 23 2 24 3 25 4 26 5 4 6 5 7 6 8 15 9 16 10 17 12 18 13
REMARK SMILES IDX 19 14 22 15 20 16 21 17 7 18 8 19 13 20 9 21 12 22 10 23
REMARK SMILES IDX 11 24 2 25 3 26 1 27
REMARK H PARENT 16 11
ROOT
ATOM      1  C   UNL     1      44.329 131.878  21.682  1.00  0.00     0.079 A 
ATOM      2  C   UNL     1      44.488 132.455  22.953  1.00  0.00     0.129 A 
ATOM      3  F   UNL     1      43.531 132.300  23.904  1.00  0.00    -0.207 F 
ATOM      4  C   UNL     1      45.658 133.148  23.283  1.00  0.00    -0.060 A 
ATOM      5  O   UNL     1      45.776 133.684  24.562  1.00  0.00    -0.870 OA
ATOM      6  C   UNL     1      46.702 133.282  22.343  1.00  0.00     0.013 A 
ATOM      7  C   UNL     1      46.540 132.703  21.071  1.00  0.00     0.021 A 
ATOM      8  C   UNL     1      45.367 132.013  20.729  1.00  0.00    -0.002 A 
ENDROOT
BRANCH   1   9
ATOM      9  C   UNL     1      43.105 131.090  21.391  1.00  0.00     0.217 C 
BRANCH   9  10
ATOM     10  O   UNL     1      42.450 131.225  20.164  1.00  0.00    -0.493 OA
ATOM     11  H   UNL     1      42.795 130.774  19.326  1.00  0.00     0.295 HD
ENDBRANCH   9  10
BRANCH   9  12
ATOM     12  N   UNL     1      42.646 130.268  22.287  1.00  0.00    -0.244 NA
BRANCH  12  13
ATOM     13  C   UNL     1      43.113 128.895  22.466  1.00  0.00     0.132 C 
ATOM     14  C   UNL     1      42.574 128.363  23.744  1.00  0.00    -0.005 C 
ATOM     15  C   UNL     1      44.641 128.834  22.650  1.00  0.00     0.036 C 
ATOM     16  C   UNL     1      43.524 128.096  24.622  1.00  0.00    -0.029 C 
ATOM     17  C   UNL     1      44.881 128.386  24.095  1.00  0.00     0.029 C 
ENDBRANCH  12  13
ENDBRANCH   9  12
ENDBRANCH   1   9
BRANCH   8  18
ATOM     18  C   UNL     1      45.240 131.478  19.354  1.00  0.00    -0.017 A 
ATOM     19  C   UNL     1      45.951 130.330  18.975  1.00  0.00     0.009 A 
ATOM     20  C   UNL     1      44.400 132.108  18.423  1.00  0.00     0.009 A 
ATOM     21  C   UNL     1      45.796 129.797  17.692  1.00  0.00     0.004 A 
ATOM     22  C   UNL     1      44.249 131.578  17.139  1.00  0.00     0.004 A 
ATOM     23  C   UNL     1      44.928 130.407  16.773  1.00  0.00    -0.051 A 
ATOM     24  C   UNL     1      44.779 129.848  15.389  1.00  0.00     0.044 C 
ENDBRANCH   8  18
BRANCH   6  25
ATOM     25  C   UNL     1      47.952 134.022  22.677  1.00  0.00     0.159 C 
ATOM     26  O   UNL     1      48.071 135.237  22.361  1.00  0.00    -0.295 OA
ATOM     27  C   UNL     1      49.108 133.353  23.358  1.00  0.00     0.093 C 
ENDBRANCH   6  25
TORSDOF 6
ENDMDL
MODEL 9
REMARK VINA RESULT:      -1.8      5.388      8.692
REMARK SMILES CC(=O)c1cc(-c2ccc(C)cc2)c(/C(O)=N/[C@@H]2C=CCC2)c(F)c1[O-]
REMARK SMILES IDX 14 1 23 2 24 3 25 4 26 5 4 6 5 7 6 8 15 9 16 10 17 12 18 13
REMARK SMILES IDX 19 14 22 15 20 16 21 17 7 18 8 19 13 20 9 21 12 22 10 23
REMARK SMILES IDX 11 24 2 25 3 26 1 27
REMARK H PARENT 16 11
ROOT
ATOM      1  C   UNL     1      45.372 130.861  19.084  1.00  0.00     0.079 A 
ATOM      2  C   UNL     1      46.272 130.474  18.076  1.00  0.00     0.129 A 
ATOM      3  F   UNL     1      47.445 129.869  18.398  1.00  0.00    -0.207 F 
ATOM      4  C   UNL     1      45.953 130.649  16.725  1.00  0.00    -0.060 A 
ATOM      5  O   UNL     1      46.870 130.230  15.765  1.00  0.00    -0.870 OA
ATOM      6  C   UNL     1      44.719 131.220  16.347  1.00  0.00     0.013 A 
ATOM      7  C   UNL     1      43.820 131.607  17.358  1.00  0.00     0.021 A 
ATOM      8  C   UNL     1      44.135 131.443  18.715  1.00  0.00    -0.002 A 
ENDROOT
BRANCH   1   9
ATOM      9  C   UNL     1      45.714 130.596  20.503  1.00  0.00     0.217 C 
BRANCH   9  10
ATOM     10  O   UNL     1      45.825 131.649  21.414  1.00  0.00    -0.493 OA
ATOM     11  H   UNL     1      46.712 132.102  21.595  1.00  0.00     0.295 HD
ENDBRANCH   9  10
BRANCH   9  12
ATOM     12  N   UNL     1      45.907 129.372  20.896  1.00  0.00    -0.244 NA
BRANCH  12  13
ATOM     13  C   UNL     1      44.910 128.560  21.589  1.00  0.00     0.132 C 
ATOM     14  C   UNL     1      44.648 129.150  22.927  1.00  0.00    -0.005 C 
ATOM     15  C   UNL     1      45.444 127.149  21.901  1.00  0.00     0.036 C 
ATOM     16  C   UNL     1      45.013 128.352  23.914  1.00  0.00    -0.029 C 
ATOM     17  C   UNL     1      45.579 127.070  23.425  1.00  0.00     0.029 C 
ENDBRANCH  12  13
ENDBRANCH   9  12
ENDBRANCH   1   9
BRANCH   8  18
ATOM     18  C   UNL     1      43.166 131.924  19.726  1.00  0.00    -0.017 A 
ATOM     19  C   UNL     1      43.256 131.486  21.056  1.00  0.00     0.009 A 
ATOM     20  C   UNL     1      42.158 132.831  19.366  1.00  0.00     0.009 A 
ATOM     21  C   UNL     1      42.371 131.976  22.021  1.00  0.00     0.004 A 
ATOM     22  C   UNL     1      41.270 133.317  20.330  1.00  0.00     0.004 A 
ATOM     23  C   UNL     1      41.386 132.911  21.667  1.00  0.00    -0.051 A 
ATOM     24  C   UNL     1      40.423 133.419  22.698  1.00  0.00     0.044 C 
ENDBRANCH   8  18
BRANCH   6  25
ATOM     25  C   UNL     1      44.367 131.418  14.913  1.00  0.00     0.159 C 
ATOM     26  O   UNL     1      43.179 131.684  14.584  1.00  0.00    -0.295 OA
ATOM     27  C   UNL     1      45.387 131.276  13.823  1.00  0.00     0.093 C 
ENDBRANCH   6  25
TORSDOF 6
ENDMDL


