MODEL 1
REMARK VINA RESULT:      -9.9      0.000      0.000
REMARK SMILES Fc1ccc2[nH+]c(-c3cccnc3F)ccc2c1
REMARK SMILES IDX 1 1 2 2 3 3 4 4 5 5 6 6 7 7 15 8 16 9 17 10 18 11 8 13 9 14
REMARK SMILES IDX 13 15 10 16 12 17 11 18 14 19
REMARK H PARENT 6 12
ROOT
ATOM      1  F   UNL     1      42.317 132.210  22.286  1.00  0.00    -0.207 F 
ATOM      2  C   UNL     1      43.112 131.919  21.228  1.00  0.00     0.124 A 
ATOM      3  C   UNL     1      44.428 131.496  21.439  1.00  0.00     0.046 A 
ATOM      4  C   UNL     1      45.254 131.194  20.352  1.00  0.00     0.083 A 
ATOM      5  C   UNL     1      44.767 131.313  19.041  1.00  0.00     0.211 A 
ATOM      6  N   UNL     1      45.567 131.022  17.973  1.00  0.00    -0.204 N 
ATOM      7  C   UNL     1      45.116 131.130  16.686  1.00  0.00     0.215 A 
ATOM      8  C   UNL     1      43.801 131.562  16.447  1.00  0.00     0.081 A 
ATOM      9  C   UNL     1      42.964 131.866  17.520  1.00  0.00     0.022 A 
ATOM     10  C   UNL     1      43.437 131.744  18.829  1.00  0.00     0.049 A 
ATOM     11  C   UNL     1      42.616 132.044  19.927  1.00  0.00     0.054 A 
ATOM     12  H   UNL     1      46.555 130.729  18.144  1.00  0.00     0.454 HD
ENDROOT
BRANCH   7  13
ATOM     13  C   UNL     1      46.009 130.801  15.550  1.00  0.00     0.101 A 
ATOM     14  C   UNL     1      46.623 131.823  14.809  1.00  0.00     0.021 A 
ATOM     15  C   UNL     1      46.264 129.465  15.186  1.00  0.00     0.226 A 
ATOM     16  C   UNL     1      47.471 131.508  13.745  1.00  0.00     0.021 A 
ATOM     17  N   UNL     1      47.090 129.187  14.143  1.00  0.00    -0.228 NA
ATOM     18  C   UNL     1      47.696 130.170  13.426  1.00  0.00     0.114 A 
ATOM     19  F   UNL     1      45.662 128.440  15.840  1.00  0.00    -0.184 F 
ENDBRANCH   7  13
TORSDOF 1
ENDMDL
MODEL 2
REMARK VINA RESULT:      -9.8      1.352      1.646
REMARK SMILES Fc1ccc2[nH+]c(-c3cccnc3F)ccc2c1
REMARK SMILES IDX 1 1 2 2 3 3 4 4 5 5 6 6 7 7 15 8 16 9 17 10 18 11 8 13 9 14
REMARK SMILES IDX 13 15 10 16 12 17 11 18 14 19
REMARK H PARENT 6 12
ROOT
ATOM      1  F   UNL     1      42.751 131.843  22.785  1.00  0.00    -0.207 F 
ATOM      2  C   UNL     1      43.484 131.590  21.674  1.00  0.00     0.124 A 
ATOM      3  C   UNL     1      44.786 131.093  21.794  1.00  0.00     0.046 A 
ATOM      4  C   UNL     1      45.547 130.830  20.651  1.00  0.00     0.083 A 
ATOM      5  C   UNL     1      45.010 131.063  19.375  1.00  0.00     0.211 A 
ATOM      6  N   UNL     1      45.747 130.810  18.254  1.00  0.00    -0.204 N 
ATOM      7  C   UNL     1      45.246 131.027  17.000  1.00  0.00     0.215 A 
ATOM      8  C   UNL     1      43.945 131.535  16.852  1.00  0.00     0.081 A 
ATOM      9  C   UNL     1      43.171 131.802  17.981  1.00  0.00     0.022 A 
ATOM     10  C   UNL     1      43.695 131.568  19.256  1.00  0.00     0.049 A 
ATOM     11  C   UNL     1      42.938 131.828  20.409  1.00  0.00     0.054 A 
ATOM     12  H   UNL     1      46.727 130.461  18.358  1.00  0.00     0.454 HD
ENDROOT
BRANCH   7  13
ATOM     13  C   UNL     1      46.072 130.738  15.803  1.00  0.00     0.101 A 
ATOM     14  C   UNL     1      46.408 129.415  15.474  1.00  0.00     0.021 A 
ATOM     15  C   UNL     1      46.538 131.774  14.972  1.00  0.00     0.226 A 
ATOM     16  C   UNL     1      47.178 129.147  14.341  1.00  0.00     0.021 A 
ATOM     17  N   UNL     1      47.289 131.484  13.877  1.00  0.00    -0.228 NA
ATOM     18  C   UNL     1      47.612 130.207  13.545  1.00  0.00     0.114 A 
ATOM     19  F   UNL     1      46.280 133.072  15.269  1.00  0.00    -0.184 F 
ENDBRANCH   7  13
TORSDOF 1
ENDMDL
MODEL 3
REMARK VINA RESULT:      -9.0      1.588      2.418
REMARK SMILES Fc1ccc2[nH+]c(-c3cccnc3F)ccc2c1
REMARK SMILES IDX 1 1 2 2 3 3 4 4 5 5 6 6 7 7 15 8 16 9 17 10 18 11 8 13 9 14
REMARK SMILES IDX 13 15 10 16 12 17 11 18 14 19
REMARK H PARENT 6 12
ROOT
ATOM      1  F   UNL     1      41.998 132.384  22.763  1.00  0.00    -0.207 F 
ATOM      2  C   UNL     1      42.541 132.184  21.538  1.00  0.00     0.124 A 
ATOM      3  C   UNL     1      41.879 132.647  20.396  1.00  0.00     0.046 A 
ATOM      4  C   UNL     1      42.434 132.443  19.129  1.00  0.00     0.083 A 
ATOM      5  C   UNL     1      43.660 131.773  18.995  1.00  0.00     0.211 A 
ATOM      6  N   UNL     1      44.208 131.569  17.761  1.00  0.00    -0.204 N 
ATOM      7  C   UNL     1      45.402 130.920  17.603  1.00  0.00     0.215 A 
ATOM      8  C   UNL     1      46.082 130.437  18.733  1.00  0.00     0.081 A 
ATOM      9  C   UNL     1      45.543 130.632  20.004  1.00  0.00     0.022 A 
ATOM     10  C   UNL     1      44.327 131.304  20.150  1.00  0.00     0.049 A 
ATOM     11  C   UNL     1      43.762 131.513  21.417  1.00  0.00     0.054 A 
ATOM     12  H   UNL     1      43.692 131.899  16.914  1.00  0.00     0.454 HD
ENDROOT
BRANCH   7  13
ATOM     13  C   UNL     1      45.972 130.719  16.250  1.00  0.00     0.101 A 
ATOM     14  C   UNL     1      46.241 129.425  15.776  1.00  0.00     0.021 A 
ATOM     15  C   UNL     1      46.256 131.812  15.409  1.00  0.00     0.226 A 
ATOM     16  C   UNL     1      46.769 129.240  14.497  1.00  0.00     0.021 A 
ATOM     17  N   UNL     1      46.774 131.603  14.170  1.00  0.00    -0.228 NA
ATOM     18  C   UNL     1      47.030 130.354  13.699  1.00  0.00     0.114 A 
ATOM     19  F   UNL     1      46.057 133.085  15.834  1.00  0.00    -0.184 F 
ENDBRANCH   7  13
TORSDOF 1
ENDMDL
MODEL 4
REMARK VINA RESULT:      -8.9      1.000      1.851
REMARK SMILES Fc1ccc2[nH+]c(-c3cccnc3F)ccc2c1
REMARK SMILES IDX 1 1 2 2 3 3 4 4 5 5 6 6 7 7 15 8 16 9 17 10 18 11 8 13 9 14
REMARK SMILES IDX 13 15 10 16 12 17 11 18 14 19
REMARK H PARENT 6 12
ROOT
ATOM      1  F   UNL     1      42.028 132.332  22.866  1.00  0.00    -0.207 F 
ATOM      2  C   UNL     1      42.531 132.161  21.619  1.00  0.00     0.124 A 
ATOM      3  C   UNL     1      41.824 132.636  20.510  1.00  0.00     0.046 A 
ATOM      4  C   UNL     1      42.337 132.463  19.221  1.00  0.00     0.083 A 
ATOM      5  C   UNL     1      43.566 131.811  19.032  1.00  0.00     0.211 A 
ATOM      6  N   UNL     1      44.073 131.636  17.776  1.00  0.00    -0.204 N 
ATOM      7  C   UNL     1      45.268 131.005  17.566  1.00  0.00     0.215 A 
ATOM      8  C   UNL     1      45.993 130.510  18.662  1.00  0.00     0.081 A 
ATOM      9  C   UNL     1      45.496 130.675  19.955  1.00  0.00     0.022 A 
ATOM     10  C   UNL     1      44.277 131.329  20.154  1.00  0.00     0.049 A 
ATOM     11  C   UNL     1      43.755 131.508  21.444  1.00  0.00     0.054 A 
ATOM     12  H   UNL     1      43.524 131.975  16.955  1.00  0.00     0.454 HD
ENDROOT
BRANCH   7  13
ATOM     13  C   UNL     1      45.793 130.835  16.190  1.00  0.00     0.101 A 
ATOM     14  C   UNL     1      46.319 131.933  15.489  1.00  0.00     0.021 A 
ATOM     15  C   UNL     1      45.778 129.579  15.554  1.00  0.00     0.226 A 
ATOM     16  C   UNL     1      46.820 131.766  14.196  1.00  0.00     0.021 A 
ATOM     17  N   UNL     1      46.269 129.447  14.293  1.00  0.00    -0.228 NA
ATOM     18  C   UNL     1      46.788 130.501  13.610  1.00  0.00     0.114 A 
ATOM     19  F   UNL     1      45.242 128.496  16.168  1.00  0.00    -0.184 F 
ENDBRANCH   7  13
TORSDOF 1
ENDMDL
MODEL 5
REMARK VINA RESULT:      -8.8      1.924      6.493
REMARK SMILES Fc1ccc2[nH+]c(-c3cccnc3F)ccc2c1
REMARK SMILES IDX 1 1 2 2 3 3 4 4 5 5 6 6 7 7 15 8 16 9 17 10 18 11 8 13 9 14
REMARK SMILES IDX 13 15 10 16 12 17 11 18 14 19
REMARK H PARENT 6 12
ROOT
ATOM      1  F   UNL     1      48.136 130.296  12.080  1.00  0.00    -0.207 F 
ATOM      2  C   UNL     1      47.624 130.263  13.335  1.00  0.00     0.124 A 
ATOM      3  C   UNL     1      47.767 129.112  14.117  1.00  0.00     0.046 A 
ATOM      4  C   UNL     1      47.242 129.072  15.412  1.00  0.00     0.083 A 
ATOM      5  C   UNL     1      46.568 130.186  15.936  1.00  0.00     0.211 A 
ATOM      6  N   UNL     1      46.050 130.155  17.199  1.00  0.00    -0.204 N 
ATOM      7  C   UNL     1      45.390 131.228  17.732  1.00  0.00     0.215 A 
ATOM      8  C   UNL     1      45.225 132.392  16.964  1.00  0.00     0.081 A 
ATOM      9  C   UNL     1      45.743 132.449  15.671  1.00  0.00     0.022 A 
ATOM     10  C   UNL     1      46.422 131.348  15.142  1.00  0.00     0.049 A 
ATOM     11  C   UNL     1      46.953 131.379  13.844  1.00  0.00     0.054 A 
ATOM     12  H   UNL     1      46.143 129.281  17.765  1.00  0.00     0.454 HD
ENDROOT
BRANCH   7  13
ATOM     13  C   UNL     1      44.844 131.162  19.109  1.00  0.00     0.101 A 
ATOM     14  C   UNL     1      45.613 130.625  20.155  1.00  0.00     0.021 A 
ATOM     15  C   UNL     1      43.550 131.632  19.403  1.00  0.00     0.226 A 
ATOM     16  C   UNL     1      45.098 130.574  21.451  1.00  0.00     0.021 A 
ATOM     17  N   UNL     1      43.072 131.566  20.674  1.00  0.00    -0.228 NA
ATOM     18  C   UNL     1      43.812 131.057  21.694  1.00  0.00     0.114 A 
ATOM     19  F   UNL     1      42.749 132.119  18.423  1.00  0.00    -0.184 F 
ENDBRANCH   7  13
TORSDOF 1
ENDMDL
MODEL 6
REMARK VINA RESULT:      -8.8      1.754      2.541
REMARK SMILES Fc1ccc2[nH+]c(-c3cccnc3F)ccc2c1
REMARK SMILES IDX 1 1 2 2 3 3 4 4 5 5 6 6 7 7 15 8 16 9 17 10 18 11 8 13 9 14
REMARK SMILES IDX 13 15 10 16 12 17 11 18 14 19
REMARK H PARENT 6 12
ROOT
ATOM      1  F   UNL     1      42.719 131.985  23.847  1.00  0.00    -0.207 F 
ATOM      2  C   UNL     1      43.020 131.894  22.529  1.00  0.00     0.124 A 
ATOM      3  C   UNL     1      42.140 132.414  21.574  1.00  0.00     0.046 A 
ATOM      4  C   UNL     1      42.445 132.323  20.213  1.00  0.00     0.083 A 
ATOM      5  C   UNL     1      43.636 131.709  19.795  1.00  0.00     0.211 A 
ATOM      6  N   UNL     1      43.940 131.614  18.467  1.00  0.00    -0.204 N 
ATOM      7  C   UNL     1      45.094 131.021  18.035  1.00  0.00     0.215 A 
ATOM      8  C   UNL     1      45.990 130.481  18.973  1.00  0.00     0.081 A 
ATOM      9  C   UNL     1      45.702 130.565  20.335  1.00  0.00     0.022 A 
ATOM     10  C   UNL     1      44.522 131.181  20.761  1.00  0.00     0.049 A 
ATOM     11  C   UNL     1      44.208 131.278  22.125  1.00  0.00     0.054 A 
ATOM     12  H   UNL     1      43.263 131.986  17.763  1.00  0.00     0.454 HD
ENDROOT
BRANCH   7  13
ATOM     13  C   UNL     1      45.396 130.939  16.585  1.00  0.00     0.101 A 
ATOM     14  C   UNL     1      46.611 130.393  16.142  1.00  0.00     0.021 A 
ATOM     15  C   UNL     1      44.479 131.403  15.623  1.00  0.00     0.226 A 
ATOM     16  C   UNL     1      46.887 130.310  14.776  1.00  0.00     0.021 A 
ATOM     17  N   UNL     1      44.776 131.313  14.299  1.00  0.00    -0.228 NA
ATOM     18  C   UNL     1      45.946 130.778  13.860  1.00  0.00     0.114 A 
ATOM     19  F   UNL     1      43.310 131.979  15.998  1.00  0.00    -0.184 F 
ENDBRANCH   7  13
TORSDOF 1
ENDMDL
MODEL 7
REMARK VINA RESULT:      -8.3      2.034      6.287
REMARK SMILES Fc1ccc2[nH+]c(-c3cccnc3F)ccc2c1
REMARK SMILES IDX 1 1 2 2 3 3 4 4 5 5 6 6 7 7 15 8 16 9 17 10 18 11 8 13 9 14
REMARK SMILES IDX 13 15 10 16 12 17 11 18 14 19
REMARK H PARENT 6 12
ROOT
ATOM      1  F   UNL     1      46.381 130.775  12.624  1.00  0.00    -0.207 F 
ATOM      2  C   UNL     1      46.153 130.774  13.959  1.00  0.00     0.124 A 
ATOM      3  C   UNL     1      47.110 130.244  14.831  1.00  0.00     0.046 A 
ATOM      4  C   UNL     1      46.882 130.240  16.210  1.00  0.00     0.083 A 
ATOM      5  C   UNL     1      45.689 130.768  16.729  1.00  0.00     0.211 A 
ATOM      6  N   UNL     1      45.457 130.766  18.075  1.00  0.00    -0.204 N 
ATOM      7  C   UNL     1      44.304 131.275  18.606  1.00  0.00     0.215 A 
ATOM      8  C   UNL     1      43.322 131.804  17.752  1.00  0.00     0.081 A 
ATOM      9  C   UNL     1      43.535 131.817  16.374  1.00  0.00     0.022 A 
ATOM     10  C   UNL     1      44.721 131.300  15.847  1.00  0.00     0.049 A 
ATOM     11  C   UNL     1      44.960 131.301  14.464  1.00  0.00     0.054 A 
ATOM     12  H   UNL     1      46.170 130.346  18.713  1.00  0.00     0.454 HD
ENDROOT
BRANCH   7  13
ATOM     13  C   UNL     1      44.085 131.262  20.072  1.00  0.00     0.101 A 
ATOM     14  C   UNL     1      42.956 131.884  20.629  1.00  0.00     0.021 A 
ATOM     15  C   UNL     1      44.997 130.631  20.939  1.00  0.00     0.226 A 
ATOM     16  C   UNL     1      42.750 131.861  22.010  1.00  0.00     0.021 A 
ATOM     17  N   UNL     1      44.774 130.627  22.280  1.00  0.00    -0.228 NA
ATOM     18  C   UNL     1      43.679 131.219  22.827  1.00  0.00     0.114 A 
ATOM     19  F   UNL     1      46.126 130.053  20.458  1.00  0.00    -0.184 F 
ENDBRANCH   7  13
TORSDOF 1
ENDMDL
MODEL 8
REMARK VINA RESULT:      -8.1      2.004      6.369
REMARK SMILES Fc1ccc2[nH+]c(-c3cccnc3F)ccc2c1
REMARK SMILES IDX 1 1 2 2 3 3 4 4 5 5 6 6 7 7 15 8 16 9 17 10 18 11 8 13 9 14
REMARK SMILES IDX 13 15 10 16 12 17 11 18 14 19
REMARK H PARENT 6 12
ROOT
ATOM      1  F   UNL     1      47.880 130.179  12.028  1.00  0.00    -0.207 F 
ATOM      2  C   UNL     1      47.420 130.249  13.301  1.00  0.00     0.124 A 
ATOM      3  C   UNL     1      48.042 129.508  14.310  1.00  0.00     0.046 A 
ATOM      4  C   UNL     1      47.572 129.576  15.625  1.00  0.00     0.083 A 
ATOM      5  C   UNL     1      46.473 130.390  15.941  1.00  0.00     0.211 A 
ATOM      6  N   UNL     1      46.006 130.461  17.223  1.00  0.00    -0.204 N 
ATOM      7  C   UNL     1      44.938 131.247  17.555  1.00  0.00     0.215 A 
ATOM      8  C   UNL     1      44.290 131.995  16.558  1.00  0.00     0.081 A 
ATOM      9  C   UNL     1      44.746 131.939  15.242  1.00  0.00     0.022 A 
ATOM     10  C   UNL     1      45.844 131.137  14.918  1.00  0.00     0.049 A 
ATOM     11  C   UNL     1      46.323 131.062  13.602  1.00  0.00     0.054 A 
ATOM     12  H   UNL     1      46.466 129.884  17.963  1.00  0.00     0.454 HD
ENDROOT
BRANCH   7  13
ATOM     13  C   UNL     1      44.460 131.306  18.958  1.00  0.00     0.101 A 
ATOM     14  C   UNL     1      43.164 131.761  19.249  1.00  0.00     0.021 A 
ATOM     15  C   UNL     1      45.286 130.909  20.026  1.00  0.00     0.226 A 
ATOM     16  C   UNL     1      42.716 131.805  20.571  1.00  0.00     0.021 A 
ATOM     17  N   UNL     1      44.825 130.966  21.303  1.00  0.00    -0.228 NA
ATOM     18  C   UNL     1      43.569 131.397  21.595  1.00  0.00     0.114 A 
ATOM     19  F   UNL     1      46.561 130.503  19.804  1.00  0.00    -0.184 F 
ENDBRANCH   7  13
TORSDOF 1
ENDMDL
MODEL 9
REMARK VINA RESULT:      -8.1      1.979      6.590
REMARK SMILES Fc1ccc2[nH+]c(-c3cccnc3F)ccc2c1
REMARK SMILES IDX 1 1 2 2 3 3 4 4 5 5 6 6 7 7 15 8 16 9 17 10 18 11 8 13 9 14
REMARK SMILES IDX 13 15 10 16 12 17 11 18 14 19
REMARK H PARENT 6 12
ROOT
ATOM      1  F   UNL     1      48.768 129.524  12.528  1.00  0.00    -0.207 F 
ATOM      2  C   UNL     1      47.920 130.059  13.439  1.00  0.00     0.124 A 
ATOM      3  C   UNL     1      47.405 131.345  13.243  1.00  0.00     0.046 A 
ATOM      4  C   UNL     1      46.530 131.903  14.180  1.00  0.00     0.083 A 
ATOM      5  C   UNL     1      46.163 131.177  15.323  1.00  0.00     0.211 A 
ATOM      6  N   UNL     1      45.309 131.715  16.244  1.00  0.00    -0.204 N 
ATOM      7  C   UNL     1      44.935 131.027  17.365  1.00  0.00     0.215 A 
ATOM      8  C   UNL     1      45.446 129.738  17.591  1.00  0.00     0.081 A 
ATOM      9  C   UNL     1      46.319 129.166  16.666  1.00  0.00     0.022 A 
ATOM     10  C   UNL     1      46.686 129.878  15.521  1.00  0.00     0.049 A 
ATOM     11  C   UNL     1      47.563 129.326  14.575  1.00  0.00     0.054 A 
ATOM     12  H   UNL     1      44.950 132.685  16.097  1.00  0.00     0.454 HD
ENDROOT
BRANCH   7  13
ATOM     13  C   UNL     1      44.003 131.639  18.343  1.00  0.00     0.101 A 
ATOM     14  C   UNL     1      42.680 131.932  17.977  1.00  0.00     0.021 A 
ATOM     15  C   UNL     1      44.418 131.941  19.654  1.00  0.00     0.226 A 
ATOM     16  C   UNL     1      41.804 132.500  18.904  1.00  0.00     0.021 A 
ATOM     17  N   UNL     1      43.545 132.498  20.534  1.00  0.00    -0.228 NA
ATOM     18  C   UNL     1      42.259 132.777  20.192  1.00  0.00     0.114 A 
ATOM     19  F   UNL     1      45.698 131.720  20.046  1.00  0.00    -0.184 F 
ENDBRANCH   7  13
TORSDOF 1
ENDMDL


