MODEL 1
REMARK VINA RESULT:      -8.0      0.000      0.000
REMARK SMILES C=C[C@@H](C)/[NH+]=C(\S)Oc1c(N)cccc1[NH2+]c1ccc(C)c(F)c1
REMARK SMILES IDX 6 1 7 2 8 4 9 5 10 6 15 7 12 8 14 9 13 10 11 11 16 14 17 17
REMARK SMILES IDX 18 18 24 19 19 20 22 21 20 22 23 23 21 24 5 25 3 27 4 28
REMARK SMILES IDX 2 29 1 30
REMARK H PARENT 7 3 11 12 11 13 16 15 16 16 5 26
ROOT
ATOM      1  C   UNL     1      44.216 130.736  22.695  1.00  0.00     0.402 C 
ENDROOT
BRANCH   1   2
ATOM      2  S   UNL     1      44.401 131.897  24.055  1.00  0.00    -0.031 SA
ATOM      3  H   UNL     1      45.765 132.095  23.767  1.00  0.00     0.118 HD
ENDBRANCH   1   2
BRANCH   1   4
ATOM      4  O   UNL     1      44.661 131.160  21.432  1.00  0.00    -0.392 OA
BRANCH   4   5
ATOM      5  C   UNL     1      43.809 131.527  20.383  1.00  0.00     0.218 A 
ATOM      6  C   UNL     1      42.547 132.099  20.650  1.00  0.00     0.081 A 
ATOM      7  C   UNL     1      44.222 131.315  19.049  1.00  0.00     0.180 A 
ATOM      8  C   UNL     1      41.696 132.427  19.586  1.00  0.00     0.030 A 
ATOM      9  C   UNL     1      43.350 131.654  17.999  1.00  0.00     0.072 A 
ATOM     10  C   UNL     1      42.097 132.203  18.269  1.00  0.00     0.009 A 
BRANCH   6  11
ATOM     11  N   UNL     1      42.125 132.365  21.994  1.00  0.00    -0.396 N 
ATOM     12  H   UNL     1      42.533 131.856  22.808  1.00  0.00     0.156 HD
ATOM     13  H   UNL     1      41.420 133.110  22.192  1.00  0.00     0.156 HD
ENDBRANCH   6  11
BRANCH   7  14
ATOM     14  N   UNL     1      45.499 130.703  18.757  1.00  0.00    -0.278 N 
ATOM     15  H   UNL     1      45.475 129.703  19.070  1.00  0.00     0.358 HD
ATOM     16  H   UNL     1      46.268 131.169  19.294  1.00  0.00     0.358 HD
BRANCH  14  17
ATOM     17  C   UNL     1      45.797 130.802  17.348  1.00  0.00     0.137 A 
ATOM     18  C   UNL     1      45.656 132.028  16.672  1.00  0.00     0.068 A 
ATOM     19  C   UNL     1      46.227 129.674  16.627  1.00  0.00     0.107 A 
ATOM     20  C   UNL     1      45.983 132.133  15.318  1.00  0.00     0.012 A 
ATOM     21  C   UNL     1      46.551 129.777  15.271  1.00  0.00     0.132 A 
ATOM     22  C   UNL     1      46.450 131.014  14.613  1.00  0.00    -0.015 A 
ATOM     23  F   UNL     1      46.969 128.673  14.602  1.00  0.00    -0.206 F 
ATOM     24  C   UNL     1      46.783 131.126  13.153  1.00  0.00     0.047 C 
ENDBRANCH  14  17
ENDBRANCH   7  14
ENDBRANCH   4   5
ENDBRANCH   1   4
BRANCH   1  25
ATOM     25  N   UNL     1      43.721 129.537  22.874  1.00  0.00    -0.198 N 
ATOM     26  H   UNL     1      42.727 129.356  22.606  1.00  0.00     0.451 HD
BRANCH  25  27
ATOM     27  C   UNL     1      44.486 128.407  23.420  1.00  0.00     0.282 C 
ATOM     28  C   UNL     1      45.195 127.642  22.295  1.00  0.00     0.092 C 
BRANCH  27  29
ATOM     29  C   UNL     1      43.583 127.479  24.198  1.00  0.00     0.039 C 
ATOM     30  C   UNL     1      42.328 127.217  23.819  1.00  0.00     0.011 C 
ENDBRANCH  27  29
ENDBRANCH  25  27
ENDBRANCH   1  25
TORSDOF 9
ENDMDL
MODEL 2
REMARK VINA RESULT:      -5.6      3.267      7.360
REMARK SMILES C=C[C@@H](C)/[NH+]=C(\S)Oc1c(N)cccc1[NH2+]c1ccc(C)c(F)c1
REMARK SMILES IDX 6 1 7 2 8 4 9 5 10 6 15 7 12 8 14 9 13 10 11 11 16 14 17 17
REMARK SMILES IDX 18 18 24 19 19 20 22 21 20 22 23 23 21 24 5 25 3 27 4 28
REMARK SMILES IDX 2 29 1 30
REMARK H PARENT 7 3 11 12 11 13 16 15 16 16 5 26
ROOT
ATOM      1  C   UNL     1      46.286 129.823  15.856  1.00  0.00     0.402 C 
ENDROOT
BRANCH   1   2
ATOM      2  S   UNL     1      44.927 128.652  15.760  1.00  0.00    -0.031 SA
ATOM      3  H   UNL     1      45.739 127.682  15.142  1.00  0.00     0.118 HD
ENDBRANCH   1   2
BRANCH   1   4
ATOM      4  O   UNL     1      46.027 131.048  16.492  1.00  0.00    -0.392 OA
BRANCH   4   5
ATOM      5  C   UNL     1      44.815 131.366  17.116  1.00  0.00     0.218 A 
ATOM      6  C   UNL     1      43.716 131.827  16.359  1.00  0.00     0.081 A 
ATOM      7  C   UNL     1      44.700 131.228  18.518  1.00  0.00     0.180 A 
ATOM      8  C   UNL     1      42.524 132.172  17.008  1.00  0.00     0.030 A 
ATOM      9  C   UNL     1      43.491 131.582  19.144  1.00  0.00     0.072 A 
ATOM     10  C   UNL     1      42.414 132.052  18.393  1.00  0.00     0.009 A 
BRANCH   6  11
ATOM     11  N   UNL     1      43.794 131.931  14.931  1.00  0.00    -0.396 N 
ATOM     12  H   UNL     1      44.552 131.463  14.388  1.00  0.00     0.156 HD
ATOM     13  H   UNL     1      43.065 132.452  14.396  1.00  0.00     0.156 HD
ENDBRANCH   6  11
BRANCH   7  14
ATOM     14  N   UNL     1      45.824 130.787  19.313  1.00  0.00    -0.278 N 
ATOM     15  H   UNL     1      46.543 131.548  19.334  1.00  0.00     0.358 HD
ATOM     16  H   UNL     1      46.281 129.951  18.881  1.00  0.00     0.358 HD
BRANCH  14  17
ATOM     17  C   UNL     1      45.393 130.438  20.647  1.00  0.00     0.137 A 
ATOM     18  C   UNL     1      44.931 131.430  21.531  1.00  0.00     0.068 A 
ATOM     19  C   UNL     1      45.434 129.102  21.084  1.00  0.00     0.107 A 
ATOM     20  C   UNL     1      44.477 131.087  22.807  1.00  0.00     0.012 A 
ATOM     21  C   UNL     1      44.983 128.759  22.362  1.00  0.00     0.132 A 
ATOM     22  C   UNL     1      44.482 129.747  23.224  1.00  0.00    -0.015 A 
ATOM     23  F   UNL     1      45.028 127.461  22.755  1.00  0.00    -0.206 F 
ATOM     24  C   UNL     1      44.010 129.385  24.602  1.00  0.00     0.047 C 
ENDBRANCH  14  17
ENDBRANCH   7  14
ENDBRANCH   4   5
ENDBRANCH   1   4
BRANCH   1  25
ATOM     25  N   UNL     1      47.475 129.540  15.385  1.00  0.00    -0.198 N 
ATOM     26  H   UNL     1      48.215 129.209  16.046  1.00  0.00     0.451 HD
BRANCH  25  27
ATOM     27  C   UNL     1      47.841 129.644  13.965  1.00  0.00     0.282 C 
ATOM     28  C   UNL     1      49.328 129.327  13.766  1.00  0.00     0.092 C 
BRANCH  27  29
ATOM     29  C   UNL     1      47.521 131.021  13.433  1.00  0.00     0.039 C 
ATOM     30  C   UNL     1      47.218 131.239  12.149  1.00  0.00     0.011 C 
ENDBRANCH  27  29
ENDBRANCH  25  27
ENDBRANCH   1  25
TORSDOF 9
ENDMDL
MODEL 3
REMARK VINA RESULT:      -5.2      1.569      2.154
REMARK SMILES C=C[C@@H](C)/[NH+]=C(\S)Oc1c(N)cccc1[NH2+]c1ccc(C)c(F)c1
REMARK SMILES IDX 6 1 7 2 8 4 9 5 10 6 15 7 12 8 14 9 13 10 11 11 16 14 17 17
REMARK SMILES IDX 18 18 24 19 19 20 22 21 20 22 23 23 21 24 5 25 3 27 4 28
REMARK SMILES IDX 2 29 1 30
REMARK H PARENT 7 3 11 12 11 13 16 15 16 16 5 26
ROOT
ATOM      1  C   UNL     1      44.933 131.508  21.615  1.00  0.00     0.402 C 
ENDROOT
BRANCH   1   2
ATOM      2  S   UNL     1      46.501 132.310  21.257  1.00  0.00    -0.031 SA
ATOM      3  H   UNL     1      47.132 131.674  22.344  1.00  0.00     0.118 HD
ENDBRANCH   1   2
BRANCH   1   4
ATOM      4  O   UNL     1      44.364 130.737  20.588  1.00  0.00    -0.392 OA
BRANCH   4   5
ATOM      5  C   UNL     1      43.672 131.275  19.496  1.00  0.00     0.218 A 
ATOM      6  C   UNL     1      42.535 132.088  19.696  1.00  0.00     0.081 A 
ATOM      7  C   UNL     1      44.117 130.991  18.185  1.00  0.00     0.180 A 
ATOM      8  C   UNL     1      41.837 132.587  18.588  1.00  0.00     0.030 A 
ATOM      9  C   UNL     1      43.399 131.506  17.091  1.00  0.00     0.072 A 
ATOM     10  C   UNL     1      42.267 132.295  17.294  1.00  0.00     0.009 A 
BRANCH   6  11
ATOM     11  N   UNL     1      42.091 132.426  21.016  1.00  0.00    -0.396 N 
ATOM     12  H   UNL     1      41.138 132.173  21.356  1.00  0.00     0.156 HD
ATOM     13  H   UNL     1      42.733 132.905  21.686  1.00  0.00     0.156 HD
ENDBRANCH   6  11
BRANCH   7  14
ATOM     14  N   UNL     1      45.261 130.136  17.961  1.00  0.00    -0.278 N 
ATOM     15  H   UNL     1      44.970 129.139  18.094  1.00  0.00     0.358 HD
ATOM     16  H   UNL     1      46.014 130.328  18.663  1.00  0.00     0.358 HD
BRANCH  14  17
ATOM     17  C   UNL     1      45.800 130.350  16.638  1.00  0.00     0.137 A 
ATOM     18  C   UNL     1      45.959 129.272  15.749  1.00  0.00     0.068 A 
ATOM     19  C   UNL     1      46.179 131.638  16.220  1.00  0.00     0.107 A 
ATOM     20  C   UNL     1      46.442 129.485  14.455  1.00  0.00     0.012 A 
ATOM     21  C   UNL     1      46.666 131.852  14.928  1.00  0.00     0.132 A 
ATOM     22  C   UNL     1      46.781 130.778  14.030  1.00  0.00    -0.015 A 
ATOM     23  F   UNL     1      47.019 133.106  14.550  1.00  0.00    -0.206 F 
ATOM     24  C   UNL     1      47.318 131.000  12.645  1.00  0.00     0.047 C 
ENDBRANCH  14  17
ENDBRANCH   7  14
ENDBRANCH   4   5
ENDBRANCH   1   4
BRANCH   1  25
ATOM     25  N   UNL     1      44.359 131.606  22.788  1.00  0.00    -0.198 N 
ATOM     26  H   UNL     1      44.446 132.502  23.320  1.00  0.00     0.451 HD
BRANCH  25  27
ATOM     27  C   UNL     1      43.574 130.530  23.409  1.00  0.00     0.282 C 
ATOM     28  C   UNL     1      42.789 131.061  24.615  1.00  0.00     0.092 C 
BRANCH  27  29
ATOM     29  C   UNL     1      44.473 129.391  23.830  1.00  0.00     0.039 C 
ATOM     30  C   UNL     1      44.179 128.112  23.569  1.00  0.00     0.011 C 
ENDBRANCH  27  29
ENDBRANCH  25  27
ENDBRANCH   1  25
TORSDOF 9
ENDMDL
MODEL 4
REMARK VINA RESULT:      -5.1      3.327      7.422
REMARK SMILES C=C[C@@H](C)/[NH+]=C(\S)Oc1c(N)cccc1[NH2+]c1ccc(C)c(F)c1
REMARK SMILES IDX 6 1 7 2 8 4 9 5 10 6 15 7 12 8 14 9 13 10 11 11 16 14 17 17
REMARK SMILES IDX 18 18 24 19 19 20 22 21 20 22 23 23 21 24 5 25 3 27 4 28
REMARK SMILES IDX 2 29 1 30
REMARK H PARENT 7 3 11 12 11 13 16 15 16 16 5 26
ROOT
ATOM      1  C   UNL     1      46.039 130.665  16.251  1.00  0.00     0.402 C 
ENDROOT
BRANCH   1   2
ATOM      2  S   UNL     1      44.925 129.277  16.008  1.00  0.00    -0.031 SA
ATOM      3  H   UNL     1      45.851 128.372  16.563  1.00  0.00     0.118 HD
ENDBRANCH   1   2
BRANCH   1   4
ATOM      4  O   UNL     1      45.629 131.659  17.153  1.00  0.00    -0.392 OA
BRANCH   4   5
ATOM      5  C   UNL     1      44.343 131.740  17.700  1.00  0.00     0.218 A 
ATOM      6  C   UNL     1      43.219 131.924  16.866  1.00  0.00     0.081 A 
ATOM      7  C   UNL     1      44.178 131.642  19.100  1.00  0.00     0.180 A 
ATOM      8  C   UNL     1      41.944 132.036  17.437  1.00  0.00     0.030 A 
ATOM      9  C   UNL     1      42.887 131.758  19.647  1.00  0.00     0.072 A 
ATOM     10  C   UNL     1      41.781 131.955  18.820  1.00  0.00     0.009 A 
BRANCH   6  11
ATOM     11  N   UNL     1      43.357 131.980  15.441  1.00  0.00    -0.396 N 
ATOM     12  H   UNL     1      42.538 132.152  14.817  1.00  0.00     0.156 HD
ATOM     13  H   UNL     1      44.296 131.888  14.994  1.00  0.00     0.156 HD
ENDBRANCH   6  11
BRANCH   7  14
ATOM     14  N   UNL     1      45.320 131.485  19.971  1.00  0.00    -0.278 N 
ATOM     15  H   UNL     1      45.629 132.431  20.298  1.00  0.00     0.358 HD
ATOM     16  H   UNL     1      46.128 131.064  19.455  1.00  0.00     0.358 HD
BRANCH  14  17
ATOM     17  C   UNL     1      44.991 130.629  21.087  1.00  0.00     0.137 A 
ATOM     18  C   UNL     1      45.424 129.291  21.113  1.00  0.00     0.068 A 
ATOM     19  C   UNL     1      44.227 131.118  22.161  1.00  0.00     0.107 A 
ATOM     20  C   UNL     1      45.139 128.475  22.211  1.00  0.00     0.012 A 
ATOM     21  C   UNL     1      43.938 130.301  23.258  1.00  0.00     0.132 A 
ATOM     22  C   UNL     1      44.411 128.980  23.299  1.00  0.00    -0.015 A 
ATOM     23  F   UNL     1      43.204 130.801  24.284  1.00  0.00    -0.206 F 
ATOM     24  C   UNL     1      44.092 128.094  24.469  1.00  0.00     0.047 C 
ENDBRANCH  14  17
ENDBRANCH   7  14
ENDBRANCH   4   5
ENDBRANCH   1   4
BRANCH   1  25
ATOM     25  N   UNL     1      47.197 130.737  15.641  1.00  0.00    -0.198 N 
ATOM     26  H   UNL     1      48.068 130.805  16.215  1.00  0.00     0.451 HD
BRANCH  25  27
ATOM     27  C   UNL     1      47.357 130.710  14.180  1.00  0.00     0.282 C 
ATOM     28  C   UNL     1      46.004 130.916  13.485  1.00  0.00     0.092 C 
BRANCH  27  29
ATOM     29  C   UNL     1      47.982 129.408  13.736  1.00  0.00     0.039 C 
ATOM     30  C   UNL     1      48.840 129.338  12.713  1.00  0.00     0.011 C 
ENDBRANCH  27  29
ENDBRANCH  25  27
ENDBRANCH   1  25
TORSDOF 9
ENDMDL
MODEL 5
REMARK VINA RESULT:      -5.0      0.951      1.001
REMARK SMILES C=C[C@@H](C)/[NH+]=C(\S)Oc1c(N)cccc1[NH2+]c1ccc(C)c(F)c1
REMARK SMILES IDX 6 1 7 2 8 4 9 5 10 6 15 7 12 8 14 9 13 10 11 11 16 14 17 17
REMARK SMILES IDX 18 18 24 19 19 20 22 21 20 22 23 23 21 24 5 25 3 27 4 28
REMARK SMILES IDX 2 29 1 30
REMARK H PARENT 7 3 11 12 11 13 16 15 16 16 5 26
ROOT
ATOM      1  C   UNL     1      44.599 131.524  22.891  1.00  0.00     0.402 C 
ENDROOT
BRANCH   1   2
ATOM      2  S   UNL     1      45.596 133.019  22.924  1.00  0.00    -0.031 SA
ATOM      3  H   UNL     1      45.724 133.025  21.522  1.00  0.00     0.118 HD
ENDBRANCH   1   2
BRANCH   1   4
ATOM      4  O   UNL     1      44.427 130.901  21.645  1.00  0.00    -0.392 OA
BRANCH   4   5
ATOM      5  C   UNL     1      43.653 131.429  20.604  1.00  0.00     0.218 A 
ATOM      6  C   UNL     1      42.429 132.075  20.877  1.00  0.00     0.081 A 
ATOM      7  C   UNL     1      44.106 131.304  19.272  1.00  0.00     0.180 A 
ATOM      8  C   UNL     1      41.654 132.566  19.818  1.00  0.00     0.030 A 
ATOM      9  C   UNL     1      43.309 131.806  18.227  1.00  0.00     0.072 A 
ATOM     10  C   UNL     1      42.092 132.430  18.501  1.00  0.00     0.009 A 
BRANCH   6  11
ATOM     11  N   UNL     1      41.971 132.254  22.224  1.00  0.00    -0.396 N 
ATOM     12  H   UNL     1      42.359 133.000  22.841  1.00  0.00     0.156 HD
ATOM     13  H   UNL     1      41.203 131.659  22.607  1.00  0.00     0.156 HD
ENDBRANCH   6  11
BRANCH   7  14
ATOM     14  N   UNL     1      45.343 130.619  18.971  1.00  0.00    -0.278 N 
ATOM     15  H   UNL     1      45.256 129.618  19.267  1.00  0.00     0.358 HD
ATOM     16  H   UNL     1      46.138 131.028  19.516  1.00  0.00     0.358 HD
BRANCH  14  17
ATOM     17  C   UNL     1      45.649 130.722  17.563  1.00  0.00     0.137 A 
ATOM     18  C   UNL     1      45.663 131.976  16.926  1.00  0.00     0.068 A 
ATOM     19  C   UNL     1      45.932 129.571  16.808  1.00  0.00     0.107 A 
ATOM     20  C   UNL     1      45.998 132.079  15.573  1.00  0.00     0.012 A 
ATOM     21  C   UNL     1      46.264 129.673  15.453  1.00  0.00     0.132 A 
ATOM     22  C   UNL     1      46.319 130.932  14.833  1.00  0.00    -0.015 A 
ATOM     23  F   UNL     1      46.538 128.546  14.750  1.00  0.00    -0.206 F 
ATOM     24  C   UNL     1      46.661 131.045  13.375  1.00  0.00     0.047 C 
ENDBRANCH  14  17
ENDBRANCH   7  14
ENDBRANCH   4   5
ENDBRANCH   1   4
BRANCH   1  25
ATOM     25  N   UNL     1      44.081 131.016  23.982  1.00  0.00    -0.198 N 
ATOM     26  H   UNL     1      43.643 131.658  24.681  1.00  0.00     0.451 HD
BRANCH  25  27
ATOM     27  C   UNL     1      44.062 129.578  24.287  1.00  0.00     0.282 C 
ATOM     28  C   UNL     1      45.201 128.855  23.557  1.00  0.00     0.092 C 
BRANCH  27  29
ATOM     29  C   UNL     1      42.730 128.972  23.911  1.00  0.00     0.039 C 
ATOM     30  C   UNL     1      41.577 129.391  24.443  1.00  0.00     0.011 C 
ENDBRANCH  27  29
ENDBRANCH  25  27
ENDBRANCH   1  25
TORSDOF 9
ENDMDL


