REMARK SMILES Fc1c[nH]/c(=N\c2cnc3[nH]ccc3c2)c(N=C=S)c1
REMARK SMILES IDX 5 1 16 2 20 3 2 4 1 5 3 6 4 7 6 9 7 10 8 11 9 12 10 13 15 14
REMARK SMILES IDX 14 15 11 16 13 17 12 18 17 20 18 21 19 22
REMARK H PARENT 4 8 11 19
ROOT
ATOM      1  C   UNL     1       1.273  -0.510   1.393  1.00  0.00     0.157 A 
ATOM      2  C   UNL     1       2.189  -0.520   2.463  1.00  0.00     0.120 A 
ATOM      3  C   UNL     1       2.792  -1.738   2.829  1.00  0.00     0.074 A 
ATOM      4  C   UNL     1       2.491  -2.904   2.130  1.00  0.00     0.141 A 
ATOM      5  F   UNL     1       3.071  -4.079   2.478  1.00  0.00    -0.205 F 
ATOM      6  C   UNL     1       1.599  -2.850   1.062  1.00  0.00     0.123 A 
ATOM      7  N   UNL     1       1.018  -1.672   0.710  1.00  0.00    -0.342 N 
ATOM      8  H   UNL     1       0.397  -1.683  -0.128  1.00  0.00     0.168 HD
ENDROOT
BRANCH   1   9
ATOM      9  N   UNL     1       0.716   0.622   1.055  1.00  0.00    -0.227 NA
BRANCH   9  10
ATOM     10  C   UNL     1      -0.312   0.829   0.076  1.00  0.00     0.085 A 
ATOM     11  C   UNL     1      -0.182   1.892  -0.850  1.00  0.00     0.142 A 
ATOM     12  N   UNL     1      -1.171   2.155  -1.757  1.00  0.00    -0.236 NA
ATOM     13  C   UNL     1      -2.292   1.392  -1.746  1.00  0.00     0.137 A 
ATOM     14  C   UNL     1      -1.504   0.070   0.093  1.00  0.00     0.042 A 
ATOM     15  C   UNL     1      -2.474   0.378  -0.853  1.00  0.00     0.021 A 
ATOM     16  N   UNL     1      -3.352   1.529  -2.557  1.00  0.00    -0.346 N 
ATOM     17  C   UNL     1      -3.715  -0.165  -1.100  1.00  0.00     0.030 A 
ATOM     18  C   UNL     1      -4.228   0.574  -2.165  1.00  0.00     0.085 A 
ATOM     19  H   UNL     1      -3.478   2.226  -3.323  1.00  0.00     0.167 HD
ENDBRANCH   9  10
ENDBRANCH   1   9
BRANCH   2  20
ATOM     20  N   UNL     1       2.474   0.706   3.160  1.00  0.00    -0.191 NA
BRANCH  20  21
ATOM     21  C   UNL     1       3.284   0.797   4.139  1.00  0.00     0.064 C 
ATOM     22  S   UNL     1       4.308   0.913   5.378  1.00  0.00    -0.006 S 
ENDBRANCH  20  21
ENDBRANCH   2  20
TORSDOF 4


