REMARK SMILES C=Cc1cc([NH2+]N)c([O-])c(-n2nc3ccccc3[nH+]2)c1
REMARK SMILES IDX 3 1 4 2 5 3 8 4 9 5 10 6 20 7 2 8 1 9 6 10 7 13 11 16 12 17
REMARK SMILES IDX 19 18 13 19 18 20 14 21 17 22 15 23 16 24
REMARK H PARENT 6 11 6 12 7 14 7 15 19 25
ROOT
ATOM      1  C   UNL     1      -0.668   0.622  -2.621  1.00  0.00    -0.018 A 
ATOM      2  C   UNL     1      -0.481   1.823  -1.923  1.00  0.00     0.077 A 
ATOM      3  C   UNL     1      -0.148   1.824  -0.558  1.00  0.00     0.143 A 
ATOM      4  C   UNL     1      -0.026   0.598   0.123  1.00  0.00    -0.011 A 
ATOM      5  O   UNL     1       0.317   0.591   1.472  1.00  0.00    -0.867 OA
ATOM      6  C   UNL     1      -0.221  -0.617  -0.562  1.00  0.00     0.127 A 
ATOM      7  C   UNL     1      -0.516  -0.596  -1.934  1.00  0.00     0.042 A 
ENDROOT
BRANCH   1   8
ATOM      8  C   UNL     1      -0.993   0.689  -4.068  1.00  0.00     0.000 C 
ATOM      9  C   UNL     1      -1.530  -0.315  -4.763  1.00  0.00     0.009 C 
ENDBRANCH   1   8
BRANCH   3  10
ATOM     10  N   UNL     1       0.015   3.076   0.139  1.00  0.00    -0.240 N 
ATOM     11  H   UNL     1       0.362   3.812  -0.521  1.00  0.00     0.376 HD
ATOM     12  H   UNL     1       0.703   2.990   0.924  1.00  0.00     0.376 HD
BRANCH  10  13
ATOM     13  N   UNL     1      -1.238   3.475   0.644  1.00  0.00    -0.178 NA
ATOM     14  H   UNL     1      -1.475   2.868   1.464  1.00  0.00     0.183 HD
ATOM     15  H   UNL     1      -1.139   4.447   1.020  1.00  0.00     0.183 HD
ENDBRANCH  10  13
ENDBRANCH   3  10
BRANCH   6  16
ATOM     16  N   UNL     1      -0.096  -1.881   0.113  1.00  0.00    -0.013 N 
ATOM     17  N   UNL     1       0.428  -2.966  -0.458  1.00  0.00     0.053 NA
ATOM     18  N   UNL     1      -0.533  -2.126   1.348  1.00  0.00    -0.161 N 
ATOM     19  C   UNL     1       0.326  -3.933   0.472  1.00  0.00     0.249 A 
ATOM     20  C   UNL     1      -0.268  -3.417   1.583  1.00  0.00     0.198 A 
ATOM     21  C   UNL     1       0.712  -5.267   0.392  1.00  0.00     0.064 A 
ATOM     22  C   UNL     1      -0.535  -4.185   2.712  1.00  0.00     0.058 A 
ATOM     23  C   UNL     1       0.467  -6.080   1.517  1.00  0.00     0.005 A 
ATOM     24  C   UNL     1      -0.154  -5.542   2.671  1.00  0.00     0.005 A 
ATOM     25  H   UNL     1      -1.030  -1.456   1.976  1.00  0.00     0.340 HD
ENDBRANCH   6  16
TORSDOF 4


