REMARK SMILES O=c1c(-n2nc3ccccc3[nH+]2)cc2c[n-]oc-2c1Nc1ccc2cc[nH]c2c1
REMARK SMILES IDX 1 1 2 2 3 3 13 4 14 5 15 6 16 7 17 8 18 9 19 10 4 11 5 12
REMARK SMILES IDX 12 13 6 14 11 15 7 16 10 17 8 18 9 19 20 21 21 23 22 24
REMARK SMILES IDX 29 25 23 26 28 27 24 28 27 29 25 30 26 31
REMARK H PARENT 12 20 20 22 27 32
ROOT
ATOM      1  O   UNL     1       1.002  -0.107   0.294  1.00  0.00    -0.285 OA
ATOM      2  C   UNL     1       0.397  -0.964   0.993  1.00  0.00     0.237 A 
ATOM      3  C   UNL     1      -0.798  -1.574   0.488  1.00  0.00     0.178 A 
ATOM      4  C   UNL     1      -1.445  -2.594   1.230  1.00  0.00     0.049 A 
ATOM      5  C   UNL     1      -0.883  -2.970   2.438  1.00  0.00     0.001 A 
ATOM      6  C   UNL     1      -1.220  -3.892   3.399  1.00  0.00    -0.098 A 
ATOM      7  N   UNL     1      -0.303  -3.822   4.397  1.00  0.00    -0.513 NA
ATOM      8  O   UNL     1       0.579  -2.901   4.098  1.00  0.00    -0.555 OA
ATOM      9  C   UNL     1       0.292  -2.353   2.944  1.00  0.00     0.140 A 
ATOM     10  C   UNL     1       0.936  -1.336   2.255  1.00  0.00     0.131 A 
ENDROOT
BRANCH   3  11
ATOM     11  N   UNL     1      -1.353  -1.157  -0.775  1.00  0.00    -0.009 N 
ATOM     12  N   UNL     1      -1.220   0.074  -1.271  1.00  0.00     0.054 NA
ATOM     13  N   UNL     1      -2.070  -1.942  -1.579  1.00  0.00    -0.161 N 
ATOM     14  C   UNL     1      -1.883   0.055  -2.441  1.00  0.00     0.249 A 
ATOM     15  C   UNL     1      -2.406  -1.187  -2.631  1.00  0.00     0.198 A 
ATOM     16  C   UNL     1      -2.052   1.079  -3.367  1.00  0.00     0.064 A 
ATOM     17  C   UNL     1      -3.143  -1.521  -3.763  1.00  0.00     0.058 A 
ATOM     18  C   UNL     1      -2.795   0.784  -4.528  1.00  0.00     0.005 A 
ATOM     19  C   UNL     1      -3.338  -0.509  -4.726  1.00  0.00     0.005 A 
ATOM     20  H   UNL     1      -2.294  -2.951  -1.426  1.00  0.00     0.340 HD
ENDBRANCH   3  11
BRANCH  10  21
ATOM     21  N   UNL     1       2.134  -0.748   2.789  1.00  0.00    -0.349 N 
ATOM     22  H   UNL     1       2.817  -1.382   3.262  1.00  0.00     0.167 HD
BRANCH  21  23
ATOM     23  C   UNL     1       2.405   0.664   2.794  1.00  0.00     0.041 A 
ATOM     24  C   UNL     1       3.747   1.111   2.894  1.00  0.00     0.027 A 
ATOM     25  C   UNL     1       1.354   1.613   2.754  1.00  0.00     0.052 A 
ATOM     26  C   UNL     1       4.049   2.485   2.923  1.00  0.00     0.012 A 
ATOM     27  C   UNL     1       1.689   2.965   2.783  1.00  0.00     0.047 A 
ATOM     28  C   UNL     1       2.989   3.384   2.862  1.00  0.00    -0.001 A 
ATOM     29  N   UNL     1       0.851   4.014   2.749  1.00  0.00    -0.361 N 
ATOM     30  C   UNL     1       2.979   4.762   2.878  1.00  0.00     0.028 A 
ATOM     31  C   UNL     1       1.635   5.115   2.805  1.00  0.00     0.083 A 
ATOM     32  H   UNL     1      -0.191   3.989   2.691  1.00  0.00     0.166 HD
ENDBRANCH  21  23
ENDBRANCH  10  21
TORSDOF 3


