REMARK SMILES C=C[C@@H]1C[C@](Nc2ccc3cc[nH]c3c2)(c2ccc(C(C)=O)cc2)[C@H](F)C[C@@H]1O
REMARK SMILES IDX 3 1 4 2 5 3 25 4 26 5 27 6 28 7 2 8 1 9 29 10 6 12 7 14 8 15
REMARK SMILES IDX 15 16 9 17 14 18 10 19 13 20 11 21 12 22 16 24 17 25 24 26
REMARK SMILES IDX 18 27 23 28 19 29 20 30 21 31 22 32
REMARK H PARENT 29 11 6 13 13 23
ROOT
ATOM      1  C   UNL     1       1.937   1.550   0.717  1.00  0.00     0.043 C 
ATOM      2  C   UNL     1       0.721   0.638   0.983  1.00  0.00     0.046 C 
ATOM      3  C   UNL     1       0.714  -0.611   0.047  1.00  0.00     0.095 C 
ATOM      4  C   UNL     1       2.045  -1.388   0.290  1.00  0.00     0.199 C 
ATOM      5  F   UNL     1       2.057  -1.932   1.566  1.00  0.00    -0.244 F 
ATOM      6  C   UNL     1       3.295  -0.504   0.103  1.00  0.00     0.073 C 
ATOM      7  C   UNL     1       3.251   0.775   0.959  1.00  0.00     0.124 C 
ENDROOT
BRANCH   1   8
ATOM      8  C   UNL     1       1.870   2.787   1.585  1.00  0.00    -0.029 C 
ATOM      9  C   UNL     1       2.653   3.846   1.357  1.00  0.00     0.004 C 
ENDBRANCH   1   8
BRANCH   7  10
ATOM     10  O   UNL     1       3.381   0.453   2.322  1.00  0.00    -0.392 OA
ATOM     11  H   UNL     1       4.335   0.226   2.475  1.00  0.00     0.210 HD
ENDBRANCH   7  10
BRANCH   3  12
ATOM     12  N   UNL     1       0.650  -0.174  -1.368  1.00  0.00    -0.373 N 
ATOM     13  H   UNL     1       1.387  -0.521  -2.023  1.00  0.00     0.161 HD
BRANCH  12  14
ATOM     14  C   UNL     1      -0.313   0.738  -1.939  1.00  0.00     0.037 A 
ATOM     15  C   UNL     1      -1.615   0.913  -1.391  1.00  0.00     0.026 A 
ATOM     16  C   UNL     1       0.045   1.453  -3.104  1.00  0.00     0.052 A 
ATOM     17  C   UNL     1      -2.532   1.801  -1.980  1.00  0.00     0.012 A 
ATOM     18  C   UNL     1      -0.888   2.325  -3.661  1.00  0.00     0.047 A 
ATOM     19  C   UNL     1      -2.130   2.493  -3.117  1.00  0.00    -0.001 A 
ATOM     20  N   UNL     1      -0.737   3.094  -4.752  1.00  0.00    -0.361 N 
ATOM     21  C   UNL     1      -2.803   3.410  -3.895  1.00  0.00     0.028 A 
ATOM     22  C   UNL     1      -1.905   3.760  -4.899  1.00  0.00     0.083 A 
ATOM     23  H   UNL     1       0.106   3.166  -5.364  1.00  0.00     0.166 HD
ENDBRANCH  12  14
ENDBRANCH   3  12
BRANCH   3  24
ATOM     24  C   UNL     1      -0.448  -1.585   0.313  1.00  0.00    -0.020 A 
ATOM     25  C   UNL     1      -0.706  -2.609  -0.620  1.00  0.00     0.007 A 
ATOM     26  C   UNL     1      -1.250  -1.531   1.474  1.00  0.00     0.007 A 
ATOM     27  C   UNL     1      -1.738  -3.528  -0.418  1.00  0.00     0.012 A 
ATOM     28  C   UNL     1      -2.283  -2.451   1.674  1.00  0.00     0.012 A 
ATOM     29  C   UNL     1      -2.543  -3.460   0.732  1.00  0.00     0.017 A 
BRANCH  29  30
ATOM     30  C   UNL     1      -3.649  -4.429   0.962  1.00  0.00     0.159 C 
ATOM     31  C   UNL     1      -3.965  -5.518  -0.018  1.00  0.00     0.093 C 
ATOM     32  O   UNL     1      -4.348  -4.343   2.008  1.00  0.00    -0.295 OA
ENDBRANCH  29  30
ENDBRANCH   3  24
TORSDOF 6


