MODEL 1
REMARK VINA RESULT:      -9.6      0.000      0.000
REMARK SMILES c1cc(-c2ccc([C@H]3CO3)cn2)c2occc2c1
REMARK SMILES IDX 4 1 5 2 6 3 7 4 11 5 12 6 3 7 1 8 2 9 18 10 17 11 13 12
REMARK SMILES IDX 16 13 14 14 15 15 8 16 9 17 10 18
REMARK H PARENT
ROOT
ATOM      1  C   UNL     1      45.451 130.979  17.430  1.00  0.00     0.074 A 
ATOM      2  C   UNL     1      45.808 129.721  16.914  1.00  0.00     0.029 A 
ATOM      3  C   UNL     1      46.232 129.614  15.588  1.00  0.00     0.010 A 
ATOM      4  C   UNL     1      46.309 130.755  14.782  1.00  0.00     0.001 A 
ATOM      5  C   UNL     1      45.922 131.987  15.320  1.00  0.00     0.118 A 
ATOM      6  N   UNL     1      45.511 132.069  16.613  1.00  0.00    -0.256 NA
ENDROOT
BRANCH   1   7
ATOM      7  C   UNL     1      44.994 131.144  18.833  1.00  0.00     0.043 A 
ATOM      8  C   UNL     1      45.347 130.955  21.261  1.00  0.00     0.002 A 
ATOM      9  C   UNL     1      45.804 130.777  19.937  1.00  0.00     0.014 A 
ATOM     10  C   UNL     1      44.080 131.505  21.511  1.00  0.00     0.012 A 
ATOM     11  C   UNL     1      43.304 131.866  20.415  1.00  0.00     0.021 A 
ATOM     12  C   UNL     1      43.737 131.697  19.127  1.00  0.00     0.143 A 
ATOM     13  C   UNL     1      42.046 132.417  20.350  1.00  0.00     0.050 A 
ATOM     14  O   UNL     1      42.819 132.109  18.287  1.00  0.00    -0.464 OA
ATOM     15  C   UNL     1      41.791 132.548  18.990  1.00  0.00     0.196 A 
ENDBRANCH   1   7
BRANCH   4  16
ATOM     16  C   UNL     1      46.727 130.651  13.345  1.00  0.00     0.176 C 
ATOM     17  C   UNL     1      48.006 131.307  12.991  1.00  0.00     0.198 C 
ATOM     18  O   UNL     1      47.921 129.917  13.202  1.00  0.00    -0.368 OA
ENDBRANCH   4  16
TORSDOF 2
ENDMDL
MODEL 2
REMARK VINA RESULT:      -9.5      0.649      1.135
REMARK SMILES c1cc(-c2ccc([C@H]3CO3)cn2)c2occc2c1
REMARK SMILES IDX 4 1 5 2 6 3 7 4 11 5 12 6 3 7 1 8 2 9 18 10 17 11 13 12
REMARK SMILES IDX 16 13 14 14 15 15 8 16 9 17 10 18
REMARK H PARENT
ROOT
ATOM      1  C   UNL     1      45.458 130.980  17.440  1.00  0.00     0.074 A 
ATOM      2  C   UNL     1      45.496 132.072  16.555  1.00  0.00     0.029 A 
ATOM      3  C   UNL     1      45.933 131.881  15.243  1.00  0.00     0.010 A 
ATOM      4  C   UNL     1      46.321 130.609  14.811  1.00  0.00     0.001 A 
ATOM      5  C   UNL     1      46.295 129.550  15.724  1.00  0.00     0.118 A 
ATOM      6  N   UNL     1      45.867 129.757  16.998  1.00  0.00    -0.256 NA
ENDROOT
BRANCH   1   7
ATOM      7  C   UNL     1      45.002 131.132  18.845  1.00  0.00     0.043 A 
ATOM      8  C   UNL     1      45.356 130.919  21.271  1.00  0.00     0.002 A 
ATOM      9  C   UNL     1      45.812 130.754  19.945  1.00  0.00     0.014 A 
ATOM     10  C   UNL     1      44.089 131.468  21.527  1.00  0.00     0.012 A 
ATOM     11  C   UNL     1      43.313 131.840  20.435  1.00  0.00     0.021 A 
ATOM     12  C   UNL     1      43.746 131.682  19.145  1.00  0.00     0.143 A 
ATOM     13  C   UNL     1      42.056 132.392  20.376  1.00  0.00     0.050 A 
ATOM     14  O   UNL     1      42.827 132.103  18.309  1.00  0.00    -0.464 OA
ATOM     15  C   UNL     1      41.801 132.537  19.018  1.00  0.00     0.196 A 
ENDBRANCH   1   7
BRANCH   4  16
ATOM     16  C   UNL     1      46.827 130.395  13.415  1.00  0.00     0.176 C 
ATOM     17  C   UNL     1      47.975 131.236  13.004  1.00  0.00     0.198 C 
ATOM     18  O   UNL     1      48.146 129.898  13.409  1.00  0.00    -0.368 OA
ENDBRANCH   4  16
TORSDOF 2
ENDMDL
MODEL 3
REMARK VINA RESULT:      -8.6      1.203      2.421
REMARK SMILES c1cc(-c2ccc([C@H]3CO3)cn2)c2occc2c1
REMARK SMILES IDX 4 1 5 2 6 3 7 4 11 5 12 6 3 7 1 8 2 9 18 10 17 11 13 12
REMARK SMILES IDX 16 13 14 14 15 15 8 16 9 17 10 18
REMARK H PARENT
ROOT
ATOM      1  C   UNL     1      44.593 131.266  16.869  1.00  0.00     0.074 A 
ATOM      2  C   UNL     1      44.106 131.610  15.596  1.00  0.00     0.029 A 
ATOM      3  C   UNL     1      44.840 131.263  14.460  1.00  0.00     0.010 A 
ATOM      4  C   UNL     1      46.046 130.568  14.589  1.00  0.00     0.001 A 
ATOM      5  C   UNL     1      46.513 130.262  15.872  1.00  0.00     0.118 A 
ATOM      6  N   UNL     1      45.785 130.611  16.966  1.00  0.00    -0.256 NA
ENDROOT
BRANCH   1   7
ATOM      7  C   UNL     1      43.850 131.613  18.107  1.00  0.00     0.043 A 
ATOM      8  C   UNL     1      41.840 132.429  19.268  1.00  0.00     0.002 A 
ATOM      9  C   UNL     1      42.525 132.117  18.074  1.00  0.00     0.014 A 
ATOM     10  C   UNL     1      42.456 132.242  20.515  1.00  0.00     0.012 A 
ATOM     11  C   UNL     1      43.753 131.739  20.526  1.00  0.00     0.021 A 
ATOM     12  C   UNL     1      44.427 131.435  19.374  1.00  0.00     0.143 A 
ATOM     13  C   UNL     1      44.595 131.458  21.575  1.00  0.00     0.050 A 
ATOM     14  O   UNL     1      45.626 130.988  19.660  1.00  0.00    -0.464 OA
ATOM     15  C   UNL     1      45.757 130.989  20.974  1.00  0.00     0.196 A 
ENDBRANCH   1   7
BRANCH   4  16
ATOM     16  C   UNL     1      46.864 130.220  13.380  1.00  0.00     0.176 C 
ATOM     17  C   UNL     1      47.905 131.200  12.996  1.00  0.00     0.198 C 
ATOM     18  O   UNL     1      48.221 130.026  13.707  1.00  0.00    -0.368 OA
ENDBRANCH   4  16
TORSDOF 2
ENDMDL
MODEL 4
REMARK VINA RESULT:      -8.6      1.107      2.247
REMARK SMILES c1cc(-c2ccc([C@H]3CO3)cn2)c2occc2c1
REMARK SMILES IDX 4 1 5 2 6 3 7 4 11 5 12 6 3 7 1 8 2 9 18 10 17 11 13 12
REMARK SMILES IDX 16 13 14 14 15 15 8 16 9 17 10 18
REMARK H PARENT
ROOT
ATOM      1  C   UNL     1      44.605 131.316  16.980  1.00  0.00     0.074 A 
ATOM      2  C   UNL     1      45.797 130.572  17.033  1.00  0.00     0.029 A 
ATOM      3  C   UNL     1      46.487 130.290  15.852  1.00  0.00     0.010 A 
ATOM      4  C   UNL     1      45.998 130.755  14.626  1.00  0.00     0.001 A 
ATOM      5  C   UNL     1      44.796 131.471  14.607  1.00  0.00     0.118 A 
ATOM      6  N   UNL     1      44.139 131.733  15.768  1.00  0.00    -0.256 NA
ENDROOT
BRANCH   1   7
ATOM      7  C   UNL     1      43.835 131.641  18.208  1.00  0.00     0.043 A 
ATOM      8  C   UNL     1      41.796 132.426  19.339  1.00  0.00     0.002 A 
ATOM      9  C   UNL     1      42.507 132.136  18.154  1.00  0.00     0.014 A 
ATOM     10  C   UNL     1      42.388 132.226  20.596  1.00  0.00     0.012 A 
ATOM     11  C   UNL     1      43.688 131.732  20.626  1.00  0.00     0.021 A 
ATOM     12  C   UNL     1      44.387 131.448  19.483  1.00  0.00     0.143 A 
ATOM     13  C   UNL     1      44.511 131.441  21.688  1.00  0.00     0.050 A 
ATOM     14  O   UNL     1      45.583 131.005  19.788  1.00  0.00    -0.464 OA
ATOM     15  C   UNL     1      45.688 130.988  21.104  1.00  0.00     0.196 A 
ENDBRANCH   1   7
BRANCH   4  16
ATOM     16  C   UNL     1      46.709 130.429  13.346  1.00  0.00     0.176 C 
ATOM     17  C   UNL     1      47.917 131.233  13.050  1.00  0.00     0.198 C 
ATOM     18  O   UNL     1      48.006 129.932  13.581  1.00  0.00    -0.368 OA
ENDBRANCH   4  16
TORSDOF 2
ENDMDL
MODEL 5
REMARK VINA RESULT:      -7.5      1.383      2.514
REMARK SMILES c1cc(-c2ccc([C@H]3CO3)cn2)c2occc2c1
REMARK SMILES IDX 4 1 5 2 6 3 7 4 11 5 12 6 3 7 1 8 2 9 18 10 17 11 13 12
REMARK SMILES IDX 16 13 14 14 15 15 8 16 9 17 10 18
REMARK H PARENT
ROOT
ATOM      1  C   UNL     1      44.096 131.541  17.875  1.00  0.00     0.074 A 
ATOM      2  C   UNL     1      45.363 130.933  17.825  1.00  0.00     0.029 A 
ATOM      3  C   UNL     1      45.949 130.661  16.587  1.00  0.00     0.010 A 
ATOM      4  C   UNL     1      45.282 131.002  15.406  1.00  0.00     0.001 A 
ATOM      5  C   UNL     1      44.012 131.583  15.492  1.00  0.00     0.118 A 
ATOM      6  N   UNL     1      43.459 131.838  16.707  1.00  0.00    -0.256 NA
ENDROOT
BRANCH   1   7
ATOM      7  C   UNL     1      43.431 131.849  19.167  1.00  0.00     0.043 A 
ATOM      8  C   UNL     1      41.651 132.924  20.482  1.00  0.00     0.002 A 
ATOM      9  C   UNL     1      42.268 132.656  19.241  1.00  0.00     0.014 A 
ATOM     10  C   UNL     1      42.176 132.391  21.671  1.00  0.00     0.012 A 
ATOM     11  C   UNL     1      43.312 131.595  21.575  1.00  0.00     0.021 A 
ATOM     12  C   UNL     1      43.919 131.330  20.376  1.00  0.00     0.143 A 
ATOM     13  C   UNL     1      44.038 130.950  22.548  1.00  0.00     0.050 A 
ATOM     14  O   UNL     1      44.968 130.566  20.564  1.00  0.00    -0.464 OA
ATOM     15  C   UNL     1      45.066 130.319  21.857  1.00  0.00     0.196 A 
ENDBRANCH   1   7
BRANCH   4  16
ATOM     16  C   UNL     1      45.883 130.684  14.068  1.00  0.00     0.176 C 
ATOM     17  C   UNL     1      47.324 130.986  13.914  1.00  0.00     0.198 C 
ATOM     18  O   UNL     1      46.865 129.679  14.164  1.00  0.00    -0.368 OA
ENDBRANCH   4  16
TORSDOF 2
ENDMDL
MODEL 6
REMARK VINA RESULT:      -7.2      2.078      6.531
REMARK SMILES c1cc(-c2ccc([C@H]3CO3)cn2)c2occc2c1
REMARK SMILES IDX 4 1 5 2 6 3 7 4 11 5 12 6 3 7 1 8 2 9 18 10 17 11 13 12
REMARK SMILES IDX 16 13 14 14 15 15 8 16 9 17 10 18
REMARK H PARENT
ROOT
ATOM      1  C   UNL     1      44.610 131.190  18.126  1.00  0.00     0.074 A 
ATOM      2  C   UNL     1      45.648 130.624  18.887  1.00  0.00     0.029 A 
ATOM      3  C   UNL     1      45.585 130.667  20.281  1.00  0.00     0.010 A 
ATOM      4  C   UNL     1      44.489 131.262  20.915  1.00  0.00     0.001 A 
ATOM      5  C   UNL     1      43.486 131.838  20.128  1.00  0.00     0.118 A 
ATOM      6  N   UNL     1      43.567 131.786  18.772  1.00  0.00    -0.256 NA
ENDROOT
BRANCH   1   7
ATOM      7  C   UNL     1      44.632 131.171  16.641  1.00  0.00     0.043 A 
ATOM      8  C   UNL     1      43.654 131.733  14.455  1.00  0.00     0.002 A 
ATOM      9  C   UNL     1      43.602 131.758  15.865  1.00  0.00     0.014 A 
ATOM     10  C   UNL     1      44.734 131.128  13.791  1.00  0.00     0.012 A 
ATOM     11  C   UNL     1      45.738 130.565  14.571  1.00  0.00     0.021 A 
ATOM     12  C   UNL     1      45.696 130.583  15.939  1.00  0.00     0.143 A 
ATOM     13  C   UNL     1      46.895 129.916  14.209  1.00  0.00     0.050 A 
ATOM     14  O   UNL     1      46.755 129.983  16.428  1.00  0.00    -0.464 OA
ATOM     15  C   UNL     1      47.494 129.572  15.415  1.00  0.00     0.196 A 
ENDBRANCH   1   7
BRANCH   4  16
ATOM     16  C   UNL     1      44.424 131.348  22.411  1.00  0.00     0.176 C 
ATOM     17  C   UNL     1      43.248 130.713  23.049  1.00  0.00     0.198 C 
ATOM     18  O   UNL     1      44.503 130.075  23.011  1.00  0.00    -0.368 OA
ENDBRANCH   4  16
TORSDOF 2
ENDMDL
MODEL 7
REMARK VINA RESULT:      -7.2      1.975      6.215
REMARK SMILES c1cc(-c2ccc([C@H]3CO3)cn2)c2occc2c1
REMARK SMILES IDX 4 1 5 2 6 3 7 4 11 5 12 6 3 7 1 8 2 9 18 10 17 11 13 12
REMARK SMILES IDX 16 13 14 14 15 15 8 16 9 17 10 18
REMARK H PARENT
ROOT
ATOM      1  C   UNL     1      44.915 130.998  18.422  1.00  0.00     0.074 A 
ATOM      2  C   UNL     1      45.699 130.673  19.543  1.00  0.00     0.029 A 
ATOM      3  C   UNL     1      45.217 130.945  20.824  1.00  0.00     0.010 A 
ATOM      4  C   UNL     1      43.957 131.529  20.990  1.00  0.00     0.001 A 
ATOM      5  C   UNL     1      43.214 131.863  19.853  1.00  0.00     0.118 A 
ATOM      6  N   UNL     1      43.702 131.590  18.614  1.00  0.00    -0.256 NA
ENDROOT
BRANCH   1   7
ATOM      7  C   UNL     1      45.384 130.729  17.039  1.00  0.00     0.043 A 
ATOM      8  C   UNL     1      47.014 129.797  15.449  1.00  0.00     0.002 A 
ATOM      9  C   UNL     1      46.599 130.048  16.775  1.00  0.00     0.014 A 
ATOM     10  C   UNL     1      46.228 130.213  14.363  1.00  0.00     0.012 A 
ATOM     11  C   UNL     1      45.036 130.872  14.644  1.00  0.00     0.021 A 
ATOM     12  C   UNL     1      44.624 131.121  15.926  1.00  0.00     0.143 A 
ATOM     13  C   UNL     1      44.078 131.387  13.803  1.00  0.00     0.050 A 
ATOM     14  O   UNL     1      43.478 131.758  15.913  1.00  0.00    -0.464 OA
ATOM     15  C   UNL     1      43.123 131.931  14.653  1.00  0.00     0.196 A 
ENDBRANCH   1   7
BRANCH   4  16
ATOM     16  C   UNL     1      43.441 131.862  22.359  1.00  0.00     0.176 C 
ATOM     17  C   UNL     1      42.909 130.726  23.147  1.00  0.00     0.198 C 
ATOM     18  O   UNL     1      44.202 131.239  23.369  1.00  0.00    -0.368 OA
ENDBRANCH   4  16
TORSDOF 2
ENDMDL
MODEL 8
REMARK VINA RESULT:      -7.2      2.049      6.215
REMARK SMILES c1cc(-c2ccc([C@H]3CO3)cn2)c2occc2c1
REMARK SMILES IDX 4 1 5 2 6 3 7 4 11 5 12 6 3 7 1 8 2 9 18 10 17 11 13 12
REMARK SMILES IDX 16 13 14 14 15 15 8 16 9 17 10 18
REMARK H PARENT
ROOT
ATOM      1  C   UNL     1      45.193 130.896  18.315  1.00  0.00     0.074 A 
ATOM      2  C   UNL     1      44.099 131.703  18.672  1.00  0.00     0.029 A 
ATOM      3  C   UNL     1      43.784 131.879  20.021  1.00  0.00     0.010 A 
ATOM      4  C   UNL     1      44.561 131.265  21.009  1.00  0.00     0.001 A 
ATOM      5  C   UNL     1      45.627 130.449  20.617  1.00  0.00     0.118 A 
ATOM      6  N   UNL     1      45.916 130.288  19.298  1.00  0.00    -0.256 NA
ENDROOT
BRANCH   1   7
ATOM      7  C   UNL     1      45.567 130.676  16.894  1.00  0.00     0.043 A 
ATOM      8  C   UNL     1      47.097 129.822  15.167  1.00  0.00     0.002 A 
ATOM      9  C   UNL     1      46.772 130.026  16.525  1.00  0.00     0.014 A 
ATOM     10  C   UNL     1      46.229 130.256  14.151  1.00  0.00     0.012 A 
ATOM     11  C   UNL     1      45.049 130.884  14.535  1.00  0.00     0.021 A 
ATOM     12  C   UNL     1      44.725 131.088  15.850  1.00  0.00     0.143 A 
ATOM     13  C   UNL     1      44.026 131.407  13.780  1.00  0.00     0.050 A 
ATOM     14  O   UNL     1      43.570 131.703  15.937  1.00  0.00    -0.464 OA
ATOM     15  C   UNL     1      43.125 131.908  14.711  1.00  0.00     0.196 A 
ENDBRANCH   1   7
BRANCH   4  16
ATOM     16  C   UNL     1      44.213 131.416  22.461  1.00  0.00     0.176 C 
ATOM     17  C   UNL     1      43.056 130.624  22.938  1.00  0.00     0.198 C 
ATOM     18  O   UNL     1      44.381 130.207  23.165  1.00  0.00    -0.368 OA
ENDBRANCH   4  16
TORSDOF 2
ENDMDL
MODEL 9
REMARK VINA RESULT:      -7.0      2.064      6.573
REMARK SMILES c1cc(-c2ccc([C@H]3CO3)cn2)c2occc2c1
REMARK SMILES IDX 4 1 5 2 6 3 7 4 11 5 12 6 3 7 1 8 2 9 18 10 17 11 13 12
REMARK SMILES IDX 16 13 14 14 15 15 8 16 9 17 10 18
REMARK H PARENT
ROOT
ATOM      1  C   UNL     1      44.536 131.231  18.156  1.00  0.00     0.074 A 
ATOM      2  C   UNL     1      43.450 131.809  18.836  1.00  0.00     0.029 A 
ATOM      3  C   UNL     1      43.443 131.829  20.232  1.00  0.00     0.010 A 
ATOM      4  C   UNL     1      44.515 131.286  20.947  1.00  0.00     0.001 A 
ATOM      5  C   UNL     1      45.568 130.696  20.238  1.00  0.00     0.118 A 
ATOM      6  N   UNL     1      45.555 130.685  18.879  1.00  0.00    -0.256 NA
ENDROOT
BRANCH   1   7
ATOM      7  C   UNL     1      44.589 131.184  16.672  1.00  0.00     0.043 A 
ATOM      8  C   UNL     1      43.664 131.716  14.455  1.00  0.00     0.002 A 
ATOM      9  C   UNL     1      43.581 131.767  15.863  1.00  0.00     0.014 A 
ATOM     10  C   UNL     1      44.752 131.090  13.826  1.00  0.00     0.012 A 
ATOM     11  C   UNL     1      45.734 130.532  14.637  1.00  0.00     0.021 A 
ATOM     12  C   UNL     1      45.662 130.574  16.004  1.00  0.00     0.143 A 
ATOM     13  C   UNL     1      46.892 129.865  14.312  1.00  0.00     0.050 A 
ATOM     14  O   UNL     1      46.704 129.973  16.526  1.00  0.00    -0.464 OA
ATOM     15  C   UNL     1      47.462 129.538  15.536  1.00  0.00     0.196 A 
ENDBRANCH   1   7
BRANCH   4  16
ATOM     16  C   UNL     1      44.505 131.268  22.447  1.00  0.00     0.176 C 
ATOM     17  C   UNL     1      43.317 130.651  23.081  1.00  0.00     0.198 C 
ATOM     18  O   UNL     1      44.533 129.952  22.952  1.00  0.00    -0.368 OA
ENDBRANCH   4  16
TORSDOF 2
ENDMDL


