MODEL 1
REMARK VINA RESULT:     -10.9      0.000      0.000
REMARK SMILES Cc1ccc(-c2ccc3cc[nH]c3c2)cc1F
REMARK SMILES IDX 6 1 7 2 8 3 9 4 10 5 11 6 12 7 13 8 14 9 5 11 2 12 3 13
REMARK SMILES IDX 16 14 4 15 15 16 1 17 17 18
REMARK H PARENT 12 10
ROOT
ATOM      1  C   UNL     1      45.629 131.122  17.194  1.00  0.00    -0.016 A 
ATOM      2  C   UNL     1      45.365 132.221  16.332  1.00  0.00     0.009 A 
ATOM      3  C   UNL     1      45.854 132.239  15.014  1.00  0.00     0.011 A 
ATOM      4  C   UNL     1      46.602 131.148  14.584  1.00  0.00    -0.001 A 
ATOM      5  C   UNL     1      47.197 130.891  13.368  1.00  0.00     0.028 A 
ATOM      6  C   UNL     1      47.805 129.649  13.517  1.00  0.00     0.083 A 
ATOM      7  N   UNL     1      47.600 129.160  14.762  1.00  0.00    -0.361 N 
ATOM      8  C   UNL     1      46.865 130.084  15.403  1.00  0.00     0.046 A 
ATOM      9  C   UNL     1      46.397 130.033  16.713  1.00  0.00     0.035 A 
ATOM     10  H   UNL     1      47.943 128.250  15.142  1.00  0.00     0.166 HD
ENDROOT
BRANCH   1  11
ATOM     11  C   UNL     1      45.108 131.115  18.584  1.00  0.00    -0.015 A 
ATOM     12  C   UNL     1      44.115 131.093  21.225  1.00  0.00    -0.015 A 
ATOM     13  C   UNL     1      45.335 130.470  20.921  1.00  0.00     0.007 A 
ATOM     14  C   UNL     1      43.402 131.743  20.206  1.00  0.00     0.126 A 
ATOM     15  C   UNL     1      45.824 130.476  19.612  1.00  0.00     0.009 A 
ATOM     16  C   UNL     1      43.893 131.749  18.897  1.00  0.00     0.048 A 
ATOM     17  C   UNL     1      43.602 131.109  22.637  1.00  0.00     0.047 C 
ATOM     18  F   UNL     1      42.229 132.369  20.479  1.00  0.00    -0.207 F 
ENDBRANCH   1  11
TORSDOF 1
ENDMDL
MODEL 2
REMARK VINA RESULT:     -10.7      2.824      6.498
REMARK SMILES Cc1ccc(-c2ccc3cc[nH]c3c2)cc1F
REMARK SMILES IDX 6 1 7 2 8 3 9 4 10 5 11 6 12 7 13 8 14 9 5 11 2 12 3 13
REMARK SMILES IDX 16 14 4 15 15 16 1 17 17 18
REMARK H PARENT 12 10
ROOT
ATOM      1  C   UNL     1      44.695 131.327  18.119  1.00  0.00    -0.016 A 
ATOM      2  C   UNL     1      43.329 131.718  18.154  1.00  0.00     0.009 A 
ATOM      3  C   UNL     1      42.648 131.854  19.377  1.00  0.00     0.011 A 
ATOM      4  C   UNL     1      43.355 131.595  20.546  1.00  0.00    -0.001 A 
ATOM      5  C   UNL     1      42.960 131.647  21.865  1.00  0.00     0.028 A 
ATOM      6  C   UNL     1      44.088 131.290  22.597  1.00  0.00     0.083 A 
ATOM      7  N   UNL     1      45.130 131.028  21.775  1.00  0.00    -0.361 N 
ATOM      8  C   UNL     1      44.670 131.217  20.527  1.00  0.00     0.046 A 
ATOM      9  C   UNL     1      45.375 131.072  19.335  1.00  0.00     0.035 A 
ATOM     10  H   UNL     1      46.093 130.740  22.057  1.00  0.00     0.166 HD
ENDROOT
BRANCH   1  11
ATOM     11  C   UNL     1      45.403 131.186  16.821  1.00  0.00    -0.015 A 
ATOM     12  C   UNL     1      46.741 130.920  14.351  1.00  0.00    -0.015 A 
ATOM     13  C   UNL     1      46.402 132.190  14.841  1.00  0.00     0.007 A 
ATOM     14  C   UNL     1      46.424 129.783  15.111  1.00  0.00     0.126 A 
ATOM     15  C   UNL     1      45.734 132.322  16.061  1.00  0.00     0.009 A 
ATOM     16  C   UNL     1      45.757 129.916  16.333  1.00  0.00     0.048 A 
ATOM     17  C   UNL     1      47.481 130.780  13.052  1.00  0.00     0.047 C 
ATOM     18  F   UNL     1      46.759 128.545  14.668  1.00  0.00    -0.207 F 
ENDBRANCH   1  11
TORSDOF 1
ENDMDL
MODEL 3
REMARK VINA RESULT:     -10.5      1.202      1.705
REMARK SMILES Cc1ccc(-c2ccc3cc[nH]c3c2)cc1F
REMARK SMILES IDX 6 1 7 2 8 3 9 4 10 5 11 6 12 7 13 8 14 9 5 11 2 12 3 13
REMARK SMILES IDX 16 14 4 15 15 16 1 17 17 18
REMARK H PARENT 12 10
ROOT
ATOM      1  C   UNL     1      44.960 131.191  16.870  1.00  0.00    -0.016 A 
ATOM      2  C   UNL     1      44.367 131.764  15.712  1.00  0.00     0.009 A 
ATOM      3  C   UNL     1      44.939 131.579  14.441  1.00  0.00     0.011 A 
ATOM      4  C   UNL     1      46.100 130.818  14.356  1.00  0.00    -0.001 A 
ATOM      5  C   UNL     1      46.868 130.471  13.266  1.00  0.00     0.028 A 
ATOM      6  C   UNL     1      47.903 129.700  13.782  1.00  0.00     0.083 A 
ATOM      7  N   UNL     1      47.785 129.574  15.124  1.00  0.00    -0.361 N 
ATOM      8  C   UNL     1      46.682 130.262  15.462  1.00  0.00     0.046 A 
ATOM      9  C   UNL     1      46.143 130.425  16.735  1.00  0.00     0.035 A 
ATOM     10  H   UNL     1      48.423 129.049  15.763  1.00  0.00     0.166 HD
ENDROOT
BRANCH   1  11
ATOM     11  C   UNL     1      44.347 131.394  18.207  1.00  0.00    -0.015 A 
ATOM     12  C   UNL     1      43.182 131.788  20.747  1.00  0.00    -0.015 A 
ATOM     13  C   UNL     1      42.424 131.980  19.582  1.00  0.00     0.007 A 
ATOM     14  C   UNL     1      44.520 131.380  20.637  1.00  0.00     0.126 A 
ATOM     15  C   UNL     1      43.002 131.790  18.324  1.00  0.00     0.009 A 
ATOM     16  C   UNL     1      45.098 131.189  19.378  1.00  0.00     0.048 A 
ATOM     17  C   UNL     1      42.554 131.967  22.099  1.00  0.00     0.047 C 
ATOM     18  F   UNL     1      45.269 131.169  21.750  1.00  0.00    -0.207 F 
ENDBRANCH   1  11
TORSDOF 1
ENDMDL
MODEL 4
REMARK VINA RESULT:     -10.3      2.924      6.670
REMARK SMILES Cc1ccc(-c2ccc3cc[nH]c3c2)cc1F
REMARK SMILES IDX 6 1 7 2 8 3 9 4 10 5 11 6 12 7 13 8 14 9 5 11 2 12 3 13
REMARK SMILES IDX 16 14 4 15 15 16 1 17 17 18
REMARK H PARENT 12 10
ROOT
ATOM      1  C   UNL     1      45.150 131.085  18.477  1.00  0.00    -0.016 A 
ATOM      2  C   UNL     1      45.901 130.479  19.521  1.00  0.00     0.009 A 
ATOM      3  C   UNL     1      45.446 130.513  20.852  1.00  0.00     0.011 A 
ATOM      4  C   UNL     1      44.240 131.156  21.109  1.00  0.00    -0.001 A 
ATOM      5  C   UNL     1      43.556 131.343  22.290  1.00  0.00     0.028 A 
ATOM      6  C   UNL     1      42.412 132.052  21.940  1.00  0.00     0.083 A 
ATOM      7  N   UNL     1      42.386 132.295  20.609  1.00  0.00    -0.361 N 
ATOM      8  C   UNL     1      43.507 131.744  20.114  1.00  0.00     0.046 A 
ATOM      9  C   UNL     1      43.928 131.730  18.786  1.00  0.00     0.035 A 
ATOM     10  H   UNL     1      41.645 132.805  20.079  1.00  0.00     0.166 HD
ENDROOT
BRANCH   1  11
ATOM     11  C   UNL     1      45.642 131.043  17.077  1.00  0.00    -0.015 A 
ATOM     12  C   UNL     1      46.568 130.964  14.412  1.00  0.00    -0.015 A 
ATOM     13  C   UNL     1      46.150 132.176  14.982  1.00  0.00     0.007 A 
ATOM     14  C   UNL     1      46.538 129.794  15.186  1.00  0.00     0.126 A 
ATOM     15  C   UNL     1      45.686 132.215  16.300  1.00  0.00     0.009 A 
ATOM     16  C   UNL     1      46.075 129.833  16.505  1.00  0.00     0.048 A 
ATOM     17  C   UNL     1      47.090 130.927  13.005  1.00  0.00     0.047 C 
ATOM     18  F   UNL     1      46.955 128.613  14.664  1.00  0.00    -0.207 F 
ENDBRANCH   1  11
TORSDOF 1
ENDMDL
MODEL 5
REMARK VINA RESULT:     -10.3      0.980      1.005
REMARK SMILES Cc1ccc(-c2ccc3cc[nH]c3c2)cc1F
REMARK SMILES IDX 6 1 7 2 8 3 9 4 10 5 11 6 12 7 13 8 14 9 5 11 2 12 3 13
REMARK SMILES IDX 16 14 4 15 15 16 1 17 17 18
REMARK H PARENT 12 10
ROOT
ATOM      1  C   UNL     1      44.818 131.119  17.669  1.00  0.00    -0.016 A 
ATOM      2  C   UNL     1      44.010 131.670  16.637  1.00  0.00     0.009 A 
ATOM      3  C   UNL     1      44.384 131.551  15.286  1.00  0.00     0.011 A 
ATOM      4  C   UNL     1      45.566 130.878  14.997  1.00  0.00    -0.001 A 
ATOM      5  C   UNL     1      46.174 130.609  13.790  1.00  0.00     0.028 A 
ATOM      6  C   UNL     1      47.329 129.905  14.114  1.00  0.00     0.083 A 
ATOM      7  N   UNL     1      47.435 129.746  15.453  1.00  0.00    -0.361 N 
ATOM      8  C   UNL     1      46.354 130.344  15.981  1.00  0.00     0.046 A 
ATOM      9  C   UNL     1      46.015 130.444  17.328  1.00  0.00     0.035 A 
ATOM     10  H   UNL     1      48.201 129.257  15.968  1.00  0.00     0.166 HD
ENDROOT
BRANCH   1  11
ATOM     11  C   UNL     1      44.412 131.252  19.092  1.00  0.00    -0.015 A 
ATOM     12  C   UNL     1      43.641 131.496  21.795  1.00  0.00    -0.015 A 
ATOM     13  C   UNL     1      44.816 130.811  21.452  1.00  0.00     0.007 A 
ATOM     14  C   UNL     1      42.862 132.075  20.781  1.00  0.00     0.126 A 
ATOM     15  C   UNL     1      45.196 130.685  20.113  1.00  0.00     0.009 A 
ATOM     16  C   UNL     1      43.243 131.950  19.441  1.00  0.00     0.048 A 
ATOM     17  C   UNL     1      43.246 131.653  23.235  1.00  0.00     0.047 C 
ATOM     18  F   UNL     1      41.730 132.759  21.088  1.00  0.00    -0.207 F 
ENDBRANCH   1  11
TORSDOF 1
ENDMDL
MODEL 6
REMARK VINA RESULT:      -9.6      1.279      1.809
REMARK SMILES Cc1ccc(-c2ccc3cc[nH]c3c2)cc1F
REMARK SMILES IDX 6 1 7 2 8 3 9 4 10 5 11 6 12 7 13 8 14 9 5 11 2 12 3 13
REMARK SMILES IDX 16 14 4 15 15 16 1 17 17 18
REMARK H PARENT 12 10
ROOT
ATOM      1  C   UNL     1      45.340 130.783  16.799  1.00  0.00    -0.016 A 
ATOM      2  C   UNL     1      45.453 129.411  16.446  1.00  0.00     0.009 A 
ATOM      3  C   UNL     1      46.156 129.016  15.294  1.00  0.00     0.011 A 
ATOM      4  C   UNL     1      46.737 130.012  14.516  1.00  0.00    -0.001 A 
ATOM      5  C   UNL     1      47.475 129.928  13.355  1.00  0.00     0.028 A 
ATOM      6  C   UNL     1      47.793 131.243  13.031  1.00  0.00     0.083 A 
ATOM      7  N   UNL     1      47.278 132.100  13.943  1.00  0.00    -0.361 N 
ATOM      8  C   UNL     1      46.636 131.337  14.842  1.00  0.00     0.046 A 
ATOM      9  C   UNL     1      45.947 131.763  15.975  1.00  0.00     0.035 A 
ATOM     10  H   UNL     1      47.365 133.140  13.944  1.00  0.00     0.166 HD
ENDROOT
BRANCH   1  11
ATOM     11  C   UNL     1      44.594 131.187  18.018  1.00  0.00    -0.015 A 
ATOM     12  C   UNL     1      43.176 131.947  20.336  1.00  0.00    -0.015 A 
ATOM     13  C   UNL     1      44.500 131.493  20.431  1.00  0.00     0.007 A 
ATOM     14  C   UNL     1      42.569 132.036  19.073  1.00  0.00     0.126 A 
ATOM     15  C   UNL     1      45.201 131.112  19.284  1.00  0.00     0.009 A 
ATOM     16  C   UNL     1      43.272 131.656  17.926  1.00  0.00     0.048 A 
ATOM     17  C   UNL     1      42.431 132.381  21.565  1.00  0.00     0.047 C 
ATOM     18  F   UNL     1      41.296 132.490  18.953  1.00  0.00    -0.207 F 
ENDBRANCH   1  11
TORSDOF 1
ENDMDL
MODEL 7
REMARK VINA RESULT:      -9.6      1.482      2.291
REMARK SMILES Cc1ccc(-c2ccc3cc[nH]c3c2)cc1F
REMARK SMILES IDX 6 1 7 2 8 3 9 4 10 5 11 6 12 7 13 8 14 9 5 11 2 12 3 13
REMARK SMILES IDX 16 14 4 15 15 16 1 17 17 18
REMARK H PARENT 12 10
ROOT
ATOM      1  C   UNL     1      45.264 130.837  16.692  1.00  0.00    -0.016 A 
ATOM      2  C   UNL     1      45.421 129.451  16.414  1.00  0.00     0.009 A 
ATOM      3  C   UNL     1      46.180 129.017  15.312  1.00  0.00     0.011 A 
ATOM      4  C   UNL     1      46.770 129.986  14.508  1.00  0.00    -0.001 A 
ATOM      5  C   UNL     1      47.556 129.863  13.383  1.00  0.00     0.028 A 
ATOM      6  C   UNL     1      47.858 131.167  13.006  1.00  0.00     0.083 A 
ATOM      7  N   UNL     1      47.287 132.056  13.852  1.00  0.00    -0.361 N 
ATOM      8  C   UNL     1      46.626 131.323  14.763  1.00  0.00     0.046 A 
ATOM      9  C   UNL     1      45.881 131.788  15.844  1.00  0.00     0.035 A 
ATOM     10  H   UNL     1      47.351 133.097  13.803  1.00  0.00     0.166 HD
ENDROOT
BRANCH   1  11
ATOM     11  C   UNL     1      44.460 131.283  17.858  1.00  0.00    -0.015 A 
ATOM     12  C   UNL     1      42.931 132.138  20.070  1.00  0.00    -0.015 A 
ATOM     13  C   UNL     1      42.358 132.084  18.791  1.00  0.00     0.007 A 
ATOM     14  C   UNL     1      44.268 131.745  20.242  1.00  0.00     0.126 A 
ATOM     15  C   UNL     1      43.116 131.666  17.694  1.00  0.00     0.009 A 
ATOM     16  C   UNL     1      45.025 131.325  19.144  1.00  0.00     0.048 A 
ATOM     17  C   UNL     1      42.110 132.563  21.253  1.00  0.00     0.047 C 
ATOM     18  F   UNL     1      44.840 131.770  21.473  1.00  0.00    -0.207 F 
ENDBRANCH   1  11
TORSDOF 1
ENDMDL
MODEL 8
REMARK VINA RESULT:      -9.6      2.783      6.488
REMARK SMILES Cc1ccc(-c2ccc3cc[nH]c3c2)cc1F
REMARK SMILES IDX 6 1 7 2 8 3 9 4 10 5 11 6 12 7 13 8 14 9 5 11 2 12 3 13
REMARK SMILES IDX 16 14 4 15 15 16 1 17 17 18
REMARK H PARENT 12 10
ROOT
ATOM      1  C   UNL     1      44.154 131.442  19.014  1.00  0.00    -0.016 A 
ATOM      2  C   UNL     1      42.894 132.078  19.190  1.00  0.00     0.009 A 
ATOM      3  C   UNL     1      42.354 132.267  20.474  1.00  0.00     0.011 A 
ATOM      4  C   UNL     1      43.092 131.813  21.562  1.00  0.00    -0.001 A 
ATOM      5  C   UNL     1      42.822 131.861  22.913  1.00  0.00     0.028 A 
ATOM      6  C   UNL     1      43.917 131.258  23.523  1.00  0.00     0.083 A 
ATOM      7  N   UNL     1      44.820 130.855  22.600  1.00  0.00    -0.361 N 
ATOM      8  C   UNL     1      44.304 131.198  21.408  1.00  0.00     0.046 A 
ATOM      9  C   UNL     1      44.869 130.995  20.151  1.00  0.00     0.035 A 
ATOM     10  H   UNL     1      45.730 130.376  22.781  1.00  0.00     0.166 HD
ENDROOT
BRANCH   1  11
ATOM     11  C   UNL     1      44.714 131.248  17.653  1.00  0.00    -0.015 A 
ATOM     12  C   UNL     1      45.784 130.884  15.067  1.00  0.00    -0.015 A 
ATOM     13  C   UNL     1      46.472 130.408  16.193  1.00  0.00     0.007 A 
ATOM     14  C   UNL     1      44.548 131.527  15.238  1.00  0.00     0.126 A 
ATOM     15  C   UNL     1      45.946 130.593  17.474  1.00  0.00     0.009 A 
ATOM     16  C   UNL     1      44.021 131.710  16.520  1.00  0.00     0.048 A 
ATOM     17  C   UNL     1      46.337 130.663  13.689  1.00  0.00     0.047 C 
ATOM     18  F   UNL     1      43.853 131.979  14.163  1.00  0.00    -0.207 F 
ENDBRANCH   1  11
TORSDOF 1
ENDMDL
MODEL 9
REMARK VINA RESULT:      -9.5      3.041      6.503
REMARK SMILES Cc1ccc(-c2ccc3cc[nH]c3c2)cc1F
REMARK SMILES IDX 6 1 7 2 8 3 9 4 10 5 11 6 12 7 13 8 14 9 5 11 2 12 3 13
REMARK SMILES IDX 16 14 4 15 15 16 1 17 17 18
REMARK H PARENT 12 10
ROOT
ATOM      1  C   UNL     1      44.910 131.178  17.626  1.00  0.00    -0.016 A 
ATOM      2  C   UNL     1      45.426 131.013  18.941  1.00  0.00     0.009 A 
ATOM      3  C   UNL     1      44.674 131.397  20.065  1.00  0.00     0.011 A 
ATOM      4  C   UNL     1      43.412 131.940  19.848  1.00  0.00    -0.001 A 
ATOM      5  C   UNL     1      42.464 132.395  20.739  1.00  0.00     0.028 A 
ATOM      6  C   UNL     1      41.401 132.823  19.951  1.00  0.00     0.083 A 
ATOM      7  N   UNL     1      41.674 132.644  18.638  1.00  0.00    -0.361 N 
ATOM      8  C   UNL     1      42.903 132.106  18.588  1.00  0.00     0.046 A 
ATOM      9  C   UNL     1      43.621 131.737  17.453  1.00  0.00     0.035 A 
ATOM     10  H   UNL     1      41.052 132.877  17.832  1.00  0.00     0.166 HD
ENDROOT
BRANCH   1  11
ATOM     11  C   UNL     1      45.715 130.770  16.447  1.00  0.00    -0.015 A 
ATOM     12  C   UNL     1      47.249 129.992  14.210  1.00  0.00    -0.015 A 
ATOM     13  C   UNL     1      46.674 129.024  15.047  1.00  0.00     0.007 A 
ATOM     14  C   UNL     1      47.039 131.352  14.486  1.00  0.00     0.126 A 
ATOM     15  C   UNL     1      45.918 129.409  16.158  1.00  0.00     0.009 A 
ATOM     16  C   UNL     1      46.281 131.737  15.597  1.00  0.00     0.048 A 
ATOM     17  C   UNL     1      48.040 129.579  13.002  1.00  0.00     0.047 C 
ATOM     18  F   UNL     1      47.569 132.308  13.681  1.00  0.00    -0.207 F 
ENDBRANCH   1  11
TORSDOF 1
ENDMDL


