REMARK SMILES C=Cc1ccc(-c2cc(F)cc(F)c2O)nc1
REMARK SMILES IDX 3 1 4 2 5 3 6 4 16 5 17 6 2 7 1 8 7 9 8 10 14 11 9 12 12 13
REMARK SMILES IDX 11 14 10 15 13 16 15 17
REMARK H PARENT 15 18
ROOT
ATOM      1  C   UNL     1       2.095   1.725   2.030  1.00  0.00    -0.008 A 
ATOM      2  C   UNL     1       2.364   0.917   0.916  1.00  0.00     0.012 A 
ATOM      3  C   UNL     1       1.347   0.589   0.018  1.00  0.00     0.030 A 
ATOM      4  C   UNL     1       0.045   1.058   0.246  1.00  0.00     0.074 A 
ATOM      5  N   UNL     1      -0.197   1.843   1.332  1.00  0.00    -0.255 NA
ATOM      6  C   UNL     1       0.776   2.179   2.219  1.00  0.00     0.119 A 
ENDROOT
BRANCH   1   7
ATOM      7  C   UNL     1       3.204   2.045   2.964  1.00  0.00     0.002 C 
ATOM      8  C   UNL     1       3.158   3.007   3.886  1.00  0.00     0.009 C 
ENDBRANCH   1   7
BRANCH   4   9
ATOM      9  C   UNL     1      -1.062   0.752  -0.689  1.00  0.00     0.048 A 
ATOM     10  C   UNL     1      -1.959   1.776  -1.042  1.00  0.00     0.053 A 
ATOM     11  C   UNL     1      -1.257  -0.545  -1.215  1.00  0.00     0.160 A 
ATOM     12  C   UNL     1      -3.010   1.526  -1.927  1.00  0.00     0.127 A 
ATOM     13  C   UNL     1      -2.314  -0.784  -2.110  1.00  0.00     0.168 A 
ATOM     14  C   UNL     1      -3.184   0.249  -2.464  1.00  0.00     0.082 A 
ATOM     15  F   UNL     1      -3.861   2.525  -2.268  1.00  0.00    -0.207 F 
ATOM     16  F   UNL     1      -2.510  -2.023  -2.628  1.00  0.00    -0.203 F 
BRANCH  11  17
ATOM     17  O   UNL     1      -0.421  -1.594  -0.828  1.00  0.00    -0.504 OA
ATOM     18  H   UNL     1      -0.540  -2.536  -1.181  1.00  0.00     0.293 HD
ENDBRANCH  11  17
ENDBRANCH   4   9
TORSDOF 3


