REMARK SMILES C[C@@H]1CC[C@H](c2ccc3[nH+]cccc3c2)[C@H](F)N1C(=O)Oc1ccc([N+](=O)[O-])cc1
REMARK SMILES IDX 19 1 20 2 18 3 2 4 3 5 4 6 16 7 5 8 1 9 17 10 6 11 7 12
REMARK SMILES IDX 15 13 8 14 14 15 9 16 13 17 10 18 12 19 11 20 21 22 22 23
REMARK SMILES IDX 23 24 30 25 24 26 29 27 25 28 26 29 27 30 28 31
REMARK H PARENT 10 21
ROOT
ATOM      1  C   UNL     1      -1.535   1.799   0.194  1.00  0.00     0.417 C 
ATOM      2  O   UNL     1      -2.692   2.290   0.313  1.00  0.00    -0.224 OA
ENDROOT
BRANCH   1   3
ATOM      3  N   UNL     1      -1.354   0.366   0.199  1.00  0.00    -0.274 N 
ATOM      4  C   UNL     1      -2.476  -0.507   0.606  1.00  0.00     0.088 C 
ATOM      5  C   UNL     1      -2.409  -1.879  -0.096  1.00  0.00     0.026 C 
ATOM      6  C   UNL     1      -1.010  -2.496  -0.038  1.00  0.00     0.015 C 
ATOM      7  C   UNL     1       0.012  -0.181   0.117  1.00  0.00     0.275 C 
ATOM      8  C   UNL     1       0.020  -1.525  -0.635  1.00  0.00     0.075 C 
ATOM      9  C   UNL     1      -2.525  -0.645   2.134  1.00  0.00     0.031 C 
ATOM     10  F   UNL     1       0.527  -0.318   1.395  1.00  0.00    -0.223 F 
BRANCH   8  11
ATOM     11  C   UNL     1       1.415  -2.127  -0.695  1.00  0.00    -0.039 A 
ATOM     12  C   UNL     1       2.131  -2.101  -1.906  1.00  0.00     0.011 A 
ATOM     13  C   UNL     1       2.027  -2.683   0.446  1.00  0.00     0.019 A 
ATOM     14  C   UNL     1       3.421  -2.632  -1.986  1.00  0.00     0.080 A 
ATOM     15  C   UNL     1       3.322  -3.216   0.371  1.00  0.00     0.047 A 
ATOM     16  C   UNL     1       4.025  -3.193  -0.854  1.00  0.00     0.210 A 
ATOM     17  C   UNL     1       3.938  -3.775   1.498  1.00  0.00     0.021 A 
ATOM     18  N   UNL     1       5.286  -3.712  -0.924  1.00  0.00    -0.211 N 
ATOM     19  C   UNL     1       5.228  -4.298   1.395  1.00  0.00     0.071 A 
ATOM     20  C   UNL     1       5.891  -4.258   0.167  1.00  0.00     0.306 A 
ATOM     21  H   UNL     1       5.811  -3.697  -1.828  1.00  0.00     0.453 HD
ENDBRANCH   8  11
ENDBRANCH   1   3
BRANCH   1  22
ATOM     22  O   UNL     1      -0.430   2.643   0.007  1.00  0.00    -0.410 OA
BRANCH  22  23
ATOM     23  C   UNL     1      -0.401   4.017   0.286  1.00  0.00     0.133 A 
ATOM     24  C   UNL     1       0.471   4.827  -0.447  1.00  0.00     0.054 A 
ATOM     25  C   UNL     1      -1.184   4.595   1.302  1.00  0.00     0.054 A 
ATOM     26  C   UNL     1       0.544   6.201  -0.198  1.00  0.00     0.089 A 
ATOM     27  C   UNL     1      -1.112   5.968   1.554  1.00  0.00     0.089 A 
ATOM     28  C   UNL     1      -0.251   6.788   0.803  1.00  0.00     0.269 A 
BRANCH  28  29
ATOM     29  N   UNL     1      -0.179   8.201   1.064  1.00  0.00     0.062 N 
ATOM     30  O   UNL     1       0.580   8.935   0.397  1.00  0.00    -0.258 OA
ATOM     31  O   UNL     1      -0.949   8.769   2.054  1.00  0.00    -0.258 OA
ENDBRANCH  28  29
ENDBRANCH  22  23
ENDBRANCH   1  22
TORSDOF 5


