MODEL 1
REMARK VINA RESULT:      -3.7      0.000      0.000
REMARK SMILES Cc1ccc(-c2ccc([N-]C(=O)c3cccc(C)c3)c(C(=O)O[C@H](C)[C@H](C)[N+](=O)[O-])c2)cc1
REMARK SMILES IDX 21 1 22 2 20 3 6 4 7 5 31 6 8 7 9 8 5 9 2 10 3 11 33 12 4 13
REMARK SMILES IDX 32 14 1 15 10 16 11 17 12 18 13 19 14 20 19 21 15 22 17 23
REMARK SMILES IDX 16 24 18 25 23 26 24 27 25 28 26 29 27 30 28 31 29 32 30 33
REMARK H PARENT
ROOT
ATOM      1  C   UNL     1      45.453 130.883  19.645  1.00  0.00     0.337 C 
ATOM      2  O   UNL     1      46.314 130.010  19.351  1.00  0.00    -0.246 OA
ENDROOT
BRANCH   1   3
ATOM      3  C   UNL     1      45.599 131.701  20.869  1.00  0.00     0.046 A 
ATOM      4  C   UNL     1      46.918 133.356  22.101  1.00  0.00    -0.018 A 
ATOM      5  C   UNL     1      46.098 133.159  23.223  1.00  0.00     0.007 A 
ATOM      6  C   UNL     1      46.663 132.620  20.933  1.00  0.00     0.023 A 
ATOM      7  C   UNL     1      45.030 132.265  23.168  1.00  0.00    -0.014 A 
ATOM      8  C   UNL     1      44.745 131.559  21.994  1.00  0.00    -0.119 A 
BRANCH   4   9
ATOM      9  C   UNL     1      48.048 134.319  22.156  1.00  0.00    -0.018 A 
ATOM     10  C   UNL     1      50.186 136.152  22.269  1.00  0.00    -0.051 A 
ATOM     11  C   UNL     1      50.141 135.064  23.151  1.00  0.00     0.004 A 
ATOM     12  C   UNL     1      49.173 136.306  21.313  1.00  0.00     0.004 A 
ATOM     13  C   UNL     1      49.078 134.158  23.100  1.00  0.00     0.009 A 
ATOM     14  C   UNL     1      48.108 135.402  21.261  1.00  0.00     0.009 A 
ATOM     15  C   UNL     1      51.349 137.100  22.299  1.00  0.00     0.044 C 
ENDBRANCH   4   9
BRANCH   8  16
ATOM     16  N   UNL     1      43.571 130.735  21.980  1.00  0.00    -0.622 NA
BRANCH  16  17
ATOM     17  C   UNL     1      42.724 130.433  23.099  1.00  0.00     0.085 C 
ATOM     18  O   UNL     1      42.192 131.392  23.721  1.00  0.00    -0.315 OA
BRANCH  17  19
ATOM     19  C   UNL     1      42.446 129.045  23.542  1.00  0.00    -0.000 A 
ATOM     20  C   UNL     1      41.160 128.655  23.955  1.00  0.00     0.010 A 
ATOM     21  C   UNL     1      43.493 128.107  23.593  1.00  0.00     0.013 A 
ATOM     22  C   UNL     1      40.921 127.346  24.379  1.00  0.00     0.001 A 
ATOM     23  C   UNL     1      43.256 126.791  24.018  1.00  0.00    -0.050 A 
ATOM     24  C   UNL     1      41.964 126.417  24.415  1.00  0.00     0.003 A 
ATOM     25  C   UNL     1      44.392 125.816  24.114  1.00  0.00     0.044 C 
ENDBRANCH  17  19
ENDBRANCH  16  17
ENDBRANCH   8  16
ENDBRANCH   1   3
BRANCH   1  26
ATOM     26  O   UNL     1      44.365 131.116  18.793  1.00  0.00    -0.452 OA
BRANCH  26  27
ATOM     27  C   UNL     1      44.432 131.925  17.616  1.00  0.00     0.247 C 
ATOM     28  C   UNL     1      43.033 132.037  16.992  1.00  0.00     0.061 C 
BRANCH  27  29
ATOM     29  C   UNL     1      45.430 131.285  16.623  1.00  0.00     0.364 C 
ATOM     30  C   UNL     1      46.072 132.338  15.713  1.00  0.00     0.098 C 
BRANCH  29  31
ATOM     31  N   UNL     1      44.771 130.267  15.802  1.00  0.00     0.026 N 
ATOM     32  O   UNL     1      44.211 130.578  14.729  1.00  0.00    -0.264 OA
ATOM     33  O   UNL     1      44.846 128.942  16.164  1.00  0.00    -0.264 OA
ENDBRANCH  29  31
ENDBRANCH  27  29
ENDBRANCH  26  27
ENDBRANCH   1  26
TORSDOF 9
ENDMDL
MODEL 2
REMARK VINA RESULT:      -2.2      1.642      7.366
REMARK SMILES Cc1ccc(-c2ccc([N-]C(=O)c3cccc(C)c3)c(C(=O)O[C@H](C)[C@H](C)[N+](=O)[O-])c2)cc1
REMARK SMILES IDX 21 1 22 2 20 3 6 4 7 5 31 6 8 7 9 8 5 9 2 10 3 11 33 12 4 13
REMARK SMILES IDX 32 14 1 15 10 16 11 17 12 18 13 19 14 20 19 21 15 22 17 23
REMARK SMILES IDX 16 24 18 25 23 26 24 27 25 28 26 29 27 30 28 31 29 32 30 33
REMARK H PARENT
ROOT
ATOM      1  C   UNL     1      45.818 131.164  19.139  1.00  0.00     0.337 C 
ATOM      2  O   UNL     1      46.436 130.167  18.678  1.00  0.00    -0.246 OA
ENDROOT
BRANCH   1   3
ATOM      3  C   UNL     1      45.502 131.251  20.582  1.00  0.00     0.046 A 
ATOM      4  C   UNL     1      44.193 130.391  22.464  1.00  0.00    -0.018 A 
ATOM      5  C   UNL     1      44.671 131.441  23.263  1.00  0.00     0.007 A 
ATOM      6  C   UNL     1      44.611 130.308  21.125  1.00  0.00     0.023 A 
ATOM      7  C   UNL     1      45.569 132.372  22.742  1.00  0.00    -0.014 A 
ATOM      8  C   UNL     1      46.021 132.271  21.422  1.00  0.00    -0.119 A 
BRANCH   4   9
ATOM      9  C   UNL     1      43.246 129.392  23.023  1.00  0.00    -0.018 A 
ATOM     10  C   UNL     1      41.455 127.498  24.096  1.00  0.00    -0.051 A 
ATOM     11  C   UNL     1      41.106 128.855  24.051  1.00  0.00     0.004 A 
ATOM     12  C   UNL     1      42.691 127.088  23.579  1.00  0.00     0.004 A 
ATOM     13  C   UNL     1      41.996 129.796  23.525  1.00  0.00     0.009 A 
ATOM     14  C   UNL     1      43.583 128.027  23.054  1.00  0.00     0.009 A 
ATOM     15  C   UNL     1      40.482 126.486  24.624  1.00  0.00     0.044 C 
ENDBRANCH   4   9
BRANCH   8  16
ATOM     16  N   UNL     1      47.021 133.203  20.986  1.00  0.00    -0.622 NA
BRANCH  16  17
ATOM     17  C   UNL     1      47.416 134.409  21.658  1.00  0.00     0.085 C 
ATOM     18  O   UNL     1      46.734 135.451  21.465  1.00  0.00    -0.315 OA
BRANCH  17  19
ATOM     19  C   UNL     1      48.585 134.472  22.569  1.00  0.00    -0.000 A 
ATOM     20  C   UNL     1      48.675 133.637  23.697  1.00  0.00     0.010 A 
ATOM     21  C   UNL     1      49.605 135.409  22.331  1.00  0.00     0.013 A 
ATOM     22  C   UNL     1      49.778 133.718  24.550  1.00  0.00     0.001 A 
ATOM     23  C   UNL     1      50.715 135.493  23.186  1.00  0.00    -0.050 A 
ATOM     24  C   UNL     1      50.793 134.644  24.300  1.00  0.00     0.003 A 
ATOM     25  C   UNL     1      51.771 136.531  22.947  1.00  0.00     0.044 C 
ENDBRANCH  17  19
ENDBRANCH  16  17
ENDBRANCH   8  16
ENDBRANCH   1   3
BRANCH   1  26
ATOM     26  O   UNL     1      45.455 132.222  18.294  1.00  0.00    -0.452 OA
BRANCH  26  27
ATOM     27  C   UNL     1      44.787 132.051  17.043  1.00  0.00     0.247 C 
ATOM     28  C   UNL     1      43.450 131.332  17.271  1.00  0.00     0.061 C 
BRANCH  27  29
ATOM     29  C   UNL     1      45.697 131.237  16.094  1.00  0.00     0.364 C 
ATOM     30  C   UNL     1      46.516 132.153  15.177  1.00  0.00     0.098 C 
BRANCH  29  31
ATOM     31  N   UNL     1      44.909 130.309  15.281  1.00  0.00     0.026 N 
ATOM     32  O   UNL     1      44.178 130.733  14.360  1.00  0.00    -0.264 OA
ATOM     33  O   UNL     1      45.042 128.953  15.466  1.00  0.00    -0.264 OA
ENDBRANCH  29  31
ENDBRANCH  27  29
ENDBRANCH  26  27
ENDBRANCH   1  26
TORSDOF 9
ENDMDL


