REMARK SMILES O=C1NC[C@H](/C(O)=[N+]2/CCC[C@H](c3ccc4cc(F)ccc4n3)[C@@H]2F)N1
REMARK SMILES IDX 8 1 9 2 10 3 11 4 12 5 24 6 25 7 6 8 7 9 5 11 26 12 4 13
REMARK SMILES IDX 2 14 3 15 1 17 13 19 23 20 14 21 22 22 15 23 21 24 16 25
REMARK SMILES IDX 20 26 17 27 18 28 19 29
REMARK H PARENT 7 10 26 16 3 18
ROOT
ATOM      1  N   UNL     1      -1.988  -1.272   0.979  1.00  0.00    -0.168 N 
ATOM      2  C   UNL     1      -2.825  -2.339   0.384  1.00  0.00     0.357 C 
ATOM      3  C   UNL     1      -2.899  -2.187  -1.138  1.00  0.00     0.074 C 
ATOM      4  C   UNL     1      -1.497  -2.142  -1.746  1.00  0.00     0.026 C 
ATOM      5  C   UNL     1      -0.684  -1.000  -1.113  1.00  0.00     0.142 C 
ATOM      6  C   UNL     1      -0.622  -1.139   0.422  1.00  0.00     0.454 C 
ATOM      7  F   UNL     1       0.126  -2.246   0.790  1.00  0.00    -0.174 F 
ENDROOT
BRANCH   1   8
ATOM      8  C   UNL     1      -2.420  -0.584   2.021  1.00  0.00     0.361 C 
BRANCH   8   9
ATOM      9  O   UNL     1      -3.750  -0.730   2.436  1.00  0.00    -0.462 OA
ATOM     10  H   UNL     1      -4.165  -0.172   3.171  1.00  0.00     0.299 HD
ENDBRANCH   8   9
BRANCH   8  11
ATOM     11  C   UNL     1      -1.536   0.407   2.771  1.00  0.00     0.240 C 
ATOM     12  N   UNL     1      -2.051   0.672   4.111  1.00  0.00    -0.321 N 
ATOM     13  C   UNL     1      -1.499   1.793   2.060  1.00  0.00     0.158 C 
ATOM     14  C   UNL     1      -2.284   2.055   4.222  1.00  0.00     0.315 C 
ATOM     15  N   UNL     1      -1.979   2.757   3.041  1.00  0.00    -0.335 N 
ATOM     16  H   UNL     1      -2.164  -0.030   4.877  1.00  0.00     0.166 HD
ATOM     17  O   UNL     1      -2.716   2.607   5.268  1.00  0.00    -0.249 OA
ATOM     18  H   UNL     1      -2.071   3.787   2.897  1.00  0.00     0.165 HD
ENDBRANCH   8  11
ENDBRANCH   1   8
BRANCH   5  19
ATOM     19  C   UNL     1       0.695  -0.872  -1.725  1.00  0.00     0.054 A 
ATOM     20  N   UNL     1       1.086   0.340  -2.211  1.00  0.00    -0.252 NA
ATOM     21  C   UNL     1       1.591  -1.956  -1.777  1.00  0.00     0.025 A 
ATOM     22  C   UNL     1       2.314   0.540  -2.759  1.00  0.00     0.071 A 
ATOM     23  C   UNL     1       2.859  -1.780  -2.335  1.00  0.00     0.012 A 
ATOM     24  C   UNL     1       2.669   1.802  -3.248  1.00  0.00     0.032 A 
ATOM     25  C   UNL     1       3.235  -0.528  -2.833  1.00  0.00     0.003 A 
ATOM     26  C   UNL     1       3.933   2.005  -3.810  1.00  0.00     0.041 A 
ATOM     27  C   UNL     1       4.501  -0.317  -3.399  1.00  0.00     0.049 A 
ATOM     28  C   UNL     1       4.847   0.948  -3.886  1.00  0.00     0.123 A 
ATOM     29  F   UNL     1       6.071   1.151  -4.432  1.00  0.00    -0.207 F 
ENDBRANCH   5  19
TORSDOF 4


