MODEL 1
REMARK VINA RESULT:      -9.6      0.000      0.000
REMARK SMILES O=Cc1c(NC2CC(=O)C2)ccc2cc3ccccc3cc12
REMARK SMILES IDX 3 1 4 2 11 3 12 4 13 5 14 6 15 7 16 8 17 9 18 10 19 11 20 12
REMARK SMILES IDX 21 13 22 14 2 15 1 16 5 17 6 19 7 20 10 21 8 22 9 23
REMARK H PARENT 5 18
ROOT
ATOM      1  C   UNL     1      43.353 131.737  19.562  1.00  0.00     0.045 A 
ATOM      2  C   UNL     1      43.788 131.476  20.887  1.00  0.00     0.046 A 
ATOM      3  C   UNL     1      45.045 130.909  21.114  1.00  0.00     0.027 A 
ATOM      4  C   UNL     1      45.865 130.551  20.051  1.00  0.00     0.011 A 
ATOM      5  C   UNL     1      45.454 130.769  18.732  1.00  0.00    -0.017 A 
ATOM      6  C   UNL     1      46.299 130.400  17.675  1.00  0.00     0.017 A 
ATOM      7  C   UNL     1      45.923 130.636  16.349  1.00  0.00    -0.018 A 
ATOM      8  C   UNL     1      46.770 130.267  15.290  1.00  0.00     0.009 A 
ATOM      9  C   UNL     1      46.389 130.515  13.969  1.00  0.00     0.001 A 
ATOM     10  C   UNL     1      45.167 131.131  13.693  1.00  0.00     0.001 A 
ATOM     11  C   UNL     1      44.316 131.503  14.739  1.00  0.00     0.009 A 
ATOM     12  C   UNL     1      44.686 131.258  16.072  1.00  0.00    -0.018 A 
ATOM     13  C   UNL     1      43.837 131.627  17.126  1.00  0.00     0.018 A 
ATOM     14  C   UNL     1      44.195 131.376  18.470  1.00  0.00    -0.005 A 
ENDROOT
BRANCH   1  15
ATOM     15  C   UNL     1      42.045 132.401  19.335  1.00  0.00     0.262 C 
ATOM     16  O   UNL     1      41.660 133.344  20.076  1.00  0.00    -0.298 OA
ENDBRANCH   1  15
BRANCH   2  17
ATOM     17  N   UNL     1      42.954 131.751  22.021  1.00  0.00    -0.381 N 
ATOM     18  H   UNL     1      42.317 132.578  21.959  1.00  0.00     0.160 HD
BRANCH  17  19
ATOM     19  C   UNL     1      43.327 131.265  23.354  1.00  0.00     0.094 C 
ATOM     20  C   UNL     1      43.737 129.823  23.351  1.00  0.00     0.100 C 
ATOM     21  C   UNL     1      42.136 130.845  24.162  1.00  0.00     0.100 C 
ATOM     22  C   UNL     1      42.537 129.379  24.168  1.00  0.00     0.137 C 
ATOM     23  O   UNL     1      42.099 128.335  24.620  1.00  0.00    -0.300 OA
ENDBRANCH  17  19
ENDBRANCH   2  17
TORSDOF 3
ENDMDL
MODEL 2
REMARK VINA RESULT:      -9.3      1.453      2.496
REMARK SMILES O=Cc1c(NC2CC(=O)C2)ccc2cc3ccccc3cc12
REMARK SMILES IDX 3 1 4 2 11 3 12 4 13 5 14 6 15 7 16 8 17 9 18 10 19 11 20 12
REMARK SMILES IDX 21 13 22 14 2 15 1 16 5 17 6 19 7 20 10 21 8 22 9 23
REMARK H PARENT 5 18
ROOT
ATOM      1  C   UNL     1      44.602 131.270  20.216  1.00  0.00     0.045 A 
ATOM      2  C   UNL     1      43.484 131.800  20.910  1.00  0.00     0.046 A 
ATOM      3  C   UNL     1      42.373 132.263  20.200  1.00  0.00     0.027 A 
ATOM      4  C   UNL     1      42.364 132.257  18.810  1.00  0.00     0.011 A 
ATOM      5  C   UNL     1      43.462 131.768  18.096  1.00  0.00    -0.017 A 
ATOM      6  C   UNL     1      43.430 131.771  16.693  1.00  0.00     0.017 A 
ATOM      7  C   UNL     1      44.504 131.259  15.957  1.00  0.00    -0.018 A 
ATOM      8  C   UNL     1      44.472 131.261  14.553  1.00  0.00     0.009 A 
ATOM      9  C   UNL     1      45.546 130.740  13.826  1.00  0.00     0.001 A 
ATOM     10  C   UNL     1      46.655 130.213  14.491  1.00  0.00     0.001 A 
ATOM     11  C   UNL     1      46.697 130.205  15.889  1.00  0.00     0.009 A 
ATOM     12  C   UNL     1      45.626 130.728  16.632  1.00  0.00    -0.018 A 
ATOM     13  C   UNL     1      45.662 130.724  18.033  1.00  0.00     0.018 A 
ATOM     14  C   UNL     1      44.593 131.257  18.790  1.00  0.00    -0.005 A 
ENDROOT
BRANCH   1  15
ATOM     15  C   UNL     1      45.749 130.719  20.980  1.00  0.00     0.262 C 
ATOM     16  O   UNL     1      45.771 129.509  21.332  1.00  0.00    -0.298 OA
ENDBRANCH   1  15
BRANCH   2  17
ATOM     17  N   UNL     1      43.465 131.905  22.340  1.00  0.00    -0.381 N 
ATOM     18  H   UNL     1      44.322 132.288  22.803  1.00  0.00     0.160 HD
BRANCH  17  19
ATOM     19  C   UNL     1      42.566 131.064  23.137  1.00  0.00     0.094 C 
ATOM     20  C   UNL     1      43.156 130.677  24.459  1.00  0.00     0.100 C 
ATOM     21  C   UNL     1      42.655 129.616  22.760  1.00  0.00     0.100 C 
ATOM     22  C   UNL     1      43.254 129.206  24.094  1.00  0.00     0.137 C 
ATOM     23  O   UNL     1      43.634 128.176  24.625  1.00  0.00    -0.300 OA
ENDBRANCH  17  19
ENDBRANCH   2  17
TORSDOF 3
ENDMDL
MODEL 3
REMARK VINA RESULT:      -8.9      1.377      2.399
REMARK SMILES O=Cc1c(NC2CC(=O)C2)ccc2cc3ccccc3cc12
REMARK SMILES IDX 3 1 4 2 11 3 12 4 13 5 14 6 15 7 16 8 17 9 18 10 19 11 20 12
REMARK SMILES IDX 21 13 22 14 2 15 1 16 5 17 6 19 7 20 10 21 8 22 9 23
REMARK H PARENT 5 18
ROOT
ATOM      1  C   UNL     1      44.729 131.640  20.237  1.00  0.00     0.045 A 
ATOM      2  C   UNL     1      43.592 131.932  21.035  1.00  0.00     0.046 A 
ATOM      3  C   UNL     1      42.339 132.096  20.438  1.00  0.00     0.027 A 
ATOM      4  C   UNL     1      42.194 132.022  19.058  1.00  0.00     0.011 A 
ATOM      5  C   UNL     1      43.300 131.764  18.241  1.00  0.00    -0.017 A 
ATOM      6  C   UNL     1      43.129 131.694  16.850  1.00  0.00     0.017 A 
ATOM      7  C   UNL     1      44.214 131.407  16.015  1.00  0.00    -0.018 A 
ATOM      8  C   UNL     1      44.043 131.336  14.622  1.00  0.00     0.009 A 
ATOM      9  C   UNL     1      45.131 131.040  13.797  1.00  0.00     0.001 A 
ATOM     10  C   UNL     1      46.392 130.812  14.350  1.00  0.00     0.001 A 
ATOM     11  C   UNL     1      46.574 130.879  15.735  1.00  0.00     0.009 A 
ATOM     12  C   UNL     1      45.489 131.178  16.577  1.00  0.00    -0.018 A 
ATOM     13  C   UNL     1      45.664 131.248  17.967  1.00  0.00     0.018 A 
ATOM     14  C   UNL     1      44.581 131.558  18.821  1.00  0.00    -0.005 A 
ENDROOT
BRANCH   1  15
ATOM     15  C   UNL     1      46.042 131.401  20.886  1.00  0.00     0.262 C 
ATOM     16  O   UNL     1      46.719 132.358  21.348  1.00  0.00    -0.298 OA
ENDBRANCH   1  15
BRANCH   2  17
ATOM     17  N   UNL     1      43.692 132.097  22.456  1.00  0.00    -0.381 N 
ATOM     18  H   UNL     1      43.996 133.034  22.809  1.00  0.00     0.160 HD
BRANCH  17  19
ATOM     19  C   UNL     1      43.882 130.934  23.329  1.00  0.00     0.094 C 
ATOM     20  C   UNL     1      43.221 129.698  22.799  1.00  0.00     0.100 C 
ATOM     21  C   UNL     1      42.888 130.893  24.450  1.00  0.00     0.100 C 
ATOM     22  C   UNL     1      42.205 129.641  23.927  1.00  0.00     0.137 C 
ATOM     23  O   UNL     1      41.277 128.924  24.259  1.00  0.00    -0.300 OA
ENDBRANCH  17  19
ENDBRANCH   2  17
TORSDOF 3
ENDMDL
MODEL 4
REMARK VINA RESULT:      -7.5      2.630      7.008
REMARK SMILES O=Cc1c(NC2CC(=O)C2)ccc2cc3ccccc3cc12
REMARK SMILES IDX 3 1 4 2 11 3 12 4 13 5 14 6 15 7 16 8 17 9 18 10 19 11 20 12
REMARK SMILES IDX 21 13 22 14 2 15 1 16 5 17 6 19 7 20 10 21 8 22 9 23
REMARK H PARENT 5 18
ROOT
ATOM      1  C   UNL     1      43.554 131.690  18.178  1.00  0.00     0.045 A 
ATOM      2  C   UNL     1      44.592 131.414  17.251  1.00  0.00     0.046 A 
ATOM      3  C   UNL     1      45.808 130.889  17.695  1.00  0.00     0.027 A 
ATOM      4  C   UNL     1      46.038 130.674  19.048  1.00  0.00     0.011 A 
ATOM      5  C   UNL     1      45.046 130.963  19.991  1.00  0.00    -0.017 A 
ATOM      6  C   UNL     1      45.301 130.737  21.352  1.00  0.00     0.017 A 
ATOM      7  C   UNL     1      44.314 130.989  22.311  1.00  0.00    -0.018 A 
ATOM      8  C   UNL     1      44.568 130.763  23.674  1.00  0.00     0.009 A 
ATOM      9  C   UNL     1      43.573 131.009  24.623  1.00  0.00     0.001 A 
ATOM     10  C   UNL     1      42.321 131.481  24.223  1.00  0.00     0.001 A 
ATOM     11  C   UNL     1      42.056 131.709  22.869  1.00  0.00     0.009 A 
ATOM     12  C   UNL     1      43.049 131.468  21.904  1.00  0.00    -0.018 A 
ATOM     13  C   UNL     1      42.791 131.696  20.545  1.00  0.00     0.018 A 
ATOM     14  C   UNL     1      43.786 131.465  19.567  1.00  0.00    -0.005 A 
ENDROOT
BRANCH   1  15
ATOM     15  C   UNL     1      42.243 132.184  17.690  1.00  0.00     0.262 C 
ATOM     16  O   UNL     1      41.533 132.946  18.399  1.00  0.00    -0.298 OA
ENDBRANCH   1  15
BRANCH   2  17
ATOM     17  N   UNL     1      44.443 131.688  15.851  1.00  0.00    -0.381 N 
ATOM     18  H   UNL     1      43.854 132.510  15.583  1.00  0.00     0.160 HD
BRANCH  17  19
ATOM     19  C   UNL     1      44.636 130.625  14.860  1.00  0.00     0.094 C 
ATOM     20  C   UNL     1      45.474 129.495  15.379  1.00  0.00     0.100 C 
ATOM     21  C   UNL     1      45.761 130.923  13.914  1.00  0.00     0.100 C 
ATOM     22  C   UNL     1      46.623 129.783  14.429  1.00  0.00     0.137 C 
ATOM     23  O   UNL     1      47.724 129.316  14.189  1.00  0.00    -0.300 OA
ENDBRANCH  17  19
ENDBRANCH   2  17
TORSDOF 3
ENDMDL
MODEL 5
REMARK VINA RESULT:      -7.0      3.007      7.631
REMARK SMILES O=Cc1c(NC2CC(=O)C2)ccc2cc3ccccc3cc12
REMARK SMILES IDX 3 1 4 2 11 3 12 4 13 5 14 6 15 7 16 8 17 9 18 10 19 11 20 12
REMARK SMILES IDX 21 13 22 14 2 15 1 16 5 17 6 19 7 20 10 21 8 22 9 23
REMARK H PARENT 5 18
ROOT
ATOM      1  C   UNL     1      44.749 130.820  18.508  1.00  0.00     0.045 A 
ATOM      2  C   UNL     1      44.055 131.101  17.303  1.00  0.00     0.046 A 
ATOM      3  C   UNL     1      42.828 131.769  17.338  1.00  0.00     0.027 A 
ATOM      4  C   UNL     1      42.248 132.125  18.550  1.00  0.00     0.011 A 
ATOM      5  C   UNL     1      42.893 131.837  19.757  1.00  0.00    -0.017 A 
ATOM      6  C   UNL     1      42.287 132.206  20.968  1.00  0.00     0.017 A 
ATOM      7  C   UNL     1      42.927 131.956  22.187  1.00  0.00    -0.018 A 
ATOM      8  C   UNL     1      42.321 132.327  23.399  1.00  0.00     0.009 A 
ATOM      9  C   UNL     1      42.971 132.081  24.612  1.00  0.00     0.001 A 
ATOM     10  C   UNL     1      44.226 131.468  24.625  1.00  0.00     0.001 A 
ATOM     11  C   UNL     1      44.838 131.095  23.424  1.00  0.00     0.009 A 
ATOM     12  C   UNL     1      44.195 131.334  22.198  1.00  0.00    -0.018 A 
ATOM     13  C   UNL     1      44.802 130.962  20.990  1.00  0.00     0.018 A 
ATOM     14  C   UNL     1      44.158 131.190  19.752  1.00  0.00    -0.005 A 
ENDROOT
BRANCH   1  15
ATOM     15  C   UNL     1      46.083 130.171  18.456  1.00  0.00     0.262 C 
ATOM     16  O   UNL     1      46.599 129.842  17.354  1.00  0.00    -0.298 OA
ENDBRANCH   1  15
BRANCH   2  17
ATOM     17  N   UNL     1      44.565 130.690  16.027  1.00  0.00    -0.381 N 
ATOM     18  H   UNL     1      44.951 129.720  15.955  1.00  0.00     0.160 HD
BRANCH  17  19
ATOM     19  C   UNL     1      45.013 131.686  15.048  1.00  0.00     0.094 C 
ATOM     20  C   UNL     1      45.430 131.071  13.746  1.00  0.00     0.100 C 
ATOM     21  C   UNL     1      46.450 132.069  15.240  1.00  0.00     0.100 C 
ATOM     22  C   UNL     1      46.890 131.450  13.924  1.00  0.00     0.137 C 
ATOM     23  O   UNL     1      47.930 131.321  13.300  1.00  0.00    -0.300 OA
ENDBRANCH  17  19
ENDBRANCH   2  17
TORSDOF 3
ENDMDL


