REMARK SMILES Cc1cc(F)ncc1-c1ccc2c(C)n[nH]c2c1
REMARK SMILES IDX 9 1 10 2 11 3 12 4 13 5 14 6 15 7 16 8 17 9 18 10 8 12 2 13
REMARK SMILES IDX 3 14 4 15 7 16 6 17 1 18 5 19
REMARK H PARENT 16 11
ROOT
ATOM      1  C   UNL     1       0.180  -0.423   1.131  1.00  0.00    -0.014 A 
ATOM      2  C   UNL     1      -0.401  -0.203  -0.147  1.00  0.00     0.009 A 
ATOM      3  C   UNL     1       0.029   0.864  -0.959  1.00  0.00     0.013 A 
ATOM      4  C   UNL     1       1.033   1.688  -0.458  1.00  0.00     0.023 A 
ATOM      5  C   UNL     1       1.671   2.802  -0.963  1.00  0.00     0.067 A 
ATOM      6  C   UNL     1       1.403   3.470  -2.271  1.00  0.00     0.069 C 
ATOM      7  N   UNL     1       2.563   3.247  -0.045  1.00  0.00    -0.180 NA
ATOM      8  N   UNL     1       2.509   2.439   1.009  1.00  0.00    -0.278 N 
ATOM      9  C   UNL     1       1.587   1.491   0.773  1.00  0.00     0.066 A 
ATOM     10  C   UNL     1       1.187   0.449   1.605  1.00  0.00     0.037 A 
ATOM     11  H   UNL     1       3.090   2.548   1.869  1.00  0.00     0.190 HD
ENDROOT
BRANCH   1  12
ATOM     12  C   UNL     1      -0.296  -1.543   1.974  1.00  0.00     0.003 A 
ATOM     13  C   UNL     1       0.570  -2.565   2.435  1.00  0.00    -0.037 A 
ATOM     14  C   UNL     1       0.054  -3.570   3.268  1.00  0.00     0.064 A 
ATOM     15  C   UNL     1      -1.302  -3.570   3.598  1.00  0.00     0.213 A 
ATOM     16  C   UNL     1      -1.654  -1.599   2.326  1.00  0.00     0.123 A 
ATOM     17  N   UNL     1      -2.119  -2.597   3.121  1.00  0.00    -0.228 NA
ATOM     18  C   UNL     1       2.031  -2.598   2.071  1.00  0.00     0.045 C 
ATOM     19  F   UNL     1      -1.806  -4.544   4.393  1.00  0.00    -0.185 F 
ENDBRANCH   1  12
TORSDOF 1


