REMARK SMILES C#Cc1c[nH+]cc(Nc2cc(C)cc(-n3nc4ccccc4n3)c2N=[N+]=[N-])c1
REMARK SMILES IDX 9 1 10 2 11 3 12 4 13 5 14 6 24 7 8 8 7 10 3 11 28 12 4 13
REMARK SMILES IDX 5 14 6 15 2 17 1 18 25 19 26 20 27 21 15 22 16 23 23 24
REMARK SMILES IDX 17 25 22 26 18 27 21 28 19 29 20 30
REMARK H PARENT 8 9 5 16
ROOT
ATOM      1  C   UNL     1       0.441  -1.977  -0.122  1.00  0.00     0.051 A 
ATOM      2  C   UNL     1       1.168  -2.793  -0.995  1.00  0.00     0.030 A 
ATOM      3  C   UNL     1       1.192  -2.527  -2.366  1.00  0.00    -0.047 A 
ATOM      4  C   UNL     1       1.961  -3.421  -3.294  1.00  0.00     0.044 C 
ATOM      5  C   UNL     1       0.451  -1.456  -2.873  1.00  0.00     0.034 A 
ATOM      6  C   UNL     1      -0.319  -0.638  -2.026  1.00  0.00     0.098 A 
ATOM      7  C   UNL     1      -0.344  -0.911  -0.634  1.00  0.00     0.089 A 
ENDROOT
BRANCH   1   8
ATOM      8  N   UNL     1       0.550  -2.230   1.286  1.00  0.00    -0.350 N 
ATOM      9  H   UNL     1       0.282  -3.182   1.625  1.00  0.00     0.167 HD
BRANCH   8  10
ATOM     10  C   UNL     1       1.196  -1.330   2.207  1.00  0.00     0.105 A 
ATOM     11  C   UNL     1       1.777  -0.737   4.487  1.00  0.00     0.090 A 
ATOM     12  C   UNL     1       1.157  -1.602   3.581  1.00  0.00     0.056 A 
ATOM     13  C   UNL     1       2.439   0.396   4.005  1.00  0.00     0.323 A 
ATOM     14  N   UNL     1       2.478   0.647   2.669  1.00  0.00    -0.215 N 
ATOM     15  C   UNL     1       1.880  -0.181   1.769  1.00  0.00     0.332 A 
ATOM     16  H   UNL     1       2.981   1.495   2.325  1.00  0.00     0.453 HD
BRANCH  11  17
ATOM     17  C   UNL     1       1.733  -1.009   5.900  1.00  0.00    -0.064 C 
ATOM     18  C   UNL     1       1.697  -1.237   7.083  1.00  0.00     0.010 C 
ENDBRANCH  11  17
ENDBRANCH   8  10
ENDBRANCH   1   8
BRANCH   7  19
ATOM     19  N   UNL     1      -1.154  -0.089   0.225  1.00  0.00    -0.056 NA
BRANCH  19  20
ATOM     20  N   UNL     1      -1.614  -0.485   1.297  1.00  0.00     0.006 N 
ATOM     21  N   UNL     1      -2.080  -0.876   2.366  1.00  0.00    -0.003 NA
ENDBRANCH  19  20
ENDBRANCH   7  19
BRANCH   6  22
ATOM     22  N   UNL     1      -1.078   0.446  -2.604  1.00  0.00    -0.150 N 
ATOM     23  N   UNL     1      -0.826   0.950  -3.813  1.00  0.00    -0.148 NA
ATOM     24  N   UNL     1      -2.119   1.034  -2.014  1.00  0.00    -0.148 NA
ATOM     25  C   UNL     1      -1.747   1.907  -3.991  1.00  0.00     0.113 A 
ATOM     26  C   UNL     1      -2.539   1.959  -2.888  1.00  0.00     0.113 A 
ATOM     27  C   UNL     1      -1.938   2.749  -5.083  1.00  0.00     0.032 A 
ATOM     28  C   UNL     1      -3.596   2.857  -2.774  1.00  0.00     0.032 A 
ATOM     29  C   UNL     1      -2.997   3.675  -5.007  1.00  0.00     0.002 A 
ATOM     30  C   UNL     1      -3.823   3.729  -3.858  1.00  0.00     0.002 A 
ENDBRANCH   6  22
TORSDOF 6


