MODEL 1
REMARK VINA RESULT:      -4.5      0.000      0.000
REMARK SMILES Cc1cc(N)c(N[C@H]2CC[C@@H](C)N(c3cnc(CC#N)n3C)[C@@H]2F)cc1F
REMARK SMILES IDX 8 1 9 2 10 3 11 4 12 5 13 6 23 7 24 8 7 9 6 11 2 12 3 13
REMARK SMILES IDX 26 14 4 15 25 16 1 17 27 18 5 19 14 22 15 23 21 24 16 25
REMARK SMILES IDX 17 26 22 27 18 28 19 29 20 30
REMARK H PARENT 7 10 5 20 5 21
ROOT
ATOM      1  C   UNL     1      44.242 129.368  22.726  1.00  0.00     0.134 C 
ATOM      2  C   UNL     1      44.169 130.621  23.615  1.00  0.00     0.032 C 
ATOM      3  C   UNL     1      43.725 131.842  22.804  1.00  0.00     0.027 C 
ATOM      4  C   UNL     1      44.635 132.094  21.589  1.00  0.00     0.083 C 
ATOM      5  C   UNL     1      45.978 132.719  21.989  1.00  0.00     0.031 C 
ATOM      6  N   UNL     1      44.856 130.849  20.837  1.00  0.00    -0.322 N 
ATOM      7  C   UNL     1      45.204 129.606  21.546  1.00  0.00     0.286 C 
ATOM      8  F   UNL     1      45.132 128.527  20.677  1.00  0.00    -0.221 F 
ENDROOT
BRANCH   1   9
ATOM      9  N   UNL     1      44.687 128.214  23.521  1.00  0.00    -0.376 N 
ATOM     10  H   UNL     1      45.423 128.354  24.250  1.00  0.00     0.161 HD
BRANCH   9  11
ATOM     11  C   UNL     1      44.197 126.877  23.312  1.00  0.00     0.061 A 
ATOM     12  C   UNL     1      43.245 124.242  22.998  1.00  0.00    -0.013 A 
ATOM     13  C   UNL     1      44.566 124.564  22.654  1.00  0.00     0.034 A 
ATOM     14  C   UNL     1      42.396 125.248  23.480  1.00  0.00     0.128 A 
ATOM     15  C   UNL     1      45.051 125.872  22.807  1.00  0.00     0.055 A 
ATOM     16  C   UNL     1      42.871 126.551  23.643  1.00  0.00     0.067 A 
ATOM     17  C   UNL     1      42.727 122.847  22.801  1.00  0.00     0.047 C 
ATOM     18  F   UNL     1      41.109 124.965  23.804  1.00  0.00    -0.207 F 
BRANCH  15  19
ATOM     19  N   UNL     1      46.393 126.168  22.402  1.00  0.00    -0.397 N 
ATOM     20  H   UNL     1      47.079 125.398  22.234  1.00  0.00     0.156 HD
ATOM     21  H   UNL     1      46.709 127.142  22.202  1.00  0.00     0.156 HD
ENDBRANCH  15  19
ENDBRANCH   9  11
ENDBRANCH   1   9
BRANCH   6  22
ATOM     22  C   UNL     1      44.964 130.923  19.406  1.00  0.00     0.131 A 
ATOM     23  C   UNL     1      46.049 130.511  18.668  1.00  0.00     0.158 A 
ATOM     24  N   UNL     1      44.019 131.401  18.574  1.00  0.00    -0.317 N 
ATOM     25  N   UNL     1      45.808 130.751  17.363  1.00  0.00    -0.238 NA
ATOM     26  C   UNL     1      44.574 131.305  17.342  1.00  0.00     0.124 A 
ATOM     27  C   UNL     1      42.699 131.923  18.925  1.00  0.00     0.153 C 
BRANCH  26  28
ATOM     28  C   UNL     1      43.895 131.705  16.067  1.00  0.00     0.195 C 
BRANCH  28  29
ATOM     29  C   UNL     1      44.714 131.309  14.919  1.00  0.00     0.070 C 
ATOM     30  N   UNL     1      45.362 130.997  14.012  1.00  0.00    -0.198 NA
ENDBRANCH  28  29
ENDBRANCH  26  28
ENDBRANCH   6  22
TORSDOF 6
ENDMDL
MODEL 2
REMARK VINA RESULT:      -4.3      2.289      7.074
REMARK SMILES Cc1cc(N)c(N[C@H]2CC[C@@H](C)N(c3cnc(CC#N)n3C)[C@@H]2F)cc1F
REMARK SMILES IDX 8 1 9 2 10 3 11 4 12 5 13 6 23 7 24 8 7 9 6 11 2 12 3 13
REMARK SMILES IDX 26 14 4 15 25 16 1 17 27 18 5 19 14 22 15 23 21 24 16 25
REMARK SMILES IDX 17 26 22 27 18 28 19 29 20 30
REMARK H PARENT 7 10 5 20 5 21
ROOT
ATOM      1  C   UNL     1      44.275 131.557  21.326  1.00  0.00     0.134 C 
ATOM      2  C   UNL     1      44.600 132.612  22.396  1.00  0.00     0.032 C 
ATOM      3  C   UNL     1      44.760 131.963  23.775  1.00  0.00     0.027 C 
ATOM      4  C   UNL     1      43.519 131.148  24.180  1.00  0.00     0.083 C 
ATOM      5  C   UNL     1      42.354 132.044  24.622  1.00  0.00     0.031 C 
ATOM      6  N   UNL     1      43.096 130.266  23.081  1.00  0.00    -0.322 N 
ATOM      7  C   UNL     1      42.997 130.786  21.707  1.00  0.00     0.286 C 
ATOM      8  F   UNL     1      42.814 129.741  20.814  1.00  0.00    -0.221 F 
ENDROOT
BRANCH   1   9
ATOM      9  N   UNL     1      44.110 132.204  20.017  1.00  0.00    -0.376 N 
ATOM     10  H   UNL     1      43.644 133.139  19.969  1.00  0.00     0.161 HD
BRANCH   9  11
ATOM     11  C   UNL     1      44.510 131.591  18.778  1.00  0.00     0.061 A 
ATOM     12  C   UNL     1      45.218 130.328  16.359  1.00  0.00    -0.013 A 
ATOM     13  C   UNL     1      45.941 130.067  17.533  1.00  0.00     0.034 A 
ATOM     14  C   UNL     1      44.153 131.237  16.396  1.00  0.00     0.128 A 
ATOM     15  C   UNL     1      45.597 130.690  18.742  1.00  0.00     0.055 A 
ATOM     16  C   UNL     1      43.797 131.856  17.597  1.00  0.00     0.067 A 
ATOM     17  C   UNL     1      45.614 129.681  15.063  1.00  0.00     0.047 C 
ATOM     18  F   UNL     1      43.448 131.519  15.270  1.00  0.00    -0.207 F 
BRANCH  15  19
ATOM     19  N   UNL     1      46.389 130.431  19.908  1.00  0.00    -0.397 N 
ATOM     20  H   UNL     1      46.299 129.524  20.419  1.00  0.00     0.156 HD
ATOM     21  H   UNL     1      47.116 131.099  20.244  1.00  0.00     0.156 HD
ENDBRANCH  15  19
ENDBRANCH   9  11
ENDBRANCH   1   9
BRANCH   6  22
ATOM     22  C   UNL     1      42.554 128.975  23.409  1.00  0.00     0.131 A 
ATOM     23  C   UNL     1      41.265 128.735  23.823  1.00  0.00     0.158 A 
ATOM     24  N   UNL     1      43.227 127.809  23.355  1.00  0.00    -0.317 N 
ATOM     25  N   UNL     1      41.120 127.415  24.060  1.00  0.00    -0.238 NA
ATOM     26  C   UNL     1      42.333 126.884  23.780  1.00  0.00     0.124 A 
ATOM     27  C   UNL     1      44.614 127.594  22.946  1.00  0.00     0.153 C 
BRANCH  26  28
ATOM     28  C   UNL     1      42.609 125.415  23.883  1.00  0.00     0.195 C 
BRANCH  28  29
ATOM     29  C   UNL     1      42.483 124.790  22.564  1.00  0.00     0.070 C 
ATOM     30  N   UNL     1      42.382 124.295  21.523  1.00  0.00    -0.198 NA
ENDBRANCH  28  29
ENDBRANCH  26  28
ENDBRANCH   6  22
TORSDOF 6
ENDMDL
MODEL 3
REMARK VINA RESULT:      -3.6      3.049      7.387
REMARK SMILES Cc1cc(N)c(N[C@H]2CC[C@@H](C)N(c3cnc(CC#N)n3C)[C@@H]2F)cc1F
REMARK SMILES IDX 8 1 9 2 10 3 11 4 12 5 13 6 23 7 24 8 7 9 6 11 2 12 3 13
REMARK SMILES IDX 26 14 4 15 25 16 1 17 27 18 5 19 14 22 15 23 21 24 16 25
REMARK SMILES IDX 17 26 22 27 18 28 19 29 20 30
REMARK H PARENT 7 10 5 20 5 21
ROOT
ATOM      1  C   UNL     1      44.836 128.358  23.694  1.00  0.00     0.134 C 
ATOM      2  C   UNL     1      43.400 128.101  24.183  1.00  0.00     0.032 C 
ATOM      3  C   UNL     1      43.223 126.644  24.621  1.00  0.00     0.027 C 
ATOM      4  C   UNL     1      43.598 125.653  23.505  1.00  0.00     0.083 C 
ATOM      5  C   UNL     1      42.519 125.566  22.418  1.00  0.00     0.031 C 
ATOM      6  N   UNL     1      44.896 126.009  22.909  1.00  0.00    -0.322 N 
ATOM      7  C   UNL     1      45.184 127.404  22.536  1.00  0.00     0.286 C 
ATOM      8  F   UNL     1      46.527 127.544  22.220  1.00  0.00    -0.221 F 
ENDROOT
BRANCH   1   9
ATOM      9  N   UNL     1      44.977 129.756  23.264  1.00  0.00    -0.376 N 
ATOM     10  H   UNL     1      45.286 130.472  23.961  1.00  0.00     0.161 HD
BRANCH   9  11
ATOM     11  C   UNL     1      44.657 130.208  21.936  1.00  0.00     0.061 A 
ATOM     12  C   UNL     1      44.092 131.168  19.345  1.00  0.00    -0.013 A 
ATOM     13  C   UNL     1      43.176 131.363  20.389  1.00  0.00     0.034 A 
ATOM     14  C   UNL     1      45.283 130.473  19.598  1.00  0.00     0.128 A 
ATOM     15  C   UNL     1      43.446 130.890  21.682  1.00  0.00     0.055 A 
ATOM     16  C   UNL     1      45.566 130.005  20.883  1.00  0.00     0.067 A 
ATOM     17  C   UNL     1      43.778 131.650  17.959  1.00  0.00     0.047 C 
ATOM     18  F   UNL     1      46.178 130.257  18.601  1.00  0.00    -0.207 F 
BRANCH  15  19
ATOM     19  N   UNL     1      42.464 131.071  22.710  1.00  0.00    -0.397 N 
ATOM     20  H   UNL     1      41.974 130.247  23.126  1.00  0.00     0.156 HD
ATOM     21  H   UNL     1      42.255 132.008  23.117  1.00  0.00     0.156 HD
ENDBRANCH  15  19
ENDBRANCH   9  11
ENDBRANCH   1   9
BRANCH   6  22
ATOM     22  C   UNL     1      45.766 124.948  22.480  1.00  0.00     0.131 A 
ATOM     23  C   UNL     1      45.468 124.017  21.513  1.00  0.00     0.158 A 
ATOM     24  N   UNL     1      47.004 124.712  22.957  1.00  0.00    -0.317 N 
ATOM     25  N   UNL     1      46.508 123.166  21.390  1.00  0.00    -0.238 NA
ATOM     26  C   UNL     1      47.416 123.607  22.290  1.00  0.00     0.124 A 
ATOM     27  C   UNL     1      47.729 125.468  23.976  1.00  0.00     0.153 C 
BRANCH  26  28
ATOM     28  C   UNL     1      48.755 122.956  22.465  1.00  0.00     0.195 C 
BRANCH  28  29
ATOM     29  C   UNL     1      49.801 123.798  21.881  1.00  0.00     0.070 C 
ATOM     30  N   UNL     1      50.627 124.464  21.419  1.00  0.00    -0.198 NA
ENDBRANCH  28  29
ENDBRANCH  26  28
ENDBRANCH   6  22
TORSDOF 6
ENDMDL
MODEL 4
REMARK VINA RESULT:      -2.9      5.551      8.680
REMARK SMILES Cc1cc(N)c(N[C@H]2CC[C@@H](C)N(c3cnc(CC#N)n3C)[C@@H]2F)cc1F
REMARK SMILES IDX 8 1 9 2 10 3 11 4 12 5 13 6 23 7 24 8 7 9 6 11 2 12 3 13
REMARK SMILES IDX 26 14 4 15 25 16 1 17 27 18 5 19 14 22 15 23 21 24 16 25
REMARK SMILES IDX 17 26 22 27 18 28 19 29 20 30
REMARK H PARENT 7 10 5 20 5 21
ROOT
ATOM      1  C   UNL     1      48.036 123.035  22.958  1.00  0.00     0.134 C 
ATOM      2  C   UNL     1      48.839 124.237  23.483  1.00  0.00     0.032 C 
ATOM      3  C   UNL     1      48.089 124.943  24.617  1.00  0.00     0.027 C 
ATOM      4  C   UNL     1      46.676 125.382  24.192  1.00  0.00     0.083 C 
ATOM      5  C   UNL     1      46.700 126.626  23.293  1.00  0.00     0.031 C 
ATOM      6  N   UNL     1      45.969 124.281  23.520  1.00  0.00    -0.322 N 
ATOM      7  C   UNL     1      46.645 123.492  22.476  1.00  0.00     0.286 C 
ATOM      8  F   UNL     1      45.886 122.376  22.157  1.00  0.00    -0.221 F 
ENDROOT
BRANCH   1   9
ATOM      9  N   UNL     1      48.766 122.385  21.861  1.00  0.00    -0.376 N 
ATOM     10  H   UNL     1      48.419 121.469  21.493  1.00  0.00     0.161 HD
BRANCH   9  11
ATOM     11  C   UNL     1      49.978 122.917  21.296  1.00  0.00     0.061 A 
ATOM     12  C   UNL     1      52.353 124.028  20.258  1.00  0.00    -0.013 A 
ATOM     13  C   UNL     1      51.127 124.247  19.613  1.00  0.00     0.034 A 
ATOM     14  C   UNL     1      52.389 123.235  21.413  1.00  0.00     0.128 A 
ATOM     15  C   UNL     1      49.939 123.699  20.121  1.00  0.00     0.055 A 
ATOM     16  C   UNL     1      51.212 122.692  21.932  1.00  0.00     0.067 A 
ATOM     17  C   UNL     1      53.622 124.593  19.690  1.00  0.00     0.047 C 
ATOM     18  F   UNL     1      53.566 122.996  22.047  1.00  0.00    -0.207 F 
BRANCH  15  19
ATOM     19  N   UNL     1      48.714 123.909  19.407  1.00  0.00    -0.397 N 
ATOM     20  H   UNL     1      48.636 123.645  18.399  1.00  0.00     0.156 HD
ATOM     21  H   UNL     1      47.854 124.266  19.876  1.00  0.00     0.156 HD
ENDBRANCH  15  19
ENDBRANCH   9  11
ENDBRANCH   1   9
BRANCH   6  22
ATOM     22  C   UNL     1      44.552 124.150  23.726  1.00  0.00     0.131 A 
ATOM     23  C   UNL     1      43.954 123.295  24.621  1.00  0.00     0.158 A 
ATOM     24  N   UNL     1      43.601 124.849  23.077  1.00  0.00    -0.317 N 
ATOM     25  N   UNL     1      42.616 123.427  24.525  1.00  0.00    -0.238 NA
ATOM     26  C   UNL     1      42.434 124.367  23.570  1.00  0.00     0.124 A 
ATOM     27  C   UNL     1      43.786 125.880  22.058  1.00  0.00     0.153 C 
BRANCH  26  28
ATOM     28  C   UNL     1      41.074 124.847  23.163  1.00  0.00     0.195 C 
BRANCH  28  29
ATOM     29  C   UNL     1      40.902 126.248  23.551  1.00  0.00     0.070 C 
ATOM     30  N   UNL     1      40.766 127.356  23.858  1.00  0.00    -0.198 NA
ENDBRANCH  28  29
ENDBRANCH  26  28
ENDBRANCH   6  22
TORSDOF 6
ENDMDL
MODEL 5
REMARK VINA RESULT:      -2.9      2.066      2.924
REMARK SMILES Cc1cc(N)c(N[C@H]2CC[C@@H](C)N(c3cnc(CC#N)n3C)[C@@H]2F)cc1F
REMARK SMILES IDX 8 1 9 2 10 3 11 4 12 5 13 6 23 7 24 8 7 9 6 11 2 12 3 13
REMARK SMILES IDX 26 14 4 15 25 16 1 17 27 18 5 19 14 22 15 23 21 24 16 25
REMARK SMILES IDX 17 26 22 27 18 28 19 29 20 30
REMARK H PARENT 7 10 5 20 5 21
ROOT
ATOM      1  C   UNL     1      43.252 131.440  22.554  1.00  0.00     0.134 C 
ATOM      2  C   UNL     1      44.671 131.757  23.055  1.00  0.00     0.032 C 
ATOM      3  C   UNL     1      45.422 132.637  22.051  1.00  0.00     0.027 C 
ATOM      4  C   UNL     1      45.474 132.003  20.650  1.00  0.00     0.083 C 
ATOM      5  C   UNL     1      46.493 130.858  20.567  1.00  0.00     0.031 C 
ATOM      6  N   UNL     1      44.142 131.531  20.243  1.00  0.00    -0.322 N 
ATOM      7  C   UNL     1      43.314 130.750  21.178  1.00  0.00     0.286 C 
ATOM      8  F   UNL     1      42.027 130.618  20.678  1.00  0.00    -0.221 F 
ENDROOT
BRANCH   1   9
ATOM      9  N   UNL     1      42.557 130.583  23.524  1.00  0.00    -0.376 N 
ATOM     10  H   UNL     1      41.894 131.020  24.204  1.00  0.00     0.161 HD
BRANCH   9  11
ATOM     11  C   UNL     1      42.783 129.165  23.627  1.00  0.00     0.061 A 
ATOM     12  C   UNL     1      43.231 126.383  23.733  1.00  0.00    -0.013 A 
ATOM     13  C   UNL     1      41.945 126.903  23.944  1.00  0.00     0.034 A 
ATOM     14  C   UNL     1      44.295 127.262  23.488  1.00  0.00     0.128 A 
ATOM     15  C   UNL     1      41.711 128.285  23.894  1.00  0.00     0.055 A 
ATOM     16  C   UNL     1      44.071 128.639  23.428  1.00  0.00     0.067 A 
ATOM     17  C   UNL     1      43.476 124.905  23.819  1.00  0.00     0.047 C 
ATOM     18  F   UNL     1      45.551 126.784  23.296  1.00  0.00    -0.207 F 
BRANCH  15  19
ATOM     19  N   UNL     1      40.391 128.778  24.159  1.00  0.00    -0.397 N 
ATOM     20  H   UNL     1      40.184 129.286  25.048  1.00  0.00     0.156 HD
ATOM     21  H   UNL     1      39.622 128.705  23.459  1.00  0.00     0.156 HD
ENDBRANCH  15  19
ENDBRANCH   9  11
ENDBRANCH   1   9
BRANCH   6  22
ATOM     22  C   UNL     1      43.771 131.634  18.858  1.00  0.00     0.131 A 
ATOM     23  C   UNL     1      42.637 132.249  18.382  1.00  0.00     0.158 A 
ATOM     24  N   UNL     1      44.482 131.151  17.821  1.00  0.00    -0.317 N 
ATOM     25  N   UNL     1      42.608 132.134  17.039  1.00  0.00    -0.238 NA
ATOM     26  C   UNL     1      43.734 131.450  16.731  1.00  0.00     0.124 A 
ATOM     27  C   UNL     1      45.762 130.446  17.864  1.00  0.00     0.153 C 
BRANCH  26  28
ATOM     28  C   UNL     1      44.117 131.125  15.319  1.00  0.00     0.195 C 
BRANCH  28  29
ATOM     29  C   UNL     1      45.460 131.636  15.035  1.00  0.00     0.070 C 
ATOM     30  N   UNL     1      46.521 132.040  14.812  1.00  0.00    -0.198 NA
ENDBRANCH  28  29
ENDBRANCH  26  28
ENDBRANCH   6  22
TORSDOF 6
ENDMDL
MODEL 6
REMARK VINA RESULT:      -2.9      1.357      2.153
REMARK SMILES Cc1cc(N)c(N[C@H]2CC[C@@H](C)N(c3cnc(CC#N)n3C)[C@@H]2F)cc1F
REMARK SMILES IDX 8 1 9 2 10 3 11 4 12 5 13 6 23 7 24 8 7 9 6 11 2 12 3 13
REMARK SMILES IDX 26 14 4 15 25 16 1 17 27 18 5 19 14 22 15 23 21 24 16 25
REMARK SMILES IDX 17 26 22 27 18 28 19 29 20 30
REMARK H PARENT 7 10 5 20 5 21
ROOT
ATOM      1  C   UNL     1      44.076 128.927  22.986  1.00  0.00     0.134 C 
ATOM      2  C   UNL     1      43.968 129.904  24.168  1.00  0.00     0.032 C 
ATOM      3  C   UNL     1      43.291 131.210  23.739  1.00  0.00     0.027 C 
ATOM      4  C   UNL     1      44.012 131.875  22.554  1.00  0.00     0.083 C 
ATOM      5  C   UNL     1      45.313 132.568  22.980  1.00  0.00     0.031 C 
ATOM      6  N   UNL     1      44.282 130.893  21.492  1.00  0.00    -0.322 N 
ATOM      7  C   UNL     1      44.854 129.577  21.826  1.00  0.00     0.286 C 
ATOM      8  F   UNL     1      44.802 128.741  20.721  1.00  0.00    -0.221 F 
ENDROOT
BRANCH   1   9
ATOM      9  N   UNL     1      44.743 127.690  23.418  1.00  0.00    -0.376 N 
ATOM     10  H   UNL     1      45.715 127.746  23.802  1.00  0.00     0.161 HD
BRANCH   9  11
ATOM     11  C   UNL     1      44.148 126.387  23.288  1.00  0.00     0.061 A 
ATOM     12  C   UNL     1      42.958 123.853  22.943  1.00  0.00    -0.013 A 
ATOM     13  C   UNL     1      42.283 124.864  23.644  1.00  0.00     0.034 A 
ATOM     14  C   UNL     1      44.238 124.110  22.432  1.00  0.00     0.128 A 
ATOM     15  C   UNL     1      42.866 126.128  23.822  1.00  0.00     0.055 A 
ATOM     16  C   UNL     1      44.823 125.367  22.597  1.00  0.00     0.067 A 
ATOM     17  C   UNL     1      42.340 122.495  22.785  1.00  0.00     0.047 C 
ATOM     18  F   UNL     1      44.918 123.143  21.764  1.00  0.00    -0.207 F 
BRANCH  15  19
ATOM     19  N   UNL     1      42.162 127.118  24.583  1.00  0.00    -0.397 N 
ATOM     20  H   UNL     1      41.435 127.717  24.130  1.00  0.00     0.156 HD
ATOM     21  H   UNL     1      42.301 127.228  25.611  1.00  0.00     0.156 HD
ENDBRANCH  15  19
ENDBRANCH   9  11
ENDBRANCH   1   9
BRANCH   6  22
ATOM     22  C   UNL     1      44.207 131.325  20.123  1.00  0.00     0.131 A 
ATOM     23  C   UNL     1      43.136 131.968  19.550  1.00  0.00     0.158 A 
ATOM     24  N   UNL     1      45.177 131.170  19.201  1.00  0.00    -0.317 N 
ATOM     25  N   UNL     1      43.409 132.201  18.250  1.00  0.00    -0.238 NA
ATOM     26  C   UNL     1      44.649 131.692  18.067  1.00  0.00     0.124 A 
ATOM     27  C   UNL     1      46.493 130.561  19.380  1.00  0.00     0.153 C 
BRANCH  26  28
ATOM     28  C   UNL     1      45.362 131.766  16.751  1.00  0.00     0.195 C 
BRANCH  28  29
ATOM     29  C   UNL     1      44.390 131.739  15.655  1.00  0.00     0.070 C 
ATOM     30  N   UNL     1      43.622 131.718  14.790  1.00  0.00    -0.198 NA
ENDBRANCH  28  29
ENDBRANCH  26  28
ENDBRANCH   6  22
TORSDOF 6
ENDMDL
MODEL 7
REMARK VINA RESULT:      -2.6      1.967      2.513
REMARK SMILES Cc1cc(N)c(N[C@H]2CC[C@@H](C)N(c3cnc(CC#N)n3C)[C@@H]2F)cc1F
REMARK SMILES IDX 8 1 9 2 10 3 11 4 12 5 13 6 23 7 24 8 7 9 6 11 2 12 3 13
REMARK SMILES IDX 26 14 4 15 25 16 1 17 27 18 5 19 14 22 15 23 21 24 16 25
REMARK SMILES IDX 17 26 22 27 18 28 19 29 20 30
REMARK H PARENT 7 10 5 20 5 21
ROOT
ATOM      1  C   UNL     1      43.574 130.471  21.603  1.00  0.00     0.134 C 
ATOM      2  C   UNL     1      43.061 131.908  21.795  1.00  0.00     0.032 C 
ATOM      3  C   UNL     1      42.743 132.561  20.446  1.00  0.00     0.027 C 
ATOM      4  C   UNL     1      43.951 132.542  19.493  1.00  0.00     0.083 C 
ATOM      5  C   UNL     1      45.005 133.592  19.870  1.00  0.00     0.031 C 
ATOM      6  N   UNL     1      44.559 131.203  19.450  1.00  0.00    -0.322 N 
ATOM      7  C   UNL     1      44.821 130.466  20.698  1.00  0.00     0.286 C 
ATOM      8  F   UNL     1      45.170 129.155  20.412  1.00  0.00    -0.221 F 
ENDROOT
BRANCH   1   9
ATOM      9  N   UNL     1      43.888 129.872  22.908  1.00  0.00    -0.376 N 
ATOM     10  H   UNL     1      44.022 130.499  23.734  1.00  0.00     0.161 HD
BRANCH   9  11
ATOM     11  C   UNL     1      44.078 128.459  23.101  1.00  0.00     0.061 A 
ATOM     12  C   UNL     1      44.413 125.674  23.393  1.00  0.00    -0.013 A 
ATOM     13  C   UNL     1      43.360 126.334  24.044  1.00  0.00     0.034 A 
ATOM     14  C   UNL     1      45.309 126.417  22.611  1.00  0.00     0.128 A 
ATOM     15  C   UNL     1      43.184 127.719  23.907  1.00  0.00     0.055 A 
ATOM     16  C   UNL     1      45.138 127.795  22.460  1.00  0.00     0.067 A 
ATOM     17  C   UNL     1      44.611 124.197  23.572  1.00  0.00     0.047 C 
ATOM     18  F   UNL     1      46.345 125.804  21.983  1.00  0.00    -0.207 F 
BRANCH  15  19
ATOM     19  N   UNL     1      42.123 128.361  24.625  1.00  0.00    -0.397 N 
ATOM     20  H   UNL     1      41.158 127.962  24.613  1.00  0.00     0.156 HD
ATOM     21  H   UNL     1      42.288 129.196  25.227  1.00  0.00     0.156 HD
ENDBRANCH  15  19
ENDBRANCH   9  11
ENDBRANCH   1   9
BRANCH   6  22
ATOM     22  C   UNL     1      45.106 130.739  18.205  1.00  0.00     0.131 A 
ATOM     23  C   UNL     1      46.257 129.999  18.068  1.00  0.00     0.158 A 
ATOM     24  N   UNL     1      44.571 130.954  16.987  1.00  0.00    -0.317 N 
ATOM     25  N   UNL     1      46.473 129.763  16.758  1.00  0.00    -0.238 NA
ATOM     26  C   UNL     1      45.440 130.368  16.129  1.00  0.00     0.124 A 
ATOM     27  C   UNL     1      43.339 131.673  16.666  1.00  0.00     0.153 C 
BRANCH  26  28
ATOM     28  C   UNL     1      45.270 130.327  14.640  1.00  0.00     0.195 C 
BRANCH  28  29
ATOM     29  C   UNL     1      46.480 130.830  13.986  1.00  0.00     0.070 C 
ATOM     30  N   UNL     1      47.436 131.228  13.469  1.00  0.00    -0.198 NA
ENDBRANCH  28  29
ENDBRANCH  26  28
ENDBRANCH   6  22
TORSDOF 6
ENDMDL
MODEL 8
REMARK VINA RESULT:      -2.0      2.521      7.401
REMARK SMILES Cc1cc(N)c(N[C@H]2CC[C@@H](C)N(c3cnc(CC#N)n3C)[C@@H]2F)cc1F
REMARK SMILES IDX 8 1 9 2 10 3 11 4 12 5 13 6 23 7 24 8 7 9 6 11 2 12 3 13
REMARK SMILES IDX 26 14 4 15 25 16 1 17 27 18 5 19 14 22 15 23 21 24 16 25
REMARK SMILES IDX 17 26 22 27 18 28 19 29 20 30
REMARK H PARENT 7 10 5 20 5 21
ROOT
ATOM      1  C   UNL     1      44.630 131.748  20.404  1.00  0.00     0.134 C 
ATOM      2  C   UNL     1      45.532 132.737  21.161  1.00  0.00     0.032 C 
ATOM      3  C   UNL     1      45.919 132.183  22.535  1.00  0.00     0.027 C 
ATOM      4  C   UNL     1      44.686 131.821  23.383  1.00  0.00     0.083 C 
ATOM      5  C   UNL     1      43.994 133.062  23.962  1.00  0.00     0.031 C 
ATOM      6  N   UNL     1      43.731 131.024  22.597  1.00  0.00    -0.322 N 
ATOM      7  C   UNL     1      43.367 131.437  21.231  1.00  0.00     0.286 C 
ATOM      8  F   UNL     1      42.651 130.429  20.604  1.00  0.00    -0.221 F 
ENDROOT
BRANCH   1   9
ATOM      9  N   UNL     1      44.258 132.307  19.097  1.00  0.00    -0.376 N 
ATOM     10  H   UNL     1      43.714 133.199  19.063  1.00  0.00     0.161 HD
BRANCH   9  11
ATOM     11  C   UNL     1      44.559 131.658  17.848  1.00  0.00     0.061 A 
ATOM     12  C   UNL     1      45.068 130.333  15.411  1.00  0.00    -0.013 A 
ATOM     13  C   UNL     1      45.805 130.011  16.561  1.00  0.00     0.034 A 
ATOM     14  C   UNL     1      44.089 131.333  15.481  1.00  0.00     0.128 A 
ATOM     15  C   UNL     1      45.560 130.664  17.778  1.00  0.00     0.055 A 
ATOM     16  C   UNL     1      43.832 131.984  16.690  1.00  0.00     0.067 A 
ATOM     17  C   UNL     1      45.359 129.650  14.107  1.00  0.00     0.047 C 
ATOM     18  F   UNL     1      43.374 131.674  14.379  1.00  0.00    -0.207 F 
BRANCH  15  19
ATOM     19  N   UNL     1      46.366 130.337  18.918  1.00  0.00    -0.397 N 
ATOM     20  H   UNL     1      46.294 130.899  19.796  1.00  0.00     0.156 HD
ATOM     21  H   UNL     1      46.992 129.503  18.933  1.00  0.00     0.156 HD
ENDBRANCH  15  19
ENDBRANCH   9  11
ENDBRANCH   1   9
BRANCH   6  22
ATOM     22  C   UNL     1      42.988 129.991  23.265  1.00  0.00     0.131 A 
ATOM     23  C   UNL     1      41.800 130.171  23.934  1.00  0.00     0.158 A 
ATOM     24  N   UNL     1      43.341 128.692  23.331  1.00  0.00    -0.317 N 
ATOM     25  N   UNL     1      41.406 128.990  24.452  1.00  0.00    -0.238 NA
ATOM     26  C   UNL     1      42.370 128.117  24.080  1.00  0.00     0.124 A 
ATOM     27  C   UNL     1      44.516 128.054  22.741  1.00  0.00     0.153 C 
BRANCH  26  28
ATOM     28  C   UNL     1      42.311 126.660  24.426  1.00  0.00     0.195 C 
BRANCH  28  29
ATOM     29  C   UNL     1      41.023 126.100  24.010  1.00  0.00     0.070 C 
ATOM     30  N   UNL     1      40.006 125.658  23.680  1.00  0.00    -0.198 NA
ENDBRANCH  28  29
ENDBRANCH  26  28
ENDBRANCH   6  22
TORSDOF 6
ENDMDL
MODEL 9
REMARK VINA RESULT:      -1.7      3.999      7.130
REMARK SMILES Cc1cc(N)c(N[C@H]2CC[C@@H](C)N(c3cnc(CC#N)n3C)[C@@H]2F)cc1F
REMARK SMILES IDX 8 1 9 2 10 3 11 4 12 5 13 6 23 7 24 8 7 9 6 11 2 12 3 13
REMARK SMILES IDX 26 14 4 15 25 16 1 17 27 18 5 19 14 22 15 23 21 24 16 25
REMARK SMILES IDX 17 26 22 27 18 28 19 29 20 30
REMARK H PARENT 7 10 5 20 5 21
ROOT
ATOM      1  C   UNL     1      45.943 132.591  22.818  1.00  0.00     0.134 C 
ATOM      2  C   UNL     1      44.833 132.013  23.712  1.00  0.00     0.032 C 
ATOM      3  C   UNL     1      44.292 130.701  23.134  1.00  0.00     0.027 C 
ATOM      4  C   UNL     1      43.790 130.867  21.689  1.00  0.00     0.083 C 
ATOM      5  C   UNL     1      42.431 131.576  21.624  1.00  0.00     0.031 C 
ATOM      6  N   UNL     1      44.780 131.587  20.874  1.00  0.00    -0.322 N 
ATOM      7  C   UNL     1      45.415 132.813  21.388  1.00  0.00     0.286 C 
ATOM      8  F   UNL     1      46.470 133.183  20.567  1.00  0.00    -0.221 F 
ENDROOT
BRANCH   1   9
ATOM      9  N   UNL     1      46.433 133.856  23.383  1.00  0.00    -0.376 N 
ATOM     10  H   UNL     1      45.873 134.330  24.128  1.00  0.00     0.161 HD
BRANCH   9  11
ATOM     11  C   UNL     1      47.628 134.514  22.923  1.00  0.00     0.061 A 
ATOM     12  C   UNL     1      49.970 135.744  21.946  1.00  0.00    -0.013 A 
ATOM     13  C   UNL     1      50.039 134.833  23.010  1.00  0.00     0.034 A 
ATOM     14  C   UNL     1      48.722 136.052  21.386  1.00  0.00     0.128 A 
ATOM     15  C   UNL     1      48.880 134.215  23.504  1.00  0.00     0.055 A 
ATOM     16  C   UNL     1      47.564 135.436  21.865  1.00  0.00     0.067 A 
ATOM     17  C   UNL     1      51.211 136.423  21.445  1.00  0.00     0.047 C 
ATOM     18  F   UNL     1      48.627 136.943  20.366  1.00  0.00    -0.207 F 
BRANCH  15  19
ATOM     19  N   UNL     1      48.989 133.324  24.622  1.00  0.00    -0.397 N 
ATOM     20  H   UNL     1      49.033 133.699  25.596  1.00  0.00     0.156 HD
ATOM     21  H   UNL     1      48.963 132.287  24.508  1.00  0.00     0.156 HD
ENDBRANCH  15  19
ENDBRANCH   9  11
ENDBRANCH   1   9
BRANCH   6  22
ATOM     22  C   UNL     1      44.933 131.215  19.494  1.00  0.00     0.131 A 
ATOM     23  C   UNL     1      45.957 130.452  18.984  1.00  0.00     0.158 A 
ATOM     24  N   UNL     1      44.093 131.553  18.496  1.00  0.00    -0.317 N 
ATOM     25  N   UNL     1      45.786 130.325  17.652  1.00  0.00    -0.238 NA
ATOM     26  C   UNL     1      44.654 131.016  17.386  1.00  0.00     0.124 A 
ATOM     27  C   UNL     1      42.863 132.337  18.589  1.00  0.00     0.153 C 
BRANCH  26  28
ATOM     28  C   UNL     1      44.076 131.110  16.007  1.00  0.00     0.195 C 
BRANCH  28  29
ATOM     29  C   UNL     1      45.143 131.352  15.033  1.00  0.00     0.070 C 
ATOM     30  N   UNL     1      45.985 131.544  14.264  1.00  0.00    -0.198 NA
ENDBRANCH  28  29
ENDBRANCH  26  28
ENDBRANCH   6  22
TORSDOF 6
ENDMDL


