REMARK SMILES [H]/N=c1/c([NH2+]c2ccc3c(c2)nnn3C)cccn1C(=S)Nc1ccccc1
REMARK SMILES IDX 3 1 4 2 16 3 17 4 18 5 19 6 2 7 1 8 5 9 6 12 7 13 11 14 8 15
REMARK SMILES IDX 10 16 9 17 12 18 14 19 13 20 15 21 20 22 22 23 21 24 23 26
REMARK SMILES IDX 24 27 28 28 25 29 27 30 26 31
REMARK H PARENT 5 10 5 11 22 25
ROOT
ATOM      1  C   UNL     1       0.307   1.139   0.127  1.00  0.00     0.194 A 
ATOM      2  C   UNL     1      -0.349   0.613   1.267  1.00  0.00     0.177 A 
ATOM      3  C   UNL     1       0.416   0.303   2.401  1.00  0.00     0.074 A 
ATOM      4  C   UNL     1       1.789   0.516   2.401  1.00  0.00     0.025 A 
ATOM      5  C   UNL     1       2.402   1.042   1.268  1.00  0.00     0.096 A 
ATOM      6  N   UNL     1       1.670   1.351   0.157  1.00  0.00    -0.274 N 
ENDROOT
BRANCH   1   7
ATOM      7  N   UNL     1      -0.393   1.401  -0.938  1.00  0.00    -0.279 NA
ATOM      8  H   UNL     1       0.001   1.775  -1.829  1.00  0.00     0.190 HD
ENDBRANCH   1   7
BRANCH   2   9
ATOM      9  N   UNL     1      -1.771   0.349   1.268  1.00  0.00    -0.278 N 
ATOM     10  H   UNL     1      -2.148   0.406   2.244  1.00  0.00     0.358 HD
ATOM     11  H   UNL     1      -2.280   1.077   0.716  1.00  0.00     0.358 HD
BRANCH   9  12
ATOM     12  C   UNL     1      -2.026  -0.967   0.736  1.00  0.00     0.137 A 
ATOM     13  C   UNL     1      -2.418  -1.130  -0.624  1.00  0.00     0.070 A 
ATOM     14  C   UNL     1      -1.864  -2.111   1.558  1.00  0.00     0.100 A 
ATOM     15  C   UNL     1      -2.646  -2.412  -1.162  1.00  0.00     0.036 A 
ATOM     16  C   UNL     1      -2.100  -3.357   0.988  1.00  0.00     0.119 A 
ATOM     17  C   UNL     1      -2.474  -3.499  -0.311  1.00  0.00     0.089 A 
ATOM     18  N   UNL     1      -2.003  -4.575   1.551  1.00  0.00    -0.130 NA
ATOM     19  N   UNL     1      -2.613  -4.812  -0.542  1.00  0.00    -0.248 N 
ATOM     20  N   UNL     1      -2.320  -5.443   0.591  1.00  0.00    -0.066 NA
ATOM     21  C   UNL     1      -2.966  -5.468  -1.794  1.00  0.00     0.176 C 
ENDBRANCH   9  12
ENDBRANCH   2   9
BRANCH   6  22
ATOM     22  C   UNL     1       2.377   1.913  -0.959  1.00  0.00     0.183 C 
ATOM     23  N   UNL     1       2.191   3.301  -1.283  1.00  0.00    -0.332 N 
ATOM     24  S   UNL     1       3.163   0.900  -1.987  1.00  0.00    -0.040 S 
ATOM     25  H   UNL     1       1.356   3.784  -0.880  1.00  0.00     0.169 HD
BRANCH  23  26
ATOM     26  C   UNL     1       3.062   4.066  -2.133  1.00  0.00     0.040 A 
ATOM     27  C   UNL     1       2.520   5.070  -2.950  1.00  0.00     0.026 A 
ATOM     28  C   UNL     1       4.456   3.878  -2.109  1.00  0.00     0.026 A 
ATOM     29  C   UNL     1       3.352   5.846  -3.763  1.00  0.00     0.002 A 
ATOM     30  C   UNL     1       5.285   4.657  -2.922  1.00  0.00     0.002 A 
ATOM     31  C   UNL     1       4.734   5.636  -3.752  1.00  0.00     0.000 A 
ENDBRANCH  23  26
ENDBRANCH   6  22
TORSDOF 5


