MODEL 1
REMARK VINA RESULT:      -7.0      0.000      0.000
REMARK SMILES Cc1ccc(-c2ccc([O-])cc2)c2cn(C(=O)[N-]c3ccc(N(C)C)cc3)[nH+]c12
REMARK SMILES IDX 16 1 17 2 15 3 2 4 3 5 29 6 4 7 28 8 13 9 5 10 14 11 1 12
REMARK SMILES IDX 6 14 7 15 12 16 8 17 11 18 9 19 10 20 18 21 19 22 20 23
REMARK SMILES IDX 27 24 21 25 26 26 22 27 23 28 24 29 25 30
REMARK H PARENT 28 13
ROOT
ATOM      1  C   UNL     1      44.373 130.949  21.750  1.00  0.00     0.214 C 
ATOM      2  O   UNL     1      45.410 131.580  22.085  1.00  0.00    -0.293 OA
ENDROOT
BRANCH   1   3
ATOM      3  N   UNL     1      44.042 129.723  22.423  1.00  0.00    -0.203 N 
ATOM      4  C   UNL     1      41.893 127.530  24.158  1.00  0.00     0.022 A 
ATOM      5  C   UNL     1      42.206 126.233  24.621  1.00  0.00     0.011 A 
ATOM      6  C   UNL     1      42.905 128.234  23.499  1.00  0.00     0.221 A 
ATOM      7  C   UNL     1      43.496 125.689  24.432  1.00  0.00     0.010 A 
ATOM      8  N   UNL     1      42.853 129.466  22.958  1.00  0.00    -0.187 N 
ATOM      9  C   UNL     1      44.153 127.700  23.304  1.00  0.00     0.056 A 
ATOM     10  C   UNL     1      44.505 126.429  23.775  1.00  0.00    -0.005 A 
ATOM     11  C   UNL     1      44.854 128.651  22.591  1.00  0.00     0.063 A 
ATOM     12  C   UNL     1      40.529 128.122  24.355  1.00  0.00     0.052 C 
ATOM     13  H   UNL     1      42.037 130.118  22.956  1.00  0.00     0.465 HD
BRANCH  10  14
ATOM     14  C   UNL     1      45.880 125.893  23.636  1.00  0.00    -0.018 A 
ATOM     15  C   UNL     1      46.847 126.152  24.624  1.00  0.00     0.008 A 
ATOM     16  C   UNL     1      46.226 125.100  22.530  1.00  0.00     0.008 A 
ATOM     17  C   UNL     1      48.143 125.644  24.495  1.00  0.00    -0.008 A 
ATOM     18  C   UNL     1      47.524 124.593  22.404  1.00  0.00    -0.008 A 
ATOM     19  C   UNL     1      48.482 124.867  23.384  1.00  0.00    -0.109 A 
ATOM     20  O   UNL     1      49.771 124.363  23.256  1.00  0.00    -0.872 OA
ENDBRANCH  10  14
ENDBRANCH   1   3
BRANCH   1  21
ATOM     21  N   UNL     1      43.527 131.501  20.731  1.00  0.00    -0.396 NA
BRANCH  21  22
ATOM     22  C   UNL     1      43.799 131.485  19.322  1.00  0.00    -0.039 A 
ATOM     23  C   UNL     1      45.097 131.218  18.882  1.00  0.00     0.006 A 
ATOM     24  C   UNL     1      42.791 131.731  18.379  1.00  0.00     0.006 A 
ATOM     25  C   UNL     1      45.406 131.262  17.521  1.00  0.00     0.026 A 
ATOM     26  C   UNL     1      43.094 131.776  17.017  1.00  0.00     0.026 A 
ATOM     27  C   UNL     1      44.414 131.560  16.562  1.00  0.00     0.036 A 
BRANCH  27  28
ATOM     28  N   UNL     1      44.741 131.645  15.149  1.00  0.00    -0.378 N 
ATOM     29  C   UNL     1      46.125 131.877  14.717  1.00  0.00     0.143 C 
ATOM     30  C   UNL     1      43.691 131.522  14.130  1.00  0.00     0.143 C 
ENDBRANCH  27  28
ENDBRANCH  21  22
ENDBRANCH   1  21
TORSDOF 5
ENDMDL
MODEL 2
REMARK VINA RESULT:      -6.5      0.943      1.646
REMARK SMILES Cc1ccc(-c2ccc([O-])cc2)c2cn(C(=O)[N-]c3ccc(N(C)C)cc3)[nH+]c12
REMARK SMILES IDX 16 1 17 2 15 3 2 4 3 5 29 6 4 7 28 8 13 9 5 10 14 11 1 12
REMARK SMILES IDX 6 14 7 15 12 16 8 17 11 18 9 19 10 20 18 21 19 22 20 23
REMARK SMILES IDX 27 24 21 25 26 26 22 27 23 28 24 29 25 30
REMARK H PARENT 28 13
ROOT
ATOM      1  C   UNL     1      44.660 130.736  21.400  1.00  0.00     0.214 C 
ATOM      2  O   UNL     1      43.984 131.791  21.527  1.00  0.00    -0.293 OA
ENDROOT
BRANCH   1   3
ATOM      3  N   UNL     1      44.297 129.568  22.155  1.00  0.00    -0.203 N 
ATOM      4  C   UNL     1      42.117 127.592  24.101  1.00  0.00     0.022 A 
ATOM      5  C   UNL     1      42.384 126.306  24.622  1.00  0.00     0.011 A 
ATOM      6  C   UNL     1      43.134 128.203  23.360  1.00  0.00     0.221 A 
ATOM      7  C   UNL     1      43.634 125.684  24.409  1.00  0.00     0.010 A 
ATOM      8  N   UNL     1      43.121 129.405  22.754  1.00  0.00    -0.187 N 
ATOM      9  C   UNL     1      44.342 127.592  23.143  1.00  0.00     0.056 A 
ATOM     10  C   UNL     1      44.649 126.332  23.668  1.00  0.00    -0.005 A 
ATOM     11  C   UNL     1      45.059 128.463  22.348  1.00  0.00     0.063 A 
ATOM     12  C   UNL     1      40.797 128.267  24.322  1.00  0.00     0.052 C 
ATOM     13  H   UNL     1      42.341 130.099  22.750  1.00  0.00     0.465 HD
BRANCH  10  14
ATOM     14  C   UNL     1      45.986 125.715  23.502  1.00  0.00    -0.018 A 
ATOM     15  C   UNL     1      46.484 125.430  22.218  1.00  0.00     0.008 A 
ATOM     16  C   UNL     1      46.782 125.430  24.623  1.00  0.00     0.008 A 
ATOM     17  C   UNL     1      47.746 124.851  22.061  1.00  0.00    -0.008 A 
ATOM     18  C   UNL     1      48.046 124.851  24.463  1.00  0.00    -0.008 A 
ATOM     19  C   UNL     1      48.526 124.558  23.183  1.00  0.00    -0.109 A 
ATOM     20  O   UNL     1      49.780 123.982  23.027  1.00  0.00    -0.872 OA
ENDBRANCH  10  14
ENDBRANCH   1   3
BRANCH   1  21
ATOM     21  N   UNL     1      45.751 130.721  20.469  1.00  0.00    -0.396 NA
BRANCH  21  22
ATOM     22  C   UNL     1      45.632 130.829  19.043  1.00  0.00    -0.039 A 
ATOM     23  C   UNL     1      45.000 131.948  18.495  1.00  0.00     0.006 A 
ATOM     24  C   UNL     1      46.137 129.839  18.188  1.00  0.00     0.006 A 
ATOM     25  C   UNL     1      44.810 132.049  17.115  1.00  0.00     0.026 A 
ATOM     26  C   UNL     1      45.950 129.935  16.808  1.00  0.00     0.026 A 
ATOM     27  C   UNL     1      45.267 131.035  16.245  1.00  0.00     0.036 A 
BRANCH  27  28
ATOM     28  N   UNL     1      45.035 131.119  14.813  1.00  0.00    -0.378 N 
ATOM     29  C   UNL     1      43.676 131.288  14.286  1.00  0.00     0.143 C 
ATOM     30  C   UNL     1      46.154 131.015  13.868  1.00  0.00     0.143 C 
ENDBRANCH  27  28
ENDBRANCH  21  22
ENDBRANCH   1  21
TORSDOF 5
ENDMDL
MODEL 3
REMARK VINA RESULT:      -6.4      1.295      1.950
REMARK SMILES Cc1ccc(-c2ccc([O-])cc2)c2cn(C(=O)[N-]c3ccc(N(C)C)cc3)[nH+]c12
REMARK SMILES IDX 16 1 17 2 15 3 2 4 3 5 29 6 4 7 28 8 13 9 5 10 14 11 1 12
REMARK SMILES IDX 6 14 7 15 12 16 8 17 11 18 9 19 10 20 18 21 19 22 20 23
REMARK SMILES IDX 27 24 21 25 26 26 22 27 23 28 24 29 25 30
REMARK H PARENT 28 13
ROOT
ATOM      1  C   UNL     1      44.176 130.728  22.929  1.00  0.00     0.214 C 
ATOM      2  O   UNL     1      43.560 131.661  23.508  1.00  0.00    -0.293 OA
ENDROOT
BRANCH   1   3
ATOM      3  N   UNL     1      43.767 129.367  23.148  1.00  0.00    -0.203 N 
ATOM      4  C   UNL     1      41.506 126.849  24.141  1.00  0.00     0.022 A 
ATOM      5  C   UNL     1      41.725 125.454  24.095  1.00  0.00     0.011 A 
ATOM      6  C   UNL     1      42.549 127.672  23.705  1.00  0.00     0.221 A 
ATOM      7  C   UNL     1      42.955 124.929  23.641  1.00  0.00     0.010 A 
ATOM      8  N   UNL     1      42.582 129.016  23.637  1.00  0.00    -0.187 N 
ATOM      9  C   UNL     1      43.738 127.160  23.251  1.00  0.00     0.056 A 
ATOM     10  C   UNL     1      43.997 125.786  23.220  1.00  0.00    -0.005 A 
ATOM     11  C   UNL     1      44.490 128.254  22.873  1.00  0.00     0.063 A 
ATOM     12  C   UNL     1      40.208 127.421  24.624  1.00  0.00     0.052 C 
ATOM     13  H   UNL     1      41.825 129.679  23.919  1.00  0.00     0.465 HD
BRANCH  10  14
ATOM     14  C   UNL     1      45.314 125.244  22.810  1.00  0.00    -0.018 A 
ATOM     15  C   UNL     1      45.409 123.966  22.229  1.00  0.00     0.008 A 
ATOM     16  C   UNL     1      46.480 126.009  22.974  1.00  0.00     0.008 A 
ATOM     17  C   UNL     1      46.651 123.456  21.840  1.00  0.00    -0.008 A 
ATOM     18  C   UNL     1      47.722 125.496  22.583  1.00  0.00    -0.008 A 
ATOM     19  C   UNL     1      47.808 124.220  22.019  1.00  0.00    -0.109 A 
ATOM     20  O   UNL     1      49.042 123.712  21.633  1.00  0.00    -0.872 OA
ENDBRANCH  10  14
ENDBRANCH   1   3
BRANCH   1  21
ATOM     21  N   UNL     1      45.244 131.058  22.030  1.00  0.00    -0.396 NA
BRANCH  21  22
ATOM     22  C   UNL     1      45.150 131.088  20.598  1.00  0.00    -0.039 A 
ATOM     23  C   UNL     1      44.078 131.752  20.000  1.00  0.00     0.006 A 
ATOM     24  C   UNL     1      46.111 130.466  19.788  1.00  0.00     0.006 A 
ATOM     25  C   UNL     1      43.924 131.742  18.612  1.00  0.00     0.026 A 
ATOM     26  C   UNL     1      45.962 130.452  18.400  1.00  0.00     0.026 A 
ATOM     27  C   UNL     1      44.854 131.076  17.785  1.00  0.00     0.036 A 
BRANCH  27  28
ATOM     28  N   UNL     1      44.674 131.030  16.344  1.00  0.00    -0.378 N 
ATOM     29  C   UNL     1      43.600 131.796  15.701  1.00  0.00     0.143 C 
ATOM     30  C   UNL     1      45.551 130.200  15.508  1.00  0.00     0.143 C 
ENDBRANCH  27  28
ENDBRANCH  21  22
ENDBRANCH   1  21
TORSDOF 5
ENDMDL
MODEL 4
REMARK VINA RESULT:      -5.3      2.044      3.236
REMARK SMILES Cc1ccc(-c2ccc([O-])cc2)c2cn(C(=O)[N-]c3ccc(N(C)C)cc3)[nH+]c12
REMARK SMILES IDX 16 1 17 2 15 3 2 4 3 5 29 6 4 7 28 8 13 9 5 10 14 11 1 12
REMARK SMILES IDX 6 14 7 15 12 16 8 17 11 18 9 19 10 20 18 21 19 22 20 23
REMARK SMILES IDX 27 24 21 25 26 26 22 27 23 28 24 29 25 30
REMARK H PARENT 28 13
ROOT
ATOM      1  C   UNL     1      44.732 131.575  19.166  1.00  0.00     0.214 C 
ATOM      2  O   UNL     1      45.352 132.666  19.077  1.00  0.00    -0.293 OA
ENDROOT
BRANCH   1   3
ATOM      3  N   UNL     1      44.357 131.077  20.462  1.00  0.00    -0.203 N 
ATOM      4  C   UNL     1      42.772 131.276  23.606  1.00  0.00     0.022 A 
ATOM      5  C   UNL     1      42.754 130.278  24.606  1.00  0.00     0.011 A 
ATOM      6  C   UNL     1      43.474 130.989  22.432  1.00  0.00     0.221 A 
ATOM      7  C   UNL     1      43.434 129.054  24.419  1.00  0.00     0.010 A 
ATOM      8  N   UNL     1      43.627 131.759  21.338  1.00  0.00    -0.187 N 
ATOM      9  C   UNL     1      44.122 129.795  22.246  1.00  0.00     0.056 A 
ATOM     10  C   UNL     1      44.148 128.797  23.227  1.00  0.00    -0.005 A 
ATOM     11  C   UNL     1      44.653 129.857  20.973  1.00  0.00     0.063 A 
ATOM     12  C   UNL     1      42.059 132.582  23.792  1.00  0.00     0.052 C 
ATOM     13  H   UNL     1      43.252 132.723  21.190  1.00  0.00     0.465 HD
BRANCH  10  14
ATOM     14  C   UNL     1      44.921 127.544  23.054  1.00  0.00    -0.018 A 
ATOM     15  C   UNL     1      45.853 127.422  22.007  1.00  0.00     0.008 A 
ATOM     16  C   UNL     1      44.751 126.474  23.947  1.00  0.00     0.008 A 
ATOM     17  C   UNL     1      46.584 126.242  21.845  1.00  0.00    -0.008 A 
ATOM     18  C   UNL     1      45.486 125.295  23.783  1.00  0.00    -0.008 A 
ATOM     19  C   UNL     1      46.399 125.177  22.732  1.00  0.00    -0.109 A 
ATOM     20  O   UNL     1      47.126 124.004  22.570  1.00  0.00    -0.872 OA
ENDBRANCH  10  14
ENDBRANCH   1   3
BRANCH   1  21
ATOM     21  N   UNL     1      44.378 130.880  17.962  1.00  0.00    -0.396 NA
BRANCH  21  22
ATOM     22  C   UNL     1      45.195 130.777  16.787  1.00  0.00    -0.039 A 
ATOM     23  C   UNL     1      45.406 129.522  16.213  1.00  0.00     0.006 A 
ATOM     24  C   UNL     1      45.784 131.907  16.203  1.00  0.00     0.006 A 
ATOM     25  C   UNL     1      46.250 129.381  15.109  1.00  0.00     0.026 A 
ATOM     26  C   UNL     1      46.629 131.773  15.099  1.00  0.00     0.026 A 
ATOM     27  C   UNL     1      46.892 130.503  14.541  1.00  0.00     0.036 A 
BRANCH  27  28
ATOM     28  N   UNL     1      47.802 130.353  13.418  1.00  0.00    -0.378 N 
ATOM     29  C   UNL     1      47.796 131.327  12.319  1.00  0.00     0.143 C 
ATOM     30  C   UNL     1      48.727 129.215  13.351  1.00  0.00     0.143 C 
ENDBRANCH  27  28
ENDBRANCH  21  22
ENDBRANCH   1  21
TORSDOF 5
ENDMDL
MODEL 5
REMARK VINA RESULT:      -4.6      1.848      2.742
REMARK SMILES Cc1ccc(-c2ccc([O-])cc2)c2cn(C(=O)[N-]c3ccc(N(C)C)cc3)[nH+]c12
REMARK SMILES IDX 16 1 17 2 15 3 2 4 3 5 29 6 4 7 28 8 13 9 5 10 14 11 1 12
REMARK SMILES IDX 6 14 7 15 12 16 8 17 11 18 9 19 10 20 18 21 19 22 20 23
REMARK SMILES IDX 27 24 21 25 26 26 22 27 23 28 24 29 25 30
REMARK H PARENT 28 13
ROOT
ATOM      1  C   UNL     1      45.098 132.415  20.198  1.00  0.00     0.214 C 
ATOM      2  O   UNL     1      46.063 133.181  20.454  1.00  0.00    -0.293 OA
ENDROOT
BRANCH   1   3
ATOM      3  N   UNL     1      44.556 131.586  21.241  1.00  0.00    -0.203 N 
ATOM      4  C   UNL     1      42.326 130.839  23.870  1.00  0.00     0.022 A 
ATOM      5  C   UNL     1      42.283 129.646  24.625  1.00  0.00     0.011 A 
ATOM      6  C   UNL     1      43.304 130.929  22.874  1.00  0.00     0.221 A 
ATOM      7  C   UNL     1      43.205 128.604  24.384  1.00  0.00     0.010 A 
ATOM      8  N   UNL     1      43.540 131.942  22.020  1.00  0.00    -0.187 N 
ATOM      9  C   UNL     1      44.190 129.910  22.633  1.00  0.00     0.056 A 
ATOM     10  C   UNL     1      44.192 128.727  23.381  1.00  0.00    -0.005 A 
ATOM     11  C   UNL     1      44.960 130.335  21.569  1.00  0.00     0.063 A 
ATOM     12  C   UNL     1      41.358 131.957  24.117  1.00  0.00     0.052 C 
ATOM     13  H   UNL     1      43.031 132.853  21.970  1.00  0.00     0.465 HD
BRANCH  10  14
ATOM     14  C   UNL     1      45.207 127.667  23.171  1.00  0.00    -0.018 A 
ATOM     15  C   UNL     1      45.546 127.254  21.870  1.00  0.00     0.008 A 
ATOM     16  C   UNL     1      45.859 127.080  24.268  1.00  0.00     0.008 A 
ATOM     17  C   UNL     1      46.504 126.255  21.673  1.00  0.00    -0.008 A 
ATOM     18  C   UNL     1      46.818 126.081  24.067  1.00  0.00    -0.008 A 
ATOM     19  C   UNL     1      47.138 125.667  22.771  1.00  0.00    -0.109 A 
ATOM     20  O   UNL     1      48.090 124.674  22.574  1.00  0.00    -0.872 OA
ENDBRANCH  10  14
ENDBRANCH   1   3
BRANCH   1  21
ATOM     21  N   UNL     1      44.539 132.424  18.877  1.00  0.00    -0.396 NA
BRANCH  21  22
ATOM     22  C   UNL     1      45.148 131.856  17.709  1.00  0.00    -0.039 A 
ATOM     23  C   UNL     1      45.444 130.492  17.691  1.00  0.00     0.006 A 
ATOM     24  C   UNL     1      45.451 132.640  16.586  1.00  0.00     0.006 A 
ATOM     25  C   UNL     1      46.097 129.923  16.595  1.00  0.00     0.026 A 
ATOM     26  C   UNL     1      46.103 132.077  15.487  1.00  0.00     0.026 A 
ATOM     27  C   UNL     1      46.455 130.709  15.478  1.00  0.00     0.036 A 
BRANCH  27  28
ATOM     28  N   UNL     1      47.170 130.128  14.354  1.00  0.00    -0.378 N 
ATOM     29  C   UNL     1      47.503 128.699  14.340  1.00  0.00     0.143 C 
ATOM     30  C   UNL     1      47.589 130.965  13.222  1.00  0.00     0.143 C 
ENDBRANCH  27  28
ENDBRANCH  21  22
ENDBRANCH   1  21
TORSDOF 5
ENDMDL
MODEL 6
REMARK VINA RESULT:      -4.5      5.364      8.454
REMARK SMILES Cc1ccc(-c2ccc([O-])cc2)c2cn(C(=O)[N-]c3ccc(N(C)C)cc3)[nH+]c12
REMARK SMILES IDX 16 1 17 2 15 3 2 4 3 5 29 6 4 7 28 8 13 9 5 10 14 11 1 12
REMARK SMILES IDX 6 14 7 15 12 16 8 17 11 18 9 19 10 20 18 21 19 22 20 23
REMARK SMILES IDX 27 24 21 25 26 26 22 27 23 28 24 29 25 30
REMARK H PARENT 28 13
ROOT
ATOM      1  C   UNL     1      47.213 132.761  21.358  1.00  0.00     0.214 C 
ATOM      2  O   UNL     1      48.124 131.899  21.462  1.00  0.00    -0.293 OA
ENDROOT
BRANCH   1   3
ATOM      3  N   UNL     1      46.075 132.492  20.522  1.00  0.00    -0.203 N 
ATOM      4  C   UNL     1      42.624 132.268  19.828  1.00  0.00     0.022 A 
ATOM      5  C   UNL     1      42.033 131.893  18.601  1.00  0.00     0.011 A 
ATOM      6  C   UNL     1      44.021 132.280  19.886  1.00  0.00     0.221 A 
ATOM      7  C   UNL     1      42.833 131.534  17.493  1.00  0.00     0.010 A 
ATOM      8  N   UNL     1      44.813 132.610  20.923  1.00  0.00    -0.187 N 
ATOM      9  C   UNL     1      44.796 131.944  18.806  1.00  0.00     0.056 A 
ATOM     10  C   UNL     1      44.243 131.542  17.585  1.00  0.00    -0.005 A 
ATOM     11  C   UNL     1      46.101 132.114  19.221  1.00  0.00     0.063 A 
ATOM     12  C   UNL     1      41.789 132.647  21.014  1.00  0.00     0.052 C 
ATOM     13  H   UNL     1      44.509 132.902  21.880  1.00  0.00     0.465 HD
BRANCH  10  14
ATOM     14  C   UNL     1      45.086 131.098  16.449  1.00  0.00    -0.018 A 
ATOM     15  C   UNL     1      45.154 129.736  16.103  1.00  0.00     0.008 A 
ATOM     16  C   UNL     1      45.806 132.035  15.689  1.00  0.00     0.008 A 
ATOM     17  C   UNL     1      45.947 129.319  15.031  1.00  0.00    -0.008 A 
ATOM     18  C   UNL     1      46.598 131.613  14.615  1.00  0.00    -0.008 A 
ATOM     19  C   UNL     1      46.671 130.256  14.288  1.00  0.00    -0.109 A 
ATOM     20  O   UNL     1      47.459 129.840  13.222  1.00  0.00    -0.872 OA
ENDBRANCH  10  14
ENDBRANCH   1   3
BRANCH   1  21
ATOM     21  N   UNL     1      47.320 133.975  22.116  1.00  0.00    -0.396 NA
BRANCH  21  22
ATOM     22  C   UNL     1      48.475 134.824  22.174  1.00  0.00    -0.039 A 
ATOM     23  C   UNL     1      49.421 134.619  23.180  1.00  0.00     0.006 A 
ATOM     24  C   UNL     1      48.675 135.853  21.243  1.00  0.00     0.006 A 
ATOM     25  C   UNL     1      50.521 135.471  23.302  1.00  0.00     0.026 A 
ATOM     26  C   UNL     1      49.773 136.708  21.360  1.00  0.00     0.026 A 
ATOM     27  C   UNL     1      50.709 136.544  22.404  1.00  0.00     0.036 A 
BRANCH  27  28
ATOM     28  N   UNL     1      51.831 137.455  22.553  1.00  0.00    -0.378 N 
ATOM     29  C   UNL     1      53.150 136.955  22.958  1.00  0.00     0.143 C 
ATOM     30  C   UNL     1      51.660 138.895  22.320  1.00  0.00     0.143 C 
ENDBRANCH  27  28
ENDBRANCH  21  22
ENDBRANCH   1  21
TORSDOF 5
ENDMDL
MODEL 7
REMARK VINA RESULT:      -4.3      5.398      8.195
REMARK SMILES Cc1ccc(-c2ccc([O-])cc2)c2cn(C(=O)[N-]c3ccc(N(C)C)cc3)[nH+]c12
REMARK SMILES IDX 16 1 17 2 15 3 2 4 3 5 29 6 4 7 28 8 13 9 5 10 14 11 1 12
REMARK SMILES IDX 6 14 7 15 12 16 8 17 11 18 9 19 10 20 18 21 19 22 20 23
REMARK SMILES IDX 27 24 21 25 26 26 22 27 23 28 24 29 25 30
REMARK H PARENT 28 13
ROOT
ATOM      1  C   UNL     1      46.408 132.729  22.040  1.00  0.00     0.214 C 
ATOM      2  O   UNL     1      46.033 132.812  23.238  1.00  0.00    -0.293 OA
ENDROOT
BRANCH   1   3
ATOM      3  N   UNL     1      45.431 132.529  21.004  1.00  0.00    -0.203 N 
ATOM      4  C   UNL     1      42.164 132.525  19.674  1.00  0.00     0.022 A 
ATOM      5  C   UNL     1      41.791 132.182  18.355  1.00  0.00     0.011 A 
ATOM      6  C   UNL     1      43.524 132.447  19.993  1.00  0.00     0.221 A 
ATOM      7  C   UNL     1      42.759 131.764  17.415  1.00  0.00     0.010 A 
ATOM      8  N   UNL     1      44.127 132.732  21.162  1.00  0.00    -0.187 N 
ATOM      9  C   UNL     1      44.464 132.054  19.075  1.00  0.00     0.056 A 
ATOM     10  C   UNL     1      44.125 131.680  17.770  1.00  0.00    -0.005 A 
ATOM     11  C   UNL     1      45.676 132.142  19.728  1.00  0.00     0.063 A 
ATOM     12  C   UNL     1      41.148 132.966  20.685  1.00  0.00     0.052 C 
ATOM     13  H   UNL     1      43.669 133.049  22.046  1.00  0.00     0.465 HD
BRANCH  10  14
ATOM     14  C   UNL     1      45.134 131.175  16.809  1.00  0.00    -0.018 A 
ATOM     15  C   UNL     1      45.658 129.877  16.944  1.00  0.00     0.008 A 
ATOM     16  C   UNL     1      45.562 131.978  15.739  1.00  0.00     0.008 A 
ATOM     17  C   UNL     1      46.608 129.400  16.037  1.00  0.00    -0.008 A 
ATOM     18  C   UNL     1      46.512 131.497  14.832  1.00  0.00    -0.008 A 
ATOM     19  C   UNL     1      47.037 130.210  14.983  1.00  0.00    -0.109 A 
ATOM     20  O   UNL     1      47.983 129.735  14.082  1.00  0.00    -0.872 OA
ENDBRANCH  10  14
ENDBRANCH   1   3
BRANCH   1  21
ATOM     21  N   UNL     1      47.803 132.882  21.739  1.00  0.00    -0.396 NA
BRANCH  21  22
ATOM     22  C   UNL     1      48.592 134.047  22.014  1.00  0.00    -0.039 A 
ATOM     23  C   UNL     1      48.471 135.164  21.184  1.00  0.00     0.006 A 
ATOM     24  C   UNL     1      49.482 134.091  23.097  1.00  0.00     0.006 A 
ATOM     25  C   UNL     1      49.275 136.288  21.387  1.00  0.00     0.026 A 
ATOM     26  C   UNL     1      50.288 135.212  23.305  1.00  0.00     0.026 A 
ATOM     27  C   UNL     1      50.212 136.327  22.442  1.00  0.00     0.036 A 
BRANCH  27  28
ATOM     28  N   UNL     1      51.077 137.479  22.630  1.00  0.00    -0.378 N 
ATOM     29  C   UNL     1      50.906 138.683  21.808  1.00  0.00     0.143 C 
ATOM     30  C   UNL     1      52.151 137.451  23.632  1.00  0.00     0.143 C 
ENDBRANCH  27  28
ENDBRANCH  21  22
ENDBRANCH   1  21
TORSDOF 5
ENDMDL


