MODEL 1
REMARK VINA RESULT:      -9.2      0.000      0.000
REMARK SMILES O/C(=N\[C@H]1Cc2cc(F)ccc2[C@H]1O)C1CCCC1
REMARK SMILES IDX 3 1 2 2 1 3 15 5 16 6 19 7 17 8 18 9 4 10 5 11 13 12 6 13
REMARK SMILES IDX 12 14 7 15 11 16 8 17 10 18 9 19 14 20
REMARK H PARENT 1 4 14 21
ROOT
ATOM      1  N   UNL     1      44.769 131.158  16.520  1.00  0.00    -0.249 NA
ENDROOT
BRANCH   1   2
ATOM      2  C   UNL     1      45.446 131.481  15.458  1.00  0.00     0.184 C 
BRANCH   2   3
ATOM      3  O   UNL     1      46.047 132.738  15.362  1.00  0.00    -0.496 OA
ATOM      4  H   UNL     1      45.496 133.585  15.299  1.00  0.00     0.294 HD
ENDBRANCH   2   3
BRANCH   2   5
ATOM      5  C   UNL     1      45.573 130.495  14.317  1.00  0.00     0.075 C 
ATOM      6  C   UNL     1      46.317 129.235  14.749  1.00  0.00     0.013 C 
ATOM      7  C   UNL     1      46.398 131.065  13.165  1.00  0.00     0.013 C 
ATOM      8  C   UNL     1      47.786 129.477  14.425  1.00  0.00     0.001 C 
ATOM      9  C   UNL     1      47.833 130.596  13.386  1.00  0.00     0.001 C 
ENDBRANCH   2   5
ENDBRANCH   1   2
BRANCH   1  10
ATOM     10  C   UNL     1      44.799 131.909  17.776  1.00  0.00     0.146 C 
ATOM     11  C   UNL     1      43.387 132.022  18.397  1.00  0.00     0.066 C 
ATOM     12  C   UNL     1      45.702 131.216  18.833  1.00  0.00     0.170 C 
ATOM     13  C   UNL     1      43.606 131.704  19.826  1.00  0.00    -0.037 A 
ATOM     14  C   UNL     1      44.883 131.261  20.067  1.00  0.00    -0.014 A 
ATOM     15  C   UNL     1      42.665 131.794  20.855  1.00  0.00     0.043 A 
ATOM     16  C   UNL     1      45.286 130.889  21.353  1.00  0.00     0.010 A 
ATOM     17  C   UNL     1      43.050 131.431  22.155  1.00  0.00     0.123 A 
ATOM     18  C   UNL     1      44.359 130.979  22.403  1.00  0.00     0.039 A 
ATOM     19  F   UNL     1      42.157 131.512  23.172  1.00  0.00    -0.207 F 
BRANCH  12  20
ATOM     20  O   UNL     1      45.965 129.876  18.505  1.00  0.00    -0.386 OA
ATOM     21  H   UNL     1      45.161 129.538  18.033  1.00  0.00     0.211 HD
ENDBRANCH  12  20
ENDBRANCH   1  10
TORSDOF 5
ENDMDL
MODEL 2
REMARK VINA RESULT:      -8.9      0.867      1.292
REMARK SMILES O/C(=N\[C@H]1Cc2cc(F)ccc2[C@H]1O)C1CCCC1
REMARK SMILES IDX 3 1 2 2 1 3 15 5 16 6 19 7 17 8 18 9 4 10 5 11 13 12 6 13
REMARK SMILES IDX 12 14 7 15 11 16 8 17 10 18 9 19 14 20
REMARK H PARENT 1 4 14 21
ROOT
ATOM      1  N   UNL     1      44.365 130.844  16.482  1.00  0.00    -0.249 NA
ENDROOT
BRANCH   1   2
ATOM      2  C   UNL     1      44.989 131.044  15.359  1.00  0.00     0.184 C 
BRANCH   2   3
ATOM      3  O   UNL     1      44.274 131.122  14.162  1.00  0.00    -0.496 OA
ATOM      4  H   UNL     1      44.643 131.609  13.356  1.00  0.00     0.294 HD
ENDBRANCH   2   3
BRANCH   2   5
ATOM      5  C   UNL     1      46.496 131.180  15.349  1.00  0.00     0.075 C 
ATOM      6  C   UNL     1      46.991 131.810  14.050  1.00  0.00     0.013 C 
ATOM      7  C   UNL     1      47.188 129.820  15.415  1.00  0.00     0.013 C 
ATOM      8  C   UNL     1      47.299 130.654  13.107  1.00  0.00     0.001 C 
ATOM      9  C   UNL     1      47.475 129.408  13.974  1.00  0.00     0.001 C 
ENDBRANCH   2   5
ENDBRANCH   1   2
BRANCH   1  10
ATOM     10  C   UNL     1      44.399 131.766  17.619  1.00  0.00     0.146 C 
ATOM     11  C   UNL     1      43.026 131.834  18.328  1.00  0.00     0.066 C 
ATOM     12  C   UNL     1      45.436 131.319  18.686  1.00  0.00     0.170 C 
ATOM     13  C   UNL     1      43.369 131.746  19.765  1.00  0.00    -0.037 A 
ATOM     14  C   UNL     1      44.698 131.464  19.963  1.00  0.00    -0.014 A 
ATOM     15  C   UNL     1      42.493 131.894  20.844  1.00  0.00     0.043 A 
ATOM     16  C   UNL     1      45.221 131.319  21.252  1.00  0.00     0.010 A 
ATOM     17  C   UNL     1      42.998 131.758  22.147  1.00  0.00     0.123 A 
ATOM     18  C   UNL     1      44.360 131.472  22.350  1.00  0.00     0.039 A 
ATOM     19  F   UNL     1      42.169 131.900  23.210  1.00  0.00    -0.207 F 
BRANCH  12  20
ATOM     20  O   UNL     1      45.815 129.977  18.523  1.00  0.00    -0.386 OA
ATOM     21  H   UNL     1      46.807 129.961  18.531  1.00  0.00     0.211 HD
ENDBRANCH  12  20
ENDBRANCH   1  10
TORSDOF 5
ENDMDL
MODEL 3
REMARK VINA RESULT:      -8.9      3.237      6.947
REMARK SMILES O/C(=N\[C@H]1Cc2cc(F)ccc2[C@H]1O)C1CCCC1
REMARK SMILES IDX 3 1 2 2 1 3 15 5 16 6 19 7 17 8 18 9 4 10 5 11 13 12 6 13
REMARK SMILES IDX 12 14 7 15 11 16 8 17 10 18 9 19 14 20
REMARK H PARENT 1 4 14 21
ROOT
ATOM      1  N   UNL     1      44.757 131.233  18.211  1.00  0.00    -0.249 NA
ENDROOT
BRANCH   1   2
ATOM      2  C   UNL     1      43.776 131.815  18.835  1.00  0.00     0.184 C 
BRANCH   2   3
ATOM      3  O   UNL     1      42.540 131.976  18.208  1.00  0.00    -0.496 OA
ATOM      4  H   UNL     1      42.241 132.873  17.847  1.00  0.00     0.294 HD
ENDBRANCH   2   3
BRANCH   2   5
ATOM      5  C   UNL     1      43.982 132.331  20.242  1.00  0.00     0.075 C 
ATOM      6  C   UNL     1      45.181 131.666  20.912  1.00  0.00     0.013 C 
ATOM      7  C   UNL     1      42.794 132.003  21.145  1.00  0.00     0.013 C 
ATOM      8  C   UNL     1      44.633 130.457  21.660  1.00  0.00     0.001 C 
ATOM      9  C   UNL     1      43.136 130.696  21.853  1.00  0.00     0.001 C 
ENDBRANCH   2   5
ENDBRANCH   1   2
BRANCH   1  10
ATOM     10  C   UNL     1      44.736 130.882  16.790  1.00  0.00     0.146 C 
ATOM     11  C   UNL     1      45.327 132.018  15.922  1.00  0.00     0.066 C 
ATOM     12  C   UNL     1      45.581 129.610  16.503  1.00  0.00     0.170 C 
ATOM     13  C   UNL     1      46.226 131.311  14.983  1.00  0.00    -0.037 A 
ATOM     14  C   UNL     1      46.365 129.982  15.302  1.00  0.00    -0.014 A 
ATOM     15  C   UNL     1      46.906 131.869  13.898  1.00  0.00     0.043 A 
ATOM     16  C   UNL     1      47.190 129.142  14.548  1.00  0.00     0.010 A 
ATOM     17  C   UNL     1      47.736 131.042  13.124  1.00  0.00     0.123 A 
ATOM     18  C   UNL     1      47.877 129.680  13.449  1.00  0.00     0.039 A 
ATOM     19  F   UNL     1      48.405 131.558  12.064  1.00  0.00    -0.207 F 
BRANCH  12  20
ATOM     20  O   UNL     1      46.463 129.315  17.555  1.00  0.00    -0.386 OA
ATOM     21  H   UNL     1      47.313 129.020  17.137  1.00  0.00     0.211 HD
ENDBRANCH  12  20
ENDBRANCH   1  10
TORSDOF 5
ENDMDL
MODEL 4
REMARK VINA RESULT:      -8.8      3.250      6.970
REMARK SMILES O/C(=N\[C@H]1Cc2cc(F)ccc2[C@H]1O)C1CCCC1
REMARK SMILES IDX 3 1 2 2 1 3 15 5 16 6 19 7 17 8 18 9 4 10 5 11 13 12 6 13
REMARK SMILES IDX 12 14 7 15 11 16 8 17 10 18 9 19 14 20
REMARK H PARENT 1 4 14 21
ROOT
ATOM      1  N   UNL     1      44.186 130.933  17.707  1.00  0.00    -0.249 NA
ENDROOT
BRANCH   1   2
ATOM      2  C   UNL     1      43.583 131.723  18.546  1.00  0.00     0.184 C 
BRANCH   2   3
ATOM      3  O   UNL     1      42.288 132.171  18.283  1.00  0.00    -0.496 OA
ATOM      4  H   UNL     1      41.851 132.889  18.847  1.00  0.00     0.294 HD
ENDBRANCH   2   3
BRANCH   2   5
ATOM      5  C   UNL     1      44.294 132.166  19.805  1.00  0.00     0.075 C 
ATOM      6  C   UNL     1      45.406 131.194  20.191  1.00  0.00     0.013 C 
ATOM      7  C   UNL     1      43.355 132.187  21.010  1.00  0.00     0.013 C 
ATOM      8  C   UNL     1      44.779 130.190  21.150  1.00  0.00     0.001 C 
ATOM      9  C   UNL     1      43.512 130.838  21.706  1.00  0.00     0.001 C 
ENDBRANCH   2   5
ENDBRANCH   1   2
BRANCH   1  10
ATOM     10  C   UNL     1      45.514 131.185  17.147  1.00  0.00     0.146 C 
ATOM     11  C   UNL     1      46.246 129.862  16.819  1.00  0.00     0.066 C 
ATOM     12  C   UNL     1      45.431 131.994  15.823  1.00  0.00     0.170 C 
ATOM     13  C   UNL     1      46.809 130.098  15.471  1.00  0.00    -0.037 A 
ATOM     14  C   UNL     1      46.361 131.274  14.922  1.00  0.00    -0.014 A 
ATOM     15  C   UNL     1      47.676 129.256  14.769  1.00  0.00     0.043 A 
ATOM     16  C   UNL     1      46.762 131.671  13.642  1.00  0.00     0.010 A 
ATOM     17  C   UNL     1      48.095 129.638  13.484  1.00  0.00     0.123 A 
ATOM     18  C   UNL     1      47.638 130.845  12.923  1.00  0.00     0.039 A 
ATOM     19  F   UNL     1      48.938 128.841  12.784  1.00  0.00    -0.207 F 
BRANCH  12  20
ATOM     20  O   UNL     1      44.141 131.968  15.269  1.00  0.00    -0.386 OA
ATOM     21  H   UNL     1      43.555 131.531  15.940  1.00  0.00     0.211 HD
ENDBRANCH  12  20
ENDBRANCH   1  10
TORSDOF 5
ENDMDL
MODEL 5
REMARK VINA RESULT:      -8.6      0.949      1.129
REMARK SMILES O/C(=N\[C@H]1Cc2cc(F)ccc2[C@H]1O)C1CCCC1
REMARK SMILES IDX 3 1 2 2 1 3 15 5 16 6 19 7 17 8 18 9 4 10 5 11 13 12 6 13
REMARK SMILES IDX 12 14 7 15 11 16 8 17 10 18 9 19 14 20
REMARK H PARENT 1 4 14 21
ROOT
ATOM      1  N   UNL     1      45.224 130.940  17.744  1.00  0.00    -0.249 NA
ENDROOT
BRANCH   1   2
ATOM      2  C   UNL     1      45.335 131.347  16.515  1.00  0.00     0.184 C 
BRANCH   2   3
ATOM      3  O   UNL     1      45.726 132.660  16.241  1.00  0.00    -0.496 OA
ATOM      4  H   UNL     1      45.048 133.404  16.142  1.00  0.00     0.294 HD
ENDBRANCH   2   3
BRANCH   2   5
ATOM      5  C   UNL     1      45.029 130.398  15.377  1.00  0.00     0.075 C 
ATOM      6  C   UNL     1      46.008 129.228  15.346  1.00  0.00     0.013 C 
ATOM      7  C   UNL     1      45.182 131.076  14.017  1.00  0.00     0.013 C 
ATOM      8  C   UNL     1      47.140 129.646  14.415  1.00  0.00     0.001 C 
ATOM      9  C   UNL     1      46.600 130.777  13.540  1.00  0.00     0.001 C 
ENDBRANCH   2   5
ENDBRANCH   1   2
BRANCH   1  10
ATOM     10  C   UNL     1      45.021 131.828  18.891  1.00  0.00     0.146 C 
ATOM     11  C   UNL     1      43.521 131.947  19.249  1.00  0.00     0.066 C 
ATOM     12  C   UNL     1      45.747 131.298  20.158  1.00  0.00     0.170 C 
ATOM     13  C   UNL     1      43.500 131.802  20.722  1.00  0.00    -0.037 A 
ATOM     14  C   UNL     1      44.728 131.445  21.224  1.00  0.00    -0.014 A 
ATOM     15  C   UNL     1      42.396 131.965  21.563  1.00  0.00     0.043 A 
ATOM     16  C   UNL     1      44.915 131.238  22.594  1.00  0.00     0.010 A 
ATOM     17  C   UNL     1      42.562 131.767  22.943  1.00  0.00     0.123 A 
ATOM     18  C   UNL     1      43.820 131.405  23.457  1.00  0.00     0.039 A 
ATOM     19  F   UNL     1      41.507 131.922  23.779  1.00  0.00    -0.207 F 
BRANCH  12  20
ATOM     20  O   UNL     1      46.095 129.943  20.038  1.00  0.00    -0.386 OA
ATOM     21  H   UNL     1      46.340 129.797  19.088  1.00  0.00     0.211 HD
ENDBRANCH  12  20
ENDBRANCH   1  10
TORSDOF 5
ENDMDL
MODEL 6
REMARK VINA RESULT:      -8.5      1.441      1.879
REMARK SMILES O/C(=N\[C@H]1Cc2cc(F)ccc2[C@H]1O)C1CCCC1
REMARK SMILES IDX 3 1 2 2 1 3 15 5 16 6 19 7 17 8 18 9 4 10 5 11 13 12 6 13
REMARK SMILES IDX 12 14 7 15 11 16 8 17 10 18 9 19 14 20
REMARK H PARENT 1 4 14 21
ROOT
ATOM      1  N   UNL     1      45.097 130.614  17.862  1.00  0.00    -0.249 NA
ENDROOT
BRANCH   1   2
ATOM      2  C   UNL     1      45.958 130.714  16.893  1.00  0.00     0.184 C 
BRANCH   2   3
ATOM      3  O   UNL     1      47.024 129.817  16.804  1.00  0.00    -0.496 OA
ATOM      4  H   UNL     1      47.229 129.321  15.947  1.00  0.00     0.294 HD
ENDBRANCH   2   3
BRANCH   2   5
ATOM      5  C   UNL     1      45.809 131.814  15.865  1.00  0.00     0.075 C 
ATOM      6  C   UNL     1      44.430 131.787  15.213  1.00  0.00     0.013 C 
ATOM      7  C   UNL     1      46.795 131.648  14.710  1.00  0.00     0.013 C 
ATOM      8  C   UNL     1      44.568 130.926  13.963  1.00  0.00     0.001 C 
ATOM      9  C   UNL     1      46.056 130.883  13.616  1.00  0.00     0.001 C 
ENDBRANCH   2   5
ENDBRANCH   1   2
BRANCH   1  10
ATOM     10  C   UNL     1      44.950 131.594  18.939  1.00  0.00     0.146 C 
ATOM     11  C   UNL     1      43.465 131.783  19.327  1.00  0.00     0.066 C 
ATOM     12  C   UNL     1      45.699 131.146  20.224  1.00  0.00     0.170 C 
ATOM     13  C   UNL     1      43.483 131.756  20.807  1.00  0.00    -0.037 A 
ATOM     14  C   UNL     1      44.715 131.405  21.302  1.00  0.00    -0.014 A 
ATOM     15  C   UNL     1      42.408 132.016  21.661  1.00  0.00     0.043 A 
ATOM     16  C   UNL     1      44.937 131.302  22.679  1.00  0.00     0.010 A 
ATOM     17  C   UNL     1      42.610 131.923  23.047  1.00  0.00     0.123 A 
ATOM     18  C   UNL     1      43.873 131.567  23.555  1.00  0.00     0.039 A 
ATOM     19  F   UNL     1      41.584 132.173  23.897  1.00  0.00    -0.207 F 
BRANCH  12  20
ATOM     20  O   UNL     1      46.008 129.777  20.204  1.00  0.00    -0.386 OA
ATOM     21  H   UNL     1      46.968 129.708  19.962  1.00  0.00     0.211 HD
ENDBRANCH  12  20
ENDBRANCH   1  10
TORSDOF 5
ENDMDL
MODEL 7
REMARK VINA RESULT:      -8.4      1.444      2.006
REMARK SMILES O/C(=N\[C@H]1Cc2cc(F)ccc2[C@H]1O)C1CCCC1
REMARK SMILES IDX 3 1 2 2 1 3 15 5 16 6 19 7 17 8 18 9 4 10 5 11 13 12 6 13
REMARK SMILES IDX 12 14 7 15 11 16 8 17 10 18 9 19 14 20
REMARK H PARENT 1 4 14 21
ROOT
ATOM      1  N   UNL     1      43.955 131.885  16.321  1.00  0.00    -0.249 NA
ENDROOT
BRANCH   1   2
ATOM      2  C   UNL     1      44.995 131.805  15.545  1.00  0.00     0.184 C 
BRANCH   2   3
ATOM      3  O   UNL     1      46.000 132.771  15.615  1.00  0.00    -0.496 OA
ATOM      4  H   UNL     1      46.743 132.715  16.300  1.00  0.00     0.294 HD
ENDBRANCH   2   3
BRANCH   2   5
ATOM      5  C   UNL     1      45.110 130.666  14.555  1.00  0.00     0.075 C 
ATOM      6  C   UNL     1      45.730 129.429  15.197  1.00  0.00     0.013 C 
ATOM      7  C   UNL     1      46.039 131.016  13.394  1.00  0.00     0.013 C 
ATOM      8  C   UNL     1      47.230 129.524  14.941  1.00  0.00     0.001 C 
ATOM      9  C   UNL     1      47.419 130.486  13.768  1.00  0.00     0.001 C 
ENDBRANCH   2   5
ENDBRANCH   1   2
BRANCH   1  10
ATOM     10  C   UNL     1      43.783 131.111  17.551  1.00  0.00     0.146 C 
ATOM     11  C   UNL     1      44.998 131.278  18.494  1.00  0.00     0.066 C 
ATOM     12  C   UNL     1      42.529 131.572  18.345  1.00  0.00     0.170 C 
ATOM     13  C   UNL     1      44.383 131.505  19.821  1.00  0.00    -0.037 A 
ATOM     14  C   UNL     1      43.021 131.666  19.739  1.00  0.00    -0.014 A 
ATOM     15  C   UNL     1      45.048 131.585  21.047  1.00  0.00     0.043 A 
ATOM     16  C   UNL     1      42.255 131.910  20.882  1.00  0.00     0.010 A 
ATOM     17  C   UNL     1      44.297 131.825  22.209  1.00  0.00     0.123 A 
ATOM     18  C   UNL     1      42.902 131.987  22.126  1.00  0.00     0.039 A 
ATOM     19  F   UNL     1      44.918 131.904  23.411  1.00  0.00    -0.207 F 
BRANCH  12  20
ATOM     20  O   UNL     1      42.079 132.836  17.931  1.00  0.00    -0.386 OA
ATOM     21  H   UNL     1      41.209 132.691  17.476  1.00  0.00     0.211 HD
ENDBRANCH  12  20
ENDBRANCH   1  10
TORSDOF 5
ENDMDL
MODEL 8
REMARK VINA RESULT:      -8.3      3.142      6.884
REMARK SMILES O/C(=N\[C@H]1Cc2cc(F)ccc2[C@H]1O)C1CCCC1
REMARK SMILES IDX 3 1 2 2 1 3 15 5 16 6 19 7 17 8 18 9 4 10 5 11 13 12 6 13
REMARK SMILES IDX 12 14 7 15 11 16 8 17 10 18 9 19 14 20
REMARK H PARENT 1 4 14 21
ROOT
ATOM      1  N   UNL     1      43.861 131.210  18.865  1.00  0.00    -0.249 NA
ENDROOT
BRANCH   1   2
ATOM      2  C   UNL     1      43.262 132.050  19.656  1.00  0.00     0.184 C 
BRANCH   2   3
ATOM      3  O   UNL     1      42.158 132.776  19.204  1.00  0.00    -0.496 OA
ATOM      4  H   UNL     1      41.308 132.842  19.749  1.00  0.00     0.294 HD
ENDBRANCH   2   3
BRANCH   2   5
ATOM      5  C   UNL     1      43.769 132.248  21.068  1.00  0.00     0.075 C 
ATOM      6  C   UNL     1      44.986 131.372  21.352  1.00  0.00     0.013 C 
ATOM      7  C   UNL     1      42.732 131.830  22.108  1.00  0.00     0.013 C 
ATOM      8  C   UNL     1      44.448 130.079  21.952  1.00  0.00     0.001 C 
ATOM      9  C   UNL     1      43.045 130.383  22.476  1.00  0.00     0.001 C 
ENDBRANCH   2   5
ENDBRANCH   1   2
BRANCH   1  10
ATOM     10  C   UNL     1      45.042 131.533  18.063  1.00  0.00     0.146 C 
ATOM     11  C   UNL     1      45.908 130.277  17.807  1.00  0.00     0.066 C 
ATOM     12  C   UNL     1      44.648 132.102  16.672  1.00  0.00     0.170 C 
ATOM     13  C   UNL     1      46.229 130.362  16.364  1.00  0.00    -0.037 A 
ATOM     14  C   UNL     1      45.536 131.368  15.738  1.00  0.00    -0.014 A 
ATOM     15  C   UNL     1      47.101 129.533  15.652  1.00  0.00     0.043 A 
ATOM     16  C   UNL     1      45.683 131.601  14.368  1.00  0.00     0.010 A 
ATOM     17  C   UNL     1      47.268 129.752  14.276  1.00  0.00     0.123 A 
ATOM     18  C   UNL     1      46.560 130.786  13.635  1.00  0.00     0.039 A 
ATOM     19  F   UNL     1      48.110 128.965  13.564  1.00  0.00    -0.207 F 
BRANCH  12  20
ATOM     20  O   UNL     1      43.311 131.824  16.348  1.00  0.00    -0.386 OA
ATOM     21  H   UNL     1      43.154 130.874  16.587  1.00  0.00     0.211 HD
ENDBRANCH  12  20
ENDBRANCH   1  10
TORSDOF 5
ENDMDL
MODEL 9
REMARK VINA RESULT:      -8.0      1.673      2.394
REMARK SMILES O/C(=N\[C@H]1Cc2cc(F)ccc2[C@H]1O)C1CCCC1
REMARK SMILES IDX 3 1 2 2 1 3 15 5 16 6 19 7 17 8 18 9 4 10 5 11 13 12 6 13
REMARK SMILES IDX 12 14 7 15 11 16 8 17 10 18 9 19 14 20
REMARK H PARENT 1 4 14 21
ROOT
ATOM      1  N   UNL     1      43.858 131.929  16.461  1.00  0.00    -0.249 NA
ENDROOT
BRANCH   1   2
ATOM      2  C   UNL     1      44.588 131.546  15.455  1.00  0.00     0.184 C 
BRANCH   2   3
ATOM      3  O   UNL     1      43.989 131.220  14.236  1.00  0.00    -0.496 OA
ATOM      4  H   UNL     1      43.300 130.482  14.166  1.00  0.00     0.294 HD
ENDBRANCH   2   3
BRANCH   2   5
ATOM      5  C   UNL     1      46.089 131.444  15.610  1.00  0.00     0.075 C 
ATOM      6  C   UNL     1      46.815 131.959  14.371  1.00  0.00     0.013 C 
ATOM      7  C   UNL     1      46.546 129.994  15.759  1.00  0.00     0.013 C 
ATOM      8  C   UNL     1      47.036 130.748  13.473  1.00  0.00     0.001 C 
ATOM      9  C   UNL     1      46.918 129.510  14.360  1.00  0.00     0.001 C 
ENDBRANCH   2   5
ENDBRANCH   1   2
BRANCH   1  10
ATOM     10  C   UNL     1      43.682 131.156  17.691  1.00  0.00     0.146 C 
ATOM     11  C   UNL     1      44.899 131.314  18.633  1.00  0.00     0.066 C 
ATOM     12  C   UNL     1      42.433 131.627  18.486  1.00  0.00     0.170 C 
ATOM     13  C   UNL     1      44.287 131.545  19.961  1.00  0.00    -0.037 A 
ATOM     14  C   UNL     1      42.927 131.716  19.881  1.00  0.00    -0.014 A 
ATOM     15  C   UNL     1      44.954 131.620  21.186  1.00  0.00     0.043 A 
ATOM     16  C   UNL     1      42.163 131.967  21.024  1.00  0.00     0.010 A 
ATOM     17  C   UNL     1      44.206 131.866  22.348  1.00  0.00     0.123 A 
ATOM     18  C   UNL     1      42.812 132.038  22.267  1.00  0.00     0.039 A 
ATOM     19  F   UNL     1      44.829 131.940  23.550  1.00  0.00    -0.207 F 
BRANCH  12  20
ATOM     20  O   UNL     1      41.991 132.894  18.073  1.00  0.00    -0.386 OA
ATOM     21  H   UNL     1      41.121 133.050  18.524  1.00  0.00     0.211 HD
ENDBRANCH  12  20
ENDBRANCH   1  10
TORSDOF 5
ENDMDL


