REMARK SMILES O=C(Oc1ccc([NH2+]c2ccc3cc[nH]c3c2)c(F)c1)[C@H](O)CC1CC1
REMARK SMILES IDX 3 1 2 2 1 3 21 4 22 5 23 7 24 8 25 9 26 10 4 11 5 12 20 13
REMARK SMILES IDX 6 14 18 15 7 16 19 17 8 18 9 21 10 22 17 23 11 24 16 25
REMARK SMILES IDX 12 26 15 27 13 28 14 29
REMARK H PARENT 22 6 8 19 8 20 15 30
ROOT
ATOM      1  O   UNL     1       1.380   2.117   1.038  1.00  0.00    -0.425 OA
ENDROOT
BRANCH   1   2
ATOM      2  C   UNL     1       2.336   2.160   0.015  1.00  0.00     0.340 C 
ATOM      3  O   UNL     1       2.272   1.371  -0.967  1.00  0.00    -0.249 OA
BRANCH   2   4
ATOM      4  C   UNL     1       3.445   3.170   0.099  1.00  0.00     0.224 C 
BRANCH   4   5
ATOM      5  O   UNL     1       4.011   3.372  -1.171  1.00  0.00    -0.381 OA
ATOM      6  H   UNL     1       4.534   4.215  -1.122  1.00  0.00     0.211 HD
ENDBRANCH   4   5
BRANCH   4   7
ATOM      7  C   UNL     1       4.518   2.723   1.107  1.00  0.00     0.047 C 
BRANCH   7   8
ATOM      8  C   UNL     1       5.215   1.422   0.672  1.00  0.00    -0.008 C 
ATOM      9  C   UNL     1       6.011   0.738   1.773  1.00  0.00     0.004 C 
ATOM     10  C   UNL     1       4.694   0.140   1.305  1.00  0.00     0.004 C 
ENDBRANCH   7   8
ENDBRANCH   4   7
ENDBRANCH   2   4
ENDBRANCH   1   2
BRANCH   1  11
ATOM     11  C   UNL     1       0.509   1.047   1.293  1.00  0.00     0.134 A 
ATOM     12  C   UNL     1      -0.711   1.319   1.921  1.00  0.00     0.053 A 
ATOM     13  C   UNL     1       0.839  -0.284   0.980  1.00  0.00     0.093 A 
ATOM     14  C   UNL     1      -1.606   0.286   2.210  1.00  0.00     0.075 A 
ATOM     15  C   UNL     1      -0.054  -1.321   1.269  1.00  0.00     0.187 A 
ATOM     16  C   UNL     1      -1.288  -1.045   1.889  1.00  0.00     0.170 A 
ATOM     17  F   UNL     1       0.292  -2.595   0.956  1.00  0.00    -0.200 F 
BRANCH  16  18
ATOM     18  N   UNL     1      -2.231  -2.102   2.165  1.00  0.00    -0.279 N 
ATOM     19  H   UNL     1      -2.774  -1.880   3.033  1.00  0.00     0.358 HD
ATOM     20  H   UNL     1      -1.730  -3.002   2.350  1.00  0.00     0.358 HD
BRANCH  18  21
ATOM     21  C   UNL     1      -3.131  -2.252   1.049  1.00  0.00     0.136 A 
ATOM     22  C   UNL     1      -2.823  -3.155  -0.005  1.00  0.00     0.069 A 
ATOM     23  C   UNL     1      -4.312  -1.474   0.977  1.00  0.00     0.094 A 
ATOM     24  C   UNL     1      -3.681  -3.290  -1.111  1.00  0.00     0.016 A 
ATOM     25  C   UNL     1      -5.138  -1.633  -0.134  1.00  0.00     0.051 A 
ATOM     26  C   UNL     1      -4.832  -2.509  -1.139  1.00  0.00    -0.000 A 
ATOM     27  N   UNL     1      -6.291  -0.995  -0.390  1.00  0.00    -0.361 N 
ATOM     28  C   UNL     1      -5.837  -2.425  -2.078  1.00  0.00     0.028 A 
ATOM     29  C   UNL     1      -6.723  -1.476  -1.579  1.00  0.00     0.083 A 
ATOM     30  H   UNL     1      -6.761  -0.274   0.202  1.00  0.00     0.166 HD
ENDBRANCH  18  21
ENDBRANCH  16  18
ENDBRANCH   1  11
TORSDOF 8


