MODEL 1
REMARK VINA RESULT:      -6.4      0.000      0.000
REMARK SMILES COCC[NH2+]C(=S)n1nc2cc(-c3cnc(F)cc3C)ccc2c1C
REMARK SMILES IDX 5 1 4 4 3 5 2 6 1 7 6 8 7 9 8 10 9 11 24 12 10 13 23 14
REMARK SMILES IDX 11 15 22 16 12 17 21 18 25 19 13 20 14 21 19 22 15 23 18 24
REMARK SMILES IDX 16 25 20 26 17 27
REMARK H PARENT 5 2 5 3
ROOT
ATOM      1  N   UNL     1      42.966 130.139  23.653  1.00  0.00    -0.285 N 
ATOM      2  H   UNL     1      41.958 130.227  23.389  1.00  0.00     0.354 HD
ATOM      3  H   UNL     1      43.019 130.246  24.693  1.00  0.00     0.354 HD
ENDROOT
BRANCH   1   4
ATOM      4  C   UNL     1      43.470 128.798  23.299  1.00  0.00     0.296 C 
BRANCH   4   5
ATOM      5  C   UNL     1      42.495 127.668  23.674  1.00  0.00     0.221 C 
BRANCH   5   6
ATOM      6  O   UNL     1      43.074 126.793  24.625  1.00  0.00    -0.379 OA
ATOM      7  C   UNL     1      44.479 126.791  24.506  1.00  0.00     0.195 C 
ENDBRANCH   5   6
ENDBRANCH   4   5
ENDBRANCH   1   4
BRANCH   1   8
ATOM      8  C   UNL     1      43.740 131.200  23.054  1.00  0.00     0.294 C 
ATOM      9  S   UNL     1      44.642 132.183  24.018  1.00  0.00     0.006 S 
BRANCH   8  10
ATOM     10  N   UNL     1      43.778 131.340  21.618  1.00  0.00    -0.179 N 
ATOM     11  N   UNL     1      44.804 130.905  20.892  1.00  0.00    -0.162 NA
ATOM     12  C   UNL     1      42.831 131.877  20.794  1.00  0.00     0.055 A 
ATOM     13  C   UNL     1      44.527 131.184  19.607  1.00  0.00     0.094 A 
ATOM     14  C   UNL     1      43.310 131.795  19.502  1.00  0.00     0.024 A 
ATOM     15  C   UNL     1      45.318 130.918  18.494  1.00  0.00     0.039 A 
ATOM     16  C   UNL     1      42.788 132.190  18.270  1.00  0.00     0.013 A 
ATOM     17  C   UNL     1      44.823 131.293  17.225  1.00  0.00    -0.014 A 
ATOM     18  C   UNL     1      43.562 131.937  17.123  1.00  0.00     0.009 A 
ATOM     19  C   UNL     1      41.492 132.415  21.204  1.00  0.00     0.068 C 
BRANCH  17  20
ATOM     20  C   UNL     1      45.627 131.045  16.006  1.00  0.00     0.003 A 
ATOM     21  C   UNL     1      46.334 132.113  15.432  1.00  0.00     0.123 A 
ATOM     22  C   UNL     1      45.704 129.770  15.396  1.00  0.00    -0.037 A 
ATOM     23  N   UNL     1      47.105 131.915  14.330  1.00  0.00    -0.228 NA
ATOM     24  C   UNL     1      46.522 129.603  14.268  1.00  0.00     0.064 A 
ATOM     25  C   UNL     1      47.216 130.695  13.746  1.00  0.00     0.213 A 
ATOM     26  C   UNL     1      44.944 128.582  15.927  1.00  0.00     0.045 C 
ATOM     27  F   UNL     1      47.999 130.541  12.651  1.00  0.00    -0.185 F 
ENDBRANCH  17  20
ENDBRANCH   8  10
ENDBRANCH   1   8
TORSDOF 6
ENDMDL
MODEL 2
REMARK VINA RESULT:      -5.6      1.013      1.249
REMARK SMILES COCC[NH2+]C(=S)n1nc2cc(-c3cnc(F)cc3C)ccc2c1C
REMARK SMILES IDX 5 1 4 4 3 5 2 6 1 7 6 8 7 9 8 10 9 11 24 12 10 13 23 14
REMARK SMILES IDX 11 15 22 16 12 17 21 18 25 19 13 20 14 21 19 22 15 23 18 24
REMARK SMILES IDX 16 25 20 26 17 27
REMARK H PARENT 5 2 5 3
ROOT
ATOM      1  N   UNL     1      43.673 130.430  23.779  1.00  0.00    -0.285 N 
ATOM      2  H   UNL     1      42.991 130.771  24.494  1.00  0.00     0.354 HD
ATOM      3  H   UNL     1      44.458 129.974  24.300  1.00  0.00     0.354 HD
ENDROOT
BRANCH   1   4
ATOM      4  C   UNL     1      43.039 129.416  22.915  1.00  0.00     0.296 C 
BRANCH   4   5
ATOM      5  C   UNL     1      43.114 127.994  23.496  1.00  0.00     0.221 C 
BRANCH   5   6
ATOM      6  O   UNL     1      44.439 127.497  23.455  1.00  0.00    -0.379 OA
ATOM      7  C   UNL     1      44.723 126.745  24.614  1.00  0.00     0.195 C 
ENDBRANCH   5   6
ENDBRANCH   4   5
ENDBRANCH   1   4
BRANCH   1   8
ATOM      8  C   UNL     1      44.216 131.538  23.030  1.00  0.00     0.294 C 
ATOM      9  S   UNL     1      44.936 132.780  23.838  1.00  0.00     0.006 S 
BRANCH   8  10
ATOM     10  N   UNL     1      44.197 131.511  21.587  1.00  0.00    -0.179 N 
ATOM     11  N   UNL     1      45.244 131.107  20.873  1.00  0.00    -0.162 NA
ATOM     12  C   UNL     1      43.172 131.841  20.748  1.00  0.00     0.055 A 
ATOM     13  C   UNL     1      44.900 131.201  19.578  1.00  0.00     0.094 A 
ATOM     14  C   UNL     1      43.620 131.659  19.455  1.00  0.00     0.024 A 
ATOM     15  C   UNL     1      45.683 130.892  18.471  1.00  0.00     0.039 A 
ATOM     16  C   UNL     1      43.021 131.847  18.210  1.00  0.00     0.013 A 
ATOM     17  C   UNL     1      45.113 131.058  17.189  1.00  0.00    -0.014 A 
ATOM     18  C   UNL     1      43.784 131.545  17.067  1.00  0.00     0.009 A 
ATOM     19  C   UNL     1      41.793 132.275  21.151  1.00  0.00     0.068 C 
BRANCH  17  20
ATOM     20  C   UNL     1      45.903 130.757  15.974  1.00  0.00     0.003 A 
ATOM     21  C   UNL     1      47.106 130.047  16.106  1.00  0.00     0.123 A 
ATOM     22  C   UNL     1      45.491 131.166  14.682  1.00  0.00    -0.037 A 
ATOM     23  N   UNL     1      47.842 129.728  15.009  1.00  0.00    -0.228 NA
ATOM     24  C   UNL     1      46.271 130.805  13.572  1.00  0.00     0.064 A 
ATOM     25  C   UNL     1      47.452 130.084  13.759  1.00  0.00     0.213 A 
ATOM     26  C   UNL     1      44.233 131.965  14.459  1.00  0.00     0.045 C 
ATOM     27  F   UNL     1      48.214 129.743  12.692  1.00  0.00    -0.185 F 
ENDBRANCH  17  20
ENDBRANCH   8  10
ENDBRANCH   1   8
TORSDOF 6
ENDMDL
MODEL 3
REMARK VINA RESULT:      -5.4      0.981      1.006
REMARK SMILES COCC[NH2+]C(=S)n1nc2cc(-c3cnc(F)cc3C)ccc2c1C
REMARK SMILES IDX 5 1 4 4 3 5 2 6 1 7 6 8 7 9 8 10 9 11 24 12 10 13 23 14
REMARK SMILES IDX 11 15 22 16 12 17 21 18 25 19 13 20 14 21 19 22 15 23 18 24
REMARK SMILES IDX 16 25 20 26 17 27
REMARK H PARENT 5 2 5 3
ROOT
ATOM      1  N   UNL     1      45.142 130.277  23.310  1.00  0.00    -0.285 N 
ATOM      2  H   UNL     1      45.884 130.927  23.656  1.00  0.00     0.354 HD
ATOM      3  H   UNL     1      45.591 129.656  22.596  1.00  0.00     0.354 HD
ENDROOT
BRANCH   1   4
ATOM      4  C   UNL     1      44.648 129.433  24.414  1.00  0.00     0.296 C 
BRANCH   4   5
ATOM      5  C   UNL     1      43.700 128.316  23.944  1.00  0.00     0.221 C 
BRANCH   5   6
ATOM      6  O   UNL     1      44.280 127.568  22.890  1.00  0.00    -0.379 OA
ATOM      7  C   UNL     1      45.377 126.817  23.361  1.00  0.00     0.195 C 
ENDBRANCH   5   6
ENDBRANCH   4   5
ENDBRANCH   1   4
BRANCH   1   8
ATOM      8  C   UNL     1      44.087 131.016  22.658  1.00  0.00     0.294 C 
ATOM      9  S   UNL     1      42.933 131.751  23.575  1.00  0.00     0.006 S 
BRANCH   8  10
ATOM     10  N   UNL     1      44.097 131.172  21.223  1.00  0.00    -0.179 N 
ATOM     11  N   UNL     1      45.091 130.711  20.469  1.00  0.00    -0.162 NA
ATOM     12  C   UNL     1      43.151 131.751  20.428  1.00  0.00     0.055 A 
ATOM     13  C   UNL     1      44.795 131.014  19.194  1.00  0.00     0.094 A 
ATOM     14  C   UNL     1      43.598 131.667  19.124  1.00  0.00     0.024 A 
ATOM     15  C   UNL     1      45.551 130.734  18.061  1.00  0.00     0.039 A 
ATOM     16  C   UNL     1      43.062 132.095  17.910  1.00  0.00     0.013 A 
ATOM     17  C   UNL     1      45.041 131.141  16.807  1.00  0.00    -0.014 A 
ATOM     18  C   UNL     1      43.801 131.829  16.741  1.00  0.00     0.009 A 
ATOM     19  C   UNL     1      41.841 132.330  20.875  1.00  0.00     0.068 C 
BRANCH  17  20
ATOM     20  C   UNL     1      45.808 130.881  15.568  1.00  0.00     0.003 A 
ATOM     21  C   UNL     1      46.466 131.949  14.940  1.00  0.00     0.123 A 
ATOM     22  C   UNL     1      45.897 129.591  14.990  1.00  0.00    -0.037 A 
ATOM     23  N   UNL     1      47.203 131.741  13.818  1.00  0.00    -0.228 NA
ATOM     24  C   UNL     1      46.680 129.414  13.838  1.00  0.00     0.064 A 
ATOM     25  C   UNL     1      47.325 130.509  13.263  1.00  0.00     0.213 A 
ATOM     26  C   UNL     1      45.188 128.400  15.580  1.00  0.00     0.045 C 
ATOM     27  F   UNL     1      48.073 130.345  12.145  1.00  0.00    -0.185 F 
ENDBRANCH  17  20
ENDBRANCH   8  10
ENDBRANCH   1   8
TORSDOF 6
ENDMDL
MODEL 4
REMARK VINA RESULT:      -5.2      1.414      2.001
REMARK SMILES COCC[NH2+]C(=S)n1nc2cc(-c3cnc(F)cc3C)ccc2c1C
REMARK SMILES IDX 5 1 4 4 3 5 2 6 1 7 6 8 7 9 8 10 9 11 24 12 10 13 23 14
REMARK SMILES IDX 11 15 22 16 12 17 21 18 25 19 13 20 14 21 19 22 15 23 18 24
REMARK SMILES IDX 16 25 20 26 17 27
REMARK H PARENT 5 2 5 3
ROOT
ATOM      1  N   UNL     1      44.822 130.785  23.028  1.00  0.00    -0.285 N 
ATOM      2  H   UNL     1      45.629 131.441  23.137  1.00  0.00     0.354 HD
ATOM      3  H   UNL     1      45.188 129.930  22.546  1.00  0.00     0.354 HD
ENDROOT
BRANCH   1   4
ATOM      4  C   UNL     1      44.308 130.386  24.352  1.00  0.00     0.296 C 
BRANCH   4   5
ATOM      5  C   UNL     1      44.136 128.865  24.501  1.00  0.00     0.221 C 
BRANCH   5   6
ATOM      6  O   UNL     1      42.995 128.411  23.795  1.00  0.00    -0.379 OA
ATOM      7  C   UNL     1      41.815 128.766  24.481  1.00  0.00     0.195 C 
ENDBRANCH   5   6
ENDBRANCH   4   5
ENDBRANCH   1   4
BRANCH   1   8
ATOM      8  C   UNL     1      43.804 131.371  22.188  1.00  0.00     0.294 C 
ATOM      9  S   UNL     1      42.526 132.137  22.887  1.00  0.00     0.006 S 
BRANCH   8  10
ATOM     10  N   UNL     1      43.956 131.349  20.753  1.00  0.00    -0.179 N 
ATOM     11  N   UNL     1      45.051 130.876  20.164  1.00  0.00    -0.162 NA
ATOM     12  C   UNL     1      43.064 131.752  19.801  1.00  0.00     0.055 A 
ATOM     13  C   UNL     1      44.872 130.998  18.839  1.00  0.00     0.094 A 
ATOM     14  C   UNL     1      43.650 131.543  18.569  1.00  0.00     0.024 A 
ATOM     15  C   UNL     1      45.760 130.639  17.829  1.00  0.00     0.039 A 
ATOM     16  C   UNL     1      43.219 131.776  17.263  1.00  0.00     0.013 A 
ATOM     17  C   UNL     1      45.359 130.849  16.490  1.00  0.00    -0.014 A 
ATOM     18  C   UNL     1      44.091 131.426  16.216  1.00  0.00     0.009 A 
ATOM     19  C   UNL     1      41.679 132.279  20.041  1.00  0.00     0.068 C 
BRANCH  17  20
ATOM     20  C   UNL     1      46.267 130.498  15.375  1.00  0.00     0.003 A 
ATOM     21  C   UNL     1      46.624 129.154  15.187  1.00  0.00     0.123 A 
ATOM     22  C   UNL     1      46.795 131.472  14.493  1.00  0.00    -0.037 A 
ATOM     23  N   UNL     1      47.432 128.793  14.156  1.00  0.00    -0.228 NA
ATOM     24  C   UNL     1      47.614 131.058  13.431  1.00  0.00     0.064 A 
ATOM     25  C   UNL     1      47.925 129.706  13.282  1.00  0.00     0.213 A 
ATOM     26  C   UNL     1      46.493 132.940  14.650  1.00  0.00     0.045 C 
ATOM     27  F   UNL     1      48.724 129.302  12.265  1.00  0.00    -0.185 F 
ENDBRANCH  17  20
ENDBRANCH   8  10
ENDBRANCH   1   8
TORSDOF 6
ENDMDL
MODEL 5
REMARK VINA RESULT:      -4.7      1.254      1.437
REMARK SMILES COCC[NH2+]C(=S)n1nc2cc(-c3cnc(F)cc3C)ccc2c1C
REMARK SMILES IDX 5 1 4 4 3 5 2 6 1 7 6 8 7 9 8 10 9 11 24 12 10 13 23 14
REMARK SMILES IDX 11 15 22 16 12 17 21 18 25 19 13 20 14 21 19 22 15 23 18 24
REMARK SMILES IDX 16 25 20 26 17 27
REMARK H PARENT 5 2 5 3
ROOT
ATOM      1  N   UNL     1      44.183 130.345  24.553  1.00  0.00    -0.285 N 
ATOM      2  H   UNL     1      43.667 130.530  25.443  1.00  0.00     0.354 HD
ATOM      3  H   UNL     1      45.123 129.968  24.818  1.00  0.00     0.354 HD
ENDROOT
BRANCH   1   4
ATOM      4  C   UNL     1      43.479 129.320  23.760  1.00  0.00     0.296 C 
BRANCH   4   5
ATOM      5  C   UNL     1      42.836 128.222  24.625  1.00  0.00     0.221 C 
BRANCH   5   6
ATOM      6  O   UNL     1      41.423 128.318  24.599  1.00  0.00    -0.379 OA
ATOM      7  C   UNL     1      40.903 127.658  23.467  1.00  0.00     0.195 C 
ENDBRANCH   5   6
ENDBRANCH   4   5
ENDBRANCH   1   4
BRANCH   1   8
ATOM      8  C   UNL     1      44.384 131.574  23.822  1.00  0.00     0.294 C 
ATOM      9  S   UNL     1      44.985 132.890  24.608  1.00  0.00     0.006 S 
BRANCH   8  10
ATOM     10  N   UNL     1      44.134 131.615  22.401  1.00  0.00    -0.179 N 
ATOM     11  N   UNL     1      45.073 131.312  21.508  1.00  0.00    -0.162 NA
ATOM     12  C   UNL     1      42.972 131.920  21.754  1.00  0.00     0.055 A 
ATOM     13  C   UNL     1      44.521 131.446  20.291  1.00  0.00     0.094 A 
ATOM     14  C   UNL     1      43.215 131.828  20.398  1.00  0.00     0.024 A 
ATOM     15  C   UNL     1      45.132 131.240  19.058  1.00  0.00     0.039 A 
ATOM     16  C   UNL     1      42.414 132.038  19.276  1.00  0.00     0.013 A 
ATOM     17  C   UNL     1      44.354 131.432  17.894  1.00  0.00    -0.014 A 
ATOM     18  C   UNL     1      42.999 131.840  18.011  1.00  0.00     0.009 A 
ATOM     19  C   UNL     1      41.654 132.247  22.393  1.00  0.00     0.068 C 
BRANCH  17  20
ATOM     20  C   UNL     1      44.954 131.240  16.554  1.00  0.00     0.003 A 
ATOM     21  C   UNL     1      44.602 132.121  15.520  1.00  0.00     0.123 A 
ATOM     22  C   UNL     1      45.868 130.195  16.277  1.00  0.00    -0.037 A 
ATOM     23  N   UNL     1      45.156 131.992  14.286  1.00  0.00    -0.228 NA
ATOM     24  C   UNL     1      46.430 130.103  14.993  1.00  0.00     0.064 A 
ATOM     25  C   UNL     1      46.055 131.015  14.006  1.00  0.00     0.213 A 
ATOM     26  C   UNL     1      46.268 129.184  17.321  1.00  0.00     0.045 C 
ATOM     27  F   UNL     1      46.586 130.925  12.763  1.00  0.00    -0.185 F 
ENDBRANCH  17  20
ENDBRANCH   8  10
ENDBRANCH   1   8
TORSDOF 6
ENDMDL
MODEL 6
REMARK VINA RESULT:      -4.6      1.453      1.924
REMARK SMILES COCC[NH2+]C(=S)n1nc2cc(-c3cnc(F)cc3C)ccc2c1C
REMARK SMILES IDX 5 1 4 4 3 5 2 6 1 7 6 8 7 9 8 10 9 11 24 12 10 13 23 14
REMARK SMILES IDX 11 15 22 16 12 17 21 18 25 19 13 20 14 21 19 22 15 23 18 24
REMARK SMILES IDX 16 25 20 26 17 27
REMARK H PARENT 5 2 5 3
ROOT
ATOM      1  N   UNL     1      43.964 128.534  23.078  1.00  0.00    -0.285 N 
ATOM      2  H   UNL     1      43.932 127.954  22.209  1.00  0.00     0.354 HD
ATOM      3  H   UNL     1      43.012 128.487  23.511  1.00  0.00     0.354 HD
ENDROOT
BRANCH   1   4
ATOM      4  C   UNL     1      44.936 127.969  24.033  1.00  0.00     0.296 C 
BRANCH   4   5
ATOM      5  C   UNL     1      45.464 126.587  23.612  1.00  0.00     0.221 C 
BRANCH   5   6
ATOM      6  O   UNL     1      45.227 125.623  24.623  1.00  0.00    -0.379 OA
ATOM      7  C   UNL     1      44.112 124.825  24.294  1.00  0.00     0.195 C 
ENDBRANCH   5   6
ENDBRANCH   4   5
ENDBRANCH   1   4
BRANCH   1   8
ATOM      8  C   UNL     1      44.239 129.914  22.753  1.00  0.00     0.294 C 
ATOM      9  S   UNL     1      44.450 131.002  23.971  1.00  0.00     0.006 S 
BRANCH   8  10
ATOM     10  N   UNL     1      44.406 130.309  21.375  1.00  0.00    -0.179 N 
ATOM     11  N   UNL     1      45.295 129.726  20.575  1.00  0.00    -0.162 NA
ATOM     12  C   UNL     1      43.719 131.260  20.677  1.00  0.00     0.055 A 
ATOM     13  C   UNL     1      45.196 130.318  19.373  1.00  0.00     0.094 A 
ATOM     14  C   UNL     1      44.229 131.283  19.395  1.00  0.00     0.024 A 
ATOM     15  C   UNL     1      45.936 130.040  18.229  1.00  0.00     0.039 A 
ATOM     16  C   UNL     1      43.928 132.049  18.269  1.00  0.00     0.013 A 
ATOM     17  C   UNL     1      45.657 130.786  17.062  1.00  0.00    -0.014 A 
ATOM     18  C   UNL     1      44.658 131.795  17.093  1.00  0.00     0.009 A 
ATOM     19  C   UNL     1      42.583 132.096  21.189  1.00  0.00     0.068 C 
BRANCH  17  20
ATOM     20  C   UNL     1      46.421 130.542  15.818  1.00  0.00     0.003 A 
ATOM     21  C   UNL     1      47.016 129.286  15.623  1.00  0.00     0.123 A 
ATOM     22  C   UNL     1      46.578 131.533  14.819  1.00  0.00    -0.037 A 
ATOM     23  N   UNL     1      47.700 129.018  14.479  1.00  0.00    -0.228 NA
ATOM     24  C   UNL     1      47.279 131.213  13.646  1.00  0.00     0.064 A 
ATOM     25  C   UNL     1      47.839 129.943  13.496  1.00  0.00     0.213 A 
ATOM     26  C   UNL     1      46.004 132.918  14.969  1.00  0.00     0.045 C 
ATOM     27  F   UNL     1      48.525 129.633  12.371  1.00  0.00    -0.185 F 
ENDBRANCH  17  20
ENDBRANCH   8  10
ENDBRANCH   1   8
TORSDOF 6
ENDMDL
MODEL 7
REMARK VINA RESULT:      -3.5      1.438      2.102
REMARK SMILES COCC[NH2+]C(=S)n1nc2cc(-c3cnc(F)cc3C)ccc2c1C
REMARK SMILES IDX 5 1 4 4 3 5 2 6 1 7 6 8 7 9 8 10 9 11 24 12 10 13 23 14
REMARK SMILES IDX 11 15 22 16 12 17 21 18 25 19 13 20 14 21 19 22 15 23 18 24
REMARK SMILES IDX 16 25 20 26 17 27
REMARK H PARENT 5 2 5 3
ROOT
ATOM      1  N   UNL     1      42.804 130.437  22.279  1.00  0.00    -0.285 N 
ATOM      2  H   UNL     1      43.257 129.495  22.306  1.00  0.00     0.354 HD
ATOM      3  H   UNL     1      41.955 130.349  21.673  1.00  0.00     0.354 HD
ENDROOT
BRANCH   1   4
ATOM      4  C   UNL     1      42.369 130.832  23.632  1.00  0.00     0.296 C 
BRANCH   4   5
ATOM      5  C   UNL     1      42.269 129.644  24.605  1.00  0.00     0.221 C 
BRANCH   5   6
ATOM      6  O   UNL     1      43.439 128.848  24.557  1.00  0.00    -0.379 OA
ATOM      7  C   UNL     1      43.247 127.736  23.711  1.00  0.00     0.195 C 
ENDBRANCH   5   6
ENDBRANCH   4   5
ENDBRANCH   1   4
BRANCH   1   8
ATOM      8  C   UNL     1      43.689 131.404  21.673  1.00  0.00     0.294 C 
ATOM      9  S   UNL     1      44.505 132.462  22.635  1.00  0.00     0.006 S 
BRANCH   8  10
ATOM     10  N   UNL     1      43.910 131.383  20.247  1.00  0.00    -0.179 N 
ATOM     11  N   UNL     1      45.012 130.868  19.710  1.00  0.00    -0.162 NA
ATOM     12  C   UNL     1      43.083 131.827  19.256  1.00  0.00     0.055 A 
ATOM     13  C   UNL     1      44.904 131.003  18.378  1.00  0.00     0.094 A 
ATOM     14  C   UNL     1      43.719 131.600  18.052  1.00  0.00     0.024 A 
ATOM     15  C   UNL     1      45.824 130.613  17.411  1.00  0.00     0.039 A 
ATOM     16  C   UNL     1      43.363 131.856  16.729  1.00  0.00     0.013 A 
ATOM     17  C   UNL     1      45.499 130.845  16.055  1.00  0.00    -0.014 A 
ATOM     18  C   UNL     1      44.271 131.475  15.723  1.00  0.00     0.009 A 
ATOM     19  C   UNL     1      41.711 132.409  19.431  1.00  0.00     0.068 C 
BRANCH  17  20
ATOM     20  C   UNL     1      46.446 130.462  14.983  1.00  0.00     0.003 A 
ATOM     21  C   UNL     1      46.699 129.101  14.756  1.00  0.00     0.123 A 
ATOM     22  C   UNL     1      47.110 131.422  14.181  1.00  0.00    -0.037 A 
ATOM     23  N   UNL     1      47.540 128.713  13.761  1.00  0.00    -0.228 NA
ATOM     24  C   UNL     1      47.960 130.981  13.154  1.00  0.00     0.064 A 
ATOM     25  C   UNL     1      48.165 129.615  12.962  1.00  0.00     0.213 A 
ATOM     26  C   UNL     1      46.923 132.903  14.387  1.00  0.00     0.045 C 
ATOM     27  F   UNL     1      48.992 129.184  11.979  1.00  0.00    -0.185 F 
ENDBRANCH  17  20
ENDBRANCH   8  10
ENDBRANCH   1   8
TORSDOF 6
ENDMDL


