REMARK SMILES S/C(=N\c1ccccc1Cl)N1CCC[C@H](Cc2cc3ccccc3[nH]2)C1
REMARK SMILES IDX 11 1 12 2 13 3 14 4 15 5 26 6 2 7 1 8 3 10 4 11 5 12 9 13
REMARK SMILES IDX 6 14 8 15 7 16 10 17 16 18 17 19 18 20 25 21 19 22 24 23
REMARK SMILES IDX 20 24 23 25 21 26 22 27
REMARK H PARENT 1 9 25 28
ROOT
ATOM      1  N   UNL     1      -2.438  -1.179  -0.647  1.00  0.00    -0.351 N 
ATOM      2  C   UNL     1      -3.178  -2.090  -1.530  1.00  0.00     0.118 C 
ATOM      3  C   UNL     1      -2.212  -2.694  -2.558  1.00  0.00     0.022 C 
ATOM      4  C   UNL     1      -0.995  -3.333  -1.866  1.00  0.00     0.007 C 
ATOM      5  C   UNL     1      -0.300  -2.334  -0.916  1.00  0.00     0.014 C 
ATOM      6  C   UNL     1      -1.331  -1.794   0.095  1.00  0.00     0.122 C 
ENDROOT
BRANCH   1   7
ATOM      7  C   UNL     1      -2.486   0.256  -0.825  1.00  0.00     0.161 C 
BRANCH   7   8
ATOM      8  S   UNL     1      -3.953   1.030  -1.540  1.00  0.00    -0.106 SA
ATOM      9  H   UNL     1      -4.590   1.112  -0.288  1.00  0.00     0.111 HD
ENDBRANCH   7   8
BRANCH   7  10
ATOM     10  N   UNL     1      -1.434   0.966  -0.524  1.00  0.00    -0.224 NA
BRANCH  10  11
ATOM     11  C   UNL     1      -1.285   2.392  -0.599  1.00  0.00     0.085 A 
ATOM     12  C   UNL     1      -2.222   3.255  -0.004  1.00  0.00     0.030 A 
ATOM     13  C   UNL     1      -0.119   2.931  -1.170  1.00  0.00     0.066 A 
ATOM     14  C   UNL     1      -2.028   4.639  -0.040  1.00  0.00     0.002 A 
ATOM     15  C   UNL     1       0.070   4.318  -1.203  1.00  0.00     0.023 A 
ATOM     16  C   UNL     1      -0.886   5.170  -0.645  1.00  0.00     0.002 A 
ATOM     17  Cl  UNL     1       1.111   1.881  -1.860  1.00  0.00    -0.082 Cl
ENDBRANCH  10  11
ENDBRANCH   7  10
ENDBRANCH   1   7
BRANCH   5  18
ATOM     18  C   UNL     1       0.902  -2.990  -0.210  1.00  0.00     0.059 C 
BRANCH  18  19
ATOM     19  C   UNL     1       1.727  -1.965   0.512  1.00  0.00     0.016 A 
ATOM     20  C   UNL     1       1.702  -1.737   1.886  1.00  0.00     0.031 A 
ATOM     21  N   UNL     1       2.505  -1.054  -0.119  1.00  0.00    -0.358 N 
ATOM     22  C   UNL     1       2.509  -0.637   2.076  1.00  0.00    -0.000 A 
ATOM     23  C   UNL     1       2.977  -0.250   0.847  1.00  0.00     0.046 A 
ATOM     24  C   UNL     1       2.834   0.059   3.239  1.00  0.00     0.010 A 
ATOM     25  C   UNL     1       3.802   0.863   0.694  1.00  0.00     0.026 A 
ATOM     26  C   UNL     1       3.671   1.184   3.117  1.00  0.00     0.001 A 
ATOM     27  C   UNL     1       4.152   1.585   1.850  1.00  0.00     0.002 A 
ATOM     28  H   UNL     1       2.675  -0.973  -1.147  1.00  0.00     0.166 HD
ENDBRANCH  18  19
ENDBRANCH   5  18
TORSDOF 6


