REMARK SMILES C=C[C@@H]1C[C@](N)(c2ccc3[nH]ccc3c2)[C@@H](Nc2ccc(C)[nH+]c2F)C[C@@H]1F
REMARK SMILES IDX 3 1 4 2 5 3 16 4 26 5 27 6 28 7 2 8 1 9 6 10 7 13 8 14 15 15
REMARK SMILES IDX 9 16 14 17 10 18 13 19 11 20 12 21 17 23 18 25 19 26 24 27
REMARK SMILES IDX 20 28 23 29 21 30 25 31 22 33
REMARK H PARENT 6 11 6 12 11 22 17 24 23 32
ROOT
ATOM      1  C   UNL     1      -1.292   3.066  -2.590  1.00  0.00     0.048 C 
ATOM      2  C   UNL     1      -1.501   1.829  -1.687  1.00  0.00     0.040 C 
ATOM      3  C   UNL     1      -0.214   0.963  -1.575  1.00  0.00     0.062 C 
ATOM      4  C   UNL     1       0.956   1.865  -1.048  1.00  0.00     0.107 C 
ATOM      5  C   UNL     1       1.164   3.097  -1.951  1.00  0.00     0.065 C 
ATOM      6  C   UNL     1      -0.122   3.926  -2.069  1.00  0.00     0.175 C 
ATOM      7  F   UNL     1      -0.433   4.476  -0.834  1.00  0.00    -0.247 F 
ENDROOT
BRANCH   1   8
ATOM      8  C   UNL     1      -2.560   3.886  -2.678  1.00  0.00    -0.028 C 
ATOM      9  C   UNL     1      -3.634   3.444  -3.340  1.00  0.00     0.004 C 
ENDBRANCH   1   8
BRANCH   3  10
ATOM     10  N   UNL     1       0.130   0.478  -2.925  1.00  0.00    -0.320 NA
ATOM     11  H   UNL     1       0.965  -0.149  -2.896  1.00  0.00     0.119 HD
ATOM     12  H   UNL     1      -0.672  -0.054  -3.337  1.00  0.00     0.119 HD
ENDBRANCH   3  10
BRANCH   3  13
ATOM     13  C   UNL     1      -0.483  -0.203  -0.595  1.00  0.00    -0.025 A 
ATOM     14  C   UNL     1      -0.414  -1.574  -0.998  1.00  0.00     0.008 A 
ATOM     15  C   UNL     1      -0.765   0.080   0.770  1.00  0.00     0.016 A 
ATOM     16  C   UNL     1      -0.563  -2.616  -0.066  1.00  0.00     0.027 A 
ATOM     17  C   UNL     1      -0.895  -0.979   1.662  1.00  0.00    -0.000 A 
ATOM     18  C   UNL     1      -0.792  -2.279   1.261  1.00  0.00     0.045 A 
ATOM     19  C   UNL     1      -1.103  -0.981   3.024  1.00  0.00     0.028 A 
ATOM     20  N   UNL     1      -0.925  -3.114   2.305  1.00  0.00    -0.361 N 
ATOM     21  C   UNL     1      -1.115  -2.324   3.386  1.00  0.00     0.083 A 
ATOM     22  H   UNL     1      -0.883  -4.157   2.291  1.00  0.00     0.166 HD
ENDBRANCH   3  13
BRANCH   4  23
ATOM     23  N   UNL     1       2.216   1.112  -0.942  1.00  0.00    -0.372 N 
ATOM     24  H   UNL     1       2.752   0.940  -1.823  1.00  0.00     0.161 HD
BRANCH  23  25
ATOM     25  C   UNL     1       2.498   0.251   0.172  1.00  0.00     0.140 A 
ATOM     26  C   UNL     1       2.798  -1.097  -0.057  1.00  0.00     0.042 A 
ATOM     27  C   UNL     1       2.435   0.712   1.498  1.00  0.00     0.381 A 
ATOM     28  C   UNL     1       2.963  -1.969   1.017  1.00  0.00     0.076 A 
ATOM     29  N   UNL     1       2.601  -0.157   2.533  1.00  0.00    -0.182 N 
ATOM     30  C   UNL     1       2.860  -1.480   2.325  1.00  0.00     0.179 A 
ATOM     31  F   UNL     1       2.226   2.026   1.763  1.00  0.00    -0.134 F 
ATOM     32  H   UNL     1       2.523   0.209   3.509  1.00  0.00     0.456 HD
ATOM     33  C   UNL     1       2.969  -2.423   3.486  1.00  0.00     0.123 C 
ENDBRANCH  23  25
ENDBRANCH   4  23
TORSDOF 5


