REMARK SMILES c1cncc(Cc2cc3ccccc3[nH]2)c1
REMARK SMILES IDX 7 1 8 2 9 3 10 4 11 5 12 6 13 7 14 8 15 9 6 11 5 12 1 13
REMARK SMILES IDX 2 14 16 15 3 16 4 17
REMARK H PARENT 15 10
ROOT
ATOM      1  C   UNL     1      -0.924   0.627   1.268  1.00  0.00     0.020 A 
ATOM      2  C   UNL     1      -0.524  -0.699   1.118  1.00  0.00     0.032 A 
ATOM      3  C   UNL     1      -1.054  -1.092  -0.091  1.00  0.00    -0.000 A 
ATOM      4  C   UNL     1      -0.976  -2.311  -0.762  1.00  0.00     0.010 A 
ATOM      5  C   UNL     1      -1.618  -2.415  -2.010  1.00  0.00     0.001 A 
ATOM      6  C   UNL     1      -2.312  -1.310  -2.552  1.00  0.00     0.002 A 
ATOM      7  C   UNL     1      -2.370  -0.091  -1.851  1.00  0.00     0.026 A 
ATOM      8  C   UNL     1      -1.728  -0.019  -0.616  1.00  0.00     0.046 A 
ATOM      9  N   UNL     1      -1.651   1.042   0.204  1.00  0.00    -0.358 N 
ATOM     10  H   UNL     1      -2.055   1.992   0.046  1.00  0.00     0.166 HD
ENDROOT
BRANCH   1  11
ATOM     11  C   UNL     1      -0.529   1.522   2.402  1.00  0.00     0.091 C 
BRANCH  11  12
ATOM     12  C   UNL     1       0.750   2.238   2.069  1.00  0.00    -0.024 A 
ATOM     13  C   UNL     1       1.922   4.098   1.050  1.00  0.00     0.020 A 
ATOM     14  C   UNL     1       3.135   3.497   1.392  1.00  0.00     0.111 A 
ATOM     15  C   UNL     1       0.726   3.462   1.385  1.00  0.00     0.007 A 
ATOM     16  N   UNL     1       3.144   2.303   2.042  1.00  0.00    -0.264 NA
ATOM     17  C   UNL     1       1.992   1.664   2.381  1.00  0.00     0.115 A 
ENDBRANCH  11  12
ENDBRANCH   1  11
TORSDOF 2


