REMARK SMILES C[C@H](COC(=O)Nc1cc(F)c[nH]/c1=N/c1c[n-]c2nccc-2c1)c1ccccc1[N+](=O)[O-]
REMARK SMILES IDX 4 1 5 2 7 3 6 5 8 6 14 7 13 8 9 9 12 10 10 11 11 13 15 14
REMARK SMILES IDX 16 15 21 16 20 17 22 18 19 19 23 20 18 21 24 22 17 23 3 24
REMARK SMILES IDX 2 25 1 26 25 27 26 28 30 29 27 30 29 31 28 32 31 33 32 34
REMARK SMILES IDX 33 35
REMARK H PARENT 7 4 13 12
ROOT
ATOM      1  O   UNL     1      -0.261  -0.337   0.943  1.00  0.00    -0.449 OA
ENDROOT
BRANCH   1   2
ATOM      2  C   UNL     1       0.282  -0.951  -0.190  1.00  0.00     0.411 C 
ATOM      3  N   UNL     1       1.437  -1.784  -0.044  1.00  0.00    -0.288 N 
ATOM      4  H   UNL     1       2.000  -1.696   0.832  1.00  0.00     0.173 HD
ATOM      5  O   UNL     1      -0.252  -0.797  -1.323  1.00  0.00    -0.224 OA
BRANCH   3   6
ATOM      6  C   UNL     1       1.980  -2.540  -1.135  1.00  0.00     0.090 A 
ATOM      7  C   UNL     1       1.264  -3.581  -1.799  1.00  0.00     0.154 A 
ATOM      8  N   UNL     1       1.782  -4.098  -2.953  1.00  0.00    -0.342 N 
ATOM      9  C   UNL     1       3.237  -2.168  -1.624  1.00  0.00     0.071 A 
ATOM     10  C   UNL     1       2.992  -3.716  -3.443  1.00  0.00     0.123 A 
ATOM     11  C   UNL     1       3.748  -2.757  -2.776  1.00  0.00     0.141 A 
ATOM     12  H   UNL     1       1.255  -4.839  -3.468  1.00  0.00     0.168 HD
ATOM     13  F   UNL     1       4.957  -2.380  -3.260  1.00  0.00    -0.205 F 
BRANCH   7  14
ATOM     14  N   UNL     1       0.136  -4.084  -1.364  1.00  0.00    -0.229 NA
BRANCH  14  15
ATOM     15  C   UNL     1      -0.522  -3.873  -0.108  1.00  0.00     0.062 A 
ATOM     16  C   UNL     1      -3.661  -2.776   2.918  1.00  0.00    -0.022 A 
ATOM     17  N   UNL     1      -2.472  -3.200   3.423  1.00  0.00    -0.442 NA
ATOM     18  C   UNL     1      -3.690  -2.784   1.521  1.00  0.00     0.003 A 
ATOM     19  C   UNL     1      -1.735  -3.481   2.338  1.00  0.00    -0.052 A 
ATOM     20  C   UNL     1      -2.456  -3.237   1.135  1.00  0.00    -0.025 A 
ATOM     21  N   UNL     1      -0.460  -3.933   2.324  1.00  0.00    -0.440 NA
ATOM     22  C   UNL     1      -1.865  -3.447  -0.100  1.00  0.00     0.036 A 
ATOM     23  C   UNL     1       0.150  -4.144   1.118  1.00  0.00     0.006 A 
ENDBRANCH  14  15
ENDBRANCH   7  14
ENDBRANCH   3   6
ENDBRANCH   1   2
BRANCH   1  24
ATOM     24  C   UNL     1      -1.431   0.478   0.908  1.00  0.00     0.243 C 
BRANCH  24  25
ATOM     25  C   UNL     1      -1.097   1.899   0.412  1.00  0.00     0.061 C 
ATOM     26  C   UNL     1      -2.356   2.776   0.401  1.00  0.00     0.016 C 
BRANCH  25  27
ATOM     27  C   UNL     1       0.001   2.551   1.248  1.00  0.00     0.036 A 
ATOM     28  C   UNL     1      -0.195   2.719   2.635  1.00  0.00     0.011 A 
ATOM     29  C   UNL     1       1.187   3.072   0.661  1.00  0.00     0.272 A 
ATOM     30  C   UNL     1       0.753   3.378   3.419  1.00  0.00     0.001 A 
ATOM     31  C   UNL     1       2.120   3.747   1.465  1.00  0.00     0.086 A 
ATOM     32  C   UNL     1       1.907   3.894   2.835  1.00  0.00     0.007 A 
BRANCH  29  33
ATOM     33  N   UNL     1       1.463   2.929  -0.739  1.00  0.00     0.063 N 
ATOM     34  O   UNL     1       1.861   3.913  -1.395  1.00  0.00    -0.258 OA
ATOM     35  O   UNL     1       1.582   1.673  -1.286  1.00  0.00    -0.258 OA
ENDBRANCH  29  33
ENDBRANCH  25  27
ENDBRANCH  24  25
ENDBRANCH   1  24
TORSDOF 8


