REMARK SMILES C=Cc1cc(-c2cccc3ncoc23)cc(OC[C@@H](O)CCn2cc(-c3cccnc3F)nn2)c1F
REMARK SMILES IDX 19 1 18 2 17 3 16 4 3 5 4 6 35 7 5 8 15 9 36 10 2 11 1 12
REMARK SMILES IDX 6 13 7 14 14 15 8 16 13 17 10 18 9 19 12 20 11 21 20 22
REMARK SMILES IDX 21 24 22 25 23 26 24 27 34 28 25 29 33 30 26 31 27 32 31 33
REMARK SMILES IDX 28 34 30 35 29 36 32 37
REMARK H PARENT 20 23
ROOT
ATOM      1  C   UNL     1       1.167   1.292  -2.036  1.00  0.00     0.154 C 
ENDROOT
BRANCH   1   2
ATOM      2  C   UNL     1       0.730  -0.073  -1.490  1.00  0.00     0.261 C 
BRANCH   2   3
ATOM      3  O   UNL     1       0.521   0.006  -0.081  1.00  0.00    -0.488 OA
BRANCH   3   4
ATOM      4  C   UNL     1       0.129  -1.071   0.729  1.00  0.00     0.156 A 
ATOM      5  C   UNL     1      -0.416  -1.894   2.961  1.00  0.00     0.014 A 
ATOM      6  C   UNL     1      -0.685  -3.158   2.417  1.00  0.00     0.020 A 
ATOM      7  C   UNL     1      -0.025  -0.845   2.102  1.00  0.00     0.172 A 
ATOM      8  C   UNL     1      -0.529  -3.401   1.043  1.00  0.00    -0.010 A 
ATOM      9  C   UNL     1      -0.119  -2.352   0.205  1.00  0.00     0.058 A 
ATOM     10  F   UNL     1       0.157   0.413   2.578  1.00  0.00    -0.202 F 
BRANCH   5  11
ATOM     11  C   UNL     1      -0.595  -1.704   4.419  1.00  0.00     0.003 C 
ATOM     12  C   UNL     1       0.169  -0.897   5.154  1.00  0.00     0.009 C 
ENDBRANCH   5  11
BRANCH   8  13
ATOM     13  C   UNL     1      -0.801  -4.749   0.485  1.00  0.00     0.027 A 
ATOM     14  C   UNL     1      -1.916  -5.512   0.909  1.00  0.00     0.013 A 
ATOM     15  C   UNL     1       0.029  -5.332  -0.481  1.00  0.00     0.162 A 
ATOM     16  C   UNL     1      -2.163  -6.793   0.366  1.00  0.00     0.003 A 
ATOM     17  O   UNL     1       1.121  -4.864  -1.024  1.00  0.00    -0.443 OA
ATOM     18  C   UNL     1      -0.212  -6.568  -1.002  1.00  0.00     0.110 A 
ATOM     19  C   UNL     1      -1.302  -7.335  -0.605  1.00  0.00     0.032 A 
ATOM     20  C   UNL     1       1.539  -5.793  -1.867  1.00  0.00     0.309 A 
ATOM     21  N   UNL     1       0.739  -6.890  -1.895  1.00  0.00    -0.217 NA
ENDBRANCH   8  13
ENDBRANCH   3   4
ENDBRANCH   2   3
ENDBRANCH   1   2
BRANCH   1  22
ATOM     22  O   UNL     1       0.180   2.249  -1.749  1.00  0.00    -0.390 OA
ATOM     23  H   UNL     1      -0.551   2.116  -2.408  1.00  0.00     0.211 HD
ENDBRANCH   1  22
BRANCH   1  24
ATOM     24  C   UNL     1       2.511   1.727  -1.419  1.00  0.00     0.059 C 
BRANCH  24  25
ATOM     25  C   UNL     1       3.139   2.925  -2.144  1.00  0.00     0.149 C 
BRANCH  25  26
ATOM     26  N   UNL     1       2.351   4.138  -1.948  1.00  0.00    -0.252 N 
ATOM     27  C   UNL     1       1.585   4.758  -2.861  1.00  0.00     0.139 A 
ATOM     28  N   UNL     1       2.270   4.802  -0.807  1.00  0.00    -0.067 NA
ATOM     29  C   UNL     1       1.020   5.844  -2.217  1.00  0.00     0.117 A 
ATOM     30  N   UNL     1       1.470   5.849  -0.943  1.00  0.00    -0.130 NA
BRANCH  29  31
ATOM     31  C   UNL     1       0.105   6.868  -2.777  1.00  0.00     0.059 A 
ATOM     32  C   UNL     1      -0.052   8.094  -2.108  1.00  0.00     0.017 A 
ATOM     33  C   UNL     1      -0.634   6.655  -3.959  1.00  0.00     0.222 A 
ATOM     34  C   UNL     1      -0.904   9.073  -2.620  1.00  0.00     0.021 A 
ATOM     35  N   UNL     1      -1.460   7.628  -4.432  1.00  0.00    -0.228 NA
ATOM     36  C   UNL     1      -1.605   8.820  -3.798  1.00  0.00     0.114 A 
ATOM     37  F   UNL     1      -0.573   5.478  -4.628  1.00  0.00    -0.184 F 
ENDBRANCH  29  31
ENDBRANCH  25  26
ENDBRANCH  24  25
ENDBRANCH   1  24
TORSDOF 10


