MODEL 1
REMARK VINA RESULT:      -8.2      0.000      0.000
REMARK SMILES Nc1cc(F)c(-c2cnc3c(c2)C(=O)NC3)cc1C=O
REMARK SMILES IDX 2 1 3 2 4 3 5 4 6 5 17 6 18 7 1 8 19 11 20 12 7 13 8 14
REMARK SMILES IDX 12 15 9 16 11 17 10 18 13 19 16 20 15 21 14 22
REMARK H PARENT 1 9 1 10 15 23
ROOT
ATOM      1  C   UNL     1      46.047 130.838  14.037  1.00  0.00     0.045 A 
ATOM      2  C   UNL     1      44.886 131.504  14.456  1.00  0.00     0.066 A 
ATOM      3  C   UNL     1      44.546 131.570  15.808  1.00  0.00     0.133 A 
ATOM      4  F   UNL     1      43.440 132.269  16.172  1.00  0.00    -0.206 F 
ATOM      5  C   UNL     1      45.369 130.968  16.775  1.00  0.00     0.020 A 
ATOM      6  C   UNL     1      46.526 130.289  16.360  1.00  0.00     0.025 A 
ATOM      7  C   UNL     1      46.865 130.194  15.000  1.00  0.00     0.038 A 
ENDROOT
BRANCH   1   8
ATOM      8  N   UNL     1      46.397 130.886  12.647  1.00  0.00    -0.398 N 
ATOM      9  H   UNL     1      46.653 130.029  12.111  1.00  0.00     0.156 HD
ATOM     10  H   UNL     1      46.562 131.804  12.176  1.00  0.00     0.156 HD
ENDBRANCH   1   8
BRANCH   7  11
ATOM     11  C   UNL     1      48.049 129.381  14.647  1.00  0.00     0.262 C 
ATOM     12  O   UNL     1      48.708 129.590  13.595  1.00  0.00    -0.298 OA
ENDBRANCH   7  11
BRANCH   5  13
ATOM     13  C   UNL     1      45.028 131.035  18.217  1.00  0.00     0.004 A 
ATOM     14  C   UNL     1      45.851 130.396  19.180  1.00  0.00     0.120 A 
ATOM     15  C   UNL     1      43.872 131.719  18.653  1.00  0.00     0.026 A 
ATOM     16  N   UNL     1      45.537 130.447  20.509  1.00  0.00    -0.258 NA
ATOM     17  C   UNL     1      43.604 131.738  20.017  1.00  0.00     0.063 A 
ATOM     18  C   UNL     1      44.427 131.111  20.916  1.00  0.00     0.072 A 
ATOM     19  C   UNL     1      42.527 132.327  20.771  1.00  0.00     0.253 C 
ATOM     20  C   UNL     1      43.928 131.262  22.322  1.00  0.00     0.173 C 
ATOM     21  N   UNL     1      42.706 132.053  22.156  1.00  0.00    -0.346 N 
ATOM     22  O   UNL     1      41.565 132.987  20.298  1.00  0.00    -0.269 OA
ATOM     23  H   UNL     1      42.071 132.363  22.925  1.00  0.00     0.164 HD
ENDBRANCH   5  13
TORSDOF 3
ENDMDL
MODEL 2
REMARK VINA RESULT:      -7.5      2.209      6.724
REMARK SMILES Nc1cc(F)c(-c2cnc3c(c2)C(=O)NC3)cc1C=O
REMARK SMILES IDX 2 1 3 2 4 3 5 4 6 5 17 6 18 7 1 8 19 11 20 12 7 13 8 14
REMARK SMILES IDX 12 15 9 16 11 17 10 18 13 19 16 20 15 21 14 22
REMARK H PARENT 1 9 1 10 15 23
ROOT
ATOM      1  C   UNL     1      42.548 132.091  22.075  1.00  0.00     0.045 A 
ATOM      2  C   UNL     1      41.999 132.522  20.858  1.00  0.00     0.066 A 
ATOM      3  C   UNL     1      42.626 132.235  19.646  1.00  0.00     0.133 A 
ATOM      4  F   UNL     1      42.032 132.629  18.491  1.00  0.00    -0.206 F 
ATOM      5  C   UNL     1      43.825 131.503  19.626  1.00  0.00     0.020 A 
ATOM      6  C   UNL     1      44.387 131.079  20.841  1.00  0.00     0.025 A 
ATOM      7  C   UNL     1      43.778 131.384  22.069  1.00  0.00     0.038 A 
ENDROOT
BRANCH   1   8
ATOM      8  N   UNL     1      41.810 132.329  23.281  1.00  0.00    -0.398 N 
ATOM      9  H   UNL     1      41.895 133.221  23.814  1.00  0.00     0.156 HD
ATOM     10  H   UNL     1      41.289 131.551  23.742  1.00  0.00     0.156 HD
ENDBRANCH   1   8
BRANCH   7  11
ATOM     11  C   UNL     1      44.487 130.979  23.303  1.00  0.00     0.262 C 
ATOM     12  O   UNL     1      43.914 130.326  24.213  1.00  0.00    -0.298 OA
ENDBRANCH   7  11
BRANCH   5  13
ATOM     13  C   UNL     1      44.503 131.182  18.346  1.00  0.00     0.004 A 
ATOM     14  C   UNL     1      45.768 130.540  18.344  1.00  0.00     0.120 A 
ATOM     15  C   UNL     1      43.910 131.523  17.111  1.00  0.00     0.026 A 
ATOM     16  N   UNL     1      46.401 130.249  17.169  1.00  0.00    -0.258 NA
ATOM     17  C   UNL     1      44.599 131.202  15.948  1.00  0.00     0.063 A 
ATOM     18  C   UNL     1      45.819 130.578  15.989  1.00  0.00     0.072 A 
ATOM     19  C   UNL     1      44.282 131.415  14.559  1.00  0.00     0.253 C 
ATOM     20  C   UNL     1      46.368 130.344  14.613  1.00  0.00     0.173 C 
ATOM     21  N   UNL     1      45.331 130.906  13.744  1.00  0.00    -0.346 N 
ATOM     22  O   UNL     1      43.242 131.966  14.112  1.00  0.00    -0.269 OA
ATOM     23  H   UNL     1      45.358 130.929  12.700  1.00  0.00     0.164 HD
ENDBRANCH   5  13
TORSDOF 3
ENDMDL
MODEL 3
REMARK VINA RESULT:      -6.8      1.199      1.425
REMARK SMILES Nc1cc(F)c(-c2cnc3c(c2)C(=O)NC3)cc1C=O
REMARK SMILES IDX 2 1 3 2 4 3 5 4 6 5 17 6 18 7 1 8 19 11 20 12 7 13 8 14
REMARK SMILES IDX 12 15 9 16 11 17 10 18 13 19 16 20 15 21 14 22
REMARK H PARENT 1 9 1 10 15 23
ROOT
ATOM      1  C   UNL     1      45.190 131.188  15.153  1.00  0.00     0.045 A 
ATOM      2  C   UNL     1      44.044 131.734  15.750  1.00  0.00     0.066 A 
ATOM      3  C   UNL     1      43.852 131.666  17.130  1.00  0.00     0.133 A 
ATOM      4  F   UNL     1      42.752 132.252  17.668  1.00  0.00    -0.206 F 
ATOM      5  C   UNL     1      44.813 131.049  17.948  1.00  0.00     0.020 A 
ATOM      6  C   UNL     1      45.957 130.490  17.356  1.00  0.00     0.025 A 
ATOM      7  C   UNL     1      46.148 130.529  15.965  1.00  0.00     0.038 A 
ENDROOT
BRANCH   1   8
ATOM      8  N   UNL     1      45.380 131.373  13.744  1.00  0.00    -0.398 N 
ATOM      9  H   UNL     1      45.756 130.617  13.133  1.00  0.00     0.156 HD
ATOM     10  H   UNL     1      45.298 132.325  13.321  1.00  0.00     0.156 HD
ENDBRANCH   1   8
BRANCH   7  11
ATOM     11  C   UNL     1      47.334 129.834  15.419  1.00  0.00     0.262 C 
ATOM     12  O   UNL     1      47.279 129.163  14.355  1.00  0.00    -0.298 OA
ENDBRANCH   7  11
BRANCH   5  13
ATOM     13  C   UNL     1      44.631 130.975  19.418  1.00  0.00     0.004 A 
ATOM     14  C   UNL     1      45.529 130.221  20.217  1.00  0.00     0.120 A 
ATOM     15  C   UNL     1      43.553 131.637  20.045  1.00  0.00     0.026 A 
ATOM     16  N   UNL     1      45.361 130.141  21.571  1.00  0.00    -0.258 NA
ATOM     17  C   UNL     1      43.433 131.523  21.425  1.00  0.00     0.063 A 
ATOM     18  C   UNL     1      44.325 130.787  22.162  1.00  0.00     0.072 A 
ATOM     19  C   UNL     1      42.464 132.057  22.348  1.00  0.00     0.253 C 
ATOM     20  C   UNL     1      43.985 130.804  23.622  1.00  0.00     0.173 C 
ATOM     21  N   UNL     1      42.780 131.637  23.671  1.00  0.00    -0.346 N 
ATOM     22  O   UNL     1      41.481 132.784  22.052  1.00  0.00    -0.269 OA
ATOM     23  H   UNL     1      42.242 131.881  24.532  1.00  0.00     0.164 HD
ENDBRANCH   5  13
TORSDOF 3
ENDMDL
MODEL 4
REMARK VINA RESULT:      -6.8      2.560      3.390
REMARK SMILES Nc1cc(F)c(-c2cnc3c(c2)C(=O)NC3)cc1C=O
REMARK SMILES IDX 2 1 3 2 4 3 5 4 6 5 17 6 18 7 1 8 19 11 20 12 7 13 8 14
REMARK SMILES IDX 12 15 9 16 11 17 10 18 13 19 16 20 15 21 14 22
REMARK H PARENT 1 9 1 10 15 23
ROOT
ATOM      1  C   UNL     1      45.445 130.818  15.676  1.00  0.00     0.045 A 
ATOM      2  C   UNL     1      46.161 130.479  16.833  1.00  0.00     0.066 A 
ATOM      3  C   UNL     1      45.621 130.699  18.101  1.00  0.00     0.133 A 
ATOM      4  F   UNL     1      46.329 130.309  19.191  1.00  0.00    -0.206 F 
ATOM      5  C   UNL     1      44.342 131.264  18.237  1.00  0.00     0.020 A 
ATOM      6  C   UNL     1      43.626 131.617  17.081  1.00  0.00     0.025 A 
ATOM      7  C   UNL     1      44.170 131.424  15.801  1.00  0.00     0.038 A 
ENDROOT
BRANCH   1   8
ATOM      8  N   UNL     1      46.008 130.479  14.401  1.00  0.00    -0.398 N 
ATOM      9  H   UNL     1      45.888 129.535  13.977  1.00  0.00     0.156 HD
ATOM     10  H   UNL     1      46.690 131.121  13.939  1.00  0.00     0.156 HD
ENDBRANCH   1   8
BRANCH   7  11
ATOM     11  C   UNL     1      43.384 131.910  14.645  1.00  0.00     0.262 C 
ATOM     12  O   UNL     1      43.212 131.205  13.617  1.00  0.00    -0.298 OA
ENDBRANCH   7  11
BRANCH   5  13
ATOM     13  C   UNL     1      43.748 131.498  19.575  1.00  0.00     0.004 A 
ATOM     14  C   UNL     1      42.735 132.475  19.751  1.00  0.00     0.120 A 
ATOM     15  C   UNL     1      44.191 130.766  20.698  1.00  0.00     0.026 A 
ATOM     16  N   UNL     1      42.189 132.701  20.984  1.00  0.00    -0.258 NA
ATOM     17  C   UNL     1      43.600 131.037  21.926  1.00  0.00     0.063 A 
ATOM     18  C   UNL     1      42.620 131.988  22.054  1.00  0.00     0.072 A 
ATOM     19  C   UNL     1      43.825 130.486  23.238  1.00  0.00     0.253 C 
ATOM     20  C   UNL     1      42.145 132.107  23.471  1.00  0.00     0.173 C 
ATOM     21  N   UNL     1      42.960 131.115  24.177  1.00  0.00    -0.346 N 
ATOM     22  O   UNL     1      44.654 129.586  23.532  1.00  0.00    -0.269 OA
ATOM     23  H   UNL     1      42.914 130.904  25.199  1.00  0.00     0.164 HD
ENDBRANCH   5  13
TORSDOF 3
ENDMDL
MODEL 5
REMARK VINA RESULT:      -6.5      1.709      7.098
REMARK SMILES Nc1cc(F)c(-c2cnc3c(c2)C(=O)NC3)cc1C=O
REMARK SMILES IDX 2 1 3 2 4 3 5 4 6 5 17 6 18 7 1 8 19 11 20 12 7 13 8 14
REMARK SMILES IDX 12 15 9 16 11 17 10 18 13 19 16 20 15 21 14 22
REMARK H PARENT 1 9 1 10 15 23
ROOT
ATOM      1  C   UNL     1      44.144 131.350  21.931  1.00  0.00     0.045 A 
ATOM      2  C   UNL     1      45.284 130.746  21.380  1.00  0.00     0.066 A 
ATOM      3  C   UNL     1      45.475 130.700  19.998  1.00  0.00     0.133 A 
ATOM      4  F   UNL     1      46.617 130.151  19.512  1.00  0.00    -0.206 F 
ATOM      5  C   UNL     1      44.522 131.263  19.134  1.00  0.00     0.020 A 
ATOM      6  C   UNL     1      43.372 131.858  19.679  1.00  0.00     0.025 A 
ATOM      7  C   UNL     1      43.157 131.887  21.066  1.00  0.00     0.038 A 
ENDROOT
BRANCH   1   8
ATOM      8  N   UNL     1      44.049 131.455  23.358  1.00  0.00    -0.398 N 
ATOM      9  H   UNL     1      44.157 132.365  23.853  1.00  0.00     0.156 HD
ATOM     10  H   UNL     1      44.029 130.594  23.949  1.00  0.00     0.156 HD
ENDBRANCH   1   8
BRANCH   7  11
ATOM     11  C   UNL     1      41.875 132.449  21.547  1.00  0.00     0.262 C 
ATOM     12  O   UNL     1      41.250 133.327  20.896  1.00  0.00    -0.298 OA
ENDBRANCH   7  11
BRANCH   5  13
ATOM     13  C   UNL     1      44.710 131.231  17.663  1.00  0.00     0.004 A 
ATOM     14  C   UNL     1      43.715 131.755  16.798  1.00  0.00     0.120 A 
ATOM     15  C   UNL     1      45.873 130.664  17.098  1.00  0.00     0.026 A 
ATOM     16  N   UNL     1      43.879 131.720  15.442  1.00  0.00    -0.258 NA
ATOM     17  C   UNL     1      45.987 130.657  15.713  1.00  0.00     0.063 A 
ATOM     18  C   UNL     1      45.003 131.177  14.912  1.00  0.00     0.072 A 
ATOM     19  C   UNL     1      47.019 130.157  14.841  1.00  0.00     0.253 C 
ATOM     20  C   UNL     1      45.346 131.048  13.458  1.00  0.00     0.173 C 
ATOM     21  N   UNL     1      46.652 130.384  13.485  1.00  0.00    -0.346 N 
ATOM     22  O   UNL     1      48.089 129.601  15.201  1.00  0.00    -0.269 OA
ATOM     23  H   UNL     1      47.220 130.122  12.648  1.00  0.00     0.164 HD
ENDBRANCH   5  13
TORSDOF 3
ENDMDL
MODEL 6
REMARK VINA RESULT:      -6.5      1.752      6.766
REMARK SMILES Nc1cc(F)c(-c2cnc3c(c2)C(=O)NC3)cc1C=O
REMARK SMILES IDX 2 1 3 2 4 3 5 4 6 5 17 6 18 7 1 8 19 11 20 12 7 13 8 14
REMARK SMILES IDX 12 15 9 16 11 17 10 18 13 19 16 20 15 21 14 22
REMARK H PARENT 1 9 1 10 15 23
ROOT
ATOM      1  C   UNL     1      43.090 131.534  20.271  1.00  0.00     0.045 A 
ATOM      2  C   UNL     1      42.514 131.860  19.034  1.00  0.00     0.066 A 
ATOM      3  C   UNL     1      43.270 131.836  17.861  1.00  0.00     0.133 A 
ATOM      4  F   UNL     1      42.658 132.109  16.681  1.00  0.00    -0.206 F 
ATOM      5  C   UNL     1      44.629 131.480  17.903  1.00  0.00     0.020 A 
ATOM      6  C   UNL     1      45.214 131.166  19.140  1.00  0.00     0.025 A 
ATOM      7  C   UNL     1      44.469 131.211  20.330  1.00  0.00     0.038 A 
ENDROOT
BRANCH   1   8
ATOM      8  N   UNL     1      42.242 131.481  21.426  1.00  0.00    -0.398 N 
ATOM      9  H   UNL     1      41.909 132.343  21.907  1.00  0.00     0.156 HD
ATOM     10  H   UNL     1      42.068 130.572  21.910  1.00  0.00     0.156 HD
ENDBRANCH   1   8
BRANCH   7  11
ATOM     11  C   UNL     1      45.189 130.956  21.597  1.00  0.00     0.262 C 
ATOM     12  O   UNL     1      44.731 130.180  22.476  1.00  0.00    -0.298 OA
ENDBRANCH   7  11
BRANCH   5  13
ATOM     13  C   UNL     1      45.447 131.442  16.667  1.00  0.00     0.004 A 
ATOM     14  C   UNL     1      45.685 132.627  15.925  1.00  0.00     0.120 A 
ATOM     15  C   UNL     1      45.988 130.225  16.200  1.00  0.00     0.026 A 
ATOM     16  N   UNL     1      46.431 132.596  14.780  1.00  0.00    -0.258 NA
ATOM     17  C   UNL     1      46.740 130.253  15.031  1.00  0.00     0.063 A 
ATOM     18  C   UNL     1      46.950 131.421  14.344  1.00  0.00     0.072 A 
ATOM     19  C   UNL     1      47.409 129.209  14.298  1.00  0.00     0.253 C 
ATOM     20  C   UNL     1      47.780 131.200  13.115  1.00  0.00     0.173 C 
ATOM     21  N   UNL     1      48.039 129.758  13.147  1.00  0.00    -0.346 N 
ATOM     22  O   UNL     1      47.443 127.990  14.610  1.00  0.00    -0.269 OA
ATOM     23  H   UNL     1      48.593 129.223  12.442  1.00  0.00     0.164 HD
ENDBRANCH   5  13
TORSDOF 3
ENDMDL
MODEL 7
REMARK VINA RESULT:      -6.5      1.853      6.813
REMARK SMILES Nc1cc(F)c(-c2cnc3c(c2)C(=O)NC3)cc1C=O
REMARK SMILES IDX 2 1 3 2 4 3 5 4 6 5 17 6 18 7 1 8 19 11 20 12 7 13 8 14
REMARK SMILES IDX 12 15 9 16 11 17 10 18 13 19 16 20 15 21 14 22
REMARK H PARENT 1 9 1 10 15 23
ROOT
ATOM      1  C   UNL     1      42.756 131.912  21.321  1.00  0.00     0.045 A 
ATOM      2  C   UNL     1      42.034 132.424  20.232  1.00  0.00     0.066 A 
ATOM      3  C   UNL     1      42.506 132.280  18.927  1.00  0.00     0.133 A 
ATOM      4  F   UNL     1      41.750 132.747  17.901  1.00  0.00    -0.206 F 
ATOM      5  C   UNL     1      43.718 131.612  18.683  1.00  0.00     0.020 A 
ATOM      6  C   UNL     1      44.451 131.108  19.770  1.00  0.00     0.025 A 
ATOM      7  C   UNL     1      43.999 131.270  21.090  1.00  0.00     0.038 A 
ENDROOT
BRANCH   1   8
ATOM      8  N   UNL     1      42.175 132.004  22.629  1.00  0.00    -0.398 N 
ATOM      9  H   UNL     1      41.914 132.918  23.055  1.00  0.00     0.156 HD
ATOM     10  H   UNL     1      42.146 131.167  23.253  1.00  0.00     0.156 HD
ENDBRANCH   1   8
BRANCH   7  11
ATOM     11  C   UNL     1      44.880 130.790  22.177  1.00  0.00     0.262 C 
ATOM     12  O   UNL     1      44.419 130.407  23.284  1.00  0.00    -0.298 OA
ENDBRANCH   7  11
BRANCH   5  13
ATOM     13  C   UNL     1      44.232 131.442  17.302  1.00  0.00     0.004 A 
ATOM     14  C   UNL     1      43.485 131.917  16.193  1.00  0.00     0.120 A 
ATOM     15  C   UNL     1      45.462 130.791  17.067  1.00  0.00     0.026 A 
ATOM     16  N   UNL     1      43.950 131.755  14.918  1.00  0.00    -0.258 NA
ATOM     17  C   UNL     1      45.886 130.656  15.750  1.00  0.00     0.063 A 
ATOM     18  C   UNL     1      45.136 131.132  14.706  1.00  0.00     0.072 A 
ATOM     19  C   UNL     1      47.062 130.049  15.181  1.00  0.00     0.253 C 
ATOM     20  C   UNL     1      45.791 130.863  13.384  1.00  0.00     0.173 C 
ATOM     21  N   UNL     1      47.022 130.164  13.763  1.00  0.00    -0.346 N 
ATOM     22  O   UNL     1      47.993 129.495  15.821  1.00  0.00    -0.269 OA
ATOM     23  H   UNL     1      47.750 129.810  13.103  1.00  0.00     0.164 HD
ENDBRANCH   5  13
TORSDOF 3
ENDMDL
MODEL 8
REMARK VINA RESULT:      -6.3      2.178      6.942
REMARK SMILES Nc1cc(F)c(-c2cnc3c(c2)C(=O)NC3)cc1C=O
REMARK SMILES IDX 2 1 3 2 4 3 5 4 6 5 17 6 18 7 1 8 19 11 20 12 7 13 8 14
REMARK SMILES IDX 12 15 9 16 11 17 10 18 13 19 16 20 15 21 14 22
REMARK H PARENT 1 9 1 10 15 23
ROOT
ATOM      1  C   UNL     1      43.044 131.800  21.961  1.00  0.00     0.045 A 
ATOM      2  C   UNL     1      44.119 130.903  21.874  1.00  0.00     0.066 A 
ATOM      3  C   UNL     1      44.720 130.620  20.648  1.00  0.00     0.133 A 
ATOM      4  F   UNL     1      45.789 129.784  20.619  1.00  0.00    -0.206 F 
ATOM      5  C   UNL     1      44.256 131.236  19.474  1.00  0.00     0.020 A 
ATOM      6  C   UNL     1      43.172 132.126  19.552  1.00  0.00     0.025 A 
ATOM      7  C   UNL     1      42.542 132.399  20.778  1.00  0.00     0.038 A 
ENDROOT
BRANCH   1   8
ATOM      8  N   UNL     1      42.531 132.127  23.260  1.00  0.00    -0.398 N 
ATOM      9  H   UNL     1      41.510 132.229  23.441  1.00  0.00     0.156 HD
ATOM     10  H   UNL     1      43.178 132.430  24.022  1.00  0.00     0.156 HD
ENDBRANCH   1   8
BRANCH   7  11
ATOM     11  C   UNL     1      41.351 133.276  20.753  1.00  0.00     0.262 C 
ATOM     12  O   UNL     1      40.575 133.368  21.740  1.00  0.00    -0.298 OA
ENDBRANCH   7  11
BRANCH   5  13
ATOM     13  C   UNL     1      44.887 130.954  18.161  1.00  0.00     0.004 A 
ATOM     14  C   UNL     1      46.133 130.280  18.093  1.00  0.00     0.120 A 
ATOM     15  C   UNL     1      44.267 131.366  16.961  1.00  0.00     0.026 A 
ATOM     16  N   UNL     1      46.723 130.025  16.887  1.00  0.00    -0.258 NA
ATOM     17  C   UNL     1      44.913 131.078  15.764  1.00  0.00     0.063 A 
ATOM     18  C   UNL     1      46.116 130.421  15.741  1.00  0.00     0.072 A 
ATOM     19  C   UNL     1      44.561 131.362  14.396  1.00  0.00     0.253 C 
ATOM     20  C   UNL     1      46.618 130.234  14.340  1.00  0.00     0.173 C 
ATOM     21  N   UNL     1      45.572 130.861  13.528  1.00  0.00    -0.346 N 
ATOM     22  O   UNL     1      43.525 131.959  14.006  1.00  0.00    -0.269 OA
ATOM     23  H   UNL     1      45.568 130.930  12.486  1.00  0.00     0.164 HD
ENDBRANCH   5  13
TORSDOF 3
ENDMDL
MODEL 9
REMARK VINA RESULT:      -6.3      1.935      2.561
REMARK SMILES Nc1cc(F)c(-c2cnc3c(c2)C(=O)NC3)cc1C=O
REMARK SMILES IDX 2 1 3 2 4 3 5 4 6 5 17 6 18 7 1 8 19 11 20 12 7 13 8 14
REMARK SMILES IDX 12 15 9 16 11 17 10 18 13 19 16 20 15 21 14 22
REMARK H PARENT 1 9 1 10 15 23
ROOT
ATOM      1  C   UNL     1      44.578 131.115  15.869  1.00  0.00     0.045 A 
ATOM      2  C   UNL     1      43.483 131.692  16.529  1.00  0.00     0.066 A 
ATOM      3  C   UNL     1      43.452 131.785  17.921  1.00  0.00     0.133 A 
ATOM      4  F   UNL     1      42.395 132.396  18.513  1.00  0.00    -0.206 F 
ATOM      5  C   UNL     1      44.526 131.300  18.686  1.00  0.00     0.020 A 
ATOM      6  C   UNL     1      45.619 130.710  18.031  1.00  0.00     0.025 A 
ATOM      7  C   UNL     1      45.650 130.588  16.632  1.00  0.00     0.038 A 
ENDROOT
BRANCH   1   8
ATOM      8  N   UNL     1      44.599 131.135  14.435  1.00  0.00    -0.398 N 
ATOM      9  H   UNL     1      43.724 131.117  13.869  1.00  0.00     0.156 HD
ATOM     10  H   UNL     1      45.498 131.006  13.919  1.00  0.00     0.156 HD
ENDBRANCH   1   8
BRANCH   7  11
ATOM     11  C   UNL     1      46.797 129.870  16.035  1.00  0.00     0.262 C 
ATOM     12  O   UNL     1      47.164 130.077  14.848  1.00  0.00    -0.298 OA
ENDBRANCH   7  11
BRANCH   5  13
ATOM     13  C   UNL     1      44.514 131.397  20.166  1.00  0.00     0.004 A 
ATOM     14  C   UNL     1      45.448 132.227  20.839  1.00  0.00     0.120 A 
ATOM     15  C   UNL     1      43.588 130.654  20.929  1.00  0.00     0.026 A 
ATOM     16  N   UNL     1      45.448 132.313  22.203  1.00  0.00    -0.258 NA
ATOM     17  C   UNL     1      43.634 130.782  22.312  1.00  0.00     0.063 A 
ATOM     18  C   UNL     1      44.550 131.598  22.925  1.00  0.00     0.072 A 
ATOM     19  C   UNL     1      42.852 130.170  23.356  1.00  0.00     0.253 C 
ATOM     20  C   UNL     1      44.411 131.565  24.417  1.00  0.00     0.173 C 
ATOM     21  N   UNL     1      43.303 130.628  24.625  1.00  0.00    -0.346 N 
ATOM     22  O   UNL     1      41.910 129.351  23.193  1.00  0.00    -0.269 OA
ATOM     23  H   UNL     1      42.910 130.344  25.550  1.00  0.00     0.164 HD
ENDBRANCH   5  13
TORSDOF 3
ENDMDL


