REMARK SMILES C/C=C(\C)C(=O)N1CC[C@@H](C)[C@H](F)[C@H]1c1ccc(C(C)=O)cc1
REMARK SMILES IDX 7 1 8 2 9 3 10 4 11 5 12 6 13 7 14 8 5 9 6 10 3 11 4 12 2 13
REMARK SMILES IDX 1 14 15 15 16 16 23 17 17 18 22 19 18 20 19 21 21 22 20 23
REMARK H PARENT
ROOT
ATOM      1  N   UNL     1      -0.767  -0.927   0.695  1.00  0.00    -0.329 N 
ATOM      2  C   UNL     1      -1.734  -1.904   0.173  1.00  0.00     0.121 C 
ATOM      3  C   UNL     1      -1.389  -3.318   0.662  1.00  0.00     0.028 C 
ATOM      4  C   UNL     1       0.130  -3.651   0.604  1.00  0.00     0.024 C 
ATOM      5  C   UNL     1       0.367  -5.015  -0.059  1.00  0.00     0.011 C 
ATOM      6  C   UNL     1       0.953  -2.551  -0.101  1.00  0.00     0.196 C 
ATOM      7  F   UNL     1       2.305  -2.840  -0.005  1.00  0.00    -0.245 F 
ATOM      8  C   UNL     1       0.679  -1.180   0.551  1.00  0.00     0.150 C 
ENDROOT
BRANCH   1   9
ATOM      9  C   UNL     1      -1.214   0.226   1.439  1.00  0.00     0.249 C 
ATOM     10  O   UNL     1      -0.539   0.622   2.428  1.00  0.00    -0.269 OA
BRANCH   9  11
ATOM     11  C   UNL     1      -2.439   0.975   1.062  1.00  0.00     0.010 C 
ATOM     12  C   UNL     1      -3.222   1.678   2.143  1.00  0.00     0.050 C 
BRANCH  11  13
ATOM     13  C   UNL     1      -2.771   1.106  -0.236  1.00  0.00    -0.021 C 
ATOM     14  C   UNL     1      -3.958   1.889  -0.710  1.00  0.00     0.036 C 
ENDBRANCH  11  13
ENDBRANCH   9  11
ENDBRANCH   1   9
BRANCH   8  15
ATOM     15  C   UNL     1       1.331  -0.069  -0.248  1.00  0.00    -0.022 A 
ATOM     16  C   UNL     1       2.438   0.619   0.270  1.00  0.00     0.007 A 
ATOM     17  C   UNL     1       0.843   0.283  -1.517  1.00  0.00     0.007 A 
ATOM     18  C   UNL     1       3.041   1.647  -0.461  1.00  0.00     0.012 A 
ATOM     19  C   UNL     1       1.443   1.311  -2.248  1.00  0.00     0.012 A 
ATOM     20  C   UNL     1       2.550   2.009  -1.730  1.00  0.00     0.017 A 
BRANCH  20  21
ATOM     21  C   UNL     1       3.177   3.103  -2.520  1.00  0.00     0.159 C 
ATOM     22  O   UNL     1       2.713   3.400  -3.655  1.00  0.00    -0.295 OA
ATOM     23  C   UNL     1       4.356   3.874  -2.008  1.00  0.00     0.093 C 
ENDBRANCH  20  21
ENDBRANCH   8  15
TORSDOF 5


