MODEL 1
REMARK VINA RESULT:      -8.7      0.000      0.000
REMARK SMILES Cc1ccc(-c2ccc(N/C(O)=C/[C@H]([NH3+])C(=O)[O-])c(C=O)c2)cc1
REMARK SMILES IDX 11 1 12 2 13 4 14 5 16 6 17 7 18 8 15 9 10 13 9 15 8 16
REMARK SMILES IDX 19 17 7 18 22 19 6 20 20 21 21 22 5 23 4 24 23 25 3 26 24 27
REMARK SMILES IDX 2 28 1 29
REMARK H PARENT 12 3 15 10 15 11 15 12 10 14
ROOT
ATOM      1  C   UNL     1      43.538 131.325  23.174  1.00  0.00     0.190 C 
ENDROOT
BRANCH   1   2
ATOM      2  O   UNL     1      43.221 132.313  24.110  1.00  0.00    -0.495 OA
ATOM      3  H   UNL     1      43.772 133.142  24.275  1.00  0.00     0.295 HD
ENDBRANCH   1   2
BRANCH   1   4
ATOM      4  C   UNL     1      44.439 130.350  23.425  1.00  0.00     0.109 C 
BRANCH   4   5
ATOM      5  C   UNL     1      44.130 128.940  23.882  1.00  0.00     0.257 C 
BRANCH   5   6
ATOM      6  C   UNL     1      42.684 128.775  24.278  1.00  0.00     0.104 C 
ATOM      7  O   UNL     1      41.923 129.773  24.381  1.00  0.00    -0.544 OA
ATOM      8  O   UNL     1      42.163 127.501  24.477  1.00  0.00    -0.544 OA
ENDBRANCH   5   6
BRANCH   5   9
ATOM      9  N   UNL     1      44.561 127.950  22.883  1.00  0.00    -0.347 N 
ATOM     10  H   UNL     1      44.757 128.431  21.975  1.00  0.00     0.345 HD
ATOM     11  H   UNL     1      45.445 127.489  23.201  1.00  0.00     0.345 HD
ATOM     12  H   UNL     1      43.834 127.218  22.726  1.00  0.00     0.345 HD
ENDBRANCH   5   9
ENDBRANCH   4   5
ENDBRANCH   1   4
BRANCH   1  13
ATOM     13  N   UNL     1      42.894 131.405  21.891  1.00  0.00    -0.326 N 
ATOM     14  H   UNL     1      41.851 131.346  21.871  1.00  0.00     0.170 HD
BRANCH  13  15
ATOM     15  C   UNL     1      43.590 131.386  20.631  1.00  0.00     0.051 A 
ATOM     16  C   UNL     1      44.846 130.764  20.547  1.00  0.00     0.027 A 
ATOM     17  C   UNL     1      42.996 131.911  19.456  1.00  0.00     0.038 A 
ATOM     18  C   UNL     1      45.512 130.661  19.327  1.00  0.00     0.011 A 
ATOM     19  C   UNL     1      43.672 131.787  18.232  1.00  0.00     0.022 A 
ATOM     20  C   UNL     1      44.932 131.168  18.155  1.00  0.00    -0.018 A 
BRANCH  17  21
ATOM     21  C   UNL     1      41.698 132.625  19.461  1.00  0.00     0.262 C 
ATOM     22  O   UNL     1      41.312 133.297  20.453  1.00  0.00    -0.298 OA
ENDBRANCH  17  21
BRANCH  20  23
ATOM     23  C   UNL     1      45.639 131.053  16.853  1.00  0.00    -0.018 A 
ATOM     24  C   UNL     1      45.677 132.139  15.961  1.00  0.00     0.009 A 
ATOM     25  C   UNL     1      46.285 129.855  16.495  1.00  0.00     0.009 A 
ATOM     26  C   UNL     1      46.341 132.029  14.736  1.00  0.00     0.004 A 
ATOM     27  C   UNL     1      46.951 129.748  15.270  1.00  0.00     0.004 A 
ATOM     28  C   UNL     1      46.969 130.828  14.377  1.00  0.00    -0.051 A 
ATOM     29  C   UNL     1      47.717 130.724  13.080  1.00  0.00     0.044 C 
ENDBRANCH  20  23
ENDBRANCH  13  15
ENDBRANCH   1  13
TORSDOF 9
ENDMDL
MODEL 2
REMARK VINA RESULT:      -6.5      1.380      1.782
REMARK SMILES Cc1ccc(-c2ccc(N/C(O)=C/[C@H]([NH3+])C(=O)[O-])c(C=O)c2)cc1
REMARK SMILES IDX 11 1 12 2 13 4 14 5 16 6 17 7 18 8 15 9 10 13 9 15 8 16
REMARK SMILES IDX 19 17 7 18 22 19 6 20 20 21 21 22 5 23 4 24 23 25 3 26 24 27
REMARK SMILES IDX 2 28 1 29
REMARK H PARENT 12 3 15 10 15 11 15 12 10 14
ROOT
ATOM      1  C   UNL     1      42.823 131.287  22.221  1.00  0.00     0.190 C 
ENDROOT
BRANCH   1   2
ATOM      2  O   UNL     1      41.844 132.232  21.907  1.00  0.00    -0.495 OA
ATOM      3  H   UNL     1      41.451 132.889  22.565  1.00  0.00     0.295 HD
ENDBRANCH   1   2
BRANCH   1   4
ATOM      4  C   UNL     1      42.548 130.160  22.914  1.00  0.00     0.109 C 
BRANCH   4   5
ATOM      5  C   UNL     1      43.223 129.705  24.191  1.00  0.00     0.257 C 
BRANCH   5   6
ATOM      6  C   UNL     1      43.726 128.286  24.094  1.00  0.00     0.104 C 
ATOM      7  O   UNL     1      44.828 127.953  24.605  1.00  0.00    -0.544 OA
ATOM      8  O   UNL     1      42.939 127.314  23.486  1.00  0.00    -0.544 OA
ENDBRANCH   5   6
BRANCH   5   9
ATOM      9  N   UNL     1      44.271 130.650  24.606  1.00  0.00    -0.347 N 
ATOM     10  H   UNL     1      44.707 130.321  25.497  1.00  0.00     0.345 HD
ATOM     11  H   UNL     1      45.020 130.690  23.876  1.00  0.00     0.345 HD
ATOM     12  H   UNL     1      43.889 131.610  24.752  1.00  0.00     0.345 HD
ENDBRANCH   5   9
ENDBRANCH   4   5
ENDBRANCH   1   4
BRANCH   1  13
ATOM     13  N   UNL     1      44.171 131.576  21.812  1.00  0.00    -0.326 N 
ATOM     14  H   UNL     1      44.806 132.011  22.520  1.00  0.00     0.170 HD
BRANCH  13  15
ATOM     15  C   UNL     1      44.651 131.468  20.460  1.00  0.00     0.051 A 
ATOM     16  C   UNL     1      45.878 130.832  20.213  1.00  0.00     0.027 A 
ATOM     17  C   UNL     1      43.870 131.917  19.366  1.00  0.00     0.038 A 
ATOM     18  C   UNL     1      46.335 130.643  18.910  1.00  0.00     0.011 A 
ATOM     19  C   UNL     1      44.337 131.707  18.058  1.00  0.00     0.022 A 
ATOM     20  C   UNL     1      45.569 131.075  17.817  1.00  0.00    -0.018 A 
BRANCH  17  21
ATOM     21  C   UNL     1      42.588 132.639  19.536  1.00  0.00     0.262 C 
ATOM     22  O   UNL     1      41.557 132.329  18.882  1.00  0.00    -0.298 OA
ENDBRANCH  17  21
BRANCH  20  23
ATOM     23  C   UNL     1      46.053 130.867  16.428  1.00  0.00    -0.018 A 
ATOM     24  C   UNL     1      46.513 129.604  16.013  1.00  0.00     0.009 A 
ATOM     25  C   UNL     1      46.052 131.928  15.505  1.00  0.00     0.009 A 
ATOM     26  C   UNL     1      46.968 129.410  14.706  1.00  0.00     0.004 A 
ATOM     27  C   UNL     1      46.507 131.731  14.198  1.00  0.00     0.004 A 
ATOM     28  C   UNL     1      46.982 130.475  13.795  1.00  0.00    -0.051 A 
ATOM     29  C   UNL     1      47.433 130.256  12.381  1.00  0.00     0.044 C 
ENDBRANCH  20  23
ENDBRANCH  13  15
ENDBRANCH   1  13
TORSDOF 9
ENDMDL


