REMARK SMILES CC(C)(C)COC(=O)N(c1ccc2cc[nH]c2c1)c1c(O)c(-n2[nH+]c3ccccc3[nH+]2)cc2cnoc12
REMARK SMILES IDX 7 1 8 2 6 3 5 4 2 5 1 6 3 7 4 8 9 9 10 10 11 11 18 12 12 13
REMARK SMILES IDX 17 14 13 15 16 16 14 17 15 18 19 20 37 21 20 22 36 23 33 24
REMARK SMILES IDX 22 25 35 26 34 27 32 28 21 29 23 31 24 32 31 33 25 34 30 35
REMARK SMILES IDX 26 36 29 37 27 38 28 39
REMARK H PARENT 16 19 21 30 24 40 31 41
ROOT
ATOM      1  C   UNL     1      -0.586   1.997  -1.469  1.00  0.00     0.419 C 
ATOM      2  O   UNL     1      -0.967   2.668  -2.468  1.00  0.00    -0.224 OA
ENDROOT
BRANCH   1   3
ATOM      3  O   UNL     1       0.767   1.688  -1.303  1.00  0.00    -0.448 OA
BRANCH   3   4
ATOM      4  C   UNL     1       1.756   1.991  -2.282  1.00  0.00     0.241 C 
BRANCH   4   5
ATOM      5  C   UNL     1       3.144   1.486  -1.829  1.00  0.00    -0.004 C 
ATOM      6  C   UNL     1       3.084  -0.027  -1.533  1.00  0.00     0.014 C 
ATOM      7  C   UNL     1       4.167   1.743  -2.954  1.00  0.00     0.014 C 
ATOM      8  C   UNL     1       3.590   2.241  -0.559  1.00  0.00     0.014 C 
ENDBRANCH   4   5
ENDBRANCH   3   4
ENDBRANCH   1   3
BRANCH   1   9
ATOM      9  N   UNL     1      -1.542   1.544  -0.498  1.00  0.00    -0.239 N 
BRANCH   9  10
ATOM     10  C   UNL     1      -2.929   1.876  -0.640  1.00  0.00     0.055 A 
ATOM     11  C   UNL     1      -3.804   0.970  -1.290  1.00  0.00     0.027 A 
ATOM     12  C   UNL     1      -3.418   3.103  -0.141  1.00  0.00     0.053 A 
ATOM     13  C   UNL     1      -5.166   1.282  -1.446  1.00  0.00     0.012 A 
ATOM     14  C   UNL     1      -4.776   3.377  -0.302  1.00  0.00     0.047 A 
ATOM     15  C   UNL     1      -5.617   2.499  -0.936  1.00  0.00    -0.000 A 
ATOM     16  N   UNL     1      -5.444   4.467   0.111  1.00  0.00    -0.361 N 
ATOM     17  C   UNL     1      -6.875   3.058  -0.929  1.00  0.00     0.028 A 
ATOM     18  C   UNL     1      -6.729   4.277  -0.270  1.00  0.00     0.083 A 
ATOM     19  H   UNL     1      -5.059   5.291   0.625  1.00  0.00     0.166 HD
ENDBRANCH   9  10
BRANCH   9  20
ATOM     20  C   UNL     1      -1.146   0.653   0.555  1.00  0.00     0.143 A 
ATOM     21  C   UNL     1      -1.258   1.035   1.890  1.00  0.00     0.194 A 
ATOM     22  C   UNL     1      -0.686  -0.659   0.281  1.00  0.00     0.180 A 
ATOM     23  O   UNL     1      -1.661   2.178   2.387  1.00  0.00    -0.354 OA
ATOM     24  C   UNL     1      -0.929   0.198   2.909  1.00  0.00     0.047 A 
ATOM     25  C   UNL     1      -0.319  -1.528   1.356  1.00  0.00     0.212 A 
ATOM     26  N   UNL     1      -1.617   2.140   3.692  1.00  0.00    -0.087 NA
ATOM     27  C   UNL     1      -1.163   0.917   4.054  1.00  0.00     0.167 A 
ATOM     28  C   UNL     1      -0.457  -1.089   2.691  1.00  0.00     0.057 A 
BRANCH  22  29
ATOM     29  O   UNL     1      -0.650  -1.088  -1.046  1.00  0.00    -0.504 OA
ATOM     30  H   UNL     1      -0.462  -2.046  -1.311  1.00  0.00     0.293 HD
ENDBRANCH  22  29
BRANCH  25  31
ATOM     31  N   UNL     1       0.179  -2.853   1.112  1.00  0.00     0.083 N 
ATOM     32  N   UNL     1      -0.239  -3.935   1.765  1.00  0.00    -0.062 N 
ATOM     33  N   UNL     1       1.180  -3.143   0.282  1.00  0.00    -0.062 N 
ATOM     34  C   UNL     1       0.511  -4.954   1.316  1.00  0.00     0.306 A 
ATOM     35  C   UNL     1       1.392  -4.463   0.399  1.00  0.00     0.306 A 
ATOM     36  C   UNL     1       0.480  -6.300   1.672  1.00  0.00     0.089 A 
ATOM     37  C   UNL     1       2.328  -5.272  -0.239  1.00  0.00     0.089 A 
ATOM     38  C   UNL     1       1.408  -7.154   1.041  1.00  0.00     0.007 A 
ATOM     39  C   UNL     1       2.328  -6.643   0.092  1.00  0.00     0.007 A 
ATOM     40  H   UNL     1      -0.998  -3.966   2.482  1.00  0.00     0.495 HD
ATOM     41  H   UNL     1       1.707  -2.465  -0.309  1.00  0.00     0.495 HD
ENDBRANCH  25  31
ENDBRANCH   9  20
ENDBRANCH   1   9
TORSDOF 8


