REMARK SMILES N/N=c1\cc(-c2ccc3[nH]ccc3c2)[nH][n-]c1=O
REMARK SMILES IDX 5 1 4 2 3 3 17 4 18 5 16 6 15 7 6 9 7 10 8 11 14 12 9 13
REMARK SMILES IDX 13 14 10 15 12 16 11 17 2 19 1 20
REMARK H PARENT 15 8 10 18 1 21 1 22
ROOT
ATOM      1  C   UNL     1      -2.186  -0.918   0.365  1.00  0.00     0.030 A 
ATOM      2  C   UNL     1      -2.006  -2.036  -0.463  1.00  0.00     0.057 A 
ATOM      3  C   UNL     1      -2.993  -3.038  -0.510  1.00  0.00     0.111 A 
ATOM      4  C   UNL     1      -4.142  -2.866   0.275  1.00  0.00     0.118 A 
ATOM      5  O   UNL     1      -5.063  -3.726   0.265  1.00  0.00    -0.312 OA
ATOM      6  N   UNL     1      -4.267  -1.765   1.058  1.00  0.00    -0.561 NA
ATOM      7  N   UNL     1      -3.326  -0.822   1.106  1.00  0.00    -0.457 N 
ATOM      8  H   UNL     1      -3.474  -0.009   1.744  1.00  0.00     0.141 HD
ENDROOT
BRANCH   1   9
ATOM      9  C   UNL     1      -1.159   0.153   0.426  1.00  0.00    -0.003 A 
ATOM     10  C   UNL     1      -1.552   1.517   0.483  1.00  0.00     0.012 A 
ATOM     11  C   UNL     1      -0.592   2.543   0.544  1.00  0.00     0.027 A 
ATOM     12  C   UNL     1       0.219  -0.174   0.431  1.00  0.00     0.020 A 
ATOM     13  C   UNL     1       0.752   2.178   0.547  1.00  0.00     0.045 A 
ATOM     14  C   UNL     1       1.141   0.868   0.492  1.00  0.00     0.000 A 
ATOM     15  N   UNL     1       1.819   2.991   0.602  1.00  0.00    -0.361 N 
ATOM     16  C   UNL     1       2.518   0.846   0.516  1.00  0.00     0.028 A 
ATOM     17  C   UNL     1       2.902   2.181   0.583  1.00  0.00     0.083 A 
ATOM     18  H   UNL     1       1.817   4.035   0.651  1.00  0.00     0.166 HD
ENDBRANCH   1   9
BRANCH   3  19
ATOM     19  N   UNL     1      -2.894  -4.104  -1.258  1.00  0.00    -0.181 NA
BRANCH  19  20
ATOM     20  N   UNL     1      -1.797  -4.448  -2.067  1.00  0.00    -0.323 N 
ATOM     21  H   UNL     1      -0.871  -3.975  -2.004  1.00  0.00     0.179 HD
ATOM     22  H   UNL     1      -1.869  -5.287  -2.683  1.00  0.00     0.179 HD
ENDBRANCH  19  20
ENDBRANCH   3  19
TORSDOF 3


