MODEL 1
REMARK VINA RESULT:     -10.2      0.000      0.000
REMARK SMILES C=Cc1ccc(-c2cccc3cnoc23)nc1
REMARK SMILES IDX 3 1 4 2 5 3 6 4 16 5 17 6 2 7 1 8 7 9 8 10 15 11 9 12 14 13
REMARK SMILES IDX 11 14 10 15 13 16 12 17
REMARK H PARENT
ROOT
ATOM      1  C   UNL     1      46.284 130.914  14.704  1.00  0.00    -0.008 A 
ATOM      2  C   UNL     1      46.232 129.745  15.475  1.00  0.00     0.012 A 
ATOM      3  C   UNL     1      45.819 129.788  16.808  1.00  0.00     0.030 A 
ATOM      4  C   UNL     1      45.450 131.017  17.387  1.00  0.00     0.074 A 
ATOM      5  N   UNL     1      45.510 132.138  16.613  1.00  0.00    -0.255 NA
ATOM      6  C   UNL     1      45.908 132.123  15.315  1.00  0.00     0.119 A 
ENDROOT
BRANCH   1   7
ATOM      7  C   UNL     1      46.730 130.813  13.289  1.00  0.00     0.002 C 
ATOM      8  C   UNL     1      47.973 131.046  12.862  1.00  0.00     0.009 C 
ENDBRANCH   1   7
BRANCH   4   9
ATOM      9  C   UNL     1      44.997 131.140  18.808  1.00  0.00     0.046 A 
ATOM     10  C   UNL     1      45.785 130.720  19.916  1.00  0.00     0.014 A 
ATOM     11  C   UNL     1      43.742 131.691  19.121  1.00  0.00     0.176 A 
ATOM     12  C   UNL     1      45.313 130.858  21.242  1.00  0.00     0.002 A 
ATOM     13  O   UNL     1      42.818 132.156  18.314  1.00  0.00    -0.356 OA
ATOM     14  C   UNL     1      43.298 131.819  20.406  1.00  0.00     0.042 A 
ATOM     15  C   UNL     1      44.050 131.415  21.499  1.00  0.00     0.014 A 
ATOM     16  N   UNL     1      41.787 132.584  18.995  1.00  0.00    -0.087 NA
ATOM     17  C   UNL     1      42.052 132.389  20.309  1.00  0.00     0.166 A 
ENDBRANCH   4   9
TORSDOF 2
ENDMDL
MODEL 2
REMARK VINA RESULT:     -10.0      0.661      1.160
REMARK SMILES C=Cc1ccc(-c2cccc3cnoc23)nc1
REMARK SMILES IDX 3 1 4 2 5 3 6 4 16 5 17 6 2 7 1 8 7 9 8 10 15 11 9 12 14 13
REMARK SMILES IDX 11 14 10 15 13 16 12 17
REMARK H PARENT
ROOT
ATOM      1  C   UNL     1      46.320 130.752  14.757  1.00  0.00    -0.008 A 
ATOM      2  C   UNL     1      45.813 131.979  15.205  1.00  0.00     0.012 A 
ATOM      3  C   UNL     1      45.378 132.133  16.522  1.00  0.00     0.030 A 
ATOM      4  C   UNL     1      45.448 131.046  17.414  1.00  0.00     0.074 A 
ATOM      5  N   UNL     1      45.946 129.864  16.951  1.00  0.00    -0.255 NA
ATOM      6  C   UNL     1      46.376 129.689  15.675  1.00  0.00     0.119 A 
ENDROOT
BRANCH   1   7
ATOM      7  C   UNL     1      46.771 130.642  13.344  1.00  0.00     0.002 C 
ATOM      8  C   UNL     1      47.934 131.099  12.877  1.00  0.00     0.009 C 
ENDBRANCH   1   7
BRANCH   4   9
ATOM      9  C   UNL     1      45.001 131.135  18.839  1.00  0.00     0.046 A 
ATOM     10  C   UNL     1      45.784 130.670  19.932  1.00  0.00     0.014 A 
ATOM     11  C   UNL     1      43.756 131.698  19.172  1.00  0.00     0.176 A 
ATOM     12  C   UNL     1      45.317 130.777  21.263  1.00  0.00     0.002 A 
ATOM     13  O   UNL     1      42.838 132.202  18.381  1.00  0.00    -0.356 OA
ATOM     14  C   UNL     1      43.317 131.797  20.461  1.00  0.00     0.042 A 
ATOM     15  C   UNL     1      44.065 131.349  21.540  1.00  0.00     0.014 A 
ATOM     16  N   UNL     1      41.816 132.628  19.077  1.00  0.00    -0.087 NA
ATOM     17  C   UNL     1      42.081 132.390  20.384  1.00  0.00     0.166 A 
ENDBRANCH   4   9
TORSDOF 2
ENDMDL
MODEL 3
REMARK VINA RESULT:      -9.8      1.642      2.312
REMARK SMILES C=Cc1ccc(-c2cccc3cnoc23)nc1
REMARK SMILES IDX 3 1 4 2 5 3 6 4 16 5 17 6 2 7 1 8 7 9 8 10 15 11 9 12 14 13
REMARK SMILES IDX 11 14 10 15 13 16 12 17
REMARK H PARENT
ROOT
ATOM      1  C   UNL     1      46.620 130.716  14.453  1.00  0.00    -0.008 A 
ATOM      2  C   UNL     1      45.917 129.662  15.051  1.00  0.00     0.012 A 
ATOM      3  C   UNL     1      45.103 129.886  16.162  1.00  0.00     0.030 A 
ATOM      4  C   UNL     1      44.984 131.185  16.691  1.00  0.00     0.074 A 
ATOM      5  N   UNL     1      45.679 132.192  16.090  1.00  0.00    -0.255 NA
ATOM      6  C   UNL     1      46.477 132.000  15.008  1.00  0.00     0.119 A 
ENDROOT
BRANCH   1   7
ATOM      7  C   UNL     1      47.473 130.423  13.271  1.00  0.00     0.002 C 
ATOM      8  C   UNL     1      48.510 129.584  13.267  1.00  0.00     0.009 C 
ENDBRANCH   1   7
BRANCH   4   9
ATOM      9  C   UNL     1      44.131 131.502  17.879  1.00  0.00     0.046 A 
ATOM     10  C   UNL     1      42.780 131.935  17.774  1.00  0.00     0.014 A 
ATOM     11  C   UNL     1      44.638 131.383  19.185  1.00  0.00     0.176 A 
ATOM     12  C   UNL     1      42.014 132.222  18.928  1.00  0.00     0.002 A 
ATOM     13  O   UNL     1      45.833 131.011  19.578  1.00  0.00    -0.356 OA
ATOM     14  C   UNL     1      43.888 131.663  20.291  1.00  0.00     0.042 A 
ATOM     15  C   UNL     1      42.569 132.087  20.210  1.00  0.00     0.014 A 
ATOM     16  N   UNL     1      45.914 131.030  20.883  1.00  0.00    -0.087 NA
ATOM     17  C   UNL     1      44.714 131.434  21.364  1.00  0.00     0.166 A 
ENDBRANCH   4   9
TORSDOF 2
ENDMDL
MODEL 4
REMARK VINA RESULT:      -9.7      1.732      2.536
REMARK SMILES C=Cc1ccc(-c2cccc3cnoc23)nc1
REMARK SMILES IDX 3 1 4 2 5 3 6 4 16 5 17 6 2 7 1 8 7 9 8 10 15 11 9 12 14 13
REMARK SMILES IDX 11 14 10 15 13 16 12 17
REMARK H PARENT
ROOT
ATOM      1  C   UNL     1      46.782 130.476  14.755  1.00  0.00    -0.008 A 
ATOM      2  C   UNL     1      46.343 131.799  14.898  1.00  0.00     0.012 A 
ATOM      3  C   UNL     1      45.504 132.162  15.953  1.00  0.00     0.030 A 
ATOM      4  C   UNL     1      45.093 131.191  16.886  1.00  0.00     0.074 A 
ATOM      5  N   UNL     1      45.535 129.912  16.722  1.00  0.00    -0.255 NA
ATOM      6  C   UNL     1      46.352 129.533  15.705  1.00  0.00     0.119 A 
ENDROOT
BRANCH   1   7
ATOM      7  C   UNL     1      47.675 130.142  13.614  1.00  0.00     0.002 C 
ATOM      8  C   UNL     1      48.011 130.985  12.636  1.00  0.00     0.009 C 
ENDBRANCH   1   7
BRANCH   4   9
ATOM      9  C   UNL     1      44.195 131.506  18.041  1.00  0.00     0.046 A 
ATOM     10  C   UNL     1      42.850 131.941  17.887  1.00  0.00     0.014 A 
ATOM     11  C   UNL     1      44.652 131.382  19.365  1.00  0.00     0.176 A 
ATOM     12  C   UNL     1      42.041 132.227  19.011  1.00  0.00     0.002 A 
ATOM     13  O   UNL     1      45.831 131.005  19.802  1.00  0.00    -0.356 OA
ATOM     14  C   UNL     1      43.861 131.659  20.443  1.00  0.00     0.042 A 
ATOM     15  C   UNL     1      42.547 132.086  20.313  1.00  0.00     0.014 A 
ATOM     16  N   UNL     1      45.861 131.020  21.109  1.00  0.00    -0.087 NA
ATOM     17  C   UNL     1      44.645 131.425  21.545  1.00  0.00     0.166 A 
ENDBRANCH   4   9
TORSDOF 2
ENDMDL
MODEL 5
REMARK VINA RESULT:      -9.0      1.711      2.482
REMARK SMILES C=Cc1ccc(-c2cccc3cnoc23)nc1
REMARK SMILES IDX 3 1 4 2 5 3 6 4 16 5 17 6 2 7 1 8 7 9 8 10 15 11 9 12 14 13
REMARK SMILES IDX 11 14 10 15 13 16 12 17
REMARK H PARENT
ROOT
ATOM      1  C   UNL     1      45.817 131.089  14.515  1.00  0.00    -0.008 A 
ATOM      2  C   UNL     1      44.449 131.389  14.494  1.00  0.00     0.012 A 
ATOM      3  C   UNL     1      43.747 131.605  15.681  1.00  0.00     0.030 A 
ATOM      4  C   UNL     1      44.418 131.520  16.916  1.00  0.00     0.074 A 
ATOM      5  N   UNL     1      45.749 131.227  16.907  1.00  0.00    -0.255 NA
ATOM      6  C   UNL     1      46.455 131.014  15.766  1.00  0.00     0.119 A 
ENDROOT
BRANCH   1   7
ATOM      7  C   UNL     1      46.518 130.869  13.223  1.00  0.00     0.002 C 
ATOM      8  C   UNL     1      47.843 130.836  13.069  1.00  0.00     0.009 C 
ENDBRANCH   1   7
BRANCH   4   9
ATOM      9  C   UNL     1      43.732 131.739  18.228  1.00  0.00     0.046 A 
ATOM     10  C   UNL     1      42.415 132.267  18.340  1.00  0.00     0.014 A 
ATOM     11  C   UNL     1      44.372 131.424  19.439  1.00  0.00     0.176 A 
ATOM     12  C   UNL     1      41.810 132.455  19.605  1.00  0.00     0.002 A 
ATOM     13  O   UNL     1      45.572 130.930  19.636  1.00  0.00    -0.356 OA
ATOM     14  C   UNL     1      43.776 131.610  20.653  1.00  0.00     0.042 A 
ATOM     15  C   UNL     1      42.494 132.124  20.784  1.00  0.00     0.014 A 
ATOM     16  N   UNL     1      45.801 130.779  20.915  1.00  0.00    -0.087 NA
ATOM     17  C   UNL     1      44.698 131.195  21.583  1.00  0.00     0.166 A 
ENDBRANCH   4   9
TORSDOF 2
ENDMDL
MODEL 6
REMARK VINA RESULT:      -8.1      1.814      2.503
REMARK SMILES C=Cc1ccc(-c2cccc3cnoc23)nc1
REMARK SMILES IDX 3 1 4 2 5 3 6 4 16 5 17 6 2 7 1 8 7 9 8 10 15 11 9 12 14 13
REMARK SMILES IDX 11 14 10 15 13 16 12 17
REMARK H PARENT
ROOT
ATOM      1  C   UNL     1      45.565 130.660  15.386  1.00  0.00    -0.008 A 
ATOM      2  C   UNL     1      46.212 130.422  16.605  1.00  0.00     0.012 A 
ATOM      3  C   UNL     1      45.595 130.743  17.816  1.00  0.00     0.030 A 
ATOM      4  C   UNL     1      44.308 131.313  17.814  1.00  0.00     0.074 A 
ATOM      5  N   UNL     1      43.701 131.535  16.614  1.00  0.00    -0.255 NA
ATOM      6  C   UNL     1      44.280 131.231  15.423  1.00  0.00     0.119 A 
ENDROOT
BRANCH   1   7
ATOM      7  C   UNL     1      46.266 130.299  14.126  1.00  0.00     0.002 C 
ATOM      8  C   UNL     1      47.319 130.948  13.625  1.00  0.00     0.009 C 
ENDBRANCH   1   7
BRANCH   4   9
ATOM      9  C   UNL     1      43.584 131.684  19.071  1.00  0.00     0.046 A 
ATOM     10  C   UNL     1      42.459 132.554  19.094  1.00  0.00     0.014 A 
ATOM     11  C   UNL     1      43.992 131.175  20.317  1.00  0.00     0.176 A 
ATOM     12  C   UNL     1      41.808 132.874  20.309  1.00  0.00     0.002 A 
ATOM     13  O   UNL     1      44.984 130.362  20.593  1.00  0.00    -0.356 OA
ATOM     14  C   UNL     1      43.355 131.491  21.482  1.00  0.00     0.042 A 
ATOM     15  C   UNL     1      42.257 132.338  21.526  1.00  0.00     0.014 A 
ATOM     16  N   UNL     1      45.037 130.123  21.878  1.00  0.00    -0.087 NA
ATOM     17  C   UNL     1      44.032 130.814  22.467  1.00  0.00     0.166 A 
ENDBRANCH   4   9
TORSDOF 2
ENDMDL
MODEL 7
REMARK VINA RESULT:      -7.3      1.944      6.277
REMARK SMILES C=Cc1ccc(-c2cccc3cnoc23)nc1
REMARK SMILES IDX 3 1 4 2 5 3 6 4 16 5 17 6 2 7 1 8 7 9 8 10 15 11 9 12 14 13
REMARK SMILES IDX 11 14 10 15 13 16 12 17
REMARK H PARENT
ROOT
ATOM      1  C   UNL     1      44.361 131.342  21.015  1.00  0.00    -0.008 A 
ATOM      2  C   UNL     1      45.509 130.812  20.411  1.00  0.00     0.012 A 
ATOM      3  C   UNL     1      45.621 130.751  19.021  1.00  0.00     0.030 A 
ATOM      4  C   UNL     1      44.570 131.225  18.213  1.00  0.00     0.074 A 
ATOM      5  N   UNL     1      43.465 131.736  18.827  1.00  0.00    -0.255 NA
ATOM      6  C   UNL     1      43.332 131.807  20.177  1.00  0.00     0.119 A 
ENDROOT
BRANCH   1   7
ATOM      7  C   UNL     1      44.294 131.385  22.500  1.00  0.00     0.002 C 
ATOM      8  C   UNL     1      43.169 131.325  23.214  1.00  0.00     0.009 C 
ENDBRANCH   1   7
BRANCH   4   9
ATOM      9  C   UNL     1      44.618 131.192  16.718  1.00  0.00     0.046 A 
ATOM     10  C   UNL     1      43.616 131.774  15.893  1.00  0.00     0.014 A 
ATOM     11  C   UNL     1      45.683 130.569  16.043  1.00  0.00     0.176 A 
ATOM     12  C   UNL     1      43.706 131.717  14.483  1.00  0.00     0.002 A 
ATOM     13  O   UNL     1      46.732 129.957  16.540  1.00  0.00    -0.356 OA
ATOM     14  C   UNL     1      45.759 130.520  14.681  1.00  0.00     0.042 A 
ATOM     15  C   UNL     1      44.792 131.082  13.859  1.00  0.00     0.014 A 
ATOM     16  N   UNL     1      47.498 129.508  15.579  1.00  0.00    -0.087 NA
ATOM     17  C   UNL     1      46.920 129.842  14.401  1.00  0.00     0.166 A 
ENDBRANCH   4   9
TORSDOF 2
ENDMDL
MODEL 8
REMARK VINA RESULT:      -7.3      1.567      5.858
REMARK SMILES C=Cc1ccc(-c2cccc3cnoc23)nc1
REMARK SMILES IDX 3 1 4 2 5 3 6 4 16 5 17 6 2 7 1 8 7 9 8 10 15 11 9 12 14 13
REMARK SMILES IDX 11 14 10 15 13 16 12 17
REMARK H PARENT
ROOT
ATOM      1  C   UNL     1      43.776 131.623  20.904  1.00  0.00    -0.008 A 
ATOM      2  C   UNL     1      45.027 131.003  20.782  1.00  0.00     0.012 A 
ATOM      3  C   UNL     1      45.557 130.705  19.526  1.00  0.00     0.030 A 
ATOM      4  C   UNL     1      44.830 131.030  18.365  1.00  0.00     0.074 A 
ATOM      5  N   UNL     1      43.616 131.632  18.512  1.00  0.00    -0.255 NA
ATOM      6  C   UNL     1      43.078 131.933  19.723  1.00  0.00     0.119 A 
ENDROOT
BRANCH   1   7
ATOM      7  C   UNL     1      43.258 131.919  22.265  1.00  0.00     0.002 C 
ATOM      8  C   UNL     1      43.015 131.004  23.205  1.00  0.00     0.009 C 
ENDBRANCH   1   7
BRANCH   4   9
ATOM      9  C   UNL     1      45.333 130.741  16.986  1.00  0.00     0.046 A 
ATOM     10  C   UNL     1      46.561 130.069  16.730  1.00  0.00     0.014 A 
ATOM     11  C   UNL     1      44.599 131.131  15.852  1.00  0.00     0.176 A 
ATOM     12  C   UNL     1      46.995 129.820  15.406  1.00  0.00     0.002 A 
ATOM     13  O   UNL     1      43.448 131.758  15.788  1.00  0.00    -0.356 OA
ATOM     14  C   UNL     1      45.028 130.883  14.580  1.00  0.00     0.042 A 
ATOM     15  C   UNL     1      46.221 130.230  14.309  1.00  0.00     0.014 A 
ATOM     16  N   UNL     1      43.093 131.938  14.542  1.00  0.00    -0.087 NA
ATOM     17  C   UNL     1      44.059 131.404  13.757  1.00  0.00     0.166 A 
ENDBRANCH   4   9
TORSDOF 2
ENDMDL


