REMARK SMILES C=C[C@@H]1CN[C@@H](c2c[nH+]c3ocnc3c2)N(C(=S)[NH2+]c2cc(F)c(Cl)cc2F)C1
REMARK SMILES IDX 17 1 18 2 16 3 3 4 4 5 29 6 5 7 6 8 2 10 1 11 7 12 8 13
REMARK SMILES IDX 15 14 9 15 14 16 10 17 13 18 11 19 12 20 19 22 20 25 21 26
REMARK SMILES IDX 27 27 22 28 26 29 24 30 28 31 23 32 25 33
REMARK H PARENT 5 9 9 21 19 23 19 24
ROOT
ATOM      1  C   UNL     1       0.152  -0.948   1.649  1.00  0.00     0.275 C 
ATOM      2  S   UNL     1      -0.606  -0.599   3.067  1.00  0.00     0.004 S 
ENDROOT
BRANCH   1   3
ATOM      3  N   UNL     1      -0.652  -1.366   0.530  1.00  0.00    -0.297 N 
ATOM      4  C   UNL     1      -2.170  -3.073  -0.411  1.00  0.00     0.045 C 
ATOM      5  C   UNL     1      -2.068  -2.297  -1.734  1.00  0.00     0.092 C 
ATOM      6  C   UNL     1      -0.917  -2.807   0.432  1.00  0.00     0.133 C 
ATOM      7  N   UNL     1      -1.919  -0.860  -1.481  1.00  0.00    -0.292 NA
ATOM      8  C   UNL     1      -0.693  -0.571  -0.719  1.00  0.00     0.193 C 
ATOM      9  H   UNL     1      -2.752  -0.537  -0.932  1.00  0.00     0.125 HD
BRANCH   4  10
ATOM     10  C   UNL     1      -2.334  -4.553  -0.671  1.00  0.00    -0.028 C 
ATOM     11  C   UNL     1      -2.736  -5.392   0.289  1.00  0.00     0.004 C 
ENDBRANCH   4  10
BRANCH   8  12
ATOM     12  C   UNL     1      -0.626   0.925  -0.469  1.00  0.00     0.056 A 
ATOM     13  C   UNL     1      -1.464   1.548   0.498  1.00  0.00     0.317 A 
ATOM     14  C   UNL     1       0.202   1.738  -1.277  1.00  0.00     0.053 A 
ATOM     15  N   UNL     1      -1.418   2.899   0.697  1.00  0.00    -0.177 N 
ATOM     16  C   UNL     1       0.205   3.102  -1.027  1.00  0.00     0.179 A 
ATOM     17  C   UNL     1      -0.581   3.641  -0.068  1.00  0.00     0.399 A 
ATOM     18  N   UNL     1       0.910   4.068  -1.638  1.00  0.00    -0.209 NA
ATOM     19  O   UNL     1      -0.402   4.931  -0.035  1.00  0.00    -0.391 OA
ATOM     20  C   UNL     1       0.494   5.182  -0.977  1.00  0.00     0.316 A 
ATOM     21  H   UNL     1      -2.026   3.353   1.415  1.00  0.00     0.457 HD
ENDBRANCH   8  12
ENDBRANCH   1   3
BRANCH   1  22
ATOM     22  N   UNL     1       1.579  -1.155   1.636  1.00  0.00    -0.254 N 
ATOM     23  H   UNL     1       1.946  -1.254   2.612  1.00  0.00     0.360 HD
ATOM     24  H   UNL     1       1.789  -2.054   1.140  1.00  0.00     0.360 HD
BRANCH  22  25
ATOM     25  C   UNL     1       2.247  -0.048   0.998  1.00  0.00     0.175 A 
ATOM     26  C   UNL     1       2.813  -0.200  -0.283  1.00  0.00     0.112 A 
ATOM     27  C   UNL     1       2.368   1.195   1.654  1.00  0.00     0.185 A 
ATOM     28  C   UNL     1       3.473   0.868  -0.899  1.00  0.00     0.147 A 
ATOM     29  C   UNL     1       3.015   2.262   1.026  1.00  0.00     0.069 A 
ATOM     30  C   UNL     1       3.570   2.102  -0.247  1.00  0.00     0.080 A 
ATOM     31  F   UNL     1       1.853   1.374   2.896  1.00  0.00    -0.200 F 
ATOM     32  F   UNL     1       3.999   0.704  -2.140  1.00  0.00    -0.205 F 
ATOM     33  Cl  UNL     1       4.379   3.455  -1.020  1.00  0.00    -0.081 Cl
ENDBRANCH  22  25
ENDBRANCH   1  22
TORSDOF 5


