MODEL 1
REMARK VINA RESULT:      -7.2      0.000      0.000
REMARK SMILES O=C(C(=O)[C@@H]1CCc2nc(-c3ccc4[nH]ccc4c3)ncc2[C@H]1F)c1ccccc1
REMARK SMILES IDX 5 1 6 2 7 3 8 4 9 5 10 6 20 7 21 8 22 9 23 10 24 11 3 12
REMARK SMILES IDX 4 13 2 14 1 15 25 16 26 17 30 18 27 19 29 20 28 21 11 22
REMARK SMILES IDX 12 23 19 24 13 25 18 26 14 27 17 28 15 29 16 30
REMARK H PARENT 15 31
ROOT
ATOM      1  C   UNL     1      43.191 131.016  23.323  1.00  0.00     0.104 C 
ATOM      2  C   UNL     1      42.312 131.920  22.441  1.00  0.00     0.022 C 
ATOM      3  C   UNL     1      42.423 131.547  20.957  1.00  0.00     0.057 C 
ATOM      4  C   UNL     1      43.848 131.356  20.510  1.00  0.00     0.051 A 
ATOM      5  N   UNL     1      44.113 131.334  19.177  1.00  0.00    -0.233 NA
ATOM      6  C   UNL     1      45.365 131.102  18.699  1.00  0.00     0.159 A 
ATOM      7  N   UNL     1      46.381 130.877  19.575  1.00  0.00    -0.236 NA
ATOM      8  C   UNL     1      46.170 130.874  20.916  1.00  0.00     0.122 A 
ATOM      9  C   UNL     1      44.887 131.099  21.426  1.00  0.00     0.027 A 
ATOM     10  C   UNL     1      44.675 131.164  22.921  1.00  0.00     0.211 C 
ATOM     11  F   UNL     1      45.151 132.383  23.378  1.00  0.00    -0.241 F 
ENDROOT
BRANCH   1  12
ATOM     12  C   UNL     1      42.710 129.577  23.279  1.00  0.00     0.209 C 
ATOM     13  O   UNL     1      41.597 129.302  22.752  1.00  0.00    -0.290 OA
BRANCH  12  14
ATOM     14  C   UNL     1      43.522 128.493  23.878  1.00  0.00     0.228 C 
ATOM     15  O   UNL     1      44.718 128.731  24.203  1.00  0.00    -0.285 OA
BRANCH  14  16
ATOM     16  C   UNL     1      42.978 127.132  24.097  1.00  0.00     0.026 A 
ATOM     17  C   UNL     1      43.793 125.992  23.962  1.00  0.00     0.012 A 
ATOM     18  C   UNL     1      41.615 126.962  24.402  1.00  0.00     0.012 A 
ATOM     19  C   UNL     1      43.260 124.713  24.156  1.00  0.00     0.001 A 
ATOM     20  C   UNL     1      41.086 125.682  24.595  1.00  0.00     0.001 A 
ATOM     21  C   UNL     1      41.909 124.559  24.475  1.00  0.00     0.000 A 
ENDBRANCH  14  16
ENDBRANCH  12  14
ENDBRANCH   1  12
BRANCH   6  22
ATOM     22  C   UNL     1      45.619 131.093  17.238  1.00  0.00     0.020 A 
ATOM     23  C   UNL     1      44.909 131.974  16.376  1.00  0.00     0.014 A 
ATOM     24  C   UNL     1      46.576 130.206  16.684  1.00  0.00     0.022 A 
ATOM     25  C   UNL     1      45.144 131.973  14.989  1.00  0.00     0.027 A 
ATOM     26  C   UNL     1      46.782 130.235  15.307  1.00  0.00     0.000 A 
ATOM     27  C   UNL     1      46.091 131.086  14.488  1.00  0.00     0.045 A 
ATOM     28  C   UNL     1      47.633 129.498  14.513  1.00  0.00     0.028 A 
ATOM     29  N   UNL     1      46.465 130.924  13.209  1.00  0.00    -0.361 N 
ATOM     30  C   UNL     1      47.408 129.954  13.218  1.00  0.00     0.083 A 
ATOM     31  H   UNL     1      46.104 131.440  12.375  1.00  0.00     0.166 HD
ENDBRANCH   6  22
TORSDOF 4
ENDMDL


