REMARK SMILES CC(=O)c1ccc(Nc2cccnc2N)cc1F
REMARK SMILES IDX 8 1 7 3 4 4 5 5 17 6 6 7 16 8 18 9 2 10 1 11 3 12 9 13 10 14
REMARK SMILES IDX 14 15 11 16 13 17 12 18 15 19
REMARK H PARENT 8 2 15 20 15 21
ROOT
ATOM      1  N   UNL     1      -0.229  -0.755  -1.297  1.00  0.00    -0.352 N 
ATOM      2  H   UNL     1      -0.504  -0.859  -2.300  1.00  0.00     0.167 HD
ENDROOT
BRANCH   1   3
ATOM      3  C   UNL     1       0.006   0.571  -0.788  1.00  0.00     0.041 A 
ATOM      4  C   UNL     1       0.459   3.201   0.155  1.00  0.00     0.053 A 
ATOM      5  C   UNL     1       0.996   2.090   0.832  1.00  0.00     0.017 A 
ATOM      6  C   UNL     1      -0.313   2.974  -1.006  1.00  0.00     0.136 A 
ATOM      7  C   UNL     1       0.778   0.792   0.364  1.00  0.00     0.027 A 
ATOM      8  C   UNL     1      -0.528   1.672  -1.469  1.00  0.00     0.066 A 
ATOM      9  F   UNL     1      -0.892   3.996  -1.684  1.00  0.00    -0.206 F 
BRANCH   4  10
ATOM     10  C   UNL     1       0.720   4.568   0.686  1.00  0.00     0.162 C 
ATOM     11  C   UNL     1       0.567   5.801  -0.152  1.00  0.00     0.093 C 
ATOM     12  O   UNL     1       1.079   4.707   1.887  1.00  0.00    -0.294 OA
ENDBRANCH   4  10
ENDBRANCH   1   3
BRANCH   1  13
ATOM     13  C   UNL     1       0.065  -1.956  -0.567  1.00  0.00     0.081 A 
ATOM     14  C   UNL     1       0.961  -2.884  -1.111  1.00  0.00     0.031 A 
ATOM     15  C   UNL     1      -0.542  -2.244   0.675  1.00  0.00     0.147 A 
ATOM     16  C   UNL     1       1.278  -4.047  -0.410  1.00  0.00     0.022 A 
ATOM     17  N   UNL     1      -0.209  -3.388   1.335  1.00  0.00    -0.238 NA
ATOM     18  C   UNL     1       0.684  -4.280   0.830  1.00  0.00     0.113 A 
BRANCH  15  19
ATOM     19  N   UNL     1      -1.534  -1.383   1.242  1.00  0.00    -0.382 N 
ATOM     20  H   UNL     1      -1.937  -1.600   2.180  1.00  0.00     0.158 HD
ATOM     21  H   UNL     1      -1.923  -0.569   0.718  1.00  0.00     0.158 HD
ENDBRANCH  15  19
ENDBRANCH   1  13
TORSDOF 4


