REMARK SMILES N[NH2+]c1cc(F)c(F)cc1[NH2+]c1ccc(F)cc1
REMARK SMILES IDX 3 1 4 2 5 3 6 4 7 5 8 6 9 7 10 8 2 9 1 12 11 15 12 18 13 19
REMARK SMILES IDX 18 20 14 21 17 22 15 23 16 24
REMARK H PARENT 2 10 2 11 1 13 1 14 11 16 11 17
ROOT
ATOM      1  C   UNL     1       0.114  -1.030  -0.176  1.00  0.00     0.213 A 
ATOM      2  C   UNL     1       1.195  -1.647   0.483  1.00  0.00     0.118 A 
ATOM      3  C   UNL     1       2.479  -1.107   0.416  1.00  0.00     0.165 A 
ATOM      4  F   UNL     1       3.505  -1.721   1.057  1.00  0.00    -0.204 F 
ATOM      5  C   UNL     1       2.707   0.065  -0.303  1.00  0.00     0.165 A 
ATOM      6  F   UNL     1       3.955   0.592  -0.364  1.00  0.00    -0.204 F 
ATOM      7  C   UNL     1       1.651   0.700  -0.956  1.00  0.00     0.117 A 
ATOM      8  C   UNL     1       0.344   0.174  -0.907  1.00  0.00     0.201 A 
ENDROOT
BRANCH   1   9
ATOM      9  N   UNL     1      -1.202  -1.607  -0.031  1.00  0.00    -0.234 N 
ATOM     10  H   UNL     1      -1.801  -1.415  -0.864  1.00  0.00     0.376 HD
ATOM     11  H   UNL     1      -1.138  -2.648   0.075  1.00  0.00     0.376 HD
BRANCH   9  12
ATOM     12  N   UNL     1      -1.810  -1.060   1.117  1.00  0.00    -0.178 NA
ATOM     13  H   UNL     1      -1.356  -1.475   1.965  1.00  0.00     0.183 HD
ATOM     14  H   UNL     1      -2.808  -1.374   1.135  1.00  0.00     0.183 HD
ENDBRANCH   9  12
ENDBRANCH   1   9
BRANCH   8  15
ATOM     15  N   UNL     1      -0.720   0.877  -1.596  1.00  0.00    -0.276 N 
ATOM     16  H   UNL     1      -1.249   0.209  -2.202  1.00  0.00     0.358 HD
ATOM     17  H   UNL     1      -0.326   1.594  -2.248  1.00  0.00     0.358 HD
BRANCH  15  18
ATOM     18  C   UNL     1      -1.587   1.561  -0.665  1.00  0.00     0.134 A 
ATOM     19  C   UNL     1      -1.077   2.559   0.187  1.00  0.00     0.071 A 
ATOM     20  C   UNL     1      -2.967   1.286  -0.640  1.00  0.00     0.071 A 
ATOM     21  C   UNL     1      -1.922   3.235   1.072  1.00  0.00     0.045 A 
ATOM     22  C   UNL     1      -3.808   1.963   0.247  1.00  0.00     0.045 A 
ATOM     23  C   UNL     1      -3.286   2.934   1.105  1.00  0.00     0.123 A 
ATOM     24  F   UNL     1      -4.104   3.591   1.964  1.00  0.00    -0.207 F 
ENDBRANCH  15  18
ENDBRANCH   8  15
TORSDOF 4


