MODEL 1
REMARK VINA RESULT:      -7.8      0.000      0.000
REMARK SMILES O/C(=C\C(F)(F)F)Nc1cc(F)c[n-]/c1=N\c1c[nH]c2[nH+]ccc-2c1
REMARK SMILES IDX 8 1 2 3 1 4 3 6 4 7 5 8 6 9 7 10 9 11 10 12 15 13 11 14
REMARK SMILES IDX 14 15 13 16 12 17 16 18 17 19 25 20 18 21 24 22 19 23 23 24
REMARK SMILES IDX 20 25 22 26 21 27
REMARK H PARENT 8 2 1 5 19 28 21 29
ROOT
ATOM      1  N   UNL     1      45.635 131.551  20.851  1.00  0.00    -0.327 N 
ATOM      2  H   UNL     1      46.063 130.597  20.806  1.00  0.00     0.170 HD
ENDROOT
BRANCH   1   3
ATOM      3  C   UNL     1      46.209 132.517  21.748  1.00  0.00     0.193 C 
BRANCH   3   4
ATOM      4  O   UNL     1      45.678 132.701  23.027  1.00  0.00    -0.495 OA
ATOM      5  H   UNL     1      44.944 133.372  23.211  1.00  0.00     0.295 HD
ENDBRANCH   3   4
BRANCH   3   6
ATOM      6  C   UNL     1      47.272 133.230  21.360  1.00  0.00     0.152 C 
BRANCH   6   7
ATOM      7  C   UNL     1      48.004 134.152  22.289  1.00  0.00     0.414 C 
ATOM      8  F   UNL     1      49.076 133.486  22.854  1.00  0.00    -0.167 F 
ATOM      9  F   UNL     1      47.157 134.576  23.298  1.00  0.00    -0.167 F 
ATOM     10  F   UNL     1      48.475 135.250  21.591  1.00  0.00    -0.167 F 
ENDBRANCH   6   7
ENDBRANCH   3   6
ENDBRANCH   1   3
BRANCH   1  11
ATOM     11  C   UNL     1      44.431 131.780  20.100  1.00  0.00     0.043 A 
ATOM     12  C   UNL     1      43.358 132.440  20.714  1.00  0.00     0.064 A 
ATOM     13  C   UNL     1      44.275 131.314  18.776  1.00  0.00    -0.034 A 
ATOM     14  C   UNL     1      42.175 132.664  20.010  1.00  0.00     0.121 A 
ATOM     15  N   UNL     1      43.101 131.541  18.121  1.00  0.00    -0.438 NA
ATOM     16  C   UNL     1      42.066 132.208  18.697  1.00  0.00     0.018 A 
ATOM     17  F   UNL     1      41.142 133.315  20.597  1.00  0.00    -0.207 F 
BRANCH  13  18
ATOM     18  N   UNL     1      45.224 130.617  18.218  1.00  0.00    -0.431 NA
BRANCH  18  19
ATOM     19  C   UNL     1      45.822 130.834  16.929  1.00  0.00    -0.001 A 
ATOM     20  C   UNL     1      46.532 129.809  16.256  1.00  0.00     0.024 A 
ATOM     21  C   UNL     1      45.607 132.084  16.288  1.00  0.00     0.201 A 
ATOM     22  C   UNL     1      47.035 130.104  15.000  1.00  0.00     0.068 A 
ATOM     23  N   UNL     1      46.112 132.348  15.044  1.00  0.00    -0.247 N 
ATOM     24  C   UNL     1      47.738 129.372  14.070  1.00  0.00     0.060 A 
ATOM     25  C   UNL     1      46.820 131.383  14.414  1.00  0.00     0.284 A 
ATOM     26  C   UNL     1      47.920 130.225  12.976  1.00  0.00     0.198 A 
ATOM     27  N   UNL     1      47.359 131.442  13.188  1.00  0.00    -0.247 N 
ATOM     28  H   UNL     1      45.946 133.274  14.589  1.00  0.00     0.312 HD
ATOM     29  H   UNL     1      47.342 132.251  12.528  1.00  0.00     0.311 HD
ENDBRANCH  18  19
ENDBRANCH  13  18
ENDBRANCH   1  11
TORSDOF 7
ENDMDL
MODEL 2
REMARK VINA RESULT:      -7.7      4.361      7.486
REMARK SMILES O/C(=C\C(F)(F)F)Nc1cc(F)c[n-]/c1=N\c1c[nH]c2[nH+]ccc-2c1
REMARK SMILES IDX 8 1 2 3 1 4 3 6 4 7 5 8 6 9 7 10 9 11 10 12 15 13 11 14
REMARK SMILES IDX 14 15 13 16 12 17 16 18 17 19 25 20 18 21 24 22 19 23 23 24
REMARK SMILES IDX 20 25 22 26 21 27
REMARK H PARENT 8 2 1 5 19 28 21 29
ROOT
ATOM      1  N   UNL     1      46.601 129.977  16.438  1.00  0.00    -0.327 N 
ATOM      2  H   UNL     1      47.337 130.052  17.178  1.00  0.00     0.170 HD
ENDROOT
BRANCH   1   3
ATOM      3  C   UNL     1      46.929 129.302  15.212  1.00  0.00     0.193 C 
BRANCH   3   4
ATOM      4  O   UNL     1      46.344 128.072  14.901  1.00  0.00    -0.495 OA
ATOM      5  H   UNL     1      45.724 127.959  14.109  1.00  0.00     0.295 HD
ENDBRANCH   3   4
BRANCH   3   6
ATOM      6  C   UNL     1      47.785 129.867  14.353  1.00  0.00     0.152 C 
BRANCH   6   7
ATOM      7  C   UNL     1      47.423 131.067  13.530  1.00  0.00     0.414 C 
ATOM      8  F   UNL     1      46.217 130.844  12.889  1.00  0.00    -0.167 F 
ATOM      9  F   UNL     1      48.400 131.299  12.577  1.00  0.00    -0.167 F 
ATOM     10  F   UNL     1      47.299 132.179  14.344  1.00  0.00    -0.167 F 
ENDBRANCH   6   7
ENDBRANCH   3   6
ENDBRANCH   1   3
BRANCH   1  11
ATOM     11  C   UNL     1      45.357 130.661  16.661  1.00  0.00     0.043 A 
ATOM     12  C   UNL     1      44.575 131.032  15.558  1.00  0.00     0.064 A 
ATOM     13  C   UNL     1      44.921 131.020  17.956  1.00  0.00    -0.034 A 
ATOM     14  C   UNL     1      43.370 131.708  15.748  1.00  0.00     0.121 A 
ATOM     15  N   UNL     1      43.743 131.689  18.103  1.00  0.00    -0.438 NA
ATOM     16  C   UNL     1      42.962 132.026  17.043  1.00  0.00     0.018 A 
ATOM     17  F   UNL     1      42.604 132.054  14.684  1.00  0.00    -0.207 F 
BRANCH  13  18
ATOM     18  N   UNL     1      45.677 130.768  18.986  1.00  0.00    -0.431 NA
BRANCH  18  19
ATOM     19  C   UNL     1      45.254 130.543  20.342  1.00  0.00    -0.001 A 
ATOM     20  C   UNL     1      44.428 131.468  21.027  1.00  0.00     0.024 A 
ATOM     21  C   UNL     1      45.607 129.314  20.963  1.00  0.00     0.201 A 
ATOM     22  C   UNL     1      44.041 131.141  22.316  1.00  0.00     0.068 A 
ATOM     23  N   UNL     1      45.207 129.014  22.237  1.00  0.00    -0.247 N 
ATOM     24  C   UNL     1      43.248 131.769  23.250  1.00  0.00     0.060 A 
ATOM     25  C   UNL     1      44.446 129.911  22.906  1.00  0.00     0.284 A 
ATOM     26  C   UNL     1      43.209 130.908  24.352  1.00  0.00     0.198 A 
ATOM     27  N   UNL     1      43.934 129.782  24.138  1.00  0.00    -0.247 N 
ATOM     28  H   UNL     1      45.477 128.107  22.679  1.00  0.00     0.312 HD
ATOM     29  H   UNL     1      44.057 128.978  24.793  1.00  0.00     0.311 HD
ENDBRANCH  18  19
ENDBRANCH  13  18
ENDBRANCH   1  11
TORSDOF 7
ENDMDL
MODEL 3
REMARK VINA RESULT:      -7.2      2.336      2.821
REMARK SMILES O/C(=C\C(F)(F)F)Nc1cc(F)c[n-]/c1=N\c1c[nH]c2[nH+]ccc-2c1
REMARK SMILES IDX 8 1 2 3 1 4 3 6 4 7 5 8 6 9 7 10 9 11 10 12 15 13 11 14
REMARK SMILES IDX 14 15 13 16 12 17 16 18 17 19 25 20 18 21 24 22 19 23 23 24
REMARK SMILES IDX 20 25 22 26 21 27
REMARK H PARENT 8 2 1 5 19 28 21 29
ROOT
ATOM      1  N   UNL     1      44.911 130.745  19.895  1.00  0.00    -0.327 N 
ATOM      2  H   UNL     1      45.378 130.055  19.263  1.00  0.00     0.170 HD
ENDROOT
BRANCH   1   3
ATOM      3  C   UNL     1      45.369 130.850  21.253  1.00  0.00     0.193 C 
BRANCH   3   4
ATOM      4  O   UNL     1      46.184 131.914  21.647  1.00  0.00    -0.495 OA
ATOM      5  H   UNL     1      45.899 132.878  21.532  1.00  0.00     0.295 HD
ENDBRANCH   3   4
BRANCH   3   6
ATOM      6  C   UNL     1      44.994 129.933  22.151  1.00  0.00     0.152 C 
BRANCH   6   7
ATOM      7  C   UNL     1      43.967 130.214  23.208  1.00  0.00     0.414 C 
ATOM      8  F   UNL     1      43.847 131.580  23.386  1.00  0.00    -0.167 F 
ATOM      9  F   UNL     1      44.351 129.638  24.406  1.00  0.00    -0.167 F 
ATOM     10  F   UNL     1      42.741 129.702  22.822  1.00  0.00    -0.167 F 
ENDBRANCH   6   7
ENDBRANCH   3   6
ENDBRANCH   1   3
BRANCH   1  11
ATOM     11  C   UNL     1      43.766 131.449  19.386  1.00  0.00     0.043 A 
ATOM     12  C   UNL     1      43.034 132.277  20.248  1.00  0.00     0.064 A 
ATOM     13  C   UNL     1      43.321 131.291  18.054  1.00  0.00    -0.034 A 
ATOM     14  C   UNL     1      41.912 132.961  19.781  1.00  0.00     0.121 A 
ATOM     15  N   UNL     1      42.214 131.967  17.635  1.00  0.00    -0.438 NA
ATOM     16  C   UNL     1      41.516 132.797  18.455  1.00  0.00     0.018 A 
ATOM     17  F   UNL     1      41.212 133.775  20.610  1.00  0.00    -0.207 F 
BRANCH  13  18
ATOM     18  N   UNL     1      43.930 130.455  17.263  1.00  0.00    -0.431 NA
BRANCH  18  19
ATOM     19  C   UNL     1      44.953 130.756  16.300  1.00  0.00    -0.001 A 
ATOM     20  C   UNL     1      45.703 129.733  15.667  1.00  0.00     0.024 A 
ATOM     21  C   UNL     1      45.141 132.112  15.917  1.00  0.00     0.201 A 
ATOM     22  C   UNL     1      46.639 130.123  14.723  1.00  0.00     0.068 A 
ATOM     23  N   UNL     1      46.071 132.469  14.978  1.00  0.00    -0.247 N 
ATOM     24  C   UNL     1      47.509 129.427  13.915  1.00  0.00     0.060 A 
ATOM     25  C   UNL     1      46.812 131.497  14.397  1.00  0.00     0.284 A 
ATOM     26  C   UNL     1      48.167 130.394  13.147  1.00  0.00     0.198 A 
ATOM     27  N   UNL     1      47.739 131.647  13.440  1.00  0.00    -0.247 N 
ATOM     28  H   UNL     1      46.197 133.471  14.711  1.00  0.00     0.312 HD
ATOM     29  H   UNL     1      48.058 132.540  13.003  1.00  0.00     0.311 HD
ENDBRANCH  18  19
ENDBRANCH  13  18
ENDBRANCH   1  11
TORSDOF 7
ENDMDL
MODEL 4
REMARK VINA RESULT:      -7.0      4.722      7.465
REMARK SMILES O/C(=C\C(F)(F)F)Nc1cc(F)c[n-]/c1=N\c1c[nH]c2[nH+]ccc-2c1
REMARK SMILES IDX 8 1 2 3 1 4 3 6 4 7 5 8 6 9 7 10 9 11 10 12 15 13 11 14
REMARK SMILES IDX 14 15 13 16 12 17 16 18 17 19 25 20 18 21 24 22 19 23 23 24
REMARK SMILES IDX 20 25 22 26 21 27
REMARK H PARENT 8 2 1 5 19 28 21 29
ROOT
ATOM      1  N   UNL     1      46.476 129.990  16.939  1.00  0.00    -0.327 N 
ATOM      2  H   UNL     1      47.188 129.906  17.700  1.00  0.00     0.170 HD
ENDROOT
BRANCH   1   3
ATOM      3  C   UNL     1      46.817 129.512  15.626  1.00  0.00     0.193 C 
BRANCH   3   4
ATOM      4  O   UNL     1      46.218 128.359  15.112  1.00  0.00    -0.495 OA
ATOM      5  H   UNL     1      46.003 128.261  14.129  1.00  0.00     0.295 HD
ENDBRANCH   3   4
BRANCH   3   6
ATOM      6  C   UNL     1      47.700 130.189  14.884  1.00  0.00     0.152 C 
BRANCH   6   7
ATOM      7  C   UNL     1      47.453 130.519  13.442  1.00  0.00     0.414 C 
ATOM      8  F   UNL     1      48.047 131.730  13.135  1.00  0.00    -0.167 F 
ATOM      9  F   UNL     1      46.093 130.614  13.205  1.00  0.00    -0.167 F 
ATOM     10  F   UNL     1      47.995 129.536  12.633  1.00  0.00    -0.167 F 
ENDBRANCH   6   7
ENDBRANCH   3   6
ENDBRANCH   1   3
BRANCH   1  11
ATOM     11  C   UNL     1      45.256 130.687  17.238  1.00  0.00     0.043 A 
ATOM     12  C   UNL     1      44.446 131.130  16.183  1.00  0.00     0.064 A 
ATOM     13  C   UNL     1      44.871 130.988  18.563  1.00  0.00    -0.034 A 
ATOM     14  C   UNL     1      43.263 131.820  16.448  1.00  0.00     0.121 A 
ATOM     15  N   UNL     1      43.714 131.673  18.784  1.00  0.00    -0.438 NA
ATOM     16  C   UNL     1      42.906 132.080  17.770  1.00  0.00     0.018 A 
ATOM     17  F   UNL     1      42.471 132.236  15.429  1.00  0.00    -0.207 F 
BRANCH  13  18
ATOM     18  N   UNL     1      45.655 130.668  19.553  1.00  0.00    -0.431 NA
BRANCH  18  19
ATOM     19  C   UNL     1      45.266 130.197  20.854  1.00  0.00    -0.001 A 
ATOM     20  C   UNL     1      45.459 128.848  21.245  1.00  0.00     0.024 A 
ATOM     21  C   UNL     1      44.761 131.139  21.790  1.00  0.00     0.201 A 
ATOM     22  C   UNL     1      45.089 128.501  22.534  1.00  0.00     0.068 A 
ATOM     23  N   UNL     1      44.407 130.770  23.060  1.00  0.00    -0.247 N 
ATOM     24  C   UNL     1      45.148 127.325  23.247  1.00  0.00     0.060 A 
ATOM     25  C   UNL     1      44.559 129.476  23.424  1.00  0.00     0.284 A 
ATOM     26  C   UNL     1      44.655 127.630  24.520  1.00  0.00     0.198 A 
ATOM     27  N   UNL     1      44.301 128.936  24.624  1.00  0.00    -0.247 N 
ATOM     28  H   UNL     1      44.035 131.476  23.734  1.00  0.00     0.312 HD
ATOM     29  H   UNL     1      43.920 129.420  25.467  1.00  0.00     0.311 HD
ENDBRANCH  18  19
ENDBRANCH  13  18
ENDBRANCH   1  11
TORSDOF 7
ENDMDL
MODEL 5
REMARK VINA RESULT:      -6.8      4.714      7.201
REMARK SMILES O/C(=C\C(F)(F)F)Nc1cc(F)c[n-]/c1=N\c1c[nH]c2[nH+]ccc-2c1
REMARK SMILES IDX 8 1 2 3 1 4 3 6 4 7 5 8 6 9 7 10 9 11 10 12 15 13 11 14
REMARK SMILES IDX 14 15 13 16 12 17 16 18 17 19 25 20 18 21 24 22 19 23 23 24
REMARK SMILES IDX 20 25 22 26 21 27
REMARK H PARENT 8 2 1 5 19 28 21 29
ROOT
ATOM      1  N   UNL     1      44.683 131.184  19.033  1.00  0.00    -0.327 N 
ATOM      2  H   UNL     1      45.577 130.687  19.249  1.00  0.00     0.170 HD
ENDROOT
BRANCH   1   3
ATOM      3  C   UNL     1      44.447 131.614  17.682  1.00  0.00     0.193 C 
BRANCH   3   4
ATOM      4  O   UNL     1      43.144 131.795  17.212  1.00  0.00    -0.495 OA
ATOM      5  H   UNL     1      42.939 131.896  16.226  1.00  0.00     0.295 HD
ENDBRANCH   3   4
BRANCH   3   6
ATOM      6  C   UNL     1      45.485 131.864  16.876  1.00  0.00     0.152 C 
BRANCH   6   7
ATOM      7  C   UNL     1      45.597 131.270  15.503  1.00  0.00     0.414 C 
ATOM      8  F   UNL     1      44.812 131.990  14.621  1.00  0.00    -0.167 F 
ATOM      9  F   UNL     1      45.164 129.956  15.519  1.00  0.00    -0.167 F 
ATOM     10  F   UNL     1      46.912 131.317  15.075  1.00  0.00    -0.167 F 
ENDBRANCH   6   7
ENDBRANCH   3   6
ENDBRANCH   1   3
BRANCH   1  11
ATOM     11  C   UNL     1      43.814 131.504  20.132  1.00  0.00     0.043 A 
ATOM     12  C   UNL     1      42.797 132.450  19.946  1.00  0.00     0.064 A 
ATOM     13  C   UNL     1      43.985 130.932  21.413  1.00  0.00    -0.034 A 
ATOM     14  C   UNL     1      41.948 132.786  21.000  1.00  0.00     0.121 A 
ATOM     15  N   UNL     1      43.143 131.292  22.423  1.00  0.00    -0.438 NA
ATOM     16  C   UNL     1      42.135 132.185  22.244  1.00  0.00     0.018 A 
ATOM     17  F   UNL     1      40.954 133.689  20.818  1.00  0.00    -0.207 F 
BRANCH  13  18
ATOM     18  N   UNL     1      44.981 130.123  21.633  1.00  0.00    -0.431 NA
BRANCH  18  19
ATOM     19  C   UNL     1      44.958 128.899  22.387  1.00  0.00    -0.001 A 
ATOM     20  C   UNL     1      45.398 127.673  21.829  1.00  0.00     0.024 A 
ATOM     21  C   UNL     1      44.568 128.956  23.753  1.00  0.00     0.201 A 
ATOM     22  C   UNL     1      45.375 126.557  22.650  1.00  0.00     0.068 A 
ATOM     23  N   UNL     1      44.559 127.839  24.542  1.00  0.00    -0.247 N 
ATOM     24  C   UNL     1      45.737 125.242  22.463  1.00  0.00     0.060 A 
ATOM     25  C   UNL     1      44.946 126.660  24.003  1.00  0.00     0.284 A 
ATOM     26  C   UNL     1      45.512 124.611  23.691  1.00  0.00     0.198 A 
ATOM     27  N   UNL     1      45.036 125.474  24.622  1.00  0.00    -0.247 N 
ATOM     28  H   UNL     1      44.267 127.899  25.544  1.00  0.00     0.312 HD
ATOM     29  H   UNL     1      44.800 125.261  25.617  1.00  0.00     0.311 HD
ENDBRANCH  18  19
ENDBRANCH  13  18
ENDBRANCH   1  11
TORSDOF 7
ENDMDL
MODEL 6
REMARK VINA RESULT:      -6.8      4.351      7.431
REMARK SMILES O/C(=C\C(F)(F)F)Nc1cc(F)c[n-]/c1=N\c1c[nH]c2[nH+]ccc-2c1
REMARK SMILES IDX 8 1 2 3 1 4 3 6 4 7 5 8 6 9 7 10 9 11 10 12 15 13 11 14
REMARK SMILES IDX 14 15 13 16 12 17 16 18 17 19 25 20 18 21 24 22 19 23 23 24
REMARK SMILES IDX 20 25 22 26 21 27
REMARK H PARENT 8 2 1 5 19 28 21 29
ROOT
ATOM      1  N   UNL     1      46.701 130.076  16.300  1.00  0.00    -0.327 N 
ATOM      2  H   UNL     1      47.442 130.265  17.013  1.00  0.00     0.170 HD
ENDROOT
BRANCH   1   3
ATOM      3  C   UNL     1      47.047 129.305  15.137  1.00  0.00     0.193 C 
BRANCH   3   4
ATOM      4  O   UNL     1      46.514 128.028  14.947  1.00  0.00    -0.495 OA
ATOM      5  H   UNL     1      45.605 127.885  14.526  1.00  0.00     0.295 HD
ENDBRANCH   3   4
BRANCH   3   6
ATOM      6  C   UNL     1      47.872 129.824  14.221  1.00  0.00     0.152 C 
BRANCH   6   7
ATOM      7  C   UNL     1      47.493 131.001  13.373  1.00  0.00     0.414 C 
ATOM      8  F   UNL     1      46.258 130.776  12.791  1.00  0.00    -0.167 F 
ATOM      9  F   UNL     1      48.432 131.187  12.374  1.00  0.00    -0.167 F 
ATOM     10  F   UNL     1      47.419 132.141  14.154  1.00  0.00    -0.167 F 
ENDBRANCH   6   7
ENDBRANCH   3   6
ENDBRANCH   1   3
BRANCH   1  11
ATOM     11  C   UNL     1      45.422 130.705  16.483  1.00  0.00     0.043 A 
ATOM     12  C   UNL     1      44.661 131.047  15.357  1.00  0.00     0.064 A 
ATOM     13  C   UNL     1      44.928 131.039  17.764  1.00  0.00    -0.034 A 
ATOM     14  C   UNL     1      43.422 131.669  15.509  1.00  0.00     0.121 A 
ATOM     15  N   UNL     1      43.718 131.657  17.874  1.00  0.00    -0.438 NA
ATOM     16  C   UNL     1      42.959 131.964  16.790  1.00  0.00     0.018 A 
ATOM     17  F   UNL     1      42.678 131.987  14.421  1.00  0.00    -0.207 F 
BRANCH  13  18
ATOM     18  N   UNL     1      45.660 130.816  18.819  1.00  0.00    -0.431 NA
BRANCH  18  19
ATOM     19  C   UNL     1      45.299 131.038  20.192  1.00  0.00    -0.001 A 
ATOM     20  C   UNL     1      44.311 130.253  20.838  1.00  0.00     0.024 A 
ATOM     21  C   UNL     1      46.024 132.011  20.931  1.00  0.00     0.201 A 
ATOM     22  C   UNL     1      44.063 130.518  22.175  1.00  0.00     0.068 A 
ATOM     23  N   UNL     1      45.762 132.249  22.253  1.00  0.00    -0.247 N 
ATOM     24  C   UNL     1      43.215 129.960  23.104  1.00  0.00     0.060 A 
ATOM     25  C   UNL     1      44.796 131.525  22.863  1.00  0.00     0.284 A 
ATOM     26  C   UNL     1      43.461 130.645  24.299  1.00  0.00     0.198 A 
ATOM     27  N   UNL     1      44.422 131.591  24.149  1.00  0.00    -0.247 N 
ATOM     28  H   UNL     1      46.303 132.971  22.780  1.00  0.00     0.312 HD
ATOM     29  H   UNL     1      44.799 132.228  24.885  1.00  0.00     0.311 HD
ENDBRANCH  18  19
ENDBRANCH  13  18
ENDBRANCH   1  11
TORSDOF 7
ENDMDL
MODEL 7
REMARK VINA RESULT:      -6.7      4.771      7.610
REMARK SMILES O/C(=C\C(F)(F)F)Nc1cc(F)c[n-]/c1=N\c1c[nH]c2[nH+]ccc-2c1
REMARK SMILES IDX 8 1 2 3 1 4 3 6 4 7 5 8 6 9 7 10 9 11 10 12 15 13 11 14
REMARK SMILES IDX 14 15 13 16 12 17 16 18 17 19 25 20 18 21 24 22 19 23 23 24
REMARK SMILES IDX 20 25 22 26 21 27
REMARK H PARENT 8 2 1 5 19 28 21 29
ROOT
ATOM      1  N   UNL     1      46.443 129.401  15.723  1.00  0.00    -0.327 N 
ATOM      2  H   UNL     1      46.605 128.734  16.512  1.00  0.00     0.170 HD
ENDROOT
BRANCH   1   3
ATOM      3  C   UNL     1      47.432 129.487  14.684  1.00  0.00     0.193 C 
BRANCH   3   4
ATOM      4  O   UNL     1      48.014 128.330  14.160  1.00  0.00    -0.495 OA
ATOM      5  H   UNL     1      48.274 127.548  14.747  1.00  0.00     0.295 HD
ENDBRANCH   3   4
BRANCH   3   6
ATOM      6  C   UNL     1      47.783 130.684  14.201  1.00  0.00     0.152 C 
BRANCH   6   7
ATOM      7  C   UNL     1      47.817 130.981  12.732  1.00  0.00     0.414 C 
ATOM      8  F   UNL     1      46.535 131.240  12.281  1.00  0.00    -0.167 F 
ATOM      9  F   UNL     1      48.323 129.893  12.042  1.00  0.00    -0.167 F 
ATOM     10  F   UNL     1      48.610 132.089  12.491  1.00  0.00    -0.167 F 
ENDBRANCH   6   7
ENDBRANCH   3   6
ENDBRANCH   1   3
BRANCH   1  11
ATOM     11  C   UNL     1      45.299 130.267  15.804  1.00  0.00     0.043 A 
ATOM     12  C   UNL     1      44.621 130.615  14.628  1.00  0.00     0.064 A 
ATOM     13  C   UNL     1      44.866 130.823  17.029  1.00  0.00    -0.034 A 
ATOM     14  C   UNL     1      43.515 131.463  14.679  1.00  0.00     0.121 A 
ATOM     15  N   UNL     1      43.787 131.657  17.040  1.00  0.00    -0.438 NA
ATOM     16  C   UNL     1      43.104 131.975  15.909  1.00  0.00     0.018 A 
ATOM     17  F   UNL     1      42.848 131.788  13.545  1.00  0.00    -0.207 F 
BRANCH  13  18
ATOM     18  N   UNL     1      45.537 130.588  18.120  1.00  0.00    -0.431 NA
BRANCH  18  19
ATOM     19  C   UNL     1      45.092 130.777  19.474  1.00  0.00    -0.001 A 
ATOM     20  C   UNL     1      43.908 131.495  19.774  1.00  0.00     0.024 A 
ATOM     21  C   UNL     1      45.820 130.143  20.517  1.00  0.00     0.201 A 
ATOM     22  C   UNL     1      43.542 131.587  21.107  1.00  0.00     0.068 A 
ATOM     23  N   UNL     1      45.432 130.246  21.826  1.00  0.00    -0.247 N 
ATOM     24  C   UNL     1      42.475 132.170  21.753  1.00  0.00     0.060 A 
ATOM     25  C   UNL     1      44.321 130.960  22.119  1.00  0.00     0.284 A 
ATOM     26  C   UNL     1      42.652 131.881  23.110  1.00  0.00     0.198 A 
ATOM     27  N   UNL     1      43.771 131.145  23.327  1.00  0.00    -0.247 N 
ATOM     28  H   UNL     1      45.981 129.776  22.581  1.00  0.00     0.312 HD
ATOM     29  H   UNL     1      44.121 130.787  24.243  1.00  0.00     0.311 HD
ENDBRANCH  18  19
ENDBRANCH  13  18
ENDBRANCH   1  11
TORSDOF 7
ENDMDL
MODEL 8
REMARK VINA RESULT:      -6.6      1.701      2.194
REMARK SMILES O/C(=C\C(F)(F)F)Nc1cc(F)c[n-]/c1=N\c1c[nH]c2[nH+]ccc-2c1
REMARK SMILES IDX 8 1 2 3 1 4 3 6 4 7 5 8 6 9 7 10 9 11 10 12 15 13 11 14
REMARK SMILES IDX 14 15 13 16 12 17 16 18 17 19 25 20 18 21 24 22 19 23 23 24
REMARK SMILES IDX 20 25 22 26 21 27
REMARK H PARENT 8 2 1 5 19 28 21 29
ROOT
ATOM      1  N   UNL     1      46.546 131.902  20.941  1.00  0.00    -0.327 N 
ATOM      2  H   UNL     1      47.170 131.079  20.777  1.00  0.00     0.170 HD
ENDROOT
BRANCH   1   3
ATOM      3  C   UNL     1      47.150 133.162  21.280  1.00  0.00     0.193 C 
BRANCH   3   4
ATOM      4  O   UNL     1      46.530 134.364  20.928  1.00  0.00    -0.495 OA
ATOM      5  H   UNL     1      45.713 134.390  20.332  1.00  0.00     0.295 HD
ENDBRANCH   3   4
BRANCH   3   6
ATOM      6  C   UNL     1      48.304 133.182  21.956  1.00  0.00     0.152 C 
BRANCH   6   7
ATOM      7  C   UNL     1      48.686 134.316  22.860  1.00  0.00     0.414 C 
ATOM      8  F   UNL     1      47.642 134.593  23.724  1.00  0.00    -0.167 F 
ATOM      9  F   UNL     1      48.960 135.447  22.111  1.00  0.00    -0.167 F 
ATOM     10  F   UNL     1      49.803 133.973  23.602  1.00  0.00    -0.167 F 
ENDBRANCH   6   7
ENDBRANCH   3   6
ENDBRANCH   1   3
BRANCH   1  11
ATOM     11  C   UNL     1      45.127 131.679  20.930  1.00  0.00     0.043 A 
ATOM     12  C   UNL     1      44.512 131.139  22.068  1.00  0.00     0.064 A 
ATOM     13  C   UNL     1      44.337 131.936  19.788  1.00  0.00    -0.034 A 
ATOM     14  C   UNL     1      43.138 130.902  22.078  1.00  0.00     0.121 A 
ATOM     15  N   UNL     1      42.998 131.682  19.830  1.00  0.00    -0.438 NA
ATOM     16  C   UNL     1      42.387 131.189  20.939  1.00  0.00     0.018 A 
ATOM     17  F   UNL     1      42.538 130.394  23.184  1.00  0.00    -0.207 F 
BRANCH  13  18
ATOM     18  N   UNL     1      44.902 132.349  18.689  1.00  0.00    -0.431 NA
BRANCH  18  19
ATOM     19  C   UNL     1      45.405 131.540  17.612  1.00  0.00    -0.001 A 
ATOM     20  C   UNL     1      45.706 132.095  16.344  1.00  0.00     0.024 A 
ATOM     21  C   UNL     1      45.687 130.172  17.871  1.00  0.00     0.201 A 
ATOM     22  C   UNL     1      46.225 131.242  15.384  1.00  0.00     0.068 A 
ATOM     23  N   UNL     1      46.203 129.351  16.905  1.00  0.00    -0.247 N 
ATOM     24  C   UNL     1      46.643 131.426  14.085  1.00  0.00     0.060 A 
ATOM     25  C   UNL     1      46.460 129.870  15.683  1.00  0.00     0.284 A 
ATOM     26  C   UNL     1      47.104 130.177  13.656  1.00  0.00     0.198 A 
ATOM     27  N   UNL     1      46.994 129.238  14.628  1.00  0.00    -0.247 N 
ATOM     28  H   UNL     1      46.402 128.346  17.113  1.00  0.00     0.312 HD
ATOM     29  H   UNL     1      47.278 128.234  14.570  1.00  0.00     0.311 HD
ENDBRANCH  18  19
ENDBRANCH  13  18
ENDBRANCH   1  11
TORSDOF 7
ENDMDL
MODEL 9
REMARK VINA RESULT:      -6.6      4.251      7.231
REMARK SMILES O/C(=C\C(F)(F)F)Nc1cc(F)c[n-]/c1=N\c1c[nH]c2[nH+]ccc-2c1
REMARK SMILES IDX 8 1 2 3 1 4 3 6 4 7 5 8 6 9 7 10 9 11 10 12 15 13 11 14
REMARK SMILES IDX 14 15 13 16 12 17 16 18 17 19 25 20 18 21 24 22 19 23 23 24
REMARK SMILES IDX 20 25 22 26 21 27
REMARK H PARENT 8 2 1 5 19 28 21 29
ROOT
ATOM      1  N   UNL     1      45.980 129.173  15.277  1.00  0.00    -0.327 N 
ATOM      2  H   UNL     1      45.685 128.172  15.328  1.00  0.00     0.170 HD
ENDROOT
BRANCH   1   3
ATOM      3  C   UNL     1      47.382 129.471  15.169  1.00  0.00     0.193 C 
BRANCH   3   4
ATOM      4  O   UNL     1      48.213 129.389  16.289  1.00  0.00    -0.495 OA
ATOM      5  H   UNL     1      47.855 129.150  17.205  1.00  0.00     0.295 HD
ENDBRANCH   3   4
BRANCH   3   6
ATOM      6  C   UNL     1      47.898 129.810  13.983  1.00  0.00     0.152 C 
BRANCH   6   7
ATOM      7  C   UNL     1      47.560 131.100  13.297  1.00  0.00     0.414 C 
ATOM      8  F   UNL     1      48.595 131.462  12.454  1.00  0.00    -0.167 F 
ATOM      9  F   UNL     1      47.376 132.100  14.236  1.00  0.00    -0.167 F 
ATOM     10  F   UNL     1      46.404 130.950  12.551  1.00  0.00    -0.167 F 
ENDBRANCH   6   7
ENDBRANCH   3   6
ENDBRANCH   1   3
BRANCH   1  11
ATOM     11  C   UNL     1      44.964 130.178  15.438  1.00  0.00     0.043 A 
ATOM     12  C   UNL     1      44.193 130.553  14.330  1.00  0.00     0.064 A 
ATOM     13  C   UNL     1      44.754 130.839  16.668  1.00  0.00    -0.034 A 
ATOM     14  C   UNL     1      43.210 131.534  14.458  1.00  0.00     0.121 A 
ATOM     15  N   UNL     1      43.792 131.801  16.755  1.00  0.00    -0.438 NA
ATOM     16  C   UNL     1      43.017 132.150  15.694  1.00  0.00     0.018 A 
ATOM     17  F   UNL     1      42.452 131.888  13.391  1.00  0.00    -0.207 F 
BRANCH  13  18
ATOM     18  N   UNL     1      45.523 130.573  17.686  1.00  0.00    -0.431 NA
BRANCH  18  19
ATOM     19  C   UNL     1      45.200 130.710  19.080  1.00  0.00    -0.001 A 
ATOM     20  C   UNL     1      44.086 131.470  19.514  1.00  0.00     0.024 A 
ATOM     21  C   UNL     1      45.973 129.984  20.026  1.00  0.00     0.201 A 
ATOM     22  C   UNL     1      43.834 131.508  20.876  1.00  0.00     0.068 A 
ATOM     23  N   UNL     1      45.699 130.035  21.366  1.00  0.00    -0.247 N 
ATOM     24  C   UNL     1      42.857 132.108  21.638  1.00  0.00     0.060 A 
ATOM     25  C   UNL     1      44.657 130.788  21.786  1.00  0.00     0.284 A 
ATOM     26  C   UNL     1      43.127 131.737  22.959  1.00  0.00     0.198 A 
ATOM     27  N   UNL     1      44.217 130.934  23.044  1.00  0.00    -0.247 N 
ATOM     28  H   UNL     1      46.280 129.496  22.047  1.00  0.00     0.312 HD
ATOM     29  H   UNL     1      44.620 130.509  23.909  1.00  0.00     0.311 HD
ENDBRANCH  18  19
ENDBRANCH  13  18
ENDBRANCH   1  11
TORSDOF 7
ENDMDL


