REMARK SMILES Cc1cc(N(N)C(=O)O[C@H]2CS(=O)(=O)C[C@@H]2Cl)c([O-])c(-n2nc3ccccc3n2)c1
REMARK SMILES IDX 7 1 8 2 5 3 4 4 2 5 3 6 30 7 20 8 18 9 1 10 19 11 21 12
REMARK SMILES IDX 22 13 29 14 23 15 28 16 24 17 27 18 25 19 26 20 6 21 9 24
REMARK SMILES IDX 10 25 11 26 16 27 12 28 15 29 17 30 13 31 14 32
REMARK H PARENT 6 22 6 23
ROOT
ATOM      1  C   UNL     1      -1.744   1.720  -1.784  1.00  0.00     0.429 C 
ATOM      2  O   UNL     1      -2.655   2.389  -2.344  1.00  0.00    -0.222 OA
ENDROOT
BRANCH   1   3
ATOM      3  N   UNL     1      -2.030   0.985  -0.579  1.00  0.00    -0.214 N 
BRANCH   3   4
ATOM      4  C   UNL     1      -1.074   0.054  -0.040  1.00  0.00     0.059 A 
ATOM      5  C   UNL     1       0.476  -1.793  -0.374  1.00  0.00    -0.047 A 
ATOM      6  C   UNL     1      -0.464  -0.889  -0.880  1.00  0.00     0.031 A 
ATOM      7  C   UNL     1       0.774  -1.785   0.994  1.00  0.00     0.033 A 
ATOM      8  C   UNL     1       0.167  -0.860   1.863  1.00  0.00     0.080 A 
ATOM      9  C   UNL     1      -0.758   0.069   1.332  1.00  0.00    -0.054 A 
ATOM     10  C   UNL     1       1.102  -2.816  -1.275  1.00  0.00     0.044 C 
ATOM     11  O   UNL     1      -1.352   1.023   2.153  1.00  0.00    -0.870 OA
BRANCH   8  12
ATOM     12  N   UNL     1       0.501  -0.876   3.268  1.00  0.00    -0.151 N 
ATOM     13  N   UNL     1      -0.105  -0.127   4.191  1.00  0.00    -0.148 NA
ATOM     14  N   UNL     1       1.451  -1.655   3.786  1.00  0.00    -0.148 NA
ATOM     15  C   UNL     1       0.493  -0.448   5.347  1.00  0.00     0.113 A 
ATOM     16  C   UNL     1       1.446  -1.384   5.099  1.00  0.00     0.113 A 
ATOM     17  C   UNL     1       0.246   0.040   6.626  1.00  0.00     0.032 A 
ATOM     18  C   UNL     1       2.242  -1.919   6.107  1.00  0.00     0.032 A 
ATOM     19  C   UNL     1       1.031  -0.475   7.677  1.00  0.00     0.002 A 
ATOM     20  C   UNL     1       2.025  -1.451   7.418  1.00  0.00     0.002 A 
ENDBRANCH   8  12
ENDBRANCH   3   4
BRANCH   3  21
ATOM     21  N   UNL     1      -3.270   1.139   0.067  1.00  0.00    -0.238 NA
ATOM     22  H   UNL     1      -3.412   2.158   0.254  1.00  0.00     0.144 HD
ATOM     23  H   UNL     1      -4.015   0.826  -0.597  1.00  0.00     0.144 HD
ENDBRANCH   3  21
ENDBRANCH   1   3
BRANCH   1  24
ATOM     24  O   UNL     1      -0.452   1.698  -2.322  1.00  0.00    -0.442 OA
BRANCH  24  25
ATOM     25  C   UNL     1      -0.091   2.347  -3.540  1.00  0.00     0.212 C 
ATOM     26  C   UNL     1      -0.035   3.867  -3.361  1.00  0.00     0.183 C 
ATOM     27  C   UNL     1       1.301   1.872  -3.987  1.00  0.00     0.138 C 
ATOM     28  S   UNL     1       1.160   4.425  -4.539  1.00  0.00     0.155 S 
ATOM     29  C   UNL     1       1.835   2.864  -5.019  1.00  0.00     0.160 C 
ATOM     30  Cl  UNL     1       1.232   0.218  -4.657  1.00  0.00    -0.118 Cl
ATOM     31  O   UNL     1       2.197   5.304  -3.899  1.00  0.00    -0.229 OA
ATOM     32  O   UNL     1       0.509   5.125  -5.699  1.00  0.00    -0.229 OA
ENDBRANCH  24  25
ENDBRANCH   1  24
TORSDOF 6


