MODEL 1
REMARK VINA RESULT:      -9.2      0.000      0.000
REMARK SMILES C=Cc1cccc(-c2ccc3c(c2)[C@H](N=[N+]=[N-])CC3)c1
REMARK SMILES IDX 8 1 9 2 10 3 11 4 12 5 13 6 14 7 18 8 19 9 7 10 3 11 4 12
REMARK SMILES IDX 20 13 5 14 6 15 2 16 1 17 15 18 16 19 17 20
REMARK H PARENT
ROOT
ATOM      1  C   UNL     1      44.094 131.416  17.886  1.00  0.00    -0.018 A 
ATOM      2  C   UNL     1      42.802 131.957  18.088  1.00  0.00     0.009 A 
ATOM      3  C   UNL     1      42.308 132.159  19.385  1.00  0.00     0.004 A 
ATOM      4  C   UNL     1      43.112 131.817  20.472  1.00  0.00    -0.044 A 
ATOM      5  C   UNL     1      44.360 131.281  20.291  1.00  0.00    -0.035 A 
ATOM      6  C   UNL     1      44.880 131.078  19.009  1.00  0.00     0.013 A 
ATOM      7  C   UNL     1      45.028 130.978  21.585  1.00  0.00     0.104 C 
ATOM      8  C   UNL     1      44.072 131.588  22.634  1.00  0.00     0.019 C 
ATOM      9  C   UNL     1      42.769 131.961  21.905  1.00  0.00     0.036 C 
ENDROOT
BRANCH   1  10
ATOM     10  C   UNL     1      44.617 131.205  16.512  1.00  0.00    -0.018 A 
ATOM     11  C   UNL     1      46.346 130.340  15.007  1.00  0.00    -0.026 A 
ATOM     12  C   UNL     1      45.610 130.818  13.912  1.00  0.00     0.008 A 
ATOM     13  C   UNL     1      45.847 130.549  16.309  1.00  0.00     0.016 A 
ATOM     14  C   UNL     1      44.391 131.469  14.106  1.00  0.00     0.001 A 
ATOM     15  C   UNL     1      43.894 131.659  15.397  1.00  0.00     0.009 A 
BRANCH  11  16
ATOM     16  C   UNL     1      47.641 129.663  14.747  1.00  0.00     0.000 C 
ATOM     17  C   UNL     1      48.250 129.644  13.561  1.00  0.00     0.009 C 
ENDBRANCH  11  16
ENDBRANCH   1  10
BRANCH   7  18
ATOM     18  N   UNL     1      45.137 129.536  21.784  1.00  0.00    -0.086 NA
BRANCH  18  19
ATOM     19  N   UNL     1      44.556 128.975  22.714  1.00  0.00     0.002 N 
ATOM     20  N   UNL     1      43.975 128.415  23.643  1.00  0.00    -0.003 NA
ENDBRANCH  18  19
ENDBRANCH   7  18
TORSDOF 4
ENDMDL
MODEL 2
REMARK VINA RESULT:      -7.5      1.016      1.289
REMARK SMILES C=Cc1cccc(-c2ccc3c(c2)[C@H](N=[N+]=[N-])CC3)c1
REMARK SMILES IDX 8 1 9 2 10 3 11 4 12 5 13 6 14 7 18 8 19 9 7 10 3 11 4 12
REMARK SMILES IDX 20 13 5 14 6 15 2 16 1 17 15 18 16 19 17 20
REMARK H PARENT
ROOT
ATOM      1  C   UNL     1      43.810 131.516  18.973  1.00  0.00    -0.018 A 
ATOM      2  C   UNL     1      42.750 132.397  19.291  1.00  0.00     0.009 A 
ATOM      3  C   UNL     1      42.346 132.575  20.623  1.00  0.00     0.004 A 
ATOM      4  C   UNL     1      43.006 131.867  21.627  1.00  0.00    -0.044 A 
ATOM      5  C   UNL     1      44.027 131.002  21.332  1.00  0.00    -0.035 A 
ATOM      6  C   UNL     1      44.455 130.814  20.014  1.00  0.00     0.013 A 
ATOM      7  C   UNL     1      44.571 130.346  22.551  1.00  0.00     0.104 C 
ATOM      8  C   UNL     1      43.854 131.082  23.704  1.00  0.00     0.019 C 
ATOM      9  C   UNL     1      42.729 131.927  23.080  1.00  0.00     0.036 C 
ENDROOT
BRANCH   1  10
ATOM     10  C   UNL     1      44.239 131.331  17.563  1.00  0.00    -0.018 A 
ATOM     11  C   UNL     1      45.870 130.510  15.929  1.00  0.00    -0.026 A 
ATOM     12  C   UNL     1      45.054 130.993  14.895  1.00  0.00     0.008 A 
ATOM     13  C   UNL     1      45.459 130.695  17.265  1.00  0.00     0.016 A 
ATOM     14  C   UNL     1      43.843 131.626  15.183  1.00  0.00     0.001 A 
ATOM     15  C   UNL     1      43.435 131.791  16.507  1.00  0.00     0.009 A 
BRANCH  11  16
ATOM     16  C   UNL     1      47.152 129.853  15.570  1.00  0.00     0.000 C 
ATOM     17  C   UNL     1      47.529 129.582  14.320  1.00  0.00     0.009 C 
ENDBRANCH  11  16
ENDBRANCH   1  10
BRANCH   7  18
ATOM     18  N   UNL     1      44.228 128.928  22.570  1.00  0.00    -0.086 NA
BRANCH  18  19
ATOM     19  N   UNL     1      45.078 128.063  22.352  1.00  0.00     0.002 N 
ATOM     20  N   UNL     1      45.927 127.200  22.133  1.00  0.00    -0.003 NA
ENDBRANCH  18  19
ENDBRANCH   7  18
TORSDOF 4
ENDMDL
MODEL 3
REMARK VINA RESULT:      -7.2      1.305      2.453
REMARK SMILES C=Cc1cccc(-c2ccc3c(c2)[C@H](N=[N+]=[N-])CC3)c1
REMARK SMILES IDX 8 1 9 2 10 3 11 4 12 5 13 6 14 7 18 8 19 9 7 10 3 11 4 12
REMARK SMILES IDX 20 13 5 14 6 15 2 16 1 17 15 18 16 19 17 20
REMARK H PARENT
ROOT
ATOM      1  C   UNL     1      44.031 131.438  19.473  1.00  0.00    -0.018 A 
ATOM      2  C   UNL     1      42.833 132.189  19.521  1.00  0.00     0.009 A 
ATOM      3  C   UNL     1      42.220 132.476  20.749  1.00  0.00     0.004 A 
ATOM      4  C   UNL     1      42.811 132.007  21.922  1.00  0.00    -0.044 A 
ATOM      5  C   UNL     1      43.965 131.270  21.890  1.00  0.00    -0.035 A 
ATOM      6  C   UNL     1      44.601 130.978  20.679  1.00  0.00     0.013 A 
ATOM      7  C   UNL     1      44.404 130.863  23.251  1.00  0.00     0.104 C 
ATOM      8  C   UNL     1      43.439 131.629  24.183  1.00  0.00     0.019 C 
ATOM      9  C   UNL     1      42.319 132.213  23.303  1.00  0.00     0.036 C 
ENDROOT
BRANCH   1  10
ATOM     10  C   UNL     1      44.681 131.138  18.172  1.00  0.00    -0.018 A 
ATOM     11  C   UNL     1      44.762 131.369  15.734  1.00  0.00    -0.026 A 
ATOM     12  C   UNL     1      45.907 130.558  15.710  1.00  0.00     0.008 A 
ATOM     13  C   UNL     1      44.147 131.645  16.972  1.00  0.00     0.016 A 
ATOM     14  C   UNL     1      46.443 130.052  16.896  1.00  0.00     0.001 A 
ATOM     15  C   UNL     1      45.838 130.342  18.120  1.00  0.00     0.009 A 
BRANCH  11  16
ATOM     16  C   UNL     1      44.228 131.874  14.445  1.00  0.00     0.000 C 
ATOM     17  C   UNL     1      43.142 131.387  13.843  1.00  0.00     0.009 C 
ENDBRANCH  11  16
ENDBRANCH   1  10
BRANCH   7  18
ATOM     18  N   UNL     1      44.244 129.424  23.437  1.00  0.00    -0.086 NA
BRANCH  18  19
ATOM     19  N   UNL     1      43.129 128.917  23.559  1.00  0.00     0.002 N 
ATOM     20  N   UNL     1      42.014 128.410  23.681  1.00  0.00    -0.003 NA
ENDBRANCH  18  19
ENDBRANCH   7  18
TORSDOF 4
ENDMDL
MODEL 4
REMARK VINA RESULT:      -7.1      1.085      1.392
REMARK SMILES C=Cc1cccc(-c2ccc3c(c2)[C@H](N=[N+]=[N-])CC3)c1
REMARK SMILES IDX 8 1 9 2 10 3 11 4 12 5 13 6 14 7 18 8 19 9 7 10 3 11 4 12
REMARK SMILES IDX 20 13 5 14 6 15 2 16 1 17 15 18 16 19 17 20
REMARK H PARENT
ROOT
ATOM      1  C   UNL     1      44.496 130.961  17.950  1.00  0.00    -0.018 A 
ATOM      2  C   UNL     1      43.264 131.647  17.838  1.00  0.00     0.009 A 
ATOM      3  C   UNL     1      42.603 132.119  18.981  1.00  0.00     0.004 A 
ATOM      4  C   UNL     1      43.180 131.898  20.231  1.00  0.00    -0.044 A 
ATOM      5  C   UNL     1      44.367 131.225  20.356  1.00  0.00    -0.035 A 
ATOM      6  C   UNL     1      45.051 130.753  19.232  1.00  0.00     0.013 A 
ATOM      7  C   UNL     1      44.784 131.091  21.778  1.00  0.00     0.104 C 
ATOM      8  C   UNL     1      43.758 131.962  22.536  1.00  0.00     0.019 C 
ATOM      9  C   UNL     1      42.639 132.322  21.542  1.00  0.00     0.036 C 
ENDROOT
BRANCH   1  10
ATOM     10  C   UNL     1      45.197 130.465  16.738  1.00  0.00    -0.018 A 
ATOM     11  C   UNL     1      46.611 130.884  14.782  1.00  0.00    -0.026 A 
ATOM     12  C   UNL     1      46.512 129.527  14.440  1.00  0.00     0.008 A 
ATOM     13  C   UNL     1      45.938 131.348  15.930  1.00  0.00     0.016 A 
ATOM     14  C   UNL     1      45.779 128.645  15.236  1.00  0.00     0.001 A 
ATOM     15  C   UNL     1      45.128 129.109  16.380  1.00  0.00     0.009 A 
BRANCH  11  16
ATOM     16  C   UNL     1      47.396 131.781  13.897  1.00  0.00     0.000 C 
ATOM     17  C   UNL     1      47.932 131.404  12.736  1.00  0.00     0.009 C 
ENDBRANCH  11  16
ENDBRANCH   1  10
BRANCH   7  18
ATOM     18  N   UNL     1      44.685 129.703  22.216  1.00  0.00    -0.086 NA
BRANCH  18  19
ATOM     19  N   UNL     1      44.513 129.420  23.402  1.00  0.00     0.002 N 
ATOM     20  N   UNL     1      44.340 129.137  24.587  1.00  0.00    -0.003 NA
ENDBRANCH  18  19
ENDBRANCH   7  18
TORSDOF 4
ENDMDL
MODEL 5
REMARK VINA RESULT:      -7.0      2.360      2.795
REMARK SMILES C=Cc1cccc(-c2ccc3c(c2)[C@H](N=[N+]=[N-])CC3)c1
REMARK SMILES IDX 8 1 9 2 10 3 11 4 12 5 13 6 14 7 18 8 19 9 7 10 3 11 4 12
REMARK SMILES IDX 20 13 5 14 6 15 2 16 1 17 15 18 16 19 17 20
REMARK H PARENT
ROOT
ATOM      1  C   UNL     1      44.994 131.185  17.964  1.00  0.00    -0.018 A 
ATOM      2  C   UNL     1      46.136 130.967  18.771  1.00  0.00     0.009 A 
ATOM      3  C   UNL     1      46.032 130.967  20.170  1.00  0.00     0.004 A 
ATOM      4  C   UNL     1      44.784 131.186  20.751  1.00  0.00    -0.044 A 
ATOM      5  C   UNL     1      43.672 131.409  19.983  1.00  0.00    -0.035 A 
ATOM      6  C   UNL     1      43.747 131.405  18.587  1.00  0.00     0.013 A 
ATOM      7  C   UNL     1      42.458 131.635  20.813  1.00  0.00     0.104 C 
ATOM      8  C   UNL     1      42.942 131.328  22.247  1.00  0.00     0.019 C 
ATOM      9  C   UNL     1      44.477 131.216  22.199  1.00  0.00     0.036 C 
ENDROOT
BRANCH   1  10
ATOM     10  C   UNL     1      45.105 131.181  16.483  1.00  0.00    -0.018 A 
ATOM     11  C   UNL     1      46.454 130.918  14.455  1.00  0.00    -0.026 A 
ATOM     12  C   UNL     1      45.314 131.186  13.681  1.00  0.00     0.008 A 
ATOM     13  C   UNL     1      46.343 130.929  15.860  1.00  0.00     0.016 A 
ATOM     14  C   UNL     1      44.084 131.437  14.292  1.00  0.00     0.001 A 
ATOM     15  C   UNL     1      43.978 131.431  15.684  1.00  0.00     0.009 A 
BRANCH  11  16
ATOM     16  C   UNL     1      47.739 130.667  13.756  1.00  0.00     0.000 C 
ATOM     17  C   UNL     1      48.261 129.455  13.564  1.00  0.00     0.009 C 
ENDBRANCH  11  16
ENDBRANCH   1  10
BRANCH   7  18
ATOM     18  N   UNL     1      42.019 133.023  20.717  1.00  0.00    -0.086 NA
BRANCH  18  19
ATOM     19  N   UNL     1      41.029 133.423  21.332  1.00  0.00     0.002 N 
ATOM     20  N   UNL     1      40.040 133.821  21.947  1.00  0.00    -0.003 NA
ENDBRANCH  18  19
ENDBRANCH   7  18
TORSDOF 4
ENDMDL
MODEL 6
REMARK VINA RESULT:      -6.8      1.237      1.365
REMARK SMILES C=Cc1cccc(-c2ccc3c(c2)[C@H](N=[N+]=[N-])CC3)c1
REMARK SMILES IDX 8 1 9 2 10 3 11 4 12 5 13 6 14 7 18 8 19 9 7 10 3 11 4 12
REMARK SMILES IDX 20 13 5 14 6 15 2 16 1 17 15 18 16 19 17 20
REMARK H PARENT
ROOT
ATOM      1  C   UNL     1      44.668 131.319  18.741  1.00  0.00    -0.018 A 
ATOM      2  C   UNL     1      43.457 132.010  18.981  1.00  0.00     0.009 A 
ATOM      3  C   UNL     1      42.849 131.965  20.245  1.00  0.00     0.004 A 
ATOM      4  C   UNL     1      43.457 131.226  21.258  1.00  0.00    -0.044 A 
ATOM      5  C   UNL     1      44.624 130.542  21.037  1.00  0.00    -0.035 A 
ATOM      6  C   UNL     1      45.256 130.579  19.790  1.00  0.00     0.013 A 
ATOM      7  C   UNL     1      45.081 129.813  22.250  1.00  0.00     0.104 C 
ATOM      8  C   UNL     1      44.110 130.299  23.348  1.00  0.00     0.019 C 
ATOM      9  C   UNL     1      42.973 131.065  22.648  1.00  0.00     0.036 C 
ENDROOT
BRANCH   1  10
ATOM     10  C   UNL     1      45.313 131.370  17.404  1.00  0.00    -0.018 A 
ATOM     11  C   UNL     1      46.471 130.247  15.560  1.00  0.00    -0.026 A 
ATOM     12  C   UNL     1      46.543 131.472  14.880  1.00  0.00     0.008 A 
ATOM     13  C   UNL     1      45.863 130.207  16.831  1.00  0.00     0.016 A 
ATOM     14  C   UNL     1      46.000 132.630  15.442  1.00  0.00     0.001 A 
ATOM     15  C   UNL     1      45.386 132.580  16.694  1.00  0.00     0.009 A 
BRANCH  11  16
ATOM     16  C   UNL     1      47.071 129.048  14.922  1.00  0.00     0.000 C 
ATOM     17  C   UNL     1      47.999 129.096  13.966  1.00  0.00     0.009 C 
ENDBRANCH  11  16
ENDBRANCH   1  10
BRANCH   7  18
ATOM     18  N   UNL     1      44.948 128.371  22.065  1.00  0.00    -0.086 NA
BRANCH  18  19
ATOM     19  N   UNL     1      45.270 127.582  22.954  1.00  0.00     0.002 N 
ATOM     20  N   UNL     1      45.591 126.793  23.842  1.00  0.00    -0.003 NA
ENDBRANCH  18  19
ENDBRANCH   7  18
TORSDOF 4
ENDMDL
MODEL 7
REMARK VINA RESULT:      -6.4      2.159      2.824
REMARK SMILES C=Cc1cccc(-c2ccc3c(c2)[C@H](N=[N+]=[N-])CC3)c1
REMARK SMILES IDX 8 1 9 2 10 3 11 4 12 5 13 6 14 7 18 8 19 9 7 10 3 11 4 12
REMARK SMILES IDX 20 13 5 14 6 15 2 16 1 17 15 18 16 19 17 20
REMARK H PARENT
ROOT
ATOM      1  C   UNL     1      45.175 130.992  18.521  1.00  0.00    -0.018 A 
ATOM      2  C   UNL     1      46.353 130.985  19.305  1.00  0.00     0.009 A 
ATOM      3  C   UNL     1      46.280 131.057  20.704  1.00  0.00     0.004 A 
ATOM      4  C   UNL     1      45.026 131.136  21.309  1.00  0.00    -0.044 A 
ATOM      5  C   UNL     1      43.877 131.155  20.562  1.00  0.00    -0.035 A 
ATOM      6  C   UNL     1      43.923 131.075  19.167  1.00  0.00     0.013 A 
ATOM      7  C   UNL     1      42.662 131.260  21.413  1.00  0.00     0.104 C 
ATOM      8  C   UNL     1      43.215 131.112  22.848  1.00  0.00     0.019 C 
ATOM      9  C   UNL     1      44.749 131.212  22.761  1.00  0.00     0.036 C 
ENDROOT
BRANCH   1  10
ATOM     10  C   UNL     1      45.254 130.913  17.040  1.00  0.00    -0.018 A 
ATOM     11  C   UNL     1      46.389 130.138  15.012  1.00  0.00    -0.026 A 
ATOM     12  C   UNL     1      45.407 130.774  14.238  1.00  0.00     0.008 A 
ATOM     13  C   UNL     1      46.311 130.222  16.417  1.00  0.00     0.016 A 
ATOM     14  C   UNL     1      44.356 131.461  14.849  1.00  0.00     0.001 A 
ATOM     15  C   UNL     1      44.276 131.527  16.241  1.00  0.00     0.009 A 
BRANCH  11  16
ATOM     16  C   UNL     1      47.490 129.429  14.313  1.00  0.00     0.000 C 
ATOM     17  C   UNL     1      48.201 129.953  13.314  1.00  0.00     0.009 C 
ENDBRANCH  11  16
ENDBRANCH   1  10
BRANCH   7  18
ATOM     18  N   UNL     1      42.030 132.566  21.250  1.00  0.00    -0.086 NA
BRANCH  18  19
ATOM     19  N   UNL     1      41.719 132.989  20.137  1.00  0.00     0.002 N 
ATOM     20  N   UNL     1      41.408 133.412  19.023  1.00  0.00    -0.003 NA
ENDBRANCH  18  19
ENDBRANCH   7  18
TORSDOF 4
ENDMDL


