REMARK SMILES CC(=O)c1ccc(-c2nccc(C)c2F)c2c[nH]nc12
REMARK SMILES IDX 4 1 5 2 6 3 7 4 16 5 17 6 18 7 19 8 20 9 2 11 1 12 3 13 8 14
REMARK SMILES IDX 9 15 14 16 10 17 12 18 11 19 15 20 13 21
REMARK H PARENT 18 10
ROOT
ATOM      1  C   UNL     1      -1.236   2.201  -1.824  1.00  0.00     0.045 A 
ATOM      2  C   UNL     1      -1.632   0.978  -1.229  1.00  0.00     0.015 A 
ATOM      3  C   UNL     1      -0.837   0.356  -0.243  1.00  0.00     0.012 A 
ATOM      4  C   UNL     1       0.380   0.932   0.180  1.00  0.00     0.014 A 
ATOM      5  C   UNL     1       0.743   2.146  -0.415  1.00  0.00     0.030 A 
ATOM      6  C   UNL     1       1.845   2.960  -0.262  1.00  0.00     0.114 A 
ATOM      7  N   UNL     1       1.701   4.003  -1.107  1.00  0.00    -0.284 N 
ATOM      8  N   UNL     1       0.569   3.889  -1.790  1.00  0.00    -0.175 NA
ATOM      9  C   UNL     1      -0.025   2.753  -1.376  1.00  0.00     0.103 A 
ATOM     10  H   UNL     1       2.376   4.790  -1.223  1.00  0.00     0.189 HD
ENDROOT
BRANCH   1  11
ATOM     11  C   UNL     1      -2.063   2.867  -2.868  1.00  0.00     0.162 C 
ATOM     12  C   UNL     1      -3.348   2.267  -3.356  1.00  0.00     0.093 C 
ATOM     13  O   UNL     1      -1.690   3.965  -3.363  1.00  0.00    -0.294 OA
ENDBRANCH   1  11
BRANCH   4  14
ATOM     14  C   UNL     1       1.207   0.301   1.233  1.00  0.00     0.107 A 
ATOM     15  N   UNL     1       1.733   1.078   2.220  1.00  0.00    -0.253 NA
ATOM     16  C   UNL     1       1.463  -1.084   1.236  1.00  0.00     0.152 A 
ATOM     17  C   UNL     1       2.497   0.563   3.217  1.00  0.00     0.112 A 
ATOM     18  C   UNL     1       2.239  -1.642   2.266  1.00  0.00    -0.012 A 
ATOM     19  C   UNL     1       2.766  -0.805   3.258  1.00  0.00     0.026 A 
ATOM     20  F   UNL     1       1.002  -1.875   0.232  1.00  0.00    -0.204 F 
ATOM     21  C   UNL     1       2.550  -3.110   2.269  1.00  0.00     0.047 C 
ENDBRANCH   4  14
TORSDOF 2


