REMARK SMILES O/C(=N\c1cc2cc(-c3[nH+]c[nH+]cc3F)[nH]c2cc1F)c1cc(F)c[nH]1
REMARK SMILES IDX 3 1 2 2 1 3 21 5 22 6 26 7 23 8 25 9 24 11 4 12 19 13 5 14
REMARK SMILES IDX 18 15 6 16 17 17 7 18 16 19 8 20 20 21 9 23 14 24 10 25
REMARK SMILES IDX 13 26 11 27 12 28 15 29
REMARK H PARENT 1 4 26 10 16 22 10 30 12 31
ROOT
ATOM      1  N   UNL     1      -3.206  -0.249  -1.737  1.00  0.00    -0.209 NA
ENDROOT
BRANCH   1   2
ATOM      2  C   UNL     1      -4.180  -0.460  -0.899  1.00  0.00     0.235 C 
BRANCH   2   3
ATOM      3  O   UNL     1      -4.055  -0.189   0.467  1.00  0.00    -0.492 OA
ATOM      4  H   UNL     1      -3.267   0.307   0.863  1.00  0.00     0.295 HD
ENDBRANCH   2   3
BRANCH   2   5
ATOM      5  C   UNL     1      -5.468  -0.961  -1.405  1.00  0.00     0.104 A 
ATOM      6  C   UNL     1      -6.587  -1.211  -0.632  1.00  0.00     0.072 A 
ATOM      7  N   UNL     1      -5.718  -1.242  -2.701  1.00  0.00    -0.355 N 
ATOM      8  C   UNL     1      -7.548  -1.663  -1.510  1.00  0.00     0.141 A 
ATOM      9  C   UNL     1      -6.991  -1.673  -2.770  1.00  0.00     0.122 A 
ATOM     10  H   UNL     1      -5.057  -1.148  -3.504  1.00  0.00     0.166 HD
ATOM     11  F   UNL     1      -8.813  -2.031  -1.192  1.00  0.00    -0.205 F 
ENDBRANCH   2   5
ENDBRANCH   1   2
BRANCH   1  12
ATOM     12  C   UNL     1      -1.863   0.136  -1.409  1.00  0.00     0.104 A 
ATOM     13  C   UNL     1      -1.225   1.134  -2.185  1.00  0.00     0.151 A 
ATOM     14  C   UNL     1      -1.137  -0.541  -0.401  1.00  0.00     0.042 A 
ATOM     15  C   UNL     1       0.109   1.499  -1.926  1.00  0.00     0.068 A 
ATOM     16  C   UNL     1       0.181  -0.156  -0.174  1.00  0.00     0.003 A 
ATOM     17  C   UNL     1       0.782   0.833  -0.905  1.00  0.00     0.049 A 
ATOM     18  C   UNL     1       1.107  -0.623   0.732  1.00  0.00     0.043 A 
ATOM     19  N   UNL     1       2.050   1.022  -0.504  1.00  0.00    -0.349 N 
ATOM     20  C   UNL     1       2.259   0.131   0.497  1.00  0.00     0.116 A 
ATOM     21  F   UNL     1      -1.904   1.756  -3.181  1.00  0.00    -0.205 F 
ATOM     22  H   UNL     1       2.733   1.703  -0.904  1.00  0.00     0.167 HD
BRANCH  20  23
ATOM     23  C   UNL     1       3.538   0.019   1.238  1.00  0.00     0.274 A 
ATOM     24  C   UNL     1       3.963  -1.207   1.778  1.00  0.00     0.260 A 
ATOM     25  N   UNL     1       4.328   1.121   1.397  1.00  0.00    -0.151 N 
ATOM     26  C   UNL     1       5.175  -1.253   2.465  1.00  0.00     0.358 A 
ATOM     27  C   UNL     1       5.506   1.051   2.073  1.00  0.00     0.629 A 
ATOM     28  N   UNL     1       5.923  -0.128   2.603  1.00  0.00    -0.159 N 
ATOM     29  F   UNL     1       3.250  -2.349   1.611  1.00  0.00    -0.193 F 
ATOM     30  H   UNL     1       4.030   2.047   1.018  1.00  0.00     0.460 HD
ATOM     31  H   UNL     1       6.830  -0.170   3.119  1.00  0.00     0.459 HD
ENDBRANCH  20  23
ENDBRANCH   1  12
TORSDOF 5


