MODEL 1
REMARK VINA RESULT:      -1.5      0.000      0.000
REMARK SMILES Cc1ccc(-c2ccc(O)cc2)c2cn(C(=O)Nc3ccc(N(C)C)cc3)nc12
REMARK SMILES IDX 1 1 2 2 3 3 4 4 5 5 13 6 14 7 15 8 28 9 29 10 6 11 7 12
REMARK SMILES IDX 12 13 8 14 11 15 9 16 10 17 16 19 18 20 17 21 19 23 20 24
REMARK SMILES IDX 27 25 21 26 26 27 22 28 23 29 24 30 25 31
REMARK H PARENT 10 18 18 22
ROOT
ATOM      1  C   UNL     1      40.818 133.935  21.678  1.00  0.00     0.047 C 
ATOM      2  C   UNL     1      41.530 132.679  22.083  1.00  0.00    -0.023 A 
ATOM      3  C   UNL     1      41.255 132.044  23.312  1.00  0.00     0.006 A 
ATOM      4  C   UNL     1      41.917 130.850  23.672  1.00  0.00     0.010 A 
ATOM      5  C   UNL     1      42.857 130.251  22.801  1.00  0.00    -0.007 A 
ATOM      6  C   UNL     1      43.100 130.904  21.584  1.00  0.00     0.029 A 
ATOM      7  C   UNL     1      43.956 130.638  20.538  1.00  0.00     0.129 A 
ATOM      8  N   UNL     1      43.793 131.622  19.621  1.00  0.00    -0.188 N 
ATOM      9  N   UNL     1      42.885 132.497  20.037  1.00  0.00    -0.164 NA
ATOM     10  C   UNL     1      42.461 132.068  21.239  1.00  0.00     0.096 A 
ENDROOT
BRANCH   5  11
ATOM     11  C   UNL     1      43.540 128.991  23.175  1.00  0.00    -0.017 A 
ATOM     12  C   UNL     1      44.897 128.793  22.863  1.00  0.00     0.012 A 
ATOM     13  C   UNL     1      42.830 127.965  23.821  1.00  0.00     0.012 A 
ATOM     14  C   UNL     1      45.535 127.598  23.210  1.00  0.00     0.047 A 
ATOM     15  C   UNL     1      43.471 126.772  24.167  1.00  0.00     0.047 A 
ATOM     16  C   UNL     1      44.825 126.586  23.863  1.00  0.00     0.115 A 
BRANCH  16  17
ATOM     17  O   UNL     1      45.474 125.401  24.203  1.00  0.00    -0.508 OA
ATOM     18  H   UNL     1      46.451 125.249  23.980  1.00  0.00     0.293 HD
ENDBRANCH  16  17
ENDBRANCH   5  11
BRANCH   8  19
ATOM     19  C   UNL     1      44.489 131.726  18.371  1.00  0.00     0.346 C 
ATOM     20  N   UNL     1      44.518 130.610  17.467  1.00  0.00    -0.306 N 
ATOM     21  O   UNL     1      45.044 132.814  18.055  1.00  0.00    -0.246 OA
ATOM     22  H   UNL     1      43.808 129.855  17.599  1.00  0.00     0.171 HD
BRANCH  20  23
ATOM     23  C   UNL     1      45.382 130.526  16.320  1.00  0.00     0.043 A 
ATOM     24  C   UNL     1      45.622 131.639  15.498  1.00  0.00     0.028 A 
ATOM     25  C   UNL     1      46.050 129.325  16.049  1.00  0.00     0.028 A 
ATOM     26  C   UNL     1      46.485 131.539  14.405  1.00  0.00     0.028 A 
ATOM     27  C   UNL     1      46.913 129.223  14.954  1.00  0.00     0.028 A 
ATOM     28  C   UNL     1      47.143 130.328  14.109  1.00  0.00     0.036 A 
BRANCH  28  29
ATOM     29  N   UNL     1      48.039 130.223  12.971  1.00  0.00    -0.378 N 
ATOM     30  C   UNL     1      47.881 131.112  11.813  1.00  0.00     0.143 C 
ATOM     31  C   UNL     1      49.118 129.229  12.959  1.00  0.00     0.143 C 
ENDBRANCH  28  29
ENDBRANCH  20  23
ENDBRANCH   8  19
TORSDOF 5
ENDMDL
MODEL 2
REMARK VINA RESULT:      -0.2      1.028      1.678
REMARK SMILES Cc1ccc(-c2ccc(O)cc2)c2cn(C(=O)Nc3ccc(N(C)C)cc3)nc12
REMARK SMILES IDX 1 1 2 2 3 3 4 4 5 5 13 6 14 7 15 8 28 9 29 10 6 11 7 12
REMARK SMILES IDX 12 13 8 14 11 15 9 16 10 17 16 19 18 20 17 21 19 23 20 24
REMARK SMILES IDX 27 25 21 26 26 27 22 28 23 29 24 30 25 31
REMARK H PARENT 10 18 18 22
ROOT
ATOM      1  C   UNL     1      41.774 133.189  22.185  1.00  0.00     0.047 C 
ATOM      2  C   UNL     1      42.363 131.865  22.570  1.00  0.00    -0.023 A 
ATOM      3  C   UNL     1      41.950 131.190  23.738  1.00  0.00     0.006 A 
ATOM      4  C   UNL     1      42.498 129.933  24.076  1.00  0.00     0.010 A 
ATOM      5  C   UNL     1      43.457 129.311  23.243  1.00  0.00    -0.007 A 
ATOM      6  C   UNL     1      43.838 130.006  22.087  1.00  0.00     0.029 A 
ATOM      7  C   UNL     1      44.752 129.731  21.092  1.00  0.00     0.129 A 
ATOM      8  N   UNL     1      44.729 130.769  20.223  1.00  0.00    -0.188 N 
ATOM      9  N   UNL     1      43.856 131.688  20.621  1.00  0.00    -0.164 NA
ATOM     10  C   UNL     1      43.311 131.230  21.763  1.00  0.00     0.096 A 
ENDROOT
BRANCH   5  11
ATOM     11  C   UNL     1      44.019 127.986  23.594  1.00  0.00    -0.017 A 
ATOM     12  C   UNL     1      43.171 126.893  23.847  1.00  0.00     0.012 A 
ATOM     13  C   UNL     1      45.409 127.814  23.705  1.00  0.00     0.012 A 
ATOM     14  C   UNL     1      43.707 125.647  24.186  1.00  0.00     0.047 A 
ATOM     15  C   UNL     1      45.942 126.567  24.045  1.00  0.00     0.047 A 
ATOM     16  C   UNL     1      45.092 125.480  24.285  1.00  0.00     0.115 A 
BRANCH  16  17
ATOM     17  O   UNL     1      45.611 124.232  24.624  1.00  0.00    -0.508 OA
ATOM     18  H   UNL     1      46.169 123.695  23.970  1.00  0.00     0.293 HD
ENDBRANCH  16  17
ENDBRANCH   5  11
BRANCH   8  19
ATOM     19  C   UNL     1      45.525 130.886  19.036  1.00  0.00     0.346 C 
ATOM     20  N   UNL     1      44.926 130.686  17.745  1.00  0.00    -0.306 N 
ATOM     21  O   UNL     1      46.743 131.200  19.129  1.00  0.00    -0.246 OA
ATOM     22  H   UNL     1      43.885 130.742  17.674  1.00  0.00     0.171 HD
BRANCH  20  23
ATOM     23  C   UNL     1      45.674 130.536  16.526  1.00  0.00     0.043 A 
ATOM     24  C   UNL     1      45.683 129.327  15.812  1.00  0.00     0.028 A 
ATOM     25  C   UNL     1      46.362 131.638  16.002  1.00  0.00     0.028 A 
ATOM     26  C   UNL     1      46.397 129.214  14.617  1.00  0.00     0.028 A 
ATOM     27  C   UNL     1      47.079 131.528  14.807  1.00  0.00     0.028 A 
ATOM     28  C   UNL     1      47.113 130.311  14.095  1.00  0.00     0.036 A 
BRANCH  28  29
ATOM     29  N   UNL     1      47.858 130.194  12.854  1.00  0.00    -0.378 N 
ATOM     30  C   UNL     1      48.124 131.379  12.029  1.00  0.00     0.143 C 
ATOM     31  C   UNL     1      48.358 128.890  12.403  1.00  0.00     0.143 C 
ENDBRANCH  28  29
ENDBRANCH  20  23
ENDBRANCH   8  19
TORSDOF 5
ENDMDL
MODEL 3
REMARK VINA RESULT:       0.4      0.715      1.141
REMARK SMILES Cc1ccc(-c2ccc(O)cc2)c2cn(C(=O)Nc3ccc(N(C)C)cc3)nc12
REMARK SMILES IDX 1 1 2 2 3 3 4 4 5 5 13 6 14 7 15 8 28 9 29 10 6 11 7 12
REMARK SMILES IDX 12 13 8 14 11 15 9 16 10 17 16 19 18 20 17 21 19 23 20 24
REMARK SMILES IDX 27 25 21 26 26 27 22 28 23 29 24 30 25 31
REMARK H PARENT 10 18 18 22
ROOT
ATOM      1  C   UNL     1      40.778 134.218  21.057  1.00  0.00     0.047 C 
ATOM      2  C   UNL     1      41.490 133.015  21.600  1.00  0.00    -0.023 A 
ATOM      3  C   UNL     1      41.339 132.620  22.946  1.00  0.00     0.006 A 
ATOM      4  C   UNL     1      41.998 131.473  23.439  1.00  0.00     0.010 A 
ATOM      5  C   UNL     1      42.810 130.682  22.592  1.00  0.00    -0.007 A 
ATOM      6  C   UNL     1      42.931 131.100  21.259  1.00  0.00     0.029 A 
ATOM      7  C   UNL     1      43.651 130.610  20.191  1.00  0.00     0.129 A 
ATOM      8  N   UNL     1      43.415 131.427  19.136  1.00  0.00    -0.188 N 
ATOM      9  N   UNL     1      42.591 132.408  19.485  1.00  0.00    -0.164 NA
ATOM     10  C   UNL     1      42.295 132.218  20.783  1.00  0.00     0.096 A 
ENDROOT
BRANCH   5  11
ATOM     11  C   UNL     1      43.490 129.471  23.109  1.00  0.00    -0.017 A 
ATOM     12  C   UNL     1      44.714 129.050  22.561  1.00  0.00     0.012 A 
ATOM     13  C   UNL     1      42.902 128.713  24.136  1.00  0.00     0.012 A 
ATOM     14  C   UNL     1      45.347 127.901  23.046  1.00  0.00     0.047 A 
ATOM     15  C   UNL     1      43.538 127.566  24.619  1.00  0.00     0.047 A 
ATOM     16  C   UNL     1      44.763 127.157  24.075  1.00  0.00     0.115 A 
BRANCH  16  17
ATOM     17  O   UNL     1      45.405 126.016  24.549  1.00  0.00    -0.508 OA
ATOM     18  H   UNL     1      45.684 125.928  25.520  1.00  0.00     0.293 HD
ENDBRANCH  16  17
ENDBRANCH   5  11
BRANCH   8  19
ATOM     19  C   UNL     1      43.964 131.275  17.820  1.00  0.00     0.346 C 
ATOM     20  N   UNL     1      45.133 130.465  17.616  1.00  0.00    -0.306 N 
ATOM     21  O   UNL     1      43.394 131.826  16.838  1.00  0.00    -0.246 OA
ATOM     22  H   UNL     1      45.392 129.782  18.363  1.00  0.00     0.171 HD
BRANCH  20  23
ATOM     23  C   UNL     1      45.897 130.448  16.397  1.00  0.00     0.043 A 
ATOM     24  C   UNL     1      46.366 129.248  15.840  1.00  0.00     0.028 A 
ATOM     25  C   UNL     1      46.128 131.649  15.714  1.00  0.00     0.028 A 
ATOM     26  C   UNL     1      47.084 129.255  14.642  1.00  0.00     0.028 A 
ATOM     27  C   UNL     1      46.848 131.660  14.516  1.00  0.00     0.028 A 
ATOM     28  C   UNL     1      47.343 130.462  13.960  1.00  0.00     0.036 A 
BRANCH  28  29
ATOM     29  N   UNL     1      48.091 130.471  12.716  1.00  0.00    -0.378 N 
ATOM     30  C   UNL     1      48.081 131.656  11.848  1.00  0.00     0.143 C 
ATOM     31  C   UNL     1      48.872 129.299  12.305  1.00  0.00     0.143 C 
ENDBRANCH  28  29
ENDBRANCH  20  23
ENDBRANCH   8  19
TORSDOF 5
ENDMDL
MODEL 4
REMARK VINA RESULT:       1.4      2.082      2.653
REMARK SMILES Cc1ccc(-c2ccc(O)cc2)c2cn(C(=O)Nc3ccc(N(C)C)cc3)nc12
REMARK SMILES IDX 1 1 2 2 3 3 4 4 5 5 13 6 14 7 15 8 28 9 29 10 6 11 7 12
REMARK SMILES IDX 12 13 8 14 11 15 9 16 10 17 16 19 18 20 17 21 19 23 20 24
REMARK SMILES IDX 27 25 21 26 26 27 22 28 23 29 24 30 25 31
REMARK H PARENT 10 18 18 22
ROOT
ATOM      1  C   UNL     1      46.552 134.162  23.127  1.00  0.00     0.047 C 
ATOM      2  C   UNL     1      45.649 132.973  23.260  1.00  0.00    -0.023 A 
ATOM      3  C   UNL     1      45.146 132.570  24.515  1.00  0.00     0.006 A 
ATOM      4  C   UNL     1      44.279 131.461  24.623  1.00  0.00     0.010 A 
ATOM      5  C   UNL     1      43.877 130.739  23.475  1.00  0.00    -0.007 A 
ATOM      6  C   UNL     1      44.389 131.172  22.243  1.00  0.00     0.029 A 
ATOM      7  C   UNL     1      44.249 130.698  20.956  1.00  0.00     0.129 A 
ATOM      8  N   UNL     1      44.990 131.493  20.149  1.00  0.00    -0.188 N 
ATOM      9  N   UNL     1      45.595 132.439  20.858  1.00  0.00    -0.164 NA
ATOM     10  C   UNL     1      45.236 132.245  22.140  1.00  0.00     0.096 A 
ENDROOT
BRANCH   5  11
ATOM     11  C   UNL     1      42.956 129.585  23.589  1.00  0.00    -0.017 A 
ATOM     12  C   UNL     1      41.625 129.769  24.003  1.00  0.00     0.012 A 
ATOM     13  C   UNL     1      43.413 128.285  23.312  1.00  0.00     0.012 A 
ATOM     14  C   UNL     1      40.763 128.675  24.118  1.00  0.00     0.047 A 
ATOM     15  C   UNL     1      42.548 127.193  23.428  1.00  0.00     0.047 A 
ATOM     16  C   UNL     1      41.220 127.385  23.830  1.00  0.00     0.115 A 
BRANCH  16  17
ATOM     17  O   UNL     1      40.350 126.304  23.949  1.00  0.00    -0.508 OA
ATOM     18  H   UNL     1      39.376 126.375  23.676  1.00  0.00     0.293 HD
ENDBRANCH  16  17
ENDBRANCH   5  11
BRANCH   8  19
ATOM     19  C   UNL     1      45.120 131.355  18.727  1.00  0.00     0.346 C 
ATOM     20  N   UNL     1      46.138 130.505  18.176  1.00  0.00    -0.306 N 
ATOM     21  O   UNL     1      44.313 131.956  17.965  1.00  0.00    -0.246 OA
ATOM     22  H   UNL     1      46.573 129.792  18.804  1.00  0.00     0.171 HD
BRANCH  20  23
ATOM     23  C   UNL     1      46.508 130.490  16.786  1.00  0.00     0.043 A 
ATOM     24  C   UNL     1      46.352 131.624  15.972  1.00  0.00     0.028 A 
ATOM     25  C   UNL     1      47.096 129.341  16.243  1.00  0.00     0.028 A 
ATOM     26  C   UNL     1      46.742 131.593  14.632  1.00  0.00     0.028 A 
ATOM     27  C   UNL     1      47.487 129.307  14.901  1.00  0.00     0.028 A 
ATOM     28  C   UNL     1      47.312 130.433  14.069  1.00  0.00     0.036 A 
BRANCH  28  29
ATOM     29  N   UNL     1      47.717 130.399  12.675  1.00  0.00    -0.378 N 
ATOM     30  C   UNL     1      48.595 129.332  12.179  1.00  0.00     0.143 C 
ATOM     31  C   UNL     1      47.254 131.429  11.738  1.00  0.00     0.143 C 
ENDBRANCH  28  29
ENDBRANCH  20  23
ENDBRANCH   8  19
TORSDOF 5
ENDMDL


