REMARK SMILES CC(=O)c1ccc(-c2nccc(C)c2F)c([NH2+]N)c1
REMARK SMILES IDX 4 1 5 2 6 3 7 4 16 5 19 6 2 7 1 8 3 9 17 10 18 13 8 16 9 17
REMARK SMILES IDX 14 18 10 19 12 20 11 21 15 22 13 23
REMARK H PARENT 17 11 17 12 18 14 18 15
ROOT
ATOM      1  C   UNL     1      -1.692  -1.276   1.538  1.00  0.00     0.023 A 
ATOM      2  C   UNL     1      -0.369  -0.876   1.792  1.00  0.00     0.013 A 
ATOM      3  C   UNL     1       0.165   0.251   1.167  1.00  0.00     0.017 A 
ATOM      4  C   UNL     1      -0.607   1.014   0.277  1.00  0.00     0.066 A 
ATOM      5  C   UNL     1      -1.950   0.637   0.024  1.00  0.00     0.158 A 
ATOM      6  C   UNL     1      -2.469  -0.513   0.649  1.00  0.00     0.082 A 
ENDROOT
BRANCH   1   7
ATOM      7  C   UNL     1      -2.273  -2.482   2.188  1.00  0.00     0.160 C 
ATOM      8  C   UNL     1      -1.483  -3.326   3.144  1.00  0.00     0.093 C 
ATOM      9  O   UNL     1      -3.463  -2.817   1.938  1.00  0.00    -0.295 OA
ENDBRANCH   1   7
BRANCH   5  10
ATOM     10  N   UNL     1      -2.795   1.392  -0.871  1.00  0.00    -0.239 N 
ATOM     11  H   UNL     1      -2.550   2.409  -0.846  1.00  0.00     0.376 HD
ATOM     12  H   UNL     1      -3.804   1.300  -0.598  1.00  0.00     0.376 HD
BRANCH  10  13
ATOM     13  N   UNL     1      -2.620   0.901  -2.180  1.00  0.00    -0.178 NA
ATOM     14  H   UNL     1      -3.126   1.542  -2.835  1.00  0.00     0.183 HD
ATOM     15  H   UNL     1      -3.095  -0.029  -2.254  1.00  0.00     0.183 HD
ENDBRANCH  10  13
ENDBRANCH   5  10
BRANCH   4  16
ATOM     16  C   UNL     1       0.018   2.180  -0.389  1.00  0.00     0.112 A 
ATOM     17  N   UNL     1      -0.001   2.264  -1.748  1.00  0.00    -0.253 NA
ATOM     18  C   UNL     1       0.642   3.195   0.358  1.00  0.00     0.152 A 
ATOM     19  C   UNL     1       0.561   3.305  -2.414  1.00  0.00     0.112 A 
ATOM     20  C   UNL     1       1.242   4.275  -0.309  1.00  0.00    -0.012 A 
ATOM     21  C   UNL     1       1.189   4.331  -1.708  1.00  0.00     0.026 A 
ATOM     22  F   UNL     1       0.643   3.148   1.716  1.00  0.00    -0.204 F 
ATOM     23  C   UNL     1       1.885   5.385   0.472  1.00  0.00     0.047 C 
ENDBRANCH   4  16
TORSDOF 4


