REMARK SMILES [O-]c1nccc2ccc(-c3cccc([C@H]4CO4)c3)cc12
REMARK SMILES IDX 1 1 2 2 3 3 4 4 5 5 6 6 7 7 8 8 9 9 19 10 20 11 10 12 11 13
REMARK SMILES IDX 18 14 12 15 14 16 13 17 15 18 16 19 17 20
REMARK H PARENT
ROOT
ATOM      1  O   UNL     1       2.565  -3.663  -0.498  1.00  0.00    -0.858 OA
ATOM      2  C   UNL     1       2.628  -3.008  -1.723  1.00  0.00    -0.005 A 
ATOM      3  N   UNL     1       3.308  -3.586  -2.749  1.00  0.00    -0.272 NA
ATOM      4  C   UNL     1       3.407  -2.998  -3.970  1.00  0.00     0.111 A 
ATOM      5  C   UNL     1       2.803  -1.763  -4.206  1.00  0.00     0.029 A 
ATOM      6  C   UNL     1       2.093  -1.136  -3.174  1.00  0.00    -0.016 A 
ATOM      7  C   UNL     1       1.475   0.104  -3.383  1.00  0.00     0.009 A 
ATOM      8  C   UNL     1       0.770   0.723  -2.349  1.00  0.00     0.009 A 
ATOM      9  C   UNL     1       0.670   0.114  -1.085  1.00  0.00    -0.018 A 
ATOM     10  C   UNL     1       1.289  -1.132  -0.874  1.00  0.00     0.018 A 
ATOM     11  C   UNL     1       2.001  -1.761  -1.910  1.00  0.00    -0.007 A 
ENDROOT
BRANCH   9  12
ATOM     12  C   UNL     1      -0.080   0.778   0.012  1.00  0.00    -0.018 A 
ATOM     13  C   UNL     1      -1.304   1.420  -0.246  1.00  0.00     0.009 A 
ATOM     14  C   UNL     1       0.425   0.776   1.325  1.00  0.00     0.015 A 
ATOM     15  C   UNL     1      -2.005   2.049   0.786  1.00  0.00     0.001 A 
ATOM     16  C   UNL     1      -0.287   1.393   2.365  1.00  0.00    -0.016 A 
ATOM     17  C   UNL     1      -1.497   2.042   2.086  1.00  0.00     0.006 A 
BRANCH  16  18
ATOM     18  C   UNL     1       0.275   1.420   3.756  1.00  0.00     0.174 C 
ATOM     19  C   UNL     1      -0.508   0.703   4.789  1.00  0.00     0.198 C 
ATOM     20  O   UNL     1       0.635   0.131   4.199  1.00  0.00    -0.368 OA
ENDBRANCH  16  18
ENDBRANCH   9  12
TORSDOF 2


