MODEL 1
REMARK VINA RESULT:      -6.9      0.000      0.000
REMARK SMILES C[C@@](O)(CCl)C(=O)Nc1cc(F)c[n-]/c1=N\c1c[nH]c2[nH+]ccc-2c1
REMARK SMILES IDX 9 1 10 2 11 3 12 4 13 5 14 6 15 7 8 8 6 9 7 10 2 12 1 13
REMARK SMILES IDX 3 14 4 16 5 17 16 18 17 19 25 20 18 21 24 22 19 23 23 24
REMARK SMILES IDX 20 25 22 26 21 27
REMARK H PARENT 8 11 3 15 19 28 21 29
ROOT
ATOM      1  C   UNL     1      44.659 129.602  21.808  1.00  0.00     0.043 A 
ATOM      2  C   UNL     1      43.789 129.940  22.858  1.00  0.00     0.064 A 
ATOM      3  C   UNL     1      43.129 131.169  22.855  1.00  0.00     0.121 A 
ATOM      4  F   UNL     1      42.290 131.499  23.868  1.00  0.00    -0.207 F 
ATOM      5  C   UNL     1      43.352 132.061  21.808  1.00  0.00     0.018 A 
ATOM      6  N   UNL     1      44.207 131.732  20.806  1.00  0.00    -0.438 NA
ATOM      7  C   UNL     1      44.861 130.535  20.769  1.00  0.00    -0.034 A 
ENDROOT
BRANCH   1   8
ATOM      8  N   UNL     1      45.373 128.352  21.816  1.00  0.00    -0.324 N 
ATOM      9  C   UNL     1      44.971 127.213  22.598  1.00  0.00     0.257 C 
ATOM     10  O   UNL     1      43.813 127.172  23.097  1.00  0.00    -0.271 OA
ATOM     11  H   UNL     1      46.197 128.254  21.182  1.00  0.00     0.170 HD
BRANCH   9  12
ATOM     12  C   UNL     1      45.914 126.035  22.793  1.00  0.00     0.154 C 
ATOM     13  C   UNL     1      46.468 126.040  24.233  1.00  0.00     0.054 C 
BRANCH  12  14
ATOM     14  O   UNL     1      46.986 126.109  21.880  1.00  0.00    -0.379 OA
ATOM     15  H   UNL     1      47.518 126.921  22.090  1.00  0.00     0.212 HD
ENDBRANCH  12  14
BRANCH  12  16
ATOM     16  C   UNL     1      45.168 124.709  22.538  1.00  0.00     0.154 C 
ATOM     17  Cl  UNL     1      45.033 123.726  24.025  1.00  0.00    -0.123 Cl
ENDBRANCH  12  16
ENDBRANCH   9  12
ENDBRANCH   1   8
BRANCH   7  18
ATOM     18  N   UNL     1      45.690 130.255  19.804  1.00  0.00    -0.431 NA
BRANCH  18  19
ATOM     19  C   UNL     1      45.536 130.573  18.410  1.00  0.00    -0.001 A 
ATOM     20  C   UNL     1      46.356 129.983  17.416  1.00  0.00     0.024 A 
ATOM     21  C   UNL     1      44.593 131.574  18.047  1.00  0.00     0.201 A 
ATOM     22  C   UNL     1      46.155 130.384  16.105  1.00  0.00     0.068 A 
ATOM     23  N   UNL     1      44.419 131.954  16.744  1.00  0.00    -0.247 N 
ATOM     24  C   UNL     1      46.760 130.050  14.915  1.00  0.00     0.060 A 
ATOM     25  C   UNL     1      45.175 131.367  15.790  1.00  0.00     0.284 A 
ATOM     26  C   UNL     1      46.129 130.830  13.940  1.00  0.00     0.198 A 
ATOM     27  N   UNL     1      45.172 131.629  14.475  1.00  0.00    -0.247 N 
ATOM     28  H   UNL     1      43.719 132.688  16.494  1.00  0.00     0.312 HD
ATOM     29  H   UNL     1      44.567 132.313  13.968  1.00  0.00     0.311 HD
ENDBRANCH  18  19
ENDBRANCH   7  18
TORSDOF 6
ENDMDL
MODEL 2
REMARK VINA RESULT:      -6.7      1.002      1.126
REMARK SMILES C[C@@](O)(CCl)C(=O)Nc1cc(F)c[n-]/c1=N\c1c[nH]c2[nH+]ccc-2c1
REMARK SMILES IDX 9 1 10 2 11 3 12 4 13 5 14 6 15 7 8 8 6 9 7 10 2 12 1 13
REMARK SMILES IDX 3 14 4 16 5 17 16 18 17 19 25 20 18 21 24 22 19 23 23 24
REMARK SMILES IDX 20 25 22 26 21 27
REMARK H PARENT 8 11 3 15 19 28 21 29
ROOT
ATOM      1  C   UNL     1      44.531 129.330  22.361  1.00  0.00     0.043 A 
ATOM      2  C   UNL     1      43.653 129.538  23.438  1.00  0.00     0.064 A 
ATOM      3  C   UNL     1      42.999 130.761  23.585  1.00  0.00     0.121 A 
ATOM      4  F   UNL     1      42.153 130.965  24.624  1.00  0.00    -0.207 F 
ATOM      5  C   UNL     1      43.236 131.778  22.661  1.00  0.00     0.018 A 
ATOM      6  N   UNL     1      44.099 131.572  21.632  1.00  0.00    -0.438 NA
ATOM      7  C   UNL     1      44.747 130.386  21.450  1.00  0.00    -0.034 A 
ENDROOT
BRANCH   1   8
ATOM      8  N   UNL     1      45.239 128.085  22.217  1.00  0.00    -0.324 N 
ATOM      9  C   UNL     1      44.758 126.833  22.737  1.00  0.00     0.257 C 
ATOM     10  O   UNL     1      43.554 126.727  23.101  1.00  0.00    -0.271 OA
ATOM     11  H   UNL     1      46.124 128.085  21.662  1.00  0.00     0.170 HD
BRANCH   9  12
ATOM     12  C   UNL     1      45.674 125.621  22.812  1.00  0.00     0.154 C 
ATOM     13  C   UNL     1      47.012 125.931  22.110  1.00  0.00     0.054 C 
BRANCH  12  14
ATOM     14  O   UNL     1      45.068 124.509  22.192  1.00  0.00    -0.379 OA
ATOM     15  H   UNL     1      44.392 124.135  22.817  1.00  0.00     0.212 HD
ENDBRANCH  12  14
BRANCH  12  16
ATOM     16  C   UNL     1      45.945 125.249  24.285  1.00  0.00     0.154 C 
ATOM     17  Cl  UNL     1      47.341 124.145  24.446  1.00  0.00    -0.123 Cl
ENDBRANCH  12  16
ENDBRANCH   9  12
ENDBRANCH   1   8
BRANCH   7  18
ATOM     18  N   UNL     1      45.583 130.225  20.464  1.00  0.00    -0.431 NA
BRANCH  18  19
ATOM     19  C   UNL     1      45.384 130.596  19.089  1.00  0.00    -0.001 A 
ATOM     20  C   UNL     1      46.186 130.063  18.049  1.00  0.00     0.024 A 
ATOM     21  C   UNL     1      44.411 131.590  18.794  1.00  0.00     0.201 A 
ATOM     22  C   UNL     1      45.941 130.512  16.762  1.00  0.00     0.068 A 
ATOM     23  N   UNL     1      44.192 132.019  17.513  1.00  0.00    -0.247 N 
ATOM     24  C   UNL     1      46.517 130.239  15.544  1.00  0.00     0.060 A 
ATOM     25  C   UNL     1      44.933 131.487  16.515  1.00  0.00     0.284 A 
ATOM     26  C   UNL     1      45.843 131.044  14.619  1.00  0.00     0.198 A 
ATOM     27  N   UNL     1      44.886 131.801  15.212  1.00  0.00    -0.247 N 
ATOM     28  H   UNL     1      43.471 132.748  17.313  1.00  0.00     0.312 HD
ATOM     29  H   UNL     1      44.254 132.492  14.751  1.00  0.00     0.311 HD
ENDBRANCH  18  19
ENDBRANCH   7  18
TORSDOF 6
ENDMDL
MODEL 3
REMARK VINA RESULT:      -5.9      2.042      2.465
REMARK SMILES C[C@@](O)(CCl)C(=O)Nc1cc(F)c[n-]/c1=N\c1c[nH]c2[nH+]ccc-2c1
REMARK SMILES IDX 9 1 10 2 11 3 12 4 13 5 14 6 15 7 8 8 6 9 7 10 2 12 1 13
REMARK SMILES IDX 3 14 4 16 5 17 16 18 17 19 25 20 18 21 24 22 19 23 23 24
REMARK SMILES IDX 20 25 22 26 21 27
REMARK H PARENT 8 11 3 15 19 28 21 29
ROOT
ATOM      1  C   UNL     1      43.298 131.337  20.858  1.00  0.00     0.043 A 
ATOM      2  C   UNL     1      42.269 132.092  21.446  1.00  0.00     0.064 A 
ATOM      3  C   UNL     1      41.574 133.038  20.692  1.00  0.00     0.121 A 
ATOM      4  F   UNL     1      40.582 133.769  21.257  1.00  0.00    -0.207 F 
ATOM      5  C   UNL     1      41.919 133.234  19.356  1.00  0.00     0.018 A 
ATOM      6  N   UNL     1      42.926 132.511  18.802  1.00  0.00    -0.438 NA
ATOM      7  C   UNL     1      43.620 131.570  19.504  1.00  0.00    -0.034 A 
ENDROOT
BRANCH   1   8
ATOM      8  N   UNL     1      44.047 130.383  21.633  1.00  0.00    -0.324 N 
ATOM      9  C   UNL     1      43.454 129.524  22.623  1.00  0.00     0.257 C 
ATOM     10  O   UNL     1      42.201 129.376  22.656  1.00  0.00    -0.271 OA
ATOM     11  H   UNL     1      45.065 130.276  21.428  1.00  0.00     0.170 HD
BRANCH   9  12
ATOM     12  C   UNL     1      44.326 128.755  23.605  1.00  0.00     0.154 C 
ATOM     13  C   UNL     1      44.968 129.733  24.611  1.00  0.00     0.054 C 
BRANCH  12  14
ATOM     14  O   UNL     1      45.341 128.059  22.918  1.00  0.00    -0.379 OA
ATOM     15  H   UNL     1      45.349 127.120  23.244  1.00  0.00     0.212 HD
ENDBRANCH  12  14
BRANCH  12  16
ATOM     16  C   UNL     1      43.478 127.719  24.371  1.00  0.00     0.154 C 
ATOM     17  Cl  UNL     1      43.513 126.117  23.579  1.00  0.00    -0.123 Cl
ENDBRANCH  12  16
ENDBRANCH   9  12
ENDBRANCH   1   8
BRANCH   7  18
ATOM     18  N   UNL     1      44.594 130.905  18.950  1.00  0.00    -0.431 NA
BRANCH  18  19
ATOM     19  C   UNL     1      44.961 130.904  17.560  1.00  0.00    -0.001 A 
ATOM     20  C   UNL     1      46.102 130.205  17.090  1.00  0.00     0.024 A 
ATOM     21  C   UNL     1      44.201 131.702  16.661  1.00  0.00     0.201 A 
ATOM     22  C   UNL     1      46.394 130.298  15.740  1.00  0.00     0.068 A 
ATOM     23  N   UNL     1      44.515 131.779  15.331  1.00  0.00    -0.247 N 
ATOM     24  C   UNL     1      47.402 129.785  14.957  1.00  0.00     0.060 A 
ATOM     25  C   UNL     1      45.582 131.086  14.875  1.00  0.00     0.284 A 
ATOM     26  C   UNL     1      47.162 130.272  13.667  1.00  0.00     0.198 A 
ATOM     27  N   UNL     1      46.060 131.062  13.623  1.00  0.00    -0.247 N 
ATOM     28  H   UNL     1      43.943 132.367  14.684  1.00  0.00     0.312 HD
ATOM     29  H   UNL     1      45.674 131.557  12.789  1.00  0.00     0.311 HD
ENDBRANCH  18  19
ENDBRANCH   7  18
TORSDOF 6
ENDMDL
MODEL 4
REMARK VINA RESULT:      -5.7      1.061      1.517
REMARK SMILES C[C@@](O)(CCl)C(=O)Nc1cc(F)c[n-]/c1=N\c1c[nH]c2[nH+]ccc-2c1
REMARK SMILES IDX 9 1 10 2 11 3 12 4 13 5 14 6 15 7 8 8 6 9 7 10 2 12 1 13
REMARK SMILES IDX 3 14 4 16 5 17 16 18 17 19 25 20 18 21 24 22 19 23 23 24
REMARK SMILES IDX 20 25 22 26 21 27
REMARK H PARENT 8 11 3 15 19 28 21 29
ROOT
ATOM      1  C   UNL     1      44.427 129.665  22.320  1.00  0.00     0.043 A 
ATOM      2  C   UNL     1      43.411 129.868  23.268  1.00  0.00     0.064 A 
ATOM      3  C   UNL     1      42.648 131.036  23.240  1.00  0.00     0.121 A 
ATOM      4  F   UNL     1      41.668 131.236  24.154  1.00  0.00    -0.207 F 
ATOM      5  C   UNL     1      42.915 132.003  22.272  1.00  0.00     0.018 A 
ATOM      6  N   UNL     1      43.911 131.804  21.371  1.00  0.00    -0.438 NA
ATOM      7  C   UNL     1      44.669 130.670  21.360  1.00  0.00    -0.034 A 
ENDROOT
BRANCH   1   8
ATOM      8  N   UNL     1      45.245 128.481  22.358  1.00  0.00    -0.324 N 
ATOM      9  C   UNL     1      44.775 127.207  22.836  1.00  0.00     0.257 C 
ATOM     10  O   UNL     1      43.537 127.010  22.982  1.00  0.00    -0.271 OA
ATOM     11  H   UNL     1      46.213 128.540  21.972  1.00  0.00     0.170 HD
BRANCH   9  12
ATOM     12  C   UNL     1      45.753 126.079  23.126  1.00  0.00     0.154 C 
ATOM     13  C   UNL     1      46.664 126.466  24.309  1.00  0.00     0.054 C 
BRANCH  12  14
ATOM     14  O   UNL     1      46.548 125.816  21.991  1.00  0.00    -0.379 OA
ATOM     15  H   UNL     1      47.250 125.162  22.249  1.00  0.00     0.212 HD
ENDBRANCH  12  14
BRANCH  12  16
ATOM     16  C   UNL     1      44.987 124.786  23.474  1.00  0.00     0.154 C 
ATOM     17  Cl  UNL     1      45.075 123.585  22.153  1.00  0.00    -0.123 Cl
ENDBRANCH  12  16
ENDBRANCH   9  12
ENDBRANCH   1   8
BRANCH   7  18
ATOM     18  N   UNL     1      45.630 130.516  20.493  1.00  0.00    -0.431 NA
BRANCH  18  19
ATOM     19  C   UNL     1      45.524 130.581  19.061  1.00  0.00    -0.001 A 
ATOM     20  C   UNL     1      44.504 131.330  18.422  1.00  0.00     0.024 A 
ATOM     21  C   UNL     1      46.419 129.797  18.283  1.00  0.00     0.201 A 
ATOM     22  C   UNL     1      44.464 131.298  17.038  1.00  0.00     0.068 A 
ATOM     23  N   UNL     1      46.353 129.779  16.916  1.00  0.00    -0.247 N 
ATOM     24  C   UNL     1      43.628 131.869  16.106  1.00  0.00     0.060 A 
ATOM     25  C   UNL     1      45.403 130.521  16.303  1.00  0.00     0.284 A 
ATOM     26  C   UNL     1      44.090 131.426  14.863  1.00  0.00     0.198 A 
ATOM     27  N   UNL     1      45.164 130.606  14.987  1.00  0.00    -0.247 N 
ATOM     28  H   UNL     1      47.021 129.200  16.359  1.00  0.00     0.312 HD
ATOM     29  H   UNL     1      45.686 130.132  14.217  1.00  0.00     0.311 HD
ENDBRANCH  18  19
ENDBRANCH   7  18
TORSDOF 6
ENDMDL
MODEL 5
REMARK VINA RESULT:      -5.6      4.461      4.960
REMARK SMILES C[C@@](O)(CCl)C(=O)Nc1cc(F)c[n-]/c1=N\c1c[nH]c2[nH+]ccc-2c1
REMARK SMILES IDX 9 1 10 2 11 3 12 4 13 5 14 6 15 7 8 8 6 9 7 10 2 12 1 13
REMARK SMILES IDX 3 14 4 16 5 17 16 18 17 19 25 20 18 21 24 22 19 23 23 24
REMARK SMILES IDX 20 25 22 26 21 27
REMARK H PARENT 8 11 3 15 19 28 21 29
ROOT
ATOM      1  C   UNL     1      44.489 132.355  19.900  1.00  0.00     0.043 A 
ATOM      2  C   UNL     1      43.367 133.013  20.431  1.00  0.00     0.064 A 
ATOM      3  C   UNL     1      42.089 132.719  19.953  1.00  0.00     0.121 A 
ATOM      4  F   UNL     1      41.005 133.353  20.462  1.00  0.00    -0.207 F 
ATOM      5  C   UNL     1      41.940 131.777  18.936  1.00  0.00     0.018 A 
ATOM      6  N   UNL     1      43.033 131.159  18.419  1.00  0.00    -0.438 NA
ATOM      7  C   UNL     1      44.296 131.412  18.868  1.00  0.00    -0.034 A 
ENDROOT
BRANCH   1   8
ATOM      8  N   UNL     1      45.815 132.675  20.358  1.00  0.00    -0.324 N 
ATOM      9  C   UNL     1      46.127 132.993  21.727  1.00  0.00     0.257 C 
ATOM     10  O   UNL     1      45.293 132.733  22.637  1.00  0.00    -0.271 OA
ATOM     11  H   UNL     1      46.599 132.622  19.670  1.00  0.00     0.170 HD
BRANCH   9  12
ATOM     12  C   UNL     1      47.472 133.602  22.094  1.00  0.00     0.154 C 
ATOM     13  C   UNL     1      47.632 134.974  21.407  1.00  0.00     0.054 C 
BRANCH  12  14
ATOM     14  O   UNL     1      48.522 132.752  21.688  1.00  0.00    -0.379 OA
ATOM     15  H   UNL     1      48.262 132.326  20.829  1.00  0.00     0.212 HD
ENDBRANCH  12  14
BRANCH  12  16
ATOM     16  C   UNL     1      47.576 133.781  23.622  1.00  0.00     0.154 C 
ATOM     17  Cl  UNL     1      49.229 134.234  24.128  1.00  0.00    -0.123 Cl
ENDBRANCH  12  16
ENDBRANCH   9  12
ENDBRANCH   1   8
BRANCH   7  18
ATOM     18  N   UNL     1      45.327 130.817  18.339  1.00  0.00    -0.431 NA
BRANCH  18  19
ATOM     19  C   UNL     1      45.799 130.941  16.986  1.00  0.00    -0.001 A 
ATOM     20  C   UNL     1      46.524 129.901  16.351  1.00  0.00     0.024 A 
ATOM     21  C   UNL     1      45.601 132.178  16.314  1.00  0.00     0.201 A 
ATOM     22  C   UNL     1      46.968 130.132  15.060  1.00  0.00     0.068 A 
ATOM     23  N   UNL     1      46.056 132.381  15.039  1.00  0.00    -0.247 N 
ATOM     24  C   UNL     1      47.698 129.382  14.167  1.00  0.00     0.060 A 
ATOM     25  C   UNL     1      46.717 131.378  14.419  1.00  0.00     0.284 A 
ATOM     26  C   UNL     1      47.854 130.190  13.035  1.00  0.00     0.198 A 
ATOM     27  N   UNL     1      47.261 131.400  13.194  1.00  0.00    -0.247 N 
ATOM     28  H   UNL     1      45.899 133.295  14.559  1.00  0.00     0.312 HD
ATOM     29  H   UNL     1      47.243 132.187  12.508  1.00  0.00     0.311 HD
ENDBRANCH  18  19
ENDBRANCH   7  18
TORSDOF 6
ENDMDL
MODEL 6
REMARK VINA RESULT:      -5.5      1.786      2.099
REMARK SMILES C[C@@](O)(CCl)C(=O)Nc1cc(F)c[n-]/c1=N\c1c[nH]c2[nH+]ccc-2c1
REMARK SMILES IDX 9 1 10 2 11 3 12 4 13 5 14 6 15 7 8 8 6 9 7 10 2 12 1 13
REMARK SMILES IDX 3 14 4 16 5 17 16 18 17 19 25 20 18 21 24 22 19 23 23 24
REMARK SMILES IDX 20 25 22 26 21 27
REMARK H PARENT 8 11 3 15 19 28 21 29
ROOT
ATOM      1  C   UNL     1      43.568 130.982  20.995  1.00  0.00     0.043 A 
ATOM      2  C   UNL     1      42.469 131.575  21.639  1.00  0.00     0.064 A 
ATOM      3  C   UNL     1      41.861 132.706  21.092  1.00  0.00     0.121 A 
ATOM      4  F   UNL     1      40.802 133.281  21.712  1.00  0.00    -0.207 F 
ATOM      5  C   UNL     1      42.364 133.247  19.910  1.00  0.00     0.018 A 
ATOM      6  N   UNL     1      43.437 132.675  19.305  1.00  0.00    -0.438 NA
ATOM      7  C   UNL     1      44.049 131.563  19.804  1.00  0.00    -0.034 A 
ENDROOT
BRANCH   1   8
ATOM      8  N   UNL     1      44.226 129.836  21.567  1.00  0.00    -0.324 N 
ATOM      9  C   UNL     1      43.767 129.167  22.756  1.00  0.00     0.257 C 
ATOM     10  O   UNL     1      42.603 129.390  23.190  1.00  0.00    -0.271 OA
ATOM     11  H   UNL     1      45.050 129.441  21.063  1.00  0.00     0.170 HD
BRANCH   9  12
ATOM     12  C   UNL     1      44.654 128.160  23.471  1.00  0.00     0.154 C 
ATOM     13  C   UNL     1      43.782 127.107  24.185  1.00  0.00     0.054 C 
BRANCH  12  14
ATOM     14  O   UNL     1      45.469 128.812  24.419  1.00  0.00    -0.379 OA
ATOM     15  H   UNL     1      46.047 128.130  24.853  1.00  0.00     0.212 HD
ENDBRANCH  12  14
BRANCH  12  16
ATOM     16  C   UNL     1      45.580 127.455  22.459  1.00  0.00     0.154 C 
ATOM     17  Cl  UNL     1      46.145 125.871  23.067  1.00  0.00    -0.123 Cl
ENDBRANCH  12  16
ENDBRANCH   9  12
ENDBRANCH   1   8
BRANCH   7  18
ATOM     18  N   UNL     1      45.089 131.048  19.210  1.00  0.00    -0.431 NA
BRANCH  18  19
ATOM     19  C   UNL     1      45.335 130.985  17.795  1.00  0.00    -0.001 A 
ATOM     20  C   UNL     1      46.235 130.042  17.236  1.00  0.00     0.024 A 
ATOM     21  C   UNL     1      44.721 131.958  16.959  1.00  0.00     0.201 A 
ATOM     22  C   UNL     1      46.433 130.087  15.866  1.00  0.00     0.068 A 
ATOM     23  N   UNL     1      44.939 131.983  15.609  1.00  0.00    -0.247 N 
ATOM     24  C   UNL     1      47.225 129.363  15.005  1.00  0.00     0.060 A 
ATOM     25  C   UNL     1      45.770 131.062  15.069  1.00  0.00     0.284 A 
ATOM     26  C   UNL     1      47.009 129.916  13.739  1.00  0.00     0.198 A 
ATOM     27  N   UNL     1      46.129 130.948  13.782  1.00  0.00    -0.247 N 
ATOM     28  H   UNL     1      44.477 132.702  15.009  1.00  0.00     0.312 HD
ATOM     29  H   UNL     1      45.809 131.536  12.982  1.00  0.00     0.311 HD
ENDBRANCH  18  19
ENDBRANCH   7  18
TORSDOF 6
ENDMDL
MODEL 7
REMARK VINA RESULT:      -5.4      3.774      7.090
REMARK SMILES C[C@@](O)(CCl)C(=O)Nc1cc(F)c[n-]/c1=N\c1c[nH]c2[nH+]ccc-2c1
REMARK SMILES IDX 9 1 10 2 11 3 12 4 13 5 14 6 15 7 8 8 6 9 7 10 2 12 1 13
REMARK SMILES IDX 3 14 4 16 5 17 16 18 17 19 25 20 18 21 24 22 19 23 23 24
REMARK SMILES IDX 20 25 22 26 21 27
REMARK H PARENT 8 11 3 15 19 28 21 29
ROOT
ATOM      1  C   UNL     1      43.218 131.655  20.151  1.00  0.00     0.043 A 
ATOM      2  C   UNL     1      42.104 132.511  20.123  1.00  0.00     0.064 A 
ATOM      3  C   UNL     1      41.532 132.958  21.314  1.00  0.00     0.121 A 
ATOM      4  F   UNL     1      40.456 133.783  21.291  1.00  0.00    -0.207 F 
ATOM      5  C   UNL     1      42.067 132.535  22.530  1.00  0.00     0.018 A 
ATOM      6  N   UNL     1      43.134 131.695  22.546  1.00  0.00    -0.438 NA
ATOM      7  C   UNL     1      43.726 131.247  21.402  1.00  0.00    -0.034 A 
ENDROOT
BRANCH   1   8
ATOM      8  N   UNL     1      43.796 131.159  18.930  1.00  0.00    -0.324 N 
ATOM      9  C   UNL     1      44.857 131.828  18.224  1.00  0.00     0.257 C 
ATOM     10  O   UNL     1      45.516 132.738  18.799  1.00  0.00    -0.271 OA
ATOM     11  H   UNL     1      43.461 130.239  18.566  1.00  0.00     0.170 HD
BRANCH   9  12
ATOM     12  C   UNL     1      45.223 131.419  16.806  1.00  0.00     0.154 C 
ATOM     13  C   UNL     1      46.174 130.204  16.838  1.00  0.00     0.054 C 
BRANCH  12  14
ATOM     14  O   UNL     1      45.854 132.487  16.135  1.00  0.00    -0.379 OA
ATOM     15  H   UNL     1      45.181 133.203  15.989  1.00  0.00     0.212 HD
ENDBRANCH  12  14
BRANCH  12  16
ATOM     16  C   UNL     1      43.952 131.051  16.014  1.00  0.00     0.154 C 
ATOM     17  Cl  UNL     1      44.105 131.464  14.281  1.00  0.00    -0.123 Cl
ENDBRANCH  12  16
ENDBRANCH   9  12
ENDBRANCH   1   8
BRANCH   7  18
ATOM     18  N   UNL     1      44.737 130.426  21.449  1.00  0.00    -0.431 NA
BRANCH  18  19
ATOM     19  C   UNL     1      44.860 129.249  22.267  1.00  0.00    -0.001 A 
ATOM     20  C   UNL     1      45.323 128.018  21.737  1.00  0.00     0.024 A 
ATOM     21  C   UNL     1      44.417 129.316  23.616  1.00  0.00     0.201 A 
ATOM     22  C   UNL     1      45.368 126.933  22.596  1.00  0.00     0.068 A 
ATOM     23  N   UNL     1      44.469 128.227  24.442  1.00  0.00    -0.247 N 
ATOM     24  C   UNL     1      45.733 125.617  22.432  1.00  0.00     0.060 A 
ATOM     25  C   UNL     1      44.943 127.060  23.949  1.00  0.00     0.284 A 
ATOM     26  C   UNL     1      45.521 125.009  23.674  1.00  0.00     0.198 A 
ATOM     27  N   UNL     1      45.039 125.887  24.589  1.00  0.00    -0.247 N 
ATOM     28  H   UNL     1      44.143 128.294  25.432  1.00  0.00     0.312 HD
ATOM     29  H   UNL     1      44.786 125.685  25.582  1.00  0.00     0.311 HD
ENDBRANCH  18  19
ENDBRANCH   7  18
TORSDOF 6
ENDMDL
MODEL 8
REMARK VINA RESULT:      -5.0      4.668      7.922
REMARK SMILES C[C@@](O)(CCl)C(=O)Nc1cc(F)c[n-]/c1=N\c1c[nH]c2[nH+]ccc-2c1
REMARK SMILES IDX 9 1 10 2 11 3 12 4 13 5 14 6 15 7 8 8 6 9 7 10 2 12 1 13
REMARK SMILES IDX 3 14 4 16 5 17 16 18 17 19 25 20 18 21 24 22 19 23 23 24
REMARK SMILES IDX 20 25 22 26 21 27
REMARK H PARENT 8 11 3 15 19 28 21 29
ROOT
ATOM      1  C   UNL     1      44.715 126.022  22.649  1.00  0.00     0.043 A 
ATOM      2  C   UNL     1      43.512 125.472  23.120  1.00  0.00     0.064 A 
ATOM      3  C   UNL     1      43.419 124.105  23.379  1.00  0.00     0.121 A 
ATOM      4  F   UNL     1      42.258 123.571  23.833  1.00  0.00    -0.207 F 
ATOM      5  C   UNL     1      44.527 123.290  23.152  1.00  0.00     0.018 A 
ATOM      6  N   UNL     1      45.680 123.829  22.681  1.00  0.00    -0.438 NA
ATOM      7  C   UNL     1      45.812 125.163  22.427  1.00  0.00    -0.034 A 
ENDROOT
BRANCH   1   8
ATOM      8  N   UNL     1      44.815 127.426  22.344  1.00  0.00    -0.324 N 
ATOM      9  C   UNL     1      44.491 128.467  23.283  1.00  0.00     0.257 C 
ATOM     10  O   UNL     1      44.371 128.191  24.508  1.00  0.00    -0.271 OA
ATOM     11  H   UNL     1      45.189 127.700  21.409  1.00  0.00     0.170 HD
BRANCH   9  12
ATOM     12  C   UNL     1      44.333 129.907  22.820  1.00  0.00     0.154 C 
ATOM     13  C   UNL     1      45.089 130.116  21.491  1.00  0.00     0.054 C 
BRANCH  12  14
ATOM     14  O   UNL     1      44.844 130.793  23.791  1.00  0.00    -0.379 OA
ATOM     15  H   UNL     1      45.443 130.280  24.395  1.00  0.00     0.212 HD
ENDBRANCH  12  14
BRANCH  12  16
ATOM     16  C   UNL     1      42.841 130.241  22.616  1.00  0.00     0.154 C 
ATOM     17  Cl  UNL     1      42.210 131.288  23.920  1.00  0.00    -0.123 Cl
ENDBRANCH  12  16
ENDBRANCH   9  12
ENDBRANCH   1   8
BRANCH   7  18
ATOM     18  N   UNL     1      46.926 125.648  21.957  1.00  0.00    -0.431 NA
BRANCH  18  19
ATOM     19  C   UNL     1      48.261 125.320  22.381  1.00  0.00    -0.001 A 
ATOM     20  C   UNL     1      48.915 126.043  23.410  1.00  0.00     0.024 A 
ATOM     21  C   UNL     1      48.959 124.300  21.679  1.00  0.00     0.201 A 
ATOM     22  C   UNL     1      50.214 125.675  23.718  1.00  0.00     0.068 A 
ATOM     23  N   UNL     1      50.245 123.960  22.002  1.00  0.00    -0.247 N 
ATOM     24  C   UNL     1      51.139 126.151  24.619  1.00  0.00     0.060 A 
ATOM     25  C   UNL     1      50.859 124.625  23.006  1.00  0.00     0.284 A 
ATOM     26  C   UNL     1      52.289 125.379  24.422  1.00  0.00     0.198 A 
ATOM     27  N   UNL     1      52.115 124.457  23.442  1.00  0.00    -0.247 N 
ATOM     28  H   UNL     1      50.742 123.205  21.478  1.00  0.00     0.312 HD
ATOM     29  H   UNL     1      52.819 123.769  23.093  1.00  0.00     0.311 HD
ENDBRANCH  18  19
ENDBRANCH   7  18
TORSDOF 6
ENDMDL
MODEL 9
REMARK VINA RESULT:      -4.9      3.343      7.080
REMARK SMILES C[C@@](O)(CCl)C(=O)Nc1cc(F)c[n-]/c1=N\c1c[nH]c2[nH+]ccc-2c1
REMARK SMILES IDX 9 1 10 2 11 3 12 4 13 5 14 6 15 7 8 8 6 9 7 10 2 12 1 13
REMARK SMILES IDX 3 14 4 16 5 17 16 18 17 19 25 20 18 21 24 22 19 23 23 24
REMARK SMILES IDX 20 25 22 26 21 27
REMARK H PARENT 8 11 3 15 19 28 21 29
ROOT
ATOM      1  C   UNL     1      44.463 130.281  21.398  1.00  0.00     0.043 A 
ATOM      2  C   UNL     1      43.703 131.363  21.873  1.00  0.00     0.064 A 
ATOM      3  C   UNL     1      43.387 131.458  23.228  1.00  0.00     0.121 A 
ATOM      4  F   UNL     1      42.652 132.499  23.689  1.00  0.00    -0.207 F 
ATOM      5  C   UNL     1      43.821 130.462  24.102  1.00  0.00     0.018 A 
ATOM      6  N   UNL     1      44.541 129.412  23.630  1.00  0.00    -0.438 NA
ATOM      7  C   UNL     1      44.879 129.292  22.314  1.00  0.00    -0.034 A 
ENDROOT
BRANCH   1   8
ATOM      8  N   UNL     1      44.766 130.152  19.997  1.00  0.00    -0.324 N 
ATOM      9  C   UNL     1      44.856 131.272  19.097  1.00  0.00     0.257 C 
ATOM     10  O   UNL     1      44.945 132.442  19.561  1.00  0.00    -0.271 OA
ATOM     11  H   UNL     1      44.982 129.200  19.627  1.00  0.00     0.170 HD
BRANCH   9  12
ATOM     12  C   UNL     1      44.887 131.057  17.592  1.00  0.00     0.154 C 
ATOM     13  C   UNL     1      45.601 132.241  16.908  1.00  0.00     0.054 C 
BRANCH  12  14
ATOM     14  O   UNL     1      43.576 130.947  17.085  1.00  0.00    -0.379 OA
ATOM     15  H   UNL     1      43.318 129.988  17.094  1.00  0.00     0.212 HD
ENDBRANCH  12  14
BRANCH  12  16
ATOM     16  C   UNL     1      45.632 129.749  17.257  1.00  0.00     0.154 C 
ATOM     17  Cl  UNL     1      45.335 129.226  15.574  1.00  0.00    -0.123 Cl
ENDBRANCH  12  16
ENDBRANCH   9  12
ENDBRANCH   1   8
BRANCH   7  18
ATOM     18  N   UNL     1      45.555 128.263  21.888  1.00  0.00    -0.431 NA
BRANCH  18  19
ATOM     19  C   UNL     1      45.358 126.885  22.252  1.00  0.00    -0.001 A 
ATOM     20  C   UNL     1      46.407 125.935  22.171  1.00  0.00     0.024 A 
ATOM     21  C   UNL     1      44.048 126.465  22.614  1.00  0.00     0.201 A 
ATOM     22  C   UNL     1      46.105 124.625  22.506  1.00  0.00     0.068 A 
ATOM     23  N   UNL     1      43.778 125.163  22.936  1.00  0.00    -0.247 N 
ATOM     24  C   UNL     1      46.844 123.465  22.526  1.00  0.00     0.060 A 
ATOM     25  C   UNL     1      44.784 124.261  22.893  1.00  0.00     0.284 A 
ATOM     26  C   UNL     1      45.955 122.459  22.922  1.00  0.00     0.198 A 
ATOM     27  N   UNL     1      44.708 122.946  23.140  1.00  0.00    -0.247 N 
ATOM     28  H   UNL     1      42.811 124.872  23.204  1.00  0.00     0.312 HD
ATOM     29  H   UNL     1      43.863 122.405  23.430  1.00  0.00     0.311 HD
ENDBRANCH  18  19
ENDBRANCH   7  18
TORSDOF 6
ENDMDL


