REMARK SMILES Cc1[nH+]cnc(O[C@@H](c2ccccc2)[C@@H]2CO2)c1C
REMARK SMILES IDX 7 1 6 2 2 3 3 4 18 5 4 6 5 7 1 8 19 10 8 11 9 12 10 13 14 14
REMARK SMILES IDX 11 15 13 16 12 17 15 18 16 19 17 20
REMARK H PARENT 3 9
ROOT
ATOM      1  O   UNL     1      -0.313   0.682   0.325  1.00  0.00    -0.448 OA
ENDROOT
BRANCH   1   2
ATOM      2  C   UNL     1       0.549  -0.405   0.122  1.00  0.00     0.335 A 
ATOM      3  C   UNL     1       0.999  -2.780   0.118  1.00  0.00     0.108 A 
ATOM      4  N   UNL     1       2.259  -2.506  -0.326  1.00  0.00    -0.247 N 
ATOM      5  C   UNL     1       0.107  -1.715   0.382  1.00  0.00     0.080 A 
ATOM      6  C   UNL     1       2.664  -1.230  -0.549  1.00  0.00     0.453 A 
ATOM      7  N   UNL     1       1.814  -0.198  -0.330  1.00  0.00    -0.010 NA
ATOM      8  C   UNL     1       0.593  -4.212   0.343  1.00  0.00     0.093 C 
ATOM      9  H   UNL     1       2.936  -3.281  -0.508  1.00  0.00     0.311 HD
ATOM     10  C   UNL     1      -1.301  -1.968   0.862  1.00  0.00     0.057 C 
ENDBRANCH   1   2
BRANCH   1  11
ATOM     11  C   UNL     1       0.039   2.035   0.037  1.00  0.00     0.239 C 
BRANCH  11  12
ATOM     12  C   UNL     1       0.169   2.241  -1.454  1.00  0.00    -0.005 A 
ATOM     13  C   UNL     1       1.252   2.969  -1.977  1.00  0.00     0.007 A 
ATOM     14  C   UNL     1      -0.808   1.739  -2.334  1.00  0.00     0.007 A 
ATOM     15  C   UNL     1       1.366   3.172  -3.356  1.00  0.00     0.000 A 
ATOM     16  C   UNL     1      -0.690   1.945  -3.712  1.00  0.00     0.000 A 
ATOM     17  C   UNL     1       0.397   2.659  -4.222  1.00  0.00     0.000 A 
ENDBRANCH  11  12
BRANCH  11  18
ATOM     18  C   UNL     1      -1.058   2.954   0.581  1.00  0.00     0.189 C 
ATOM     19  C   UNL     1      -0.646   4.311   1.003  1.00  0.00     0.197 C 
ATOM     20  O   UNL     1      -0.850   3.273   1.936  1.00  0.00    -0.369 OA
ENDBRANCH  11  18
ENDBRANCH   1  11
TORSDOF 4


