REMARK SMILES CCOC(=O)n1cc(F)cc(N)/c1=N\c1cnc2[nH]ccc2c1
REMARK SMILES IDX 13 1 11 2 10 3 8 4 9 5 7 6 6 7 14 8 15 9 16 10 17 11 18 12
REMARK SMILES IDX 23 13 22 14 19 15 21 16 20 17 12 19 4 22 5 23 3 24 2 25 1 26
REMARK H PARENT 19 18 12 20 12 21
ROOT
ATOM      1  C   UNL     1      -0.698  -1.071   0.374  1.00  0.00     0.166 A 
ATOM      2  C   UNL     1      -0.209  -1.926   1.407  1.00  0.00     0.079 A 
ATOM      3  C   UNL     1      -1.122  -2.656   2.171  1.00  0.00     0.070 A 
ATOM      4  C   UNL     1      -2.476  -2.615   1.873  1.00  0.00     0.142 A 
ATOM      5  F   UNL     1      -3.358  -3.343   2.601  1.00  0.00    -0.205 F 
ATOM      6  C   UNL     1      -2.914  -1.867   0.786  1.00  0.00     0.139 A 
ATOM      7  N   UNL     1      -2.038  -1.127   0.039  1.00  0.00    -0.232 N 
ENDROOT
BRANCH   1   8
ATOM      8  N   UNL     1       0.064  -0.200  -0.243  1.00  0.00    -0.227 NA
BRANCH   8   9
ATOM      9  C   UNL     1       1.383   0.262   0.083  1.00  0.00     0.085 A 
ATOM     10  C   UNL     1       1.701   0.706   1.395  1.00  0.00     0.142 A 
ATOM     11  N   UNL     1       2.941   1.204   1.679  1.00  0.00    -0.236 NA
ATOM     12  C   UNL     1       3.860   1.287   0.685  1.00  0.00     0.137 A 
ATOM     13  C   UNL     1       2.340   0.393  -0.941  1.00  0.00     0.042 A 
ATOM     14  C   UNL     1       3.585   0.903  -0.594  1.00  0.00     0.021 A 
ATOM     15  N   UNL     1       5.111   1.757   0.799  1.00  0.00    -0.346 N 
ATOM     16  C   UNL     1       4.718   1.138  -1.342  1.00  0.00     0.030 A 
ATOM     17  C   UNL     1       5.642   1.667  -0.443  1.00  0.00     0.085 A 
ATOM     18  H   UNL     1       5.576   2.120   1.660  1.00  0.00     0.167 HD
ENDBRANCH   8   9
ENDBRANCH   1   8
BRANCH   2  19
ATOM     19  N   UNL     1       1.187  -2.189   1.601  1.00  0.00    -0.396 N 
ATOM     20  H   UNL     1       1.520  -2.657   2.474  1.00  0.00     0.156 HD
ATOM     21  H   UNL     1       1.865  -2.126   0.810  1.00  0.00     0.156 HD
ENDBRANCH   2  19
BRANCH   7  22
ATOM     22  C   UNL     1      -2.575  -0.376  -1.074  1.00  0.00     0.419 C 
ATOM     23  O   UNL     1      -1.859  -0.132  -2.085  1.00  0.00    -0.223 OA
BRANCH  22  24
ATOM     24  O   UNL     1      -3.909   0.054  -1.046  1.00  0.00    -0.449 OA
BRANCH  24  25
ATOM     25  C   UNL     1      -4.506   0.839  -2.076  1.00  0.00     0.231 C 
ATOM     26  C   UNL     1      -4.035   2.287  -1.991  1.00  0.00     0.049 C 
ENDBRANCH  24  25
ENDBRANCH  22  24
ENDBRANCH   7  22
TORSDOF 6


