MODEL 1
REMARK VINA RESULT:      -7.7      0.000      0.000
REMARK SMILES OC(CCc1c(F)c(-c2c[n-]c3nccc-3c2)c(F)c2[nH]ccc12)=C1CCC1
REMARK SMILES IDX 3 1 2 2 1 3 25 5 26 6 28 7 27 8 4 9 5 10 6 11 24 12 8 13
REMARK SMILES IDX 23 14 20 15 18 16 22 17 21 18 7 19 19 20 9 22 10 23 17 24
REMARK SMILES IDX 11 25 16 26 12 27 15 28 13 29 14 30
REMARK H PARENT 1 4 21 21
ROOT
ATOM      1  C   UNL     1      44.329 131.189  23.018  1.00  0.00     0.079 C 
ENDROOT
BRANCH   1   2
ATOM      2  C   UNL     1      43.722 129.910  22.513  1.00  0.00     0.092 C 
BRANCH   2   3
ATOM      3  O   UNL     1      42.387 129.911  22.112  1.00  0.00    -0.512 OA
ATOM      4  H   UNL     1      41.876 130.773  21.960  1.00  0.00     0.293 HD
ENDBRANCH   2   3
BRANCH   2   5
ATOM      5  C   UNL     1      44.432 128.780  22.479  1.00  0.00    -0.033 C 
ATOM      6  C   UNL     1      44.679 127.578  23.373  1.00  0.00     0.035 C 
ATOM      7  C   UNL     1      45.364 128.086  21.506  1.00  0.00     0.035 C 
ATOM      8  C   UNL     1      45.591 126.909  22.398  1.00  0.00     0.009 C 
ENDBRANCH   2   5
ENDBRANCH   1   2
BRANCH   1   9
ATOM      9  C   UNL     1      45.141 131.898  21.925  1.00  0.00     0.047 C 
BRANCH   9  10
ATOM     10  C   UNL     1      44.462 131.808  20.578  1.00  0.00    -0.002 A 
ATOM     11  C   UNL     1      45.159 131.311  19.450  1.00  0.00     0.137 A 
ATOM     12  C   UNL     1      43.163 132.291  20.371  1.00  0.00     0.009 A 
ATOM     13  C   UNL     1      44.552 131.304  18.165  1.00  0.00     0.055 A 
ATOM     14  C   UNL     1      42.251 132.858  21.244  1.00  0.00     0.028 A 
ATOM     15  C   UNL     1      42.578 132.288  19.133  1.00  0.00     0.083 A 
ATOM     16  C   UNL     1      43.239 131.803  18.008  1.00  0.00     0.157 A 
ATOM     17  C   UNL     1      41.142 133.173  20.469  1.00  0.00     0.083 A 
ATOM     18  N   UNL     1      41.346 132.821  19.181  1.00  0.00    -0.359 N 
ATOM     19  F   UNL     1      46.440 130.884  19.593  1.00  0.00    -0.206 F 
ATOM     20  F   UNL     1      42.619 131.800  16.800  1.00  0.00    -0.204 F 
ATOM     21  H   UNL     1      40.681 132.951  18.386  1.00  0.00     0.166 HD
BRANCH  13  22
ATOM     22  C   UNL     1      45.299 130.797  16.991  1.00  0.00    -0.016 A 
ATOM     23  C   UNL     1      45.405 129.395  16.760  1.00  0.00    -0.013 A 
ATOM     24  C   UNL     1      45.913 131.706  16.099  1.00  0.00     0.016 A 
ATOM     25  N   UNL     1      46.092 128.898  15.687  1.00  0.00    -0.442 NA
ATOM     26  C   UNL     1      46.601 131.172  15.022  1.00  0.00    -0.026 A 
ATOM     27  C   UNL     1      46.680 129.765  14.832  1.00  0.00    -0.052 A 
ATOM     28  C   UNL     1      47.304 131.731  13.986  1.00  0.00     0.003 A 
ATOM     29  N   UNL     1      47.392 129.450  13.738  1.00  0.00    -0.442 NA
ATOM     30  C   UNL     1      47.767 130.653  13.228  1.00  0.00    -0.022 A 
ENDBRANCH  13  22
ENDBRANCH   9  10
ENDBRANCH   1   9
TORSDOF 6
ENDMDL
MODEL 2
REMARK VINA RESULT:      -7.6      1.228      1.512
REMARK SMILES OC(CCc1c(F)c(-c2c[n-]c3nccc-3c2)c(F)c2[nH]ccc12)=C1CCC1
REMARK SMILES IDX 3 1 2 2 1 3 25 5 26 6 28 7 27 8 4 9 5 10 6 11 24 12 8 13
REMARK SMILES IDX 23 14 20 15 18 16 22 17 21 18 7 19 19 20 9 22 10 23 17 24
REMARK SMILES IDX 11 25 16 26 12 27 15 28 13 29 14 30
REMARK H PARENT 1 4 21 21
ROOT
ATOM      1  C   UNL     1      43.728 129.940  22.641  1.00  0.00     0.079 C 
ENDROOT
BRANCH   1   2
ATOM      2  C   UNL     1      44.260 128.566  22.937  1.00  0.00     0.092 C 
BRANCH   2   3
ATOM      3  O   UNL     1      45.538 128.229  22.495  1.00  0.00    -0.512 OA
ATOM      4  H   UNL     1      46.267 128.925  22.387  1.00  0.00     0.293 HD
ENDBRANCH   2   3
BRANCH   2   5
ATOM      5  C   UNL     1      43.515 127.666  23.582  1.00  0.00    -0.033 C 
ATOM      6  C   UNL     1      42.279 127.652  24.465  1.00  0.00     0.035 C 
ATOM      7  C   UNL     1      43.501 126.161  23.760  1.00  0.00     0.035 C 
ATOM      8  C   UNL     1      42.281 126.167  24.623  1.00  0.00     0.009 C 
ENDBRANCH   2   5
ENDBRANCH   1   2
BRANCH   1   9
ATOM      9  C   UNL     1      44.759 130.795  21.890  1.00  0.00     0.047 C 
BRANCH   9  10
ATOM     10  C   UNL     1      44.301 131.120  20.487  1.00  0.00    -0.002 A 
ATOM     11  C   UNL     1      45.101 130.780  19.370  1.00  0.00     0.137 A 
ATOM     12  C   UNL     1      43.125 131.842  20.243  1.00  0.00     0.009 A 
ATOM     13  C   UNL     1      44.713 131.159  18.056  1.00  0.00     0.055 A 
ATOM     14  C   UNL     1      42.166 132.341  21.105  1.00  0.00     0.028 A 
ATOM     15  C   UNL     1      42.753 132.212  18.978  1.00  0.00     0.083 A 
ATOM     16  C   UNL     1      43.518 131.888  17.861  1.00  0.00     0.157 A 
ATOM     17  C   UNL     1      41.246 132.998  20.297  1.00  0.00     0.083 A 
ATOM     18  N   UNL     1      41.608 132.914  18.998  1.00  0.00    -0.359 N 
ATOM     19  F   UNL     1      46.276 130.128  19.565  1.00  0.00    -0.206 F 
ATOM     20  F   UNL     1      43.106 132.256  16.621  1.00  0.00    -0.204 F 
ATOM     21  H   UNL     1      41.102 133.325  18.182  1.00  0.00     0.166 HD
BRANCH  13  22
ATOM     22  C   UNL     1      45.569 130.812  16.898  1.00  0.00    -0.016 A 
ATOM     23  C   UNL     1      46.266 129.569  16.870  1.00  0.00    -0.013 A 
ATOM     24  C   UNL     1      45.698 131.717  15.819  1.00  0.00     0.016 A 
ATOM     25  N   UNL     1      47.066 129.224  15.816  1.00  0.00    -0.442 NA
ATOM     26  C   UNL     1      46.514 131.338  14.766  1.00  0.00    -0.026 A 
ATOM     27  C   UNL     1      47.192 130.087  14.782  1.00  0.00    -0.052 A 
ATOM     28  C   UNL     1      46.871 131.944  13.589  1.00  0.00     0.003 A 
ATOM     29  N   UNL     1      47.934 129.910  13.678  1.00  0.00    -0.442 NA
ATOM     30  C   UNL     1      47.733 131.045  12.956  1.00  0.00    -0.022 A 
ENDBRANCH  13  22
ENDBRANCH   9  10
ENDBRANCH   1   9
TORSDOF 6
ENDMDL
MODEL 3
REMARK VINA RESULT:      -7.4      1.466      1.782
REMARK SMILES OC(CCc1c(F)c(-c2c[n-]c3nccc-3c2)c(F)c2[nH]ccc12)=C1CCC1
REMARK SMILES IDX 3 1 2 2 1 3 25 5 26 6 28 7 27 8 4 9 5 10 6 11 24 12 8 13
REMARK SMILES IDX 23 14 20 15 18 16 22 17 21 18 7 19 19 20 9 22 10 23 17 24
REMARK SMILES IDX 11 25 16 26 12 27 15 28 13 29 14 30
REMARK H PARENT 1 4 21 21
ROOT
ATOM      1  C   UNL     1      44.929 128.961  21.978  1.00  0.00     0.079 C 
ENDROOT
BRANCH   1   2
ATOM      2  C   UNL     1      44.259 128.622  23.280  1.00  0.00     0.092 C 
BRANCH   2   3
ATOM      3  O   UNL     1      44.269 129.563  24.308  1.00  0.00    -0.512 OA
ATOM      4  H   UNL     1      44.960 129.538  25.049  1.00  0.00     0.293 HD
ENDBRANCH   2   3
BRANCH   2   5
ATOM      5  C   UNL     1      43.693 127.428  23.469  1.00  0.00    -0.033 C 
ATOM      6  C   UNL     1      42.475 126.858  24.173  1.00  0.00     0.035 C 
ATOM      7  C   UNL     1      43.967 125.994  23.058  1.00  0.00     0.035 C 
ATOM      8  C   UNL     1      42.760 125.453  23.754  1.00  0.00     0.009 C 
ENDBRANCH   2   5
ENDBRANCH   1   2
BRANCH   1   9
ATOM      9  C   UNL     1      45.096 130.478  21.808  1.00  0.00     0.047 C 
BRANCH   9  10
ATOM     10  C   UNL     1      44.329 130.994  20.613  1.00  0.00    -0.002 A 
ATOM     11  C   UNL     1      44.839 130.832  19.302  1.00  0.00     0.137 A 
ATOM     12  C   UNL     1      43.142 131.726  20.757  1.00  0.00     0.009 A 
ATOM     13  C   UNL     1      44.162 131.390  18.184  1.00  0.00     0.055 A 
ATOM     14  C   UNL     1      42.420 132.081  21.882  1.00  0.00     0.028 A 
ATOM     15  C   UNL     1      42.491 132.268  19.680  1.00  0.00     0.083 A 
ATOM     16  C   UNL     1      42.968 132.121  18.381  1.00  0.00     0.157 A 
ATOM     17  C   UNL     1      41.350 132.833  21.415  1.00  0.00     0.083 A 
ATOM     18  N   UNL     1      41.396 132.942  20.069  1.00  0.00    -0.359 N 
ATOM     19  F   UNL     1      46.015 130.177  19.121  1.00  0.00    -0.206 F 
ATOM     20  F   UNL     1      42.285 132.658  17.338  1.00  0.00    -0.204 F 
ATOM     21  H   UNL     1      40.722 133.459  19.462  1.00  0.00     0.166 HD
BRANCH  13  22
ATOM     22  C   UNL     1      44.716 131.227  16.820  1.00  0.00    -0.016 A 
ATOM     23  C   UNL     1      43.965 131.651  15.687  1.00  0.00    -0.013 A 
ATOM     24  C   UNL     1      45.992 130.644  16.641  1.00  0.00     0.016 A 
ATOM     25  N   UNL     1      44.449 131.510  14.416  1.00  0.00    -0.442 NA
ATOM     26  C   UNL     1      46.455 130.515  15.343  1.00  0.00    -0.026 A 
ATOM     27  C   UNL     1      45.669 130.953  14.241  1.00  0.00    -0.052 A 
ATOM     28  C   UNL     1      47.609 130.008  14.803  1.00  0.00     0.003 A 
ATOM     29  N   UNL     1      46.290 130.737  13.070  1.00  0.00    -0.442 NA
ATOM     30  C   UNL     1      47.471 130.161  13.421  1.00  0.00    -0.022 A 
ENDBRANCH  13  22
ENDBRANCH   9  10
ENDBRANCH   1   9
TORSDOF 6
ENDMDL
MODEL 4
REMARK VINA RESULT:      -7.3      1.116      1.325
REMARK SMILES OC(CCc1c(F)c(-c2c[n-]c3nccc-3c2)c(F)c2[nH]ccc12)=C1CCC1
REMARK SMILES IDX 3 1 2 2 1 3 25 5 26 6 28 7 27 8 4 9 5 10 6 11 24 12 8 13
REMARK SMILES IDX 23 14 20 15 18 16 22 17 21 18 7 19 19 20 9 22 10 23 17 24
REMARK SMILES IDX 11 25 16 26 12 27 15 28 13 29 14 30
REMARK H PARENT 1 4 21 21
ROOT
ATOM      1  C   UNL     1      44.518 129.251  21.829  1.00  0.00     0.079 C 
ENDROOT
BRANCH   1   2
ATOM      2  C   UNL     1      44.946 128.913  23.230  1.00  0.00     0.092 C 
BRANCH   2   3
ATOM      3  O   UNL     1      45.166 129.950  24.135  1.00  0.00    -0.512 OA
ATOM      4  H   UNL     1      45.370 129.773  25.111  1.00  0.00     0.293 HD
ENDBRANCH   2   3
BRANCH   2   5
ATOM      5  C   UNL     1      45.149 127.646  23.598  1.00  0.00    -0.033 C 
ATOM      6  C   UNL     1      44.598 126.669  24.621  1.00  0.00     0.035 C 
ATOM      7  C   UNL     1      46.038 126.496  23.169  1.00  0.00     0.035 C 
ATOM      8  C   UNL     1      45.480 125.547  24.180  1.00  0.00     0.009 C 
ENDBRANCH   2   5
ENDBRANCH   1   2
BRANCH   1   9
ATOM      9  C   UNL     1      44.860 130.703  21.469  1.00  0.00     0.047 C 
BRANCH   9  10
ATOM     10  C   UNL     1      44.405 131.055  20.071  1.00  0.00    -0.002 A 
ATOM     11  C   UNL     1      45.189 130.702  18.947  1.00  0.00     0.137 A 
ATOM     12  C   UNL     1      43.250 131.814  19.840  1.00  0.00     0.009 A 
ATOM     13  C   UNL     1      44.807 131.105  17.638  1.00  0.00     0.055 A 
ATOM     14  C   UNL     1      42.310 132.333  20.711  1.00  0.00     0.028 A 
ATOM     15  C   UNL     1      42.883 132.206  18.580  1.00  0.00     0.083 A 
ATOM     16  C   UNL     1      43.633 131.871  17.456  1.00  0.00     0.157 A 
ATOM     17  C   UNL     1      41.406 133.025  19.914  1.00  0.00     0.083 A 
ATOM     18  N   UNL     1      41.759 132.942  18.613  1.00  0.00    -0.359 N 
ATOM     19  F   UNL     1      46.346 130.014  19.130  1.00  0.00    -0.206 F 
ATOM     20  F   UNL     1      43.226 132.263  16.222  1.00  0.00    -0.204 F 
ATOM     21  H   UNL     1      41.262 133.375  17.803  1.00  0.00     0.166 HD
BRANCH  13  22
ATOM     22  C   UNL     1      45.646 130.744  16.473  1.00  0.00    -0.016 A 
ATOM     23  C   UNL     1      45.942 129.376  16.199  1.00  0.00    -0.013 A 
ATOM     24  C   UNL     1      46.160 131.757  15.631  1.00  0.00     0.016 A 
ATOM     25  N   UNL     1      46.716 129.013  15.133  1.00  0.00    -0.442 NA
ATOM     26  C   UNL     1      46.940 131.358  14.559  1.00  0.00    -0.026 A 
ATOM     27  C   UNL     1      47.209 129.981  14.326  1.00  0.00    -0.052 A 
ATOM     28  C   UNL     1      47.592 132.041  13.565  1.00  0.00     0.003 A 
ATOM     29  N   UNL     1      47.985 129.802  13.245  1.00  0.00    -0.442 NA
ATOM     30  C   UNL     1      48.213 131.062  12.787  1.00  0.00    -0.022 A 
ENDBRANCH  13  22
ENDBRANCH   9  10
ENDBRANCH   1   9
TORSDOF 6
ENDMDL
MODEL 5
REMARK VINA RESULT:      -7.2      3.550      7.307
REMARK SMILES OC(CCc1c(F)c(-c2c[n-]c3nccc-3c2)c(F)c2[nH]ccc12)=C1CCC1
REMARK SMILES IDX 3 1 2 2 1 3 25 5 26 6 28 7 27 8 4 9 5 10 6 11 24 12 8 13
REMARK SMILES IDX 23 14 20 15 18 16 22 17 21 18 7 19 19 20 9 22 10 23 17 24
REMARK SMILES IDX 11 25 16 26 12 27 15 28 13 29 14 30
REMARK H PARENT 1 4 21 21
ROOT
ATOM      1  C   UNL     1      45.510 130.453  19.209  1.00  0.00     0.079 C 
ENDROOT
BRANCH   1   2
ATOM      2  C   UNL     1      45.091 131.216  17.984  1.00  0.00     0.092 C 
BRANCH   2   3
ATOM      3  O   UNL     1      44.081 132.170  18.098  1.00  0.00    -0.512 OA
ATOM      4  H   UNL     1      43.345 132.254  17.405  1.00  0.00     0.293 HD
ENDBRANCH   2   3
BRANCH   2   5
ATOM      5  C   UNL     1      45.646 130.964  16.796  1.00  0.00    -0.033 C 
ATOM      6  C   UNL     1      45.804 131.662  15.457  1.00  0.00     0.035 C 
ATOM      7  C   UNL     1      46.438 129.840  16.159  1.00  0.00     0.035 C 
ATOM      8  C   UNL     1      46.587 130.544  14.849  1.00  0.00     0.009 C 
ENDBRANCH   2   5
ENDBRANCH   1   2
BRANCH   1   9
ATOM      9  C   UNL     1      45.336 131.292  20.483  1.00  0.00     0.047 C 
BRANCH   9  10
ATOM     10  C   UNL     1      44.694 130.495  21.594  1.00  0.00    -0.002 A 
ATOM     11  C   UNL     1      45.071 129.151  21.830  1.00  0.00     0.137 A 
ATOM     12  C   UNL     1      43.647 131.016  22.368  1.00  0.00     0.009 A 
ATOM     13  C   UNL     1      44.410 128.373  22.818  1.00  0.00     0.055 A 
ATOM     14  C   UNL     1      43.037 132.257  22.358  1.00  0.00     0.028 A 
ATOM     15  C   UNL     1      43.006 130.265  23.317  1.00  0.00     0.083 A 
ATOM     16  C   UNL     1      43.359 128.943  23.572  1.00  0.00     0.157 A 
ATOM     17  C   UNL     1      42.040 132.187  23.323  1.00  0.00     0.083 A 
ATOM     18  N   UNL     1      42.027 130.970  23.908  1.00  0.00    -0.359 N 
ATOM     19  F   UNL     1      46.043 128.588  21.067  1.00  0.00    -0.206 F 
ATOM     20  F   UNL     1      42.712 128.237  24.535  1.00  0.00    -0.204 F 
ATOM     21  H   UNL     1      41.376 130.645  24.658  1.00  0.00     0.166 HD
BRANCH  13  22
ATOM     22  C   UNL     1      44.804 126.962  23.042  1.00  0.00    -0.016 A 
ATOM     23  C   UNL     1      46.173 126.626  23.252  1.00  0.00    -0.013 A 
ATOM     24  C   UNL     1      43.821 125.946  23.043  1.00  0.00     0.016 A 
ATOM     25  N   UNL     1      46.566 125.333  23.457  1.00  0.00    -0.442 NA
ATOM     26  C   UNL     1      44.250 124.647  23.255  1.00  0.00    -0.026 A 
ATOM     27  C   UNL     1      45.628 124.358  23.459  1.00  0.00    -0.052 A 
ATOM     28  C   UNL     1      43.601 123.441  23.315  1.00  0.00     0.003 A 
ATOM     29  N   UNL     1      45.839 123.045  23.640  1.00  0.00    -0.442 NA
ATOM     30  C   UNL     1      44.600 122.493  23.551  1.00  0.00    -0.022 A 
ENDBRANCH  13  22
ENDBRANCH   9  10
ENDBRANCH   1   9
TORSDOF 6
ENDMDL
MODEL 6
REMARK VINA RESULT:      -6.9      1.182      1.391
REMARK SMILES OC(CCc1c(F)c(-c2c[n-]c3nccc-3c2)c(F)c2[nH]ccc12)=C1CCC1
REMARK SMILES IDX 3 1 2 2 1 3 25 5 26 6 28 7 27 8 4 9 5 10 6 11 24 12 8 13
REMARK SMILES IDX 23 14 20 15 18 16 22 17 21 18 7 19 19 20 9 22 10 23 17 24
REMARK SMILES IDX 11 25 16 26 12 27 15 28 13 29 14 30
REMARK H PARENT 1 4 21 21
ROOT
ATOM      1  C   UNL     1      44.764 131.973  22.186  1.00  0.00     0.079 C 
ENDROOT
BRANCH   1   2
ATOM      2  C   UNL     1      43.816 131.385  23.195  1.00  0.00     0.092 C 
BRANCH   2   3
ATOM      3  O   UNL     1      43.050 132.245  23.979  1.00  0.00    -0.512 OA
ATOM      4  H   UNL     1      42.655 131.951  24.865  1.00  0.00     0.293 HD
ENDBRANCH   2   3
BRANCH   2   5
ATOM      5  C   UNL     1      43.731 130.064  23.367  1.00  0.00    -0.033 C 
ATOM      6  C   UNL     1      43.322 129.095  24.462  1.00  0.00     0.035 C 
ATOM      7  C   UNL     1      43.986 128.820  22.539  1.00  0.00     0.035 C 
ATOM      8  C   UNL     1      43.575 127.882  23.628  1.00  0.00     0.009 C 
ENDBRANCH   2   5
ENDBRANCH   1   2
BRANCH   1   9
ATOM      9  C   UNL     1      45.285 130.905  21.213  1.00  0.00     0.047 C 
BRANCH   9  10
ATOM     10  C   UNL     1      44.740 131.105  19.818  1.00  0.00    -0.002 A 
ATOM     11  C   UNL     1      45.498 130.725  18.685  1.00  0.00     0.137 A 
ATOM     12  C   UNL     1      43.516 131.750  19.589  1.00  0.00     0.009 A 
ATOM     13  C   UNL     1      45.025 130.989  17.371  1.00  0.00     0.055 A 
ATOM     14  C   UNL     1      42.577 132.263  20.465  1.00  0.00     0.028 A 
ATOM     15  C   UNL     1      43.061 132.009  18.323  1.00  0.00     0.083 A 
ATOM     16  C   UNL     1      43.785 131.643  17.191  1.00  0.00     0.157 A 
ATOM     17  C   UNL     1      41.585 132.814  19.665  1.00  0.00     0.083 A 
ATOM     18  N   UNL     1      41.884 132.654  18.357  1.00  0.00    -0.359 N 
ATOM     19  F   UNL     1      46.714 130.147  18.861  1.00  0.00    -0.206 F 
ATOM     20  F   UNL     1      43.292 131.901  15.953  1.00  0.00    -0.204 F 
ATOM     21  H   UNL     1      41.316 132.980  17.544  1.00  0.00     0.166 HD
BRANCH  13  22
ATOM     22  C   UNL     1      45.837 130.601  16.195  1.00  0.00    -0.016 A 
ATOM     23  C   UNL     1      46.243 129.246  16.020  1.00  0.00    -0.013 A 
ATOM     24  C   UNL     1      46.216 131.578  15.245  1.00  0.00     0.016 A 
ATOM     25  N   UNL     1      46.996 128.860  14.946  1.00  0.00    -0.442 NA
ATOM     26  C   UNL     1      46.978 131.156  14.169  1.00  0.00    -0.026 A 
ATOM     27  C   UNL     1      47.360 129.792  14.036  1.00  0.00    -0.052 A 
ATOM     28  C   UNL     1      47.517 131.804  13.088  1.00  0.00     0.003 A 
ATOM     29  N   UNL     1      48.097 129.588  12.933  1.00  0.00    -0.442 NA
ATOM     30  C   UNL     1      48.188 130.818  12.360  1.00  0.00    -0.022 A 
ENDBRANCH  13  22
ENDBRANCH   9  10
ENDBRANCH   1   9
TORSDOF 6
ENDMDL
MODEL 7
REMARK VINA RESULT:      -6.7      1.171      1.410
REMARK SMILES OC(CCc1c(F)c(-c2c[n-]c3nccc-3c2)c(F)c2[nH]ccc12)=C1CCC1
REMARK SMILES IDX 3 1 2 2 1 3 25 5 26 6 28 7 27 8 4 9 5 10 6 11 24 12 8 13
REMARK SMILES IDX 23 14 20 15 18 16 22 17 21 18 7 19 19 20 9 22 10 23 17 24
REMARK SMILES IDX 11 25 16 26 12 27 15 28 13 29 14 30
REMARK H PARENT 1 4 21 21
ROOT
ATOM      1  C   UNL     1      44.277 130.880  22.473  1.00  0.00     0.079 C 
ENDROOT
BRANCH   1   2
ATOM      2  C   UNL     1      44.244 129.658  23.348  1.00  0.00     0.092 C 
BRANCH   2   3
ATOM      3  O   UNL     1      43.627 129.739  24.595  1.00  0.00    -0.512 OA
ATOM      4  H   UNL     1      42.658 130.020  24.694  1.00  0.00     0.293 HD
ENDBRANCH   2   3
BRANCH   2   5
ATOM      5  C   UNL     1      44.824 128.520  22.959  1.00  0.00    -0.033 C 
ATOM      6  C   UNL     1      45.217 127.189  23.574  1.00  0.00     0.035 C 
ATOM      7  C   UNL     1      45.387 127.947  21.673  1.00  0.00     0.035 C 
ATOM      8  C   UNL     1      45.763 126.641  22.296  1.00  0.00     0.009 C 
ENDBRANCH   2   5
ENDBRANCH   1   2
BRANCH   1   9
ATOM      9  C   UNL     1      45.250 130.706  21.298  1.00  0.00     0.047 C 
BRANCH   9  10
ATOM     10  C   UNL     1      44.607 131.075  19.981  1.00  0.00    -0.002 A 
ATOM     11  C   UNL     1      45.284 130.850  18.759  1.00  0.00     0.137 A 
ATOM     12  C   UNL     1      43.370 131.731  19.921  1.00  0.00     0.009 A 
ATOM     13  C   UNL     1      44.719 131.273  17.525  1.00  0.00     0.055 A 
ATOM     14  C   UNL     1      42.494 132.119  20.919  1.00  0.00     0.028 A 
ATOM     15  C   UNL     1      42.826 132.143  18.733  1.00  0.00     0.083 A 
ATOM     16  C   UNL     1      43.468 131.932  17.517  1.00  0.00     0.157 A 
ATOM     17  C   UNL     1      41.446 132.757  20.267  1.00  0.00     0.083 A 
ATOM     18  N   UNL     1      41.653 132.767  18.931  1.00  0.00    -0.359 N 
ATOM     19  F   UNL     1      46.511 130.267  18.774  1.00  0.00    -0.206 F 
ATOM     20  F   UNL     1      42.889 132.338  16.359  1.00  0.00    -0.204 F 
ATOM     21  H   UNL     1      41.028 133.187  18.207  1.00  0.00     0.166 HD
BRANCH  13  22
ATOM     22  C   UNL     1      45.447 131.046  16.255  1.00  0.00    -0.016 A 
ATOM     23  C   UNL     1      45.076 131.762  15.080  1.00  0.00    -0.013 A 
ATOM     24  C   UNL     1      46.508 130.113  16.206  1.00  0.00     0.016 A 
ATOM     25  N   UNL     1      45.727 131.570  13.893  1.00  0.00    -0.442 NA
ATOM     26  C   UNL     1      47.148 129.942  14.991  1.00  0.00    -0.026 A 
ATOM     27  C   UNL     1      46.743 130.679  13.843  1.00  0.00    -0.052 A 
ATOM     28  C   UNL     1      48.184 129.144  14.578  1.00  0.00     0.003 A 
ATOM     29  N   UNL     1      47.482 130.367  12.766  1.00  0.00    -0.442 NA
ATOM     30  C   UNL     1      48.357 129.432  13.222  1.00  0.00    -0.022 A 
ENDBRANCH  13  22
ENDBRANCH   9  10
ENDBRANCH   1   9
TORSDOF 6
ENDMDL
MODEL 8
REMARK VINA RESULT:      -6.4      3.945      6.958
REMARK SMILES OC(CCc1c(F)c(-c2c[n-]c3nccc-3c2)c(F)c2[nH]ccc12)=C1CCC1
REMARK SMILES IDX 3 1 2 2 1 3 25 5 26 6 28 7 27 8 4 9 5 10 6 11 24 12 8 13
REMARK SMILES IDX 23 14 20 15 18 16 22 17 21 18 7 19 19 20 9 22 10 23 17 24
REMARK SMILES IDX 11 25 16 26 12 27 15 28 13 29 14 30
REMARK H PARENT 1 4 21 21
ROOT
ATOM      1  C   UNL     1      45.517 130.595  19.438  1.00  0.00     0.079 C 
ENDROOT
BRANCH   1   2
ATOM      2  C   UNL     1      44.627 131.395  18.529  1.00  0.00     0.092 C 
BRANCH   2   3
ATOM      3  O   UNL     1      45.025 131.604  17.209  1.00  0.00    -0.512 OA
ATOM      4  H   UNL     1      44.991 130.863  16.518  1.00  0.00     0.293 HD
ENDBRANCH   2   3
BRANCH   2   5
ATOM      5  C   UNL     1      43.490 131.931  18.979  1.00  0.00    -0.033 C 
ATOM      6  C   UNL     1      42.001 131.653  18.888  1.00  0.00     0.035 C 
ATOM      7  C   UNL     1      43.087 133.107  19.846  1.00  0.00     0.035 C 
ATOM      8  C   UNL     1      41.625 132.814  19.749  1.00  0.00     0.009 C 
ENDBRANCH   2   5
ENDBRANCH   1   2
BRANCH   1   9
ATOM      9  C   UNL     1      45.502 131.147  20.871  1.00  0.00     0.047 C 
BRANCH   9  10
ATOM     10  C   UNL     1      44.876 130.171  21.840  1.00  0.00    -0.002 A 
ATOM     11  C   UNL     1      45.210 128.796  21.796  1.00  0.00     0.137 A 
ATOM     12  C   UNL     1      43.886 130.566  22.750  1.00  0.00     0.009 A 
ATOM     13  C   UNL     1      44.561 127.863  22.649  1.00  0.00     0.055 A 
ATOM     14  C   UNL     1      43.325 131.804  23.007  1.00  0.00     0.028 A 
ATOM     15  C   UNL     1      43.257 129.667  23.570  1.00  0.00     0.083 A 
ATOM     16  C   UNL     1      43.567 128.310  23.549  1.00  0.00     0.157 A 
ATOM     17  C   UNL     1      42.369 131.581  23.990  1.00  0.00     0.083 A 
ATOM     18  N   UNL     1      42.332 130.274  24.332  1.00  0.00    -0.359 N 
ATOM     19  F   UNL     1      46.125 128.361  20.892  1.00  0.00    -0.206 F 
ATOM     20  F   UNL     1      42.935 127.452  24.390  1.00  0.00    -0.204 F 
ATOM     21  H   UNL     1      41.702 129.832  25.037  1.00  0.00     0.166 HD
BRANCH  13  22
ATOM     22  C   UNL     1      44.907 126.424  22.580  1.00  0.00    -0.016 A 
ATOM     23  C   UNL     1      43.886 125.451  22.374  1.00  0.00    -0.013 A 
ATOM     24  C   UNL     1      46.253 126.014  22.723  1.00  0.00     0.016 A 
ATOM     25  N   UNL     1      44.176 124.116  22.310  1.00  0.00    -0.442 NA
ATOM     26  C   UNL     1      46.514 124.656  22.653  1.00  0.00    -0.026 A 
ATOM     27  C   UNL     1      45.462 123.721  22.447  1.00  0.00    -0.052 A 
ATOM     28  C   UNL     1      47.662 123.914  22.750  1.00  0.00     0.003 A 
ATOM     29  N   UNL     1      45.918 122.459  22.414  1.00  0.00    -0.442 NA
ATOM     30  C   UNL     1      47.259 122.585  22.599  1.00  0.00    -0.022 A 
ENDBRANCH  13  22
ENDBRANCH   9  10
ENDBRANCH   1   9
TORSDOF 6
ENDMDL
MODEL 9
REMARK VINA RESULT:      -6.1      1.426      2.063
REMARK SMILES OC(CCc1c(F)c(-c2c[n-]c3nccc-3c2)c(F)c2[nH]ccc12)=C1CCC1
REMARK SMILES IDX 3 1 2 2 1 3 25 5 26 6 28 7 27 8 4 9 5 10 6 11 24 12 8 13
REMARK SMILES IDX 23 14 20 15 18 16 22 17 21 18 7 19 19 20 9 22 10 23 17 24
REMARK SMILES IDX 11 25 16 26 12 27 15 28 13 29 14 30
REMARK H PARENT 1 4 21 21
ROOT
ATOM      1  C   UNL     1      45.554 129.291  21.165  1.00  0.00     0.079 C 
ENDROOT
BRANCH   1   2
ATOM      2  C   UNL     1      44.969 128.775  22.450  1.00  0.00     0.092 C 
BRANCH   2   3
ATOM      3  O   UNL     1      45.289 127.483  22.864  1.00  0.00    -0.512 OA
ATOM      4  H   UNL     1      45.602 126.774  22.210  1.00  0.00     0.293 HD
ENDBRANCH   2   3
BRANCH   2   5
ATOM      5  C   UNL     1      44.129 129.521  23.169  1.00  0.00    -0.033 C 
ATOM      6  C   UNL     1      43.944 129.928  24.620  1.00  0.00     0.035 C 
ATOM      7  C   UNL     1      42.909 130.383  22.907  1.00  0.00     0.035 C 
ATOM      8  C   UNL     1      42.746 130.776  24.339  1.00  0.00     0.009 C 
ENDBRANCH   2   5
ENDBRANCH   1   2
BRANCH   1   9
ATOM      9  C   UNL     1      45.169 130.757  20.919  1.00  0.00     0.047 C 
BRANCH   9  10
ATOM     10  C   UNL     1      44.733 130.987  19.490  1.00  0.00    -0.002 A 
ATOM     11  C   UNL     1      45.576 130.628  18.411  1.00  0.00     0.137 A 
ATOM     12  C   UNL     1      43.532 131.641  19.180  1.00  0.00     0.009 A 
ATOM     13  C   UNL     1      45.206 130.921  17.071  1.00  0.00     0.055 A 
ATOM     14  C   UNL     1      42.529 132.139  19.992  1.00  0.00     0.028 A 
ATOM     15  C   UNL     1      43.177 131.927  17.889  1.00  0.00     0.083 A 
ATOM     16  C   UNL     1      43.985 131.583  16.809  1.00  0.00     0.157 A 
ATOM     17  C   UNL     1      41.602 132.710  19.129  1.00  0.00     0.083 A 
ATOM     18  N   UNL     1      42.001 132.576  17.845  1.00  0.00    -0.359 N 
ATOM     19  F   UNL     1      46.774 130.043  18.668  1.00  0.00    -0.206 F 
ATOM     20  F   UNL     1      43.589 131.867  15.542  1.00  0.00    -0.204 F 
ATOM     21  H   UNL     1      41.499 132.920  16.997  1.00  0.00     0.166 HD
BRANCH  13  22
ATOM     22  C   UNL     1      46.106 130.555  15.953  1.00  0.00    -0.016 A 
ATOM     23  C   UNL     1      46.890 129.367  16.024  1.00  0.00    -0.013 A 
ATOM     24  C   UNL     1      46.192 131.388  14.813  1.00  0.00     0.016 A 
ATOM     25  N   UNL     1      47.733 129.006  15.010  1.00  0.00    -0.442 NA
ATOM     26  C   UNL     1      47.053 130.995  13.803  1.00  0.00    -0.026 A 
ATOM     27  C   UNL     1      47.817 129.800  13.918  1.00  0.00    -0.052 A 
ATOM     28  C   UNL     1      47.389 131.539  12.590  1.00  0.00     0.003 A 
ATOM     29  N   UNL     1      48.591 129.599  12.840  1.00  0.00    -0.442 NA
ATOM     30  C   UNL     1      48.325 130.662  12.036  1.00  0.00    -0.022 A 
ENDBRANCH  13  22
ENDBRANCH   9  10
ENDBRANCH   1   9
TORSDOF 6
ENDMDL


