REMARK SMILES Cn1cc2cc/c(=[NH+]/c3cccc(N)c3O)cc-2[nH]1
REMARK SMILES IDX 15 1 13 2 12 3 11 4 10 5 9 6 16 7 14 9 8 12 7 14 6 15 17 16
REMARK SMILES IDX 5 17 18 18 4 19 19 20 3 21 2 22 1 24
REMARK H PARENT 16 8 14 10 14 11 8 13 19 23
ROOT
ATOM      1  C   UNL     1      -1.137   0.821   3.124  1.00  0.00     0.211 A 
ATOM      2  C   UNL     1      -0.728   1.584   4.235  1.00  0.00     0.081 A 
ATOM      3  C   UNL     1      -0.074   2.808   4.035  1.00  0.00     0.030 A 
ATOM      4  C   UNL     1       0.167   3.277   2.743  1.00  0.00     0.009 A 
ATOM      5  C   UNL     1      -0.241   2.527   1.639  1.00  0.00     0.083 A 
ATOM      6  C   UNL     1      -0.880   1.290   1.819  1.00  0.00     0.248 A 
ENDROOT
BRANCH   1   7
ATOM      7  O   UNL     1      -1.784  -0.400   3.332  1.00  0.00    -0.501 OA
ATOM      8  H   UNL     1      -2.075  -1.000   2.571  1.00  0.00     0.293 HD
ENDBRANCH   1   7
BRANCH   2   9
ATOM      9  N   UNL     1      -0.971   1.123   5.569  1.00  0.00    -0.396 N 
ATOM     10  H   UNL     1      -0.667   1.689   6.392  1.00  0.00     0.156 HD
ATOM     11  H   UNL     1      -1.456   0.216   5.752  1.00  0.00     0.156 HD
ENDBRANCH   2   9
BRANCH   6  12
ATOM     12  N   UNL     1      -1.338   0.550   0.675  1.00  0.00    -0.202 N 
ATOM     13  H   UNL     1      -2.374   0.421   0.604  1.00  0.00     0.454 HD
BRANCH  12  14
ATOM     14  C   UNL     1      -0.560   0.035  -0.247  1.00  0.00     0.206 A 
ATOM     15  C   UNL     1      -1.158  -0.626  -1.365  1.00  0.00     0.080 A 
ATOM     16  C   UNL     1       0.861   0.100  -0.149  1.00  0.00     0.107 A 
ATOM     17  C   UNL     1      -0.387  -1.206  -2.391  1.00  0.00     0.019 A 
ATOM     18  C   UNL     1       1.608  -0.479  -1.164  1.00  0.00     0.070 A 
ATOM     19  C   UNL     1       0.989  -1.125  -2.276  1.00  0.00     0.018 A 
ATOM     20  N   UNL     1       2.940  -0.542  -1.312  1.00  0.00    -0.298 N 
ATOM     21  C   UNL     1       2.037  -1.554  -3.062  1.00  0.00     0.114 A 
ATOM     22  N   UNL     1       3.192  -1.196  -2.444  1.00  0.00    -0.297 N 
ATOM     23  H   UNL     1       3.662  -0.144  -0.670  1.00  0.00     0.188 HD
ATOM     24  C   UNL     1       4.531  -1.401  -2.982  1.00  0.00     0.171 C 
ENDBRANCH  12  14
ENDBRANCH   6  12
TORSDOF 4


