MODEL 1
REMARK VINA RESULT:      -7.8      0.000      0.000
REMARK SMILES C=Cc1cccc(-c2ccc3c(c2)[C@H](/N=C(\O)[N-]c2cc(F)cc(OC)c2)CC3)c1
REMARK SMILES IDX 16 1 17 2 15 4 14 5 12 6 28 7 13 8 11 9 29 10 8 11 10 12
REMARK SMILES IDX 9 13 7 14 6 15 30 16 5 17 3 18 4 19 2 20 1 21 18 22 19 23
REMARK SMILES IDX 20 24 27 25 21 26 24 27 23 28 22 29 25 30 26 31
REMARK H PARENT 17 3
ROOT
ATOM      1  C   UNL     1      45.487 130.940  19.316  1.00  0.00     0.094 C 
ENDROOT
BRANCH   1   2
ATOM      2  O   UNL     1      46.663 130.300  18.933  1.00  0.00    -0.516 OA
ATOM      3  H   UNL     1      47.092 129.604  19.530  1.00  0.00     0.292 HD
ENDBRANCH   1   2
BRANCH   1   4
ATOM      4  N   UNL     1      45.227 131.137  20.574  1.00  0.00    -0.427 NA
BRANCH   4   5
ATOM      5  C   UNL     1      43.987 130.754  21.242  1.00  0.00     0.024 C 
ATOM      6  C   UNL     1      44.288 129.709  22.250  1.00  0.00    -0.042 A 
ATOM      7  C   UNL     1      43.407 131.920  22.083  1.00  0.00     0.012 C 
ATOM      8  C   UNL     1      44.843 128.451  22.001  1.00  0.00     0.013 A 
ATOM      9  C   UNL     1      44.016 130.125  23.527  1.00  0.00    -0.045 A 
ATOM     10  C   UNL     1      43.482 131.504  23.567  1.00  0.00     0.036 C 
ATOM     11  C   UNL     1      45.128 127.598  23.089  1.00  0.00    -0.018 A 
ATOM     12  C   UNL     1      44.278 129.303  24.623  1.00  0.00     0.004 A 
ATOM     13  C   UNL     1      44.832 128.034  24.402  1.00  0.00     0.009 A 
BRANCH  11  14
ATOM     14  C   UNL     1      45.753 126.272  22.857  1.00  0.00    -0.018 A 
ATOM     15  C   UNL     1      44.978 125.101  22.904  1.00  0.00     0.009 A 
ATOM     16  C   UNL     1      47.133 126.170  22.598  1.00  0.00     0.016 A 
ATOM     17  C   UNL     1      45.570 123.854  22.698  1.00  0.00     0.001 A 
ATOM     18  C   UNL     1      47.736 124.914  22.375  1.00  0.00    -0.026 A 
ATOM     19  C   UNL     1      46.940 123.760  22.438  1.00  0.00     0.008 A 
BRANCH  18  20
ATOM     20  C   UNL     1      49.188 124.759  22.111  1.00  0.00     0.000 C 
ATOM     21  C   UNL     1      50.060 124.250  22.983  1.00  0.00     0.009 C 
ENDBRANCH  18  20
ENDBRANCH  11  14
ENDBRANCH   4   5
ENDBRANCH   1   4
BRANCH   1  22
ATOM     22  N   UNL     1      44.581 131.407  18.307  1.00  0.00    -0.405 NA
BRANCH  22  23
ATOM     23  C   UNL     1      44.779 131.358  16.883  1.00  0.00    -0.033 A 
ATOM     24  C   UNL     1      43.681 131.589  16.045  1.00  0.00     0.043 A 
ATOM     25  C   UNL     1      46.045 131.128  16.309  1.00  0.00     0.050 A 
ATOM     26  C   UNL     1      43.829 131.541  14.657  1.00  0.00     0.127 A 
ATOM     27  C   UNL     1      46.194 131.056  14.910  1.00  0.00     0.122 A 
ATOM     28  C   UNL     1      45.077 131.267  14.093  1.00  0.00     0.085 A 
ATOM     29  F   UNL     1      42.757 131.756  13.855  1.00  0.00    -0.207 F 
BRANCH  27  30
ATOM     30  O   UNL     1      47.425 130.776  14.299  1.00  0.00    -0.497 OA
ATOM     31  C   UNL     1      47.853 129.471  13.913  1.00  0.00     0.278 C 
ENDBRANCH  27  30
ENDBRANCH  22  23
ENDBRANCH   1  22
TORSDOF 8
ENDMDL
MODEL 2
REMARK VINA RESULT:      -6.4      4.100      6.684
REMARK SMILES C=Cc1cccc(-c2ccc3c(c2)[C@H](/N=C(\O)[N-]c2cc(F)cc(OC)c2)CC3)c1
REMARK SMILES IDX 16 1 17 2 15 4 14 5 12 6 28 7 13 8 11 9 29 10 8 11 10 12
REMARK SMILES IDX 9 13 7 14 6 15 30 16 5 17 3 18 4 19 2 20 1 21 18 22 19 23
REMARK SMILES IDX 20 24 27 25 21 26 24 27 23 28 22 29 25 30 26 31
REMARK H PARENT 17 3
ROOT
ATOM      1  C   UNL     1      43.795 131.654  18.926  1.00  0.00     0.094 C 
ENDROOT
BRANCH   1   2
ATOM      2  O   UNL     1      42.518 131.902  18.426  1.00  0.00    -0.516 OA
ATOM      3  H   UNL     1      41.759 132.153  19.048  1.00  0.00     0.292 HD
ENDBRANCH   1   2
BRANCH   1   4
ATOM      4  N   UNL     1      44.140 132.099  20.096  1.00  0.00    -0.427 NA
BRANCH   4   5
ATOM      5  C   UNL     1      44.790 131.307  21.136  1.00  0.00     0.024 C 
ATOM      6  C   UNL     1      45.540 132.218  22.033  1.00  0.00    -0.042 A 
ATOM      7  C   UNL     1      43.756 130.636  22.075  1.00  0.00     0.012 C 
ATOM      8  C   UNL     1      46.587 133.069  21.668  1.00  0.00     0.013 A 
ATOM      9  C   UNL     1      45.055 132.201  23.315  1.00  0.00    -0.045 A 
ATOM     10  C   UNL     1      43.918 131.268  23.472  1.00  0.00     0.036 C 
ATOM     11  C   UNL     1      47.151 133.924  22.639  1.00  0.00    -0.018 A 
ATOM     12  C   UNL     1      45.596 133.026  24.301  1.00  0.00     0.004 A 
ATOM     13  C   UNL     1      46.650 133.888  23.961  1.00  0.00     0.009 A 
BRANCH  11  14
ATOM     14  C   UNL     1      48.238 134.863  22.269  1.00  0.00    -0.018 A 
ATOM     15  C   UNL     1      49.456 134.855  22.969  1.00  0.00     0.009 A 
ATOM     16  C   UNL     1      48.057 135.784  21.219  1.00  0.00     0.016 A 
ATOM     17  C   UNL     1      50.472 135.749  22.627  1.00  0.00     0.001 A 
ATOM     18  C   UNL     1      49.085 136.681  20.859  1.00  0.00    -0.026 A 
ATOM     19  C   UNL     1      50.288 136.658  21.582  1.00  0.00     0.008 A 
BRANCH  18  20
ATOM     20  C   UNL     1      48.933 137.676  19.768  1.00  0.00     0.000 C 
ATOM     21  C   UNL     1      49.476 138.894  19.782  1.00  0.00     0.009 C 
ENDBRANCH  18  20
ENDBRANCH  11  14
ENDBRANCH   4   5
ENDBRANCH   1   4
BRANCH   1  22
ATOM     22  N   UNL     1      44.714 130.874  18.146  1.00  0.00    -0.405 NA
BRANCH  22  23
ATOM     23  C   UNL     1      44.952 130.984  16.732  1.00  0.00    -0.033 A 
ATOM     24  C   UNL     1      43.873 131.285  15.893  1.00  0.00     0.043 A 
ATOM     25  C   UNL     1      46.238 130.841  16.175  1.00  0.00     0.050 A 
ATOM     26  C   UNL     1      44.060 131.393  14.512  1.00  0.00     0.127 A 
ATOM     27  C   UNL     1      46.426 130.926  14.781  1.00  0.00     0.122 A 
ATOM     28  C   UNL     1      45.328 131.204  13.959  1.00  0.00     0.085 A 
ATOM     29  F   UNL     1      43.005 131.674  13.707  1.00  0.00    -0.207 F 
BRANCH  27  30
ATOM     30  O   UNL     1      47.680 130.737  14.179  1.00  0.00    -0.497 OA
ATOM     31  C   UNL     1      48.139 129.494  13.653  1.00  0.00     0.278 C 
ENDBRANCH  27  30
ENDBRANCH  22  23
ENDBRANCH   1  22
TORSDOF 8
ENDMDL
MODEL 3
REMARK VINA RESULT:      -5.0      1.845      2.271
REMARK SMILES C=Cc1cccc(-c2ccc3c(c2)[C@H](/N=C(\O)[N-]c2cc(F)cc(OC)c2)CC3)c1
REMARK SMILES IDX 16 1 17 2 15 4 14 5 12 6 28 7 13 8 11 9 29 10 8 11 10 12
REMARK SMILES IDX 9 13 7 14 6 15 30 16 5 17 3 18 4 19 2 20 1 21 18 22 19 23
REMARK SMILES IDX 20 24 27 25 21 26 24 27 23 28 22 29 25 30 26 31
REMARK H PARENT 17 3
ROOT
ATOM      1  C   UNL     1      45.233 130.601  20.042  1.00  0.00     0.094 C 
ENDROOT
BRANCH   1   2
ATOM      2  O   UNL     1      45.996 130.013  21.048  1.00  0.00    -0.516 OA
ATOM      3  H   UNL     1      45.599 129.838  21.963  1.00  0.00     0.292 HD
ENDBRANCH   1   2
BRANCH   1   4
ATOM      4  N   UNL     1      43.936 130.601  20.116  1.00  0.00    -0.427 NA
BRANCH   4   5
ATOM      5  C   UNL     1      43.163 131.033  21.276  1.00  0.00     0.024 C 
ATOM      6  C   UNL     1      43.402 130.086  22.392  1.00  0.00    -0.042 A 
ATOM      7  C   UNL     1      43.671 132.389  21.830  1.00  0.00     0.012 C 
ATOM      8  C   UNL     1      43.122 128.717  22.394  1.00  0.00     0.013 A 
ATOM      9  C   UNL     1      44.012 130.688  23.463  1.00  0.00    -0.045 A 
ATOM     10  C   UNL     1      44.260 132.127  23.231  1.00  0.00     0.036 C 
ATOM     11  C   UNL     1      43.476 127.944  23.521  1.00  0.00    -0.018 A 
ATOM     12  C   UNL     1      44.365 129.954  24.595  1.00  0.00     0.004 A 
ATOM     13  C   UNL     1      44.093 128.578  24.624  1.00  0.00     0.009 A 
BRANCH  11  14
ATOM     14  C   UNL     1      43.224 126.482  23.535  1.00  0.00    -0.018 A 
ATOM     15  C   UNL     1      42.059 125.965  24.125  1.00  0.00     0.009 A 
ATOM     16  C   UNL     1      44.157 125.594  22.966  1.00  0.00     0.016 A 
ATOM     17  C   UNL     1      41.831 124.588  24.147  1.00  0.00     0.001 A 
ATOM     18  C   UNL     1      43.926 124.202  22.973  1.00  0.00    -0.026 A 
ATOM     19  C   UNL     1      42.759 123.712  23.579  1.00  0.00     0.008 A 
BRANCH  18  20
ATOM     20  C   UNL     1      44.888 123.228  22.397  1.00  0.00     0.000 C 
ATOM     21  C   UNL     1      45.634 122.392  23.120  1.00  0.00     0.009 C 
ENDBRANCH  18  20
ENDBRANCH  11  14
ENDBRANCH   4   5
ENDBRANCH   1   4
BRANCH   1  22
ATOM     22  N   UNL     1      45.896 131.235  18.938  1.00  0.00    -0.405 NA
BRANCH  22  23
ATOM     23  C   UNL     1      45.658 130.997  17.540  1.00  0.00    -0.033 A 
ATOM     24  C   UNL     1      44.523 131.563  16.948  1.00  0.00     0.043 A 
ATOM     25  C   UNL     1      46.551 130.253  16.743  1.00  0.00     0.050 A 
ATOM     26  C   UNL     1      44.251 131.349  15.594  1.00  0.00     0.127 A 
ATOM     27  C   UNL     1      46.268 130.016  15.384  1.00  0.00     0.122 A 
ATOM     28  C   UNL     1      45.115 130.572  14.819  1.00  0.00     0.085 A 
ATOM     29  F   UNL     1      43.143 131.893  15.033  1.00  0.00    -0.207 F 
BRANCH  27  30
ATOM     30  O   UNL     1      47.102 129.236  14.568  1.00  0.00    -0.497 OA
ATOM     31  C   UNL     1      47.858 129.744  13.471  1.00  0.00     0.278 C 
ENDBRANCH  27  30
ENDBRANCH  22  23
ENDBRANCH   1  22
TORSDOF 8
ENDMDL


