REMARK SMILES Cc1ccc(-c2ccc(NC3CC(=O)C3)c(C=O)c2)cc1
REMARK SMILES IDX 6 1 7 2 8 3 9 4 16 5 19 6 5 7 2 8 3 9 21 10 4 11 20 12 1 13
REMARK SMILES IDX 17 14 18 15 10 16 11 18 12 19 15 20 13 21 14 22
REMARK H PARENT 10 17
ROOT
ATOM      1  C   UNL     1      -0.063   0.274  -1.369  1.00  0.00    -0.018 A 
ATOM      2  C   UNL     1      -1.136   0.936  -0.755  1.00  0.00     0.011 A 
ATOM      3  C   UNL     1      -1.293   0.898   0.630  1.00  0.00     0.027 A 
ATOM      4  C   UNL     1      -0.386   0.193   1.440  1.00  0.00     0.045 A 
ATOM      5  C   UNL     1       0.682  -0.511   0.826  1.00  0.00     0.038 A 
ATOM      6  C   UNL     1       0.840  -0.444  -0.569  1.00  0.00     0.022 A 
ENDROOT
BRANCH   1   7
ATOM      7  C   UNL     1       0.111   0.325  -2.844  1.00  0.00    -0.018 A 
ATOM      8  C   UNL     1       0.445   0.410  -5.643  1.00  0.00    -0.051 A 
ATOM      9  C   UNL     1       1.554   0.531  -4.794  1.00  0.00     0.004 A 
ATOM     10  C   UNL     1      -0.835   0.271  -5.087  1.00  0.00     0.004 A 
ATOM     11  C   UNL     1       1.390   0.483  -3.407  1.00  0.00     0.009 A 
ATOM     12  C   UNL     1      -1.000   0.223  -3.700  1.00  0.00     0.009 A 
ATOM     13  C   UNL     1       0.617   0.501  -7.130  1.00  0.00     0.044 C 
ENDBRANCH   1   7
BRANCH   5  14
ATOM     14  C   UNL     1       1.625  -1.366   1.582  1.00  0.00     0.262 C 
ATOM     15  O   UNL     1       1.336  -1.829   2.717  1.00  0.00    -0.298 OA
ENDBRANCH   5  14
BRANCH   4  16
ATOM     16  N   UNL     1      -0.515   0.244   2.874  1.00  0.00    -0.381 N 
ATOM     17  H   UNL     1       0.356   0.276   3.450  1.00  0.00     0.160 HD
BRANCH  16  18
ATOM     18  C   UNL     1      -1.809   0.383   3.552  1.00  0.00     0.094 C 
ATOM     19  C   UNL     1      -2.719  -0.787   3.311  1.00  0.00     0.100 C 
ATOM     20  C   UNL     1      -1.771  -0.051   4.990  1.00  0.00     0.100 C 
ATOM     21  C   UNL     1      -2.700  -1.229   4.763  1.00  0.00     0.137 C 
ATOM     22  O   UNL     1      -3.199  -2.118   5.433  1.00  0.00    -0.300 OA
ENDBRANCH  16  18
ENDBRANCH   4  16
TORSDOF 4


