REMARK SMILES CC(=O)Nc1cc(F)c(-c2ccc(C)cc2)cc1C=O
REMARK SMILES IDX 5 1 6 2 7 3 8 4 9 5 17 6 18 7 4 8 2 9 1 10 3 11 19 13 20 14
REMARK SMILES IDX 10 15 11 16 16 17 12 18 15 19 13 20 14 21
REMARK H PARENT 4 12
ROOT
ATOM      1  C   UNL     1       2.035  -0.104   1.462  1.00  0.00     0.054 A 
ATOM      2  C   UNL     1       0.838  -0.777   1.755  1.00  0.00     0.066 A 
ATOM      3  C   UNL     1      -0.323  -0.526   1.023  1.00  0.00     0.133 A 
ATOM      4  F   UNL     1      -1.449  -1.224   1.318  1.00  0.00    -0.206 F 
ATOM      5  C   UNL     1      -0.315   0.421  -0.014  1.00  0.00     0.018 A 
ATOM      6  C   UNL     1       0.880   1.096  -0.313  1.00  0.00     0.025 A 
ATOM      7  C   UNL     1       2.059   0.841   0.407  1.00  0.00     0.039 A 
ENDROOT
BRANCH   1   8
ATOM      8  N   UNL     1       3.187  -0.324   2.293  1.00  0.00    -0.326 N 
ATOM      9  C   UNL     1       3.651  -1.633   2.656  1.00  0.00     0.221 C 
ATOM     10  C   UNL     1       4.775  -1.781   3.628  1.00  0.00     0.114 C 
ATOM     11  O   UNL     1       3.160  -2.659   2.113  1.00  0.00    -0.275 OA
ATOM     12  H   UNL     1       3.712   0.505   2.650  1.00  0.00     0.169 HD
ENDBRANCH   1   8
BRANCH   7  13
ATOM     13  C   UNL     1       3.288   1.558  -0.005  1.00  0.00     0.262 C 
ATOM     14  O   UNL     1       4.432   1.187   0.367  1.00  0.00    -0.298 OA
ENDBRANCH   7  13
BRANCH   5  15
ATOM     15  C   UNL     1      -1.543   0.709  -0.794  1.00  0.00    -0.015 A 
ATOM     16  C   UNL     1      -2.764   0.954  -0.142  1.00  0.00     0.009 A 
ATOM     17  C   UNL     1      -1.498   0.762  -2.198  1.00  0.00     0.009 A 
ATOM     18  C   UNL     1      -3.918   1.232  -0.879  1.00  0.00     0.004 A 
ATOM     19  C   UNL     1      -2.653   1.040  -2.935  1.00  0.00     0.004 A 
ATOM     20  C   UNL     1      -3.873   1.261  -2.281  1.00  0.00    -0.051 A 
ATOM     21  C   UNL     1      -5.104   1.599  -3.070  1.00  0.00     0.044 C 
ENDBRANCH   5  15
TORSDOF 3


