MODEL 1
REMARK VINA RESULT:      -3.7      0.000      0.000
REMARK SMILES O=C(Nc1ccc(Br)nc1Cl)N(c1cn2ccccc2n1)c1cc2ccccc2[nH]1
REMARK SMILES IDX 1 1 2 2 3 3 12 5 13 6 14 7 21 8 15 9 20 10 16 11 19 12 17 13
REMARK SMILES IDX 18 14 22 15 23 16 30 17 24 18 29 19 25 20 28 21 26 22 27 23
REMARK SMILES IDX 4 25 5 26 10 27 6 28 9 29 7 30 11 31 8 32
REMARK H PARENT 3 4 30 24
ROOT
ATOM      1  O   UNL     1      48.089 131.740  20.753  1.00  0.00    -0.247 OA
ATOM      2  C   UNL     1      46.933 132.176  21.010  1.00  0.00     0.333 C 
ATOM      3  N   UNL     1      46.785 133.367  21.797  1.00  0.00    -0.304 N 
ATOM      4  H   UNL     1      45.923 133.466  22.379  1.00  0.00     0.172 HD
ENDROOT
BRANCH   2   5
ATOM      5  N   UNL     1      45.773 131.440  20.572  1.00  0.00    -0.230 N 
BRANCH   5   6
ATOM      6  C   UNL     1      45.517 131.224  19.167  1.00  0.00     0.161 A 
ATOM      7  C   UNL     1      46.206 130.344  18.339  1.00  0.00     0.140 A 
ATOM      8  N   UNL     1      44.602 131.927  18.453  1.00  0.00    -0.211 NA
ATOM      9  N   UNL     1      45.694 130.494  17.109  1.00  0.00    -0.305 N 
ATOM     10  C   UNL     1      44.744 131.439  17.205  1.00  0.00     0.139 A 
ATOM     11  C   UNL     1      46.016 129.868  15.949  1.00  0.00     0.093 A 
ATOM     12  C   UNL     1      44.016 131.836  16.085  1.00  0.00     0.048 A 
ATOM     13  C   UNL     1      45.314 130.225  14.789  1.00  0.00     0.018 A 
ATOM     14  C   UNL     1      44.310 131.212  14.862  1.00  0.00     0.005 A 
ENDBRANCH   5   6
BRANCH   5  15
ATOM     15  C   UNL     1      44.896 130.877  21.560  1.00  0.00     0.121 A 
ATOM     16  C   UNL     1      44.918 129.548  21.976  1.00  0.00     0.056 A 
ATOM     17  N   UNL     1      43.916 131.577  22.178  1.00  0.00    -0.341 N 
ATOM     18  C   UNL     1      43.898 129.457  22.898  1.00  0.00     0.002 A 
ATOM     19  C   UNL     1      43.316 130.696  22.996  1.00  0.00     0.047 A 
ATOM     20  C   UNL     1      43.448 128.372  23.647  1.00  0.00     0.010 A 
ATOM     21  C   UNL     1      42.243 130.934  23.854  1.00  0.00     0.027 A 
ATOM     22  C   UNL     1      42.366 128.582  24.521  1.00  0.00     0.001 A 
ATOM     23  C   UNL     1      41.766 129.858  24.624  1.00  0.00     0.002 A 
ATOM     24  H   UNL     1      43.683 132.588  22.056  1.00  0.00     0.168 HD
ENDBRANCH   5  15
ENDBRANCH   2   5
BRANCH   3  25
ATOM     25  C   UNL     1      47.875 134.266  22.051  1.00  0.00     0.080 A 
ATOM     26  C   UNL     1      48.323 135.110  21.028  1.00  0.00     0.032 A 
ATOM     27  C   UNL     1      48.541 134.297  23.293  1.00  0.00     0.153 A 
ATOM     28  C   UNL     1      49.378 135.994  21.257  1.00  0.00     0.038 A 
ATOM     29  N   UNL     1      49.571 135.166  23.486  1.00  0.00    -0.227 NA
ATOM     30  C   UNL     1      49.992 136.013  22.511  1.00  0.00     0.108 A 
ATOM     31  Cl  UNL     1      48.138 133.181  24.590  1.00  0.00    -0.060 Cl
ATOM     32  Br  UNL     1      51.437 137.208  22.856  1.00  0.00    -0.029 Br
ENDBRANCH   3  25
TORSDOF 4
ENDMDL
MODEL 2
REMARK VINA RESULT:      -3.1      1.177      1.674
REMARK SMILES O=C(Nc1ccc(Br)nc1Cl)N(c1cn2ccccc2n1)c1cc2ccccc2[nH]1
REMARK SMILES IDX 1 1 2 2 3 3 12 5 13 6 14 7 21 8 15 9 20 10 16 11 19 12 17 13
REMARK SMILES IDX 18 14 22 15 23 16 30 17 24 18 29 19 25 20 28 21 26 22 27 23
REMARK SMILES IDX 4 25 5 26 10 27 6 28 9 29 7 30 11 31 8 32
REMARK H PARENT 3 4 30 24
ROOT
ATOM      1  O   UNL     1      48.174 131.711  20.644  1.00  0.00    -0.247 OA
ATOM      2  C   UNL     1      47.061 132.147  21.050  1.00  0.00     0.333 C 
ATOM      3  N   UNL     1      47.029 133.216  22.008  1.00  0.00    -0.304 N 
ATOM      4  H   UNL     1      46.216 133.261  22.663  1.00  0.00     0.172 HD
ENDROOT
BRANCH   2   5
ATOM      5  N   UNL     1      45.839 131.527  20.603  1.00  0.00    -0.230 N 
BRANCH   5   6
ATOM      6  C   UNL     1      45.564 131.356  19.196  1.00  0.00     0.161 A 
ATOM      7  C   UNL     1      44.532 131.965  18.487  1.00  0.00     0.140 A 
ATOM      8  N   UNL     1      46.247 130.501  18.394  1.00  0.00    -0.211 NA
ATOM      9  N   UNL     1      44.598 131.494  17.234  1.00  0.00    -0.305 N 
ATOM     10  C   UNL     1      45.623 130.627  17.206  1.00  0.00     0.139 A 
ATOM     11  C   UNL     1      43.821 131.774  16.157  1.00  0.00     0.093 A 
ATOM     12  C   UNL     1      45.956 129.952  16.033  1.00  0.00     0.048 A 
ATOM     13  C   UNL     1      44.111 131.127  14.948  1.00  0.00     0.018 A 
ATOM     14  C   UNL     1      45.184 130.214  14.890  1.00  0.00     0.005 A 
ENDBRANCH   5   6
BRANCH   5  15
ATOM     15  C   UNL     1      44.915 131.032  21.584  1.00  0.00     0.121 A 
ATOM     16  C   UNL     1      44.878 129.720  22.049  1.00  0.00     0.056 A 
ATOM     17  N   UNL     1      43.943 131.788  22.147  1.00  0.00    -0.341 N 
ATOM     18  C   UNL     1      43.829 129.699  22.943  1.00  0.00     0.002 A 
ATOM     19  C   UNL     1      43.289 130.960  22.978  1.00  0.00     0.047 A 
ATOM     20  C   UNL     1      43.320 128.658  23.717  1.00  0.00     0.010 A 
ATOM     21  C   UNL     1      42.200 131.266  23.794  1.00  0.00     0.027 A 
ATOM     22  C   UNL     1      42.221 128.938  24.551  1.00  0.00     0.001 A 
ATOM     23  C   UNL     1      41.664 130.237  24.589  1.00  0.00     0.002 A 
ATOM     24  H   UNL     1      43.749 132.801  21.981  1.00  0.00     0.168 HD
ENDBRANCH   5  15
ENDBRANCH   2   5
BRANCH   3  25
ATOM     25  C   UNL     1      48.176 134.027  22.301  1.00  0.00     0.080 A 
ATOM     26  C   UNL     1      49.090 133.600  23.271  1.00  0.00     0.032 A 
ATOM     27  C   UNL     1      48.391 135.270  21.670  1.00  0.00     0.153 A 
ATOM     28  C   UNL     1      50.213 134.373  23.567  1.00  0.00     0.038 A 
ATOM     29  N   UNL     1      49.492 136.005  21.983  1.00  0.00    -0.227 NA
ATOM     30  C   UNL     1      50.404 135.584  22.899  1.00  0.00     0.108 A 
ATOM     31  Cl  UNL     1      47.227 135.949  20.541  1.00  0.00    -0.060 Cl
ATOM     32  Br  UNL     1      51.928 136.664  23.280  1.00  0.00    -0.029 Br
ENDBRANCH   3  25
TORSDOF 4
ENDMDL
MODEL 3
REMARK VINA RESULT:      -2.8      6.417      9.370
REMARK SMILES O=C(Nc1ccc(Br)nc1Cl)N(c1cn2ccccc2n1)c1cc2ccccc2[nH]1
REMARK SMILES IDX 1 1 2 2 3 3 12 5 13 6 14 7 21 8 15 9 20 10 16 11 19 12 17 13
REMARK SMILES IDX 18 14 22 15 23 16 30 17 24 18 29 19 25 20 28 21 26 22 27 23
REMARK SMILES IDX 4 25 5 26 10 27 6 28 9 29 7 30 11 31 8 32
REMARK H PARENT 3 4 30 24
ROOT
ATOM      1  O   UNL     1      43.906 124.715  21.670  1.00  0.00    -0.247 OA
ATOM      2  C   UNL     1      44.025 125.692  22.458  1.00  0.00     0.333 C 
ATOM      3  N   UNL     1      42.922 126.060  23.300  1.00  0.00    -0.304 N 
ATOM      4  H   UNL     1      42.831 127.063  23.578  1.00  0.00     0.172 HD
ENDROOT
BRANCH   2   5
ATOM      5  N   UNL     1      45.238 126.471  22.460  1.00  0.00    -0.230 N 
BRANCH   5   6
ATOM      6  C   UNL     1      45.237 127.851  22.034  1.00  0.00     0.161 A 
ATOM      7  C   UNL     1      45.935 128.369  20.948  1.00  0.00     0.140 A 
ATOM      8  N   UNL     1      44.601 128.845  22.704  1.00  0.00    -0.211 NA
ATOM      9  N   UNL     1      45.707 129.690  20.941  1.00  0.00    -0.305 N 
ATOM     10  C   UNL     1      44.913 129.946  21.993  1.00  0.00     0.139 A 
ATOM     11  C   UNL     1      46.154 130.646  20.088  1.00  0.00     0.093 A 
ATOM     12  C   UNL     1      44.492 131.244  22.272  1.00  0.00     0.048 A 
ATOM     13  C   UNL     1      45.760 131.972  20.317  1.00  0.00     0.018 A 
ATOM     14  C   UNL     1      44.925 132.268  21.413  1.00  0.00     0.005 A 
ENDBRANCH   5   6
BRANCH   5  15
ATOM     15  C   UNL     1      46.449 125.867  22.942  1.00  0.00     0.121 A 
ATOM     16  C   UNL     1      46.594 124.516  23.247  1.00  0.00     0.056 A 
ATOM     17  N   UNL     1      47.586 126.559  23.188  1.00  0.00    -0.341 N 
ATOM     18  C   UNL     1      47.893 124.399  23.693  1.00  0.00     0.002 A 
ATOM     19  C   UNL     1      48.462 125.647  23.644  1.00  0.00     0.047 A 
ATOM     20  C   UNL     1      48.602 123.285  24.136  1.00  0.00     0.010 A 
ATOM     21  C   UNL     1      49.782 125.865  24.035  1.00  0.00     0.027 A 
ATOM     22  C   UNL     1      49.937 123.474  24.538  1.00  0.00     0.001 A 
ATOM     23  C   UNL     1      50.524 124.759  24.488  1.00  0.00     0.002 A 
ATOM     24  H   UNL     1      47.752 127.580  23.043  1.00  0.00     0.168 HD
ENDBRANCH   5  15
ENDBRANCH   2   5
BRANCH   3  25
ATOM     25  C   UNL     1      41.798 125.195  23.523  1.00  0.00     0.080 A 
ATOM     26  C   UNL     1      40.501 125.701  23.374  1.00  0.00     0.032 A 
ATOM     27  C   UNL     1      41.958 123.855  23.932  1.00  0.00     0.153 A 
ATOM     28  C   UNL     1      39.396 124.875  23.582  1.00  0.00     0.038 A 
ATOM     29  N   UNL     1      40.862 123.075  24.134  1.00  0.00    -0.227 NA
ATOM     30  C   UNL     1      39.599 123.546  23.959  1.00  0.00     0.108 A 
ATOM     31  Cl  UNL     1      43.542 123.175  24.276  1.00  0.00    -0.060 Cl
ATOM     32  Br  UNL     1      38.111 122.391  24.253  1.00  0.00    -0.029 Br
ENDBRANCH   3  25
TORSDOF 4
ENDMDL
MODEL 4
REMARK VINA RESULT:      -2.7      0.896      5.701
REMARK SMILES O=C(Nc1ccc(Br)nc1Cl)N(c1cn2ccccc2n1)c1cc2ccccc2[nH]1
REMARK SMILES IDX 1 1 2 2 3 3 12 5 13 6 14 7 21 8 15 9 20 10 16 11 19 12 17 13
REMARK SMILES IDX 18 14 22 15 23 16 30 17 24 18 29 19 25 20 28 21 26 22 27 23
REMARK SMILES IDX 4 25 5 26 10 27 6 28 9 29 7 30 11 31 8 32
REMARK H PARENT 3 4 30 24
ROOT
ATOM      1  O   UNL     1      48.228 131.878  20.423  1.00  0.00    -0.247 OA
ATOM      2  C   UNL     1      47.048 132.165  20.767  1.00  0.00     0.333 C 
ATOM      3  N   UNL     1      46.813 133.319  21.589  1.00  0.00    -0.304 N 
ATOM      4  H   UNL     1      45.988 133.303  22.230  1.00  0.00     0.172 HD
ENDROOT
BRANCH   2   5
ATOM      5  N   UNL     1      45.959 131.300  20.391  1.00  0.00    -0.230 N 
BRANCH   5   6
ATOM      6  C   UNL     1      45.170 130.620  21.392  1.00  0.00     0.161 A 
ATOM      7  C   UNL     1      44.044 131.132  22.028  1.00  0.00     0.140 A 
ATOM      8  N   UNL     1      45.485 129.401  21.898  1.00  0.00    -0.211 NA
ATOM      9  N   UNL     1      43.653 130.210  22.918  1.00  0.00    -0.305 N 
ATOM     10  C   UNL     1      44.525 129.193  22.821  1.00  0.00     0.139 A 
ATOM     11  C   UNL     1      42.609 130.223  23.786  1.00  0.00     0.093 A 
ATOM     12  C   UNL     1      44.399 128.063  23.627  1.00  0.00     0.048 A 
ATOM     13  C   UNL     1      42.430 129.111  24.620  1.00  0.00     0.018 A 
ATOM     14  C   UNL     1      43.330 128.029  24.537  1.00  0.00     0.005 A 
ENDBRANCH   5   6
BRANCH   5  15
ATOM     15  C   UNL     1      45.634 131.160  18.999  1.00  0.00     0.121 A 
ATOM     16  C   UNL     1      44.874 132.069  18.267  1.00  0.00     0.056 A 
ATOM     17  N   UNL     1      46.007 130.100  18.245  1.00  0.00    -0.341 N 
ATOM     18  C   UNL     1      44.797 131.519  17.006  1.00  0.00     0.002 A 
ATOM     19  C   UNL     1      45.491 130.334  17.027  1.00  0.00     0.047 A 
ATOM     20  C   UNL     1      44.166 131.980  15.853  1.00  0.00     0.010 A 
ATOM     21  C   UNL     1      45.600 129.530  15.893  1.00  0.00     0.027 A 
ATOM     22  C   UNL     1      44.259 131.190  14.692  1.00  0.00     0.001 A 
ATOM     23  C   UNL     1      44.973 129.970  14.713  1.00  0.00     0.002 A 
ATOM     24  H   UNL     1      46.583 129.280  18.541  1.00  0.00     0.168 HD
ENDBRANCH   5  15
ENDBRANCH   2   5
BRANCH   3  25
ATOM     25  C   UNL     1      47.802 134.341  21.789  1.00  0.00     0.080 A 
ATOM     26  C   UNL     1      47.740 135.514  21.030  1.00  0.00     0.032 A 
ATOM     27  C   UNL     1      48.864 134.181  22.702  1.00  0.00     0.153 A 
ATOM     28  C   UNL     1      48.689 136.521  21.213  1.00  0.00     0.038 A 
ATOM     29  N   UNL     1      49.779 135.177  22.856  1.00  0.00    -0.227 NA
ATOM     30  C   UNL     1      49.709 136.334  22.148  1.00  0.00     0.108 A 
ATOM     31  Cl  UNL     1      49.099 132.687  23.598  1.00  0.00    -0.060 Cl
ATOM     32  Br  UNL     1      51.022 137.690  22.422  1.00  0.00    -0.029 Br
ENDBRANCH   3  25
TORSDOF 4
ENDMDL
MODEL 5
REMARK VINA RESULT:      -2.5      6.143      9.655
REMARK SMILES O=C(Nc1ccc(Br)nc1Cl)N(c1cn2ccccc2n1)c1cc2ccccc2[nH]1
REMARK SMILES IDX 1 1 2 2 3 3 12 5 13 6 14 7 21 8 15 9 20 10 16 11 19 12 17 13
REMARK SMILES IDX 18 14 22 15 23 16 30 17 24 18 29 19 25 20 28 21 26 22 27 23
REMARK SMILES IDX 4 25 5 26 10 27 6 28 9 29 7 30 11 31 8 32
REMARK H PARENT 3 4 30 24
ROOT
ATOM      1  O   UNL     1      42.747 127.491  24.348  1.00  0.00    -0.247 OA
ATOM      2  C   UNL     1      43.430 126.736  23.602  1.00  0.00     0.333 C 
ATOM      3  N   UNL     1      42.979 125.396  23.352  1.00  0.00    -0.304 N 
ATOM      4  H   UNL     1      43.701 124.666  23.157  1.00  0.00     0.172 HD
ENDROOT
BRANCH   2   5
ATOM      5  N   UNL     1      44.685 127.199  23.065  1.00  0.00    -0.230 N 
BRANCH   5   6
ATOM      6  C   UNL     1      45.884 126.404  23.187  1.00  0.00     0.161 A 
ATOM      7  C   UNL     1      46.851 126.534  24.179  1.00  0.00     0.140 A 
ATOM      8  N   UNL     1      46.259 125.464  22.282  1.00  0.00    -0.211 NA
ATOM      9  N   UNL     1      47.817 125.651  23.891  1.00  0.00    -0.305 N 
ATOM     10  C   UNL     1      47.442 125.030  22.761  1.00  0.00     0.139 A 
ATOM     11  C   UNL     1      48.975 125.381  24.547  1.00  0.00     0.093 A 
ATOM     12  C   UNL     1      48.242 124.045  22.187  1.00  0.00     0.048 A 
ATOM     13  C   UNL     1      49.820 124.396  24.017  1.00  0.00     0.018 A 
ATOM     14  C   UNL     1      49.448 123.727  22.833  1.00  0.00     0.005 A 
ENDBRANCH   5   6
BRANCH   5  15
ATOM     15  C   UNL     1      44.717 128.448  22.358  1.00  0.00     0.121 A 
ATOM     16  C   UNL     1      45.777 128.885  21.567  1.00  0.00     0.056 A 
ATOM     17  N   UNL     1      43.722 129.365  22.411  1.00  0.00    -0.341 N 
ATOM     18  C   UNL     1      45.385 130.129  21.120  1.00  0.00     0.002 A 
ATOM     19  C   UNL     1      44.144 130.387  21.646  1.00  0.00     0.047 A 
ATOM     20  C   UNL     1      46.037 131.041  20.294  1.00  0.00     0.010 A 
ATOM     21  C   UNL     1      43.469 131.578  21.379  1.00  0.00     0.027 A 
ATOM     22  C   UNL     1      45.381 132.253  20.007  1.00  0.00     0.001 A 
ATOM     23  C   UNL     1      44.102 132.520  20.548  1.00  0.00     0.002 A 
ATOM     24  H   UNL     1      42.816 129.291  22.925  1.00  0.00     0.168 HD
ENDBRANCH   5  15
ENDBRANCH   2   5
BRANCH   3  25
ATOM     25  C   UNL     1      41.644 124.961  23.647  1.00  0.00     0.080 A 
ATOM     26  C   UNL     1      41.370 123.592  23.736  1.00  0.00     0.032 A 
ATOM     27  C   UNL     1      40.582 125.875  23.810  1.00  0.00     0.153 A 
ATOM     28  C   UNL     1      40.079 123.150  24.026  1.00  0.00     0.038 A 
ATOM     29  N   UNL     1      39.331 125.415  24.086  1.00  0.00    -0.227 NA
ATOM     30  C   UNL     1      39.062 124.088  24.208  1.00  0.00     0.108 A 
ATOM     31  Cl  UNL     1      40.803 127.604  23.581  1.00  0.00    -0.060 Cl
ATOM     32  Br  UNL     1      37.286 123.518  24.605  1.00  0.00    -0.029 Br
ENDBRANCH   3  25
TORSDOF 4
ENDMDL
MODEL 6
REMARK VINA RESULT:      -2.3      0.713      5.553
REMARK SMILES O=C(Nc1ccc(Br)nc1Cl)N(c1cn2ccccc2n1)c1cc2ccccc2[nH]1
REMARK SMILES IDX 1 1 2 2 3 3 12 5 13 6 14 7 21 8 15 9 20 10 16 11 19 12 17 13
REMARK SMILES IDX 18 14 22 15 23 16 30 17 24 18 29 19 25 20 28 21 26 22 27 23
REMARK SMILES IDX 4 25 5 26 10 27 6 28 9 29 7 30 11 31 8 32
REMARK H PARENT 3 4 30 24
ROOT
ATOM      1  O   UNL     1      48.080 131.630  21.324  1.00  0.00    -0.247 OA
ATOM      2  C   UNL     1      46.932 132.147  21.239  1.00  0.00     0.333 C 
ATOM      3  N   UNL     1      46.741 133.512  21.641  1.00  0.00    -0.304 N 
ATOM      4  H   UNL     1      45.802 133.787  22.006  1.00  0.00     0.172 HD
ENDROOT
BRANCH   2   5
ATOM      5  N   UNL     1      45.814 131.347  20.806  1.00  0.00    -0.230 N 
BRANCH   5   6
ATOM      6  C   UNL     1      44.903 130.763  21.762  1.00  0.00     0.161 A 
ATOM      7  C   UNL     1      45.040 129.516  22.362  1.00  0.00     0.140 A 
ATOM      8  N   UNL     1      43.735 131.343  22.139  1.00  0.00    -0.211 NA
ATOM      9  N   UNL     1      43.956 129.338  23.130  1.00  0.00    -0.305 N 
ATOM     10  C   UNL     1      43.199 130.437  22.980  1.00  0.00     0.139 A 
ATOM     11  C   UNL     1      43.612 128.291  23.922  1.00  0.00     0.093 A 
ATOM     12  C   UNL     1      41.985 130.565  23.651  1.00  0.00     0.048 A 
ATOM     13  C   UNL     1      42.401 128.365  24.625  1.00  0.00     0.018 A 
ATOM     14  C   UNL     1      41.588 129.508  24.487  1.00  0.00     0.005 A 
ENDBRANCH   5   6
BRANCH   5  15
ATOM     15  C   UNL     1      45.588 131.179  19.398  1.00  0.00     0.121 A 
ATOM     16  C   UNL     1      44.904 132.085  18.590  1.00  0.00     0.056 A 
ATOM     17  N   UNL     1      45.989 130.091  18.699  1.00  0.00    -0.341 N 
ATOM     18  C   UNL     1      44.906 131.504  17.340  1.00  0.00     0.002 A 
ATOM     19  C   UNL     1      45.568 130.306  17.440  1.00  0.00     0.047 A 
ATOM     20  C   UNL     1      44.371 131.949  16.134  1.00  0.00     0.010 A 
ATOM     21  C   UNL     1      45.741 129.471  16.337  1.00  0.00     0.027 A 
ATOM     22  C   UNL     1      44.529 131.128  15.003  1.00  0.00     0.001 A 
ATOM     23  C   UNL     1      45.211 129.894  15.104  1.00  0.00     0.002 A 
ATOM     24  H   UNL     1      46.523 129.268  19.055  1.00  0.00     0.168 HD
ENDBRANCH   5  15
ENDBRANCH   2   5
BRANCH   3  25
ATOM     25  C   UNL     1      47.835 134.419  21.843  1.00  0.00     0.080 A 
ATOM     26  C   UNL     1      48.082 135.420  20.896  1.00  0.00     0.032 A 
ATOM     27  C   UNL     1      48.699 134.308  22.952  1.00  0.00     0.153 A 
ATOM     28  C   UNL     1      49.138 136.313  21.078  1.00  0.00     0.038 A 
ATOM     29  N   UNL     1      49.724 135.191  23.100  1.00  0.00    -0.227 NA
ATOM     30  C   UNL     1      49.954 136.187  22.204  1.00  0.00     0.108 A 
ATOM     31  Cl  UNL     1      48.548 133.002  24.118  1.00  0.00    -0.060 Cl
ATOM     32  Br  UNL     1      51.405 137.392  22.481  1.00  0.00    -0.029 Br
ENDBRANCH   3  25
TORSDOF 4
ENDMDL


