REMARK SMILES O=C(N[C@H]1CCCOC1)N1C[NH2+]C[C@H](F)[C@H]1c1cc2ccc(F)cc2[nH]1
REMARK SMILES IDX 10 1 11 2 12 3 13 4 14 5 15 6 16 7 2 10 3 11 1 12 4 14 5 15
REMARK SMILES IDX 9 16 6 17 8 18 7 19 17 20 18 21 26 22 19 23 25 24 20 25
REMARK SMILES IDX 24 26 21 27 22 28 23 30
REMARK H PARENT 12 8 12 9 3 13 26 29
ROOT
ATOM      1  N   UNL     1      -0.378  -1.699   1.238  1.00  0.00    -0.266 N 
ATOM      2  C   UNL     1      -0.851  -2.481   2.392  1.00  0.00     0.393 C 
ATOM      3  N   UNL     1      -2.312  -2.634   2.354  1.00  0.00    -0.327 N 
ATOM      4  C   UNL     1      -2.797  -3.316   1.138  1.00  0.00     0.302 C 
ATOM      5  C   UNL     1      -1.934  -3.050  -0.115  1.00  0.00     0.250 C 
ATOM      6  F   UNL     1      -1.035  -4.093  -0.274  1.00  0.00    -0.238 F 
ATOM      7  C   UNL     1      -1.144  -1.732  -0.019  1.00  0.00     0.179 C 
ATOM      8  H   UNL     1      -2.757  -1.690   2.427  1.00  0.00     0.347 HD
ATOM      9  H   UNL     1      -2.612  -3.185   3.193  1.00  0.00     0.347 HD
ENDROOT
BRANCH   1  10
ATOM     10  C   UNL     1       0.899  -1.029   1.313  1.00  0.00     0.322 C 
ATOM     11  N   UNL     1       1.261  -0.015   0.360  1.00  0.00    -0.333 N 
ATOM     12  O   UNL     1       1.704  -1.328   2.238  1.00  0.00    -0.248 OA
ATOM     13  H   UNL     1       0.533   0.355  -0.290  1.00  0.00     0.165 HD
BRANCH  11  14
ATOM     14  C   UNL     1       2.602   0.578   0.326  1.00  0.00     0.109 C 
ATOM     15  C   UNL     1       3.610  -0.421  -0.260  1.00  0.00     0.030 C 
ATOM     16  C   UNL     1       2.605   1.864  -0.523  1.00  0.00     0.185 C 
ATOM     17  C   UNL     1       4.967   0.253  -0.472  1.00  0.00     0.031 C 
ATOM     18  O   UNL     1       3.900   2.434  -0.570  1.00  0.00    -0.379 OA
ATOM     19  C   UNL     1       4.787   1.563  -1.248  1.00  0.00     0.160 C 
ENDBRANCH  11  14
ENDBRANCH   1  10
BRANCH   7  20
ATOM     20  C   UNL     1      -2.052  -0.529  -0.144  1.00  0.00     0.042 A 
ATOM     21  C   UNL     1      -2.808  -0.225  -1.276  1.00  0.00     0.034 A 
ATOM     22  N   UNL     1      -2.200   0.430   0.805  1.00  0.00    -0.356 N 
ATOM     23  C   UNL     1      -3.440   0.961  -0.976  1.00  0.00    -0.000 A 
ATOM     24  C   UNL     1      -3.051   1.328   0.285  1.00  0.00     0.049 A 
ATOM     25  C   UNL     1      -4.316   1.738  -1.731  1.00  0.00     0.013 A 
ATOM     26  C   UNL     1      -3.511   2.502   0.881  1.00  0.00     0.065 A 
ATOM     27  C   UNL     1      -4.800   2.927  -1.155  1.00  0.00     0.040 A 
ATOM     28  C   UNL     1      -4.400   3.308   0.145  1.00  0.00     0.125 A 
ATOM     29  H   UNL     1      -1.740   0.479   1.742  1.00  0.00     0.166 HD
ATOM     30  F   UNL     1      -4.873   4.457   0.687  1.00  0.00    -0.207 F 
ENDBRANCH   7  20
TORSDOF 3


