REMARK SMILES Cc1ccc([NH2+]c2cc(F)c(C)cc2N=C=S)c(F)n1
REMARK SMILES IDX 7 1 8 2 9 3 10 4 11 5 12 6 13 7 14 8 6 9 5 12 3 13 2 14 4 15
REMARK SMILES IDX 20 16 18 17 1 18 19 19 15 20 16 21 17 22
REMARK H PARENT 6 10 6 11
ROOT
ATOM      1  C   UNL     1      -0.649  -1.455   1.722  1.00  0.00     0.164 A 
ATOM      2  C   UNL     1      -1.354  -2.311   0.855  1.00  0.00     0.110 A 
ATOM      3  C   UNL     1      -2.749  -2.342   0.855  1.00  0.00     0.132 A 
ATOM      4  F   UNL     1      -3.394  -3.188   0.013  1.00  0.00    -0.206 F 
ATOM      5  C   UNL     1      -3.473  -1.508   1.718  1.00  0.00    -0.013 A 
ATOM      6  C   UNL     1      -4.974  -1.562   1.738  1.00  0.00     0.047 C 
ATOM      7  C   UNL     1      -2.783  -0.667   2.603  1.00  0.00     0.042 A 
ATOM      8  C   UNL     1      -1.373  -0.628   2.613  1.00  0.00     0.135 A 
ENDROOT
BRANCH   1   9
ATOM      9  N   UNL     1       0.796  -1.424   1.679  1.00  0.00    -0.276 N 
ATOM     10  H   UNL     1       1.171  -2.321   1.292  1.00  0.00     0.358 HD
ATOM     11  H   UNL     1       1.181  -1.344   2.649  1.00  0.00     0.358 HD
BRANCH   9  12
ATOM     12  C   UNL     1       1.249  -0.324   0.859  1.00  0.00     0.190 A 
ATOM     13  C   UNL     1       2.097   1.942   0.647  1.00  0.00     0.030 A 
ATOM     14  C   UNL     1       2.081   1.804  -0.744  1.00  0.00     0.041 A 
ATOM     15  C   UNL     1       1.681   0.877   1.447  1.00  0.00     0.075 A 
ATOM     16  N   UNL     1       1.677   0.631  -1.301  1.00  0.00    -0.220 NA
ATOM     17  C   UNL     1       1.266  -0.422  -0.545  1.00  0.00     0.274 A 
ATOM     18  C   UNL     1       2.538   2.926  -1.621  1.00  0.00     0.067 C 
ATOM     19  F   UNL     1       0.887  -1.568  -1.163  1.00  0.00    -0.178 F 
ENDBRANCH   9  12
ENDBRANCH   1   9
BRANCH   8  20
ATOM     20  N   UNL     1      -0.656   0.226   3.522  1.00  0.00    -0.188 NA
BRANCH  20  21
ATOM     21  C   UNL     1      -1.211   1.022   4.346  1.00  0.00     0.064 C 
ATOM     22  S   UNL     1      -1.911   2.030   5.390  1.00  0.00    -0.006 S 
ENDBRANCH  20  21
ENDBRANCH   8  20
TORSDOF 4


