REMARK SMILES Fc1ccc2cc(-c3[nH+]cncc3F)[nH]c2c1
REMARK SMILES IDX 1 1 2 2 3 3 4 4 5 5 6 6 7 7 15 8 16 9 17 10 8 12 9 13 13 14
REMARK SMILES IDX 10 15 12 16 11 17 14 19
REMARK H PARENT 15 11 9 18
ROOT
ATOM      1  F   UNL     1       0.964  -1.954  -5.082  1.00  0.00    -0.207 F 
ATOM      2  C   UNL     1       0.986  -1.558  -3.785  1.00  0.00     0.125 A 
ATOM      3  C   UNL     1       2.179  -1.049  -3.225  1.00  0.00     0.040 A 
ATOM      4  C   UNL     1       2.214  -0.635  -1.881  1.00  0.00     0.013 A 
ATOM      5  C   UNL     1       1.042  -0.746  -1.136  1.00  0.00     0.000 A 
ATOM      6  C   UNL     1       0.780  -0.426   0.175  1.00  0.00     0.041 A 
ATOM      7  C   UNL     1      -0.569  -0.748   0.383  1.00  0.00     0.090 A 
ATOM      8  N   UNL     1      -1.102  -1.246  -0.767  1.00  0.00    -0.351 N 
ATOM      9  C   UNL     1      -0.113  -1.237  -1.675  1.00  0.00     0.049 A 
ATOM     10  C   UNL     1      -0.181  -1.656  -3.004  1.00  0.00     0.066 A 
ATOM     11  H   UNL     1      -2.069  -1.579  -0.957  1.00  0.00     0.167 HD
ENDROOT
BRANCH   7  12
ATOM     12  C   UNL     1      -1.305  -0.568   1.679  1.00  0.00     0.188 A 
ATOM     13  N   UNL     1      -0.647  -0.054   2.765  1.00  0.00    -0.239 N 
ATOM     14  C   UNL     1      -2.668  -0.911   1.831  1.00  0.00     0.215 A 
ATOM     15  C   UNL     1      -1.272   0.127   3.959  1.00  0.00     0.449 A 
ATOM     16  C   UNL     1      -3.281  -0.714   3.067  1.00  0.00     0.297 A 
ATOM     17  N   UNL     1      -2.578  -0.202   4.104  1.00  0.00    -0.054 NA
ATOM     18  H   UNL     1       0.357   0.217   2.714  1.00  0.00     0.312 HD
ATOM     19  F   UNL     1      -3.417  -1.427   0.828  1.00  0.00    -0.198 F 
ENDBRANCH   7  12
TORSDOF 1


