MODEL 1
REMARK VINA RESULT:      -9.5      0.000      0.000
REMARK SMILES Cn1c[nH+]c2cc(-c3ccc(CC[NH3+])cc3)c[nH+]c21
REMARK SMILES IDX 12 1 11 2 8 3 9 4 16 5 10 6 15 7 7 8 2 9 3 10 19 11 4 12
REMARK SMILES IDX 18 13 5 14 17 15 6 16 1 17 13 20 14 21
REMARK H PARENT 4 18 18 19 14 22 14 23 14 24
ROOT
ATOM      1  C   UNL     1      46.513 130.692  13.478  1.00  0.00     0.096 C 
ENDROOT
BRANCH   1   2
ATOM      2  C   UNL     1      46.125 130.804  14.930  1.00  0.00    -0.042 A 
ATOM      3  C   UNL     1      45.347 130.994  17.637  1.00  0.00    -0.015 A 
ATOM      4  C   UNL     1      45.296 132.122  16.796  1.00  0.00     0.009 A 
ATOM      5  C   UNL     1      45.787 129.769  17.103  1.00  0.00     0.009 A 
ATOM      6  C   UNL     1      45.678 132.026  15.456  1.00  0.00     0.004 A 
ATOM      7  C   UNL     1      46.170 129.675  15.762  1.00  0.00     0.004 A 
BRANCH   3   8
ATOM      8  C   UNL     1      44.938 131.094  19.060  1.00  0.00     0.025 A 
ATOM      9  N   UNL     1      43.682 131.452  22.929  1.00  0.00    -0.199 N 
ATOM     10  C   UNL     1      42.499 132.072  22.677  1.00  0.00     0.405 A 
ATOM     11  C   UNL     1      44.219 131.261  21.712  1.00  0.00     0.329 A 
ATOM     12  N   UNL     1      42.285 132.258  21.350  1.00  0.00    -0.240 N 
ATOM     13  N   UNL     1      45.415 130.697  21.409  1.00  0.00    -0.243 N 
ATOM     14  C   UNL     1      43.377 131.742  20.761  1.00  0.00     0.215 A 
ATOM     15  C   UNL     1      45.786 130.605  20.095  1.00  0.00     0.206 A 
ATOM     16  C   UNL     1      43.698 131.679  19.411  1.00  0.00     0.073 A 
ATOM     17  C   UNL     1      44.257 131.127  24.228  1.00  0.00     0.300 C 
ATOM     18  H   UNL     1      41.462 132.711  20.894  1.00  0.00     0.312 HD
ATOM     19  H   UNL     1      46.044 130.335  22.161  1.00  0.00     0.312 HD
ENDBRANCH   3   8
ENDBRANCH   1   2
BRANCH   1  20
ATOM     20  C   UNL     1      48.038 130.671  13.294  1.00  0.00     0.263 C 
BRANCH  20  21
ATOM     21  N   UNL     1      48.577 129.311  13.364  1.00  0.00    -0.357 N 
ATOM     22  H   UNL     1      47.971 128.652  12.823  1.00  0.00     0.344 HD
ATOM     23  H   UNL     1      49.552 129.287  12.990  1.00  0.00     0.344 HD
ATOM     24  H   UNL     1      48.592 129.003  14.364  1.00  0.00     0.344 HD
ENDBRANCH  20  21
ENDBRANCH   1  20
TORSDOF 4
ENDMDL
MODEL 2
REMARK VINA RESULT:      -9.3      0.210      1.115
REMARK SMILES Cn1c[nH+]c2cc(-c3ccc(CC[NH3+])cc3)c[nH+]c21
REMARK SMILES IDX 12 1 11 2 8 3 9 4 16 5 10 6 15 7 7 8 2 9 3 10 19 11 4 12
REMARK SMILES IDX 18 13 5 14 17 15 6 16 1 17 13 20 14 21
REMARK H PARENT 4 18 18 19 14 22 14 23 14 24
ROOT
ATOM      1  C   UNL     1      46.553 130.776  13.368  1.00  0.00     0.096 C 
ENDROOT
BRANCH   1   2
ATOM      2  C   UNL     1      46.117 130.866  14.808  1.00  0.00    -0.042 A 
ATOM      3  C   UNL     1      45.352 131.043  17.519  1.00  0.00    -0.015 A 
ATOM      4  C   UNL     1      45.520 129.788  16.902  1.00  0.00     0.009 A 
ATOM      5  C   UNL     1      45.577 132.207  16.763  1.00  0.00     0.009 A 
ATOM      6  C   UNL     1      45.901 129.702  15.561  1.00  0.00     0.004 A 
ATOM      7  C   UNL     1      45.958 132.119  15.420  1.00  0.00     0.004 A 
BRANCH   3   8
ATOM      8  C   UNL     1      44.950 131.135  18.945  1.00  0.00     0.025 A 
ATOM      9  N   UNL     1      43.710 131.468  22.821  1.00  0.00    -0.199 N 
ATOM     10  C   UNL     1      42.511 132.059  22.576  1.00  0.00     0.405 A 
ATOM     11  C   UNL     1      44.243 131.288  21.601  1.00  0.00     0.329 A 
ATOM     12  N   UNL     1      42.284 132.238  21.250  1.00  0.00    -0.240 N 
ATOM     13  N   UNL     1      45.451 130.753  21.291  1.00  0.00    -0.243 N 
ATOM     14  C   UNL     1      43.384 131.747  20.655  1.00  0.00     0.215 A 
ATOM     15  C   UNL     1      45.816 130.668  19.975  1.00  0.00     0.206 A 
ATOM     16  C   UNL     1      43.698 131.691  19.303  1.00  0.00     0.073 A 
ATOM     17  C   UNL     1      44.301 131.159  24.117  1.00  0.00     0.300 C 
ATOM     18  H   UNL     1      41.448 132.671  20.798  1.00  0.00     0.312 HD
ATOM     19  H   UNL     1      46.094 130.407  22.039  1.00  0.00     0.312 HD
ENDBRANCH   3   8
ENDBRANCH   1   2
BRANCH   1  20
ATOM     20  C   UNL     1      48.051 130.457  13.243  1.00  0.00     0.263 C 
BRANCH  20  21
ATOM     21  N   UNL     1      48.355 129.089  13.669  1.00  0.00    -0.357 N 
ATOM     22  H   UNL     1      47.952 128.906  14.616  1.00  0.00     0.344 HD
ATOM     23  H   UNL     1      47.972 128.402  12.980  1.00  0.00     0.344 HD
ATOM     24  H   UNL     1      49.393 128.972  13.721  1.00  0.00     0.344 HD
ENDBRANCH  20  21
ENDBRANCH   1  20
TORSDOF 4
ENDMDL
MODEL 3
REMARK VINA RESULT:      -8.6      1.469      7.619
REMARK SMILES Cn1c[nH+]c2cc(-c3ccc(CC[NH3+])cc3)c[nH+]c21
REMARK SMILES IDX 12 1 11 2 8 3 9 4 16 5 10 6 15 7 7 8 2 9 3 10 19 11 4 12
REMARK SMILES IDX 18 13 5 14 17 15 6 16 1 17 13 20 14 21
REMARK H PARENT 4 18 18 19 14 22 14 23 14 24
ROOT
ATOM      1  C   UNL     1      42.692 131.893  22.136  1.00  0.00     0.096 C 
ENDROOT
BRANCH   1   2
ATOM      2  C   UNL     1      43.403 131.696  20.821  1.00  0.00    -0.042 A 
ATOM      3  C   UNL     1      44.756 131.378  18.365  1.00  0.00    -0.015 A 
ATOM      4  C   UNL     1      43.418 131.815  18.394  1.00  0.00     0.009 A 
ATOM      5  C   UNL     1      45.409 131.109  19.581  1.00  0.00     0.009 A 
ATOM      6  C   UNL     1      42.750 131.975  19.611  1.00  0.00     0.004 A 
ATOM      7  C   UNL     1      44.738 131.268  20.798  1.00  0.00     0.004 A 
BRANCH   3   8
ATOM      8  C   UNL     1      45.468 131.211  17.073  1.00  0.00     0.025 A 
ATOM      9  N   UNL     1      47.469 130.603  13.567  1.00  0.00    -0.199 N 
ATOM     10  C   UNL     1      47.833 129.313  13.789  1.00  0.00     0.405 A 
ATOM     11  C   UNL     1      46.778 130.944  14.667  1.00  0.00     0.329 A 
ATOM     12  N   UNL     1      47.382 128.847  14.981  1.00  0.00    -0.240 N 
ATOM     13  N   UNL     1      46.213 132.143  14.957  1.00  0.00    -0.243 N 
ATOM     14  C   UNL     1      46.722 129.887  15.517  1.00  0.00     0.215 A 
ATOM     15  C   UNL     1      45.556 132.291  16.148  1.00  0.00     0.206 A 
ATOM     16  C   UNL     1      46.072 129.975  16.741  1.00  0.00     0.073 A 
ATOM     17  C   UNL     1      47.806 131.438  12.420  1.00  0.00     0.300 C 
ATOM     18  H   UNL     1      47.527 127.897  15.391  1.00  0.00     0.312 HD
ATOM     19  H   UNL     1      46.271 132.941  14.285  1.00  0.00     0.312 HD
ENDBRANCH   3   8
ENDBRANCH   1   2
BRANCH   1  20
ATOM     20  C   UNL     1      43.590 131.537  23.331  1.00  0.00     0.263 C 
BRANCH  20  21
ATOM     21  N   UNL     1      43.044 130.424  24.111  1.00  0.00    -0.357 N 
ATOM     22  H   UNL     1      43.433 130.437  25.082  1.00  0.00     0.344 HD
ATOM     23  H   UNL     1      42.001 130.481  24.143  1.00  0.00     0.344 HD
ATOM     24  H   UNL     1      43.320 129.524  23.655  1.00  0.00     0.344 HD
ENDBRANCH  20  21
ENDBRANCH   1  20
TORSDOF 4
ENDMDL
MODEL 4
REMARK VINA RESULT:      -8.6      1.603      7.496
REMARK SMILES Cn1c[nH+]c2cc(-c3ccc(CC[NH3+])cc3)c[nH+]c21
REMARK SMILES IDX 12 1 11 2 8 3 9 4 16 5 10 6 15 7 7 8 2 9 3 10 19 11 4 12
REMARK SMILES IDX 18 13 5 14 17 15 6 16 1 17 13 20 14 21
REMARK H PARENT 4 18 18 19 14 22 14 23 14 24
ROOT
ATOM      1  C   UNL     1      42.561 132.078  22.593  1.00  0.00     0.096 C 
ENDROOT
BRANCH   1   2
ATOM      2  C   UNL     1      43.309 131.804  21.314  1.00  0.00    -0.042 A 
ATOM      3  C   UNL     1      44.691 131.239  18.919  1.00  0.00    -0.015 A 
ATOM      4  C   UNL     1      45.344 131.143  20.162  1.00  0.00     0.009 A 
ATOM      5  C   UNL     1      43.336 131.616  18.891  1.00  0.00     0.009 A 
ATOM      6  C   UNL     1      44.659 131.420  21.348  1.00  0.00     0.004 A 
ATOM      7  C   UNL     1      42.652 131.894  20.078  1.00  0.00     0.004 A 
BRANCH   3   8
ATOM      8  C   UNL     1      45.418 130.941  17.659  1.00  0.00     0.025 A 
ATOM      9  N   UNL     1      47.337 130.245  14.123  1.00  0.00    -0.199 N 
ATOM     10  C   UNL     1      46.811 131.285  13.425  1.00  0.00     0.405 A 
ATOM     11  C   UNL     1      46.784 130.353  15.343  1.00  0.00     0.329 A 
ATOM     12  N   UNL     1      45.964 132.035  14.175  1.00  0.00    -0.240 N 
ATOM     13  N   UNL     1      46.963 129.540  16.414  1.00  0.00    -0.243 N 
ATOM     14  C   UNL     1      45.961 131.433  15.376  1.00  0.00     0.215 A 
ATOM     15  C   UNL     1      46.292 129.819  17.573  1.00  0.00     0.206 A 
ATOM     16  C   UNL     1      45.251 131.768  16.522  1.00  0.00     0.073 A 
ATOM     17  C   UNL     1      48.247 129.215  13.636  1.00  0.00     0.300 C 
ATOM     18  H   UNL     1      45.428 132.881  13.879  1.00  0.00     0.312 HD
ATOM     19  H   UNL     1      47.602 128.715  16.361  1.00  0.00     0.312 HD
ENDBRANCH   3   8
ENDBRANCH   1   2
BRANCH   1  20
ATOM     20  C   UNL     1      42.911 131.061  23.691  1.00  0.00     0.263 C 
BRANCH  20  21
ATOM     21  N   UNL     1      41.836 130.088  23.896  1.00  0.00    -0.357 N 
ATOM     22  H   UNL     1      41.822 129.768  24.891  1.00  0.00     0.344 HD
ATOM     23  H   UNL     1      40.913 130.508  23.644  1.00  0.00     0.344 HD
ATOM     24  H   UNL     1      42.008 129.259  23.282  1.00  0.00     0.344 HD
ENDBRANCH  20  21
ENDBRANCH   1  20
TORSDOF 4
ENDMDL
MODEL 5
REMARK VINA RESULT:      -8.5      0.755      1.960
REMARK SMILES Cn1c[nH+]c2cc(-c3ccc(CC[NH3+])cc3)c[nH+]c21
REMARK SMILES IDX 12 1 11 2 8 3 9 4 16 5 10 6 15 7 7 8 2 9 3 10 19 11 4 12
REMARK SMILES IDX 18 13 5 14 17 15 6 16 1 17 13 20 14 21
REMARK H PARENT 4 18 18 19 14 22 14 23 14 24
ROOT
ATOM      1  C   UNL     1      46.499 130.764  13.368  1.00  0.00     0.096 C 
ENDROOT
BRANCH   1   2
ATOM      2  C   UNL     1      45.942 130.886  14.763  1.00  0.00    -0.042 A 
ATOM      3  C   UNL     1      44.925 131.162  17.382  1.00  0.00    -0.015 A 
ATOM      4  C   UNL     1      46.062 130.370  17.134  1.00  0.00     0.009 A 
ATOM      5  C   UNL     1      44.308 131.818  16.302  1.00  0.00     0.009 A 
ATOM      6  C   UNL     1      46.567 130.236  15.839  1.00  0.00     0.004 A 
ATOM      7  C   UNL     1      44.813 131.682  15.005  1.00  0.00     0.004 A 
BRANCH   3   8
ATOM      8  C   UNL     1      44.391 131.307  18.759  1.00  0.00     0.025 A 
ATOM      9  N   UNL     1      43.045 131.617  22.601  1.00  0.00    -0.199 N 
ATOM     10  C   UNL     1      44.074 130.969  23.205  1.00  0.00     0.405 A 
ATOM     11  C   UNL     1      43.363 131.597  21.296  1.00  0.00     0.329 A 
ATOM     12  N   UNL     1      45.019 130.560  22.320  1.00  0.00    -0.240 N 
ATOM     13  N   UNL     1      42.647 132.095  20.256  1.00  0.00    -0.243 N 
ATOM     14  C   UNL     1      44.553 130.965  21.126  1.00  0.00     0.215 A 
ATOM     15  C   UNL     1      43.146 131.961  18.989  1.00  0.00     0.206 A 
ATOM     16  C   UNL     1      45.110 130.795  19.866  1.00  0.00     0.073 A 
ATOM     17  C   UNL     1      41.843 132.156  23.226  1.00  0.00     0.300 C 
ATOM     18  H   UNL     1      45.901 130.040  22.523  1.00  0.00     0.312 HD
ATOM     19  H   UNL     1      41.734 132.577  20.414  1.00  0.00     0.312 HD
ENDBRANCH   3   8
ENDBRANCH   1   2
BRANCH   1  20
ATOM     20  C   UNL     1      48.031 130.642  13.372  1.00  0.00     0.263 C 
BRANCH  20  21
ATOM     21  N   UNL     1      48.467 129.245  13.419  1.00  0.00    -0.357 N 
ATOM     22  H   UNL     1      47.761 128.662  13.926  1.00  0.00     0.344 HD
ATOM     23  H   UNL     1      48.605 128.875  12.452  1.00  0.00     0.344 HD
ATOM     24  H   UNL     1      49.375 129.190  13.935  1.00  0.00     0.344 HD
ENDBRANCH  20  21
ENDBRANCH   1  20
TORSDOF 4
ENDMDL
MODEL 6
REMARK VINA RESULT:      -8.5      1.498      7.664
REMARK SMILES Cn1c[nH+]c2cc(-c3ccc(CC[NH3+])cc3)c[nH+]c21
REMARK SMILES IDX 12 1 11 2 8 3 9 4 16 5 10 6 15 7 7 8 2 9 3 10 19 11 4 12
REMARK SMILES IDX 18 13 5 14 17 15 6 16 1 17 13 20 14 21
REMARK H PARENT 4 18 18 19 14 22 14 23 14 24
ROOT
ATOM      1  C   UNL     1      42.427 132.212  21.883  1.00  0.00     0.096 C 
ENDROOT
BRANCH   1   2
ATOM      2  C   UNL     1      43.206 132.010  20.608  1.00  0.00    -0.042 A 
ATOM      3  C   UNL     1      44.651 131.578  18.223  1.00  0.00    -0.015 A 
ATOM      4  C   UNL     1      45.311 131.600  19.466  1.00  0.00     0.009 A 
ATOM      5  C   UNL     1      43.259 131.771  18.190  1.00  0.00     0.009 A 
ATOM      6  C   UNL     1      44.595 131.811  20.647  1.00  0.00     0.004 A 
ATOM      7  C   UNL     1      42.543 131.983  19.373  1.00  0.00     0.004 A 
BRANCH   3   8
ATOM      8  C   UNL     1      45.412 131.351  16.969  1.00  0.00     0.025 A 
ATOM      9  N   UNL     1      47.538 130.578  13.570  1.00  0.00    -0.199 N 
ATOM     10  C   UNL     1      47.827 129.276  13.831  1.00  0.00     0.405 A 
ATOM     11  C   UNL     1      46.816 130.974  14.631  1.00  0.00     0.329 A 
ATOM     12  N   UNL     1      47.299 128.855  15.008  1.00  0.00    -0.240 N 
ATOM     13  N   UNL     1      46.298 132.204  14.873  1.00  0.00    -0.243 N 
ATOM     14  C   UNL     1      46.668 129.937  15.495  1.00  0.00     0.215 A 
ATOM     15  C   UNL     1      45.596 132.408  16.030  1.00  0.00     0.206 A 
ATOM     16  C   UNL     1      45.968 130.081  16.686  1.00  0.00     0.073 A 
ATOM     17  C   UNL     1      47.968 131.373  12.426  1.00  0.00     0.300 C 
ATOM     18  H   UNL     1      47.377 127.908  15.441  1.00  0.00     0.312 HD
ATOM     19  H   UNL     1      46.427 132.986  14.191  1.00  0.00     0.312 HD
ENDBRANCH   3   8
ENDBRANCH   1   2
BRANCH   1  20
ATOM     20  C   UNL     1      42.890 131.257  22.994  1.00  0.00     0.263 C 
BRANCH  20  21
ATOM     21  N   UNL     1      43.345 131.982  24.182  1.00  0.00    -0.357 N 
ATOM     22  H   UNL     1      42.999 132.969  24.159  1.00  0.00     0.344 HD
ATOM     23  H   UNL     1      43.008 131.506  25.049  1.00  0.00     0.344 HD
ATOM     24  H   UNL     1      44.391 131.998  24.190  1.00  0.00     0.344 HD
ENDBRANCH  20  21
ENDBRANCH   1  20
TORSDOF 4
ENDMDL
MODEL 7
REMARK VINA RESULT:      -8.3      1.462      7.444
REMARK SMILES Cn1c[nH+]c2cc(-c3ccc(CC[NH3+])cc3)c[nH+]c21
REMARK SMILES IDX 12 1 11 2 8 3 9 4 16 5 10 6 15 7 7 8 2 9 3 10 19 11 4 12
REMARK SMILES IDX 18 13 5 14 17 15 6 16 1 17 13 20 14 21
REMARK H PARENT 4 18 18 19 14 22 14 23 14 24
ROOT
ATOM      1  C   UNL     1      41.998 132.420  21.632  1.00  0.00     0.096 C 
ENDROOT
BRANCH   1   2
ATOM      2  C   UNL     1      42.868 132.025  20.467  1.00  0.00    -0.042 A 
ATOM      3  C   UNL     1      44.519 131.337  18.283  1.00  0.00    -0.015 A 
ATOM      4  C   UNL     1      43.173 131.693  18.079  1.00  0.00     0.009 A 
ATOM      5  C   UNL     1      45.029 131.335  19.594  1.00  0.00     0.009 A 
ATOM      6  C   UNL     1      42.357 132.037  19.160  1.00  0.00     0.004 A 
ATOM      7  C   UNL     1      44.211 131.677  20.675  1.00  0.00     0.004 A 
BRANCH   3   8
ATOM      8  C   UNL     1      45.387 130.975  17.135  1.00  0.00     0.025 A 
ATOM      9  N   UNL     1      47.701 130.096  13.888  1.00  0.00    -0.199 N 
ATOM     10  C   UNL     1      47.246 131.080  13.071  1.00  0.00     0.405 A 
ATOM     11  C   UNL     1      47.013 130.269  15.029  1.00  0.00     0.329 A 
ATOM     12  N   UNL     1      46.311 131.860  13.671  1.00  0.00    -0.240 N 
ATOM     13  N   UNL     1      47.078 129.527  16.162  1.00  0.00    -0.243 N 
ATOM     14  C   UNL     1      46.179 131.334  14.900  1.00  0.00     0.215 A 
ATOM     15  C   UNL     1      46.278 129.866  17.219  1.00  0.00     0.206 A 
ATOM     16  C   UNL     1      45.341 131.726  15.936  1.00  0.00     0.073 A 
ATOM     17  C   UNL     1      48.671 129.054  13.573  1.00  0.00     0.300 C 
ATOM     18  H   UNL     1      45.803 132.676  13.263  1.00  0.00     0.312 HD
ATOM     19  H   UNL     1      47.729 128.713  16.235  1.00  0.00     0.312 HD
ENDBRANCH   3   8
ENDBRANCH   1   2
BRANCH   1  20
ATOM     20  C   UNL     1      42.577 131.933  22.970  1.00  0.00     0.263 C 
BRANCH  20  21
ATOM     21  N   UNL     1      42.277 130.520  23.213  1.00  0.00    -0.357 N 
ATOM     22  H   UNL     1      42.248 130.328  24.240  1.00  0.00     0.344 HD
ATOM     23  H   UNL     1      41.363 130.263  22.776  1.00  0.00     0.344 HD
ATOM     24  H   UNL     1      43.032 129.936  22.786  1.00  0.00     0.344 HD
ENDBRANCH  20  21
ENDBRANCH   1  20
TORSDOF 4
ENDMDL
MODEL 8
REMARK VINA RESULT:      -7.8      1.948      7.387
REMARK SMILES Cn1c[nH+]c2cc(-c3ccc(CC[NH3+])cc3)c[nH+]c21
REMARK SMILES IDX 12 1 11 2 8 3 9 4 16 5 10 6 15 7 7 8 2 9 3 10 19 11 4 12
REMARK SMILES IDX 18 13 5 14 17 15 6 16 1 17 13 20 14 21
REMARK H PARENT 4 18 18 19 14 22 14 23 14 24
ROOT
ATOM      1  C   UNL     1      42.788 132.028  23.662  1.00  0.00     0.096 C 
ENDROOT
BRANCH   1   2
ATOM      2  C   UNL     1      43.346 131.756  22.288  1.00  0.00    -0.042 A 
ATOM      3  C   UNL     1      44.422 131.293  19.720  1.00  0.00    -0.015 A 
ATOM      4  C   UNL     1      43.184 131.946  19.871  1.00  0.00     0.009 A 
ATOM      5  C   UNL     1      45.116 130.881  20.872  1.00  0.00     0.009 A 
ATOM      6  C   UNL     1      42.653 132.177  21.142  1.00  0.00     0.004 A 
ATOM      7  C   UNL     1      44.584 131.112  22.143  1.00  0.00     0.004 A 
BRANCH   3   8
ATOM      8  C   UNL     1      44.988 131.050  18.370  1.00  0.00     0.025 A 
ATOM      9  N   UNL     1      46.421 130.464  14.592  1.00  0.00    -0.199 N 
ATOM     10  C   UNL     1      45.503 131.217  13.932  1.00  0.00     0.405 A 
ATOM     11  C   UNL     1      46.069 130.571  15.884  1.00  0.00     0.329 A 
ATOM     12  N   UNL     1      44.605 131.791  14.773  1.00  0.00    -0.240 N 
ATOM     13  N   UNL     1      46.654 129.986  16.958  1.00  0.00    -0.243 N 
ATOM     14  C   UNL     1      44.978 131.373  15.994  1.00  0.00     0.215 A 
ATOM     15  C   UNL     1      46.130 130.215  18.201  1.00  0.00     0.206 A 
ATOM     16  C   UNL     1      44.399 131.643  17.227  1.00  0.00     0.073 A 
ATOM     17  C   UNL     1      47.503 129.675  14.016  1.00  0.00     0.300 C 
ATOM     18  H   UNL     1      43.801 132.409  14.523  1.00  0.00     0.312 HD
ATOM     19  H   UNL     1      47.493 129.372  16.845  1.00  0.00     0.312 HD
ENDBRANCH   3   8
ENDBRANCH   1   2
BRANCH   1  20
ATOM     20  C   UNL     1      42.329 130.738  24.358  1.00  0.00     0.263 C 
BRANCH  20  21
ATOM     21  N   UNL     1      43.447 129.826  24.609  1.00  0.00    -0.357 N 
ATOM     22  H   UNL     1      44.353 130.347  24.581  1.00  0.00     0.344 HD
ATOM     23  H   UNL     1      43.333 129.359  25.537  1.00  0.00     0.344 HD
ATOM     24  H   UNL     1      43.461 129.094  23.862  1.00  0.00     0.344 HD
ENDBRANCH  20  21
ENDBRANCH   1  20
TORSDOF 4
ENDMDL
MODEL 9
REMARK VINA RESULT:      -7.7      0.768      1.699
REMARK SMILES Cn1c[nH+]c2cc(-c3ccc(CC[NH3+])cc3)c[nH+]c21
REMARK SMILES IDX 12 1 11 2 8 3 9 4 16 5 10 6 15 7 7 8 2 9 3 10 19 11 4 12
REMARK SMILES IDX 18 13 5 14 17 15 6 16 1 17 13 20 14 21
REMARK H PARENT 4 18 18 19 14 22 14 23 14 24
ROOT
ATOM      1  C   UNL     1      47.160 130.726  13.435  1.00  0.00     0.096 C 
ENDROOT
BRANCH   1   2
ATOM      2  C   UNL     1      46.561 130.861  14.812  1.00  0.00    -0.042 A 
ATOM      3  C   UNL     1      45.389 131.097  17.368  1.00  0.00    -0.015 A 
ATOM      4  C   UNL     1      45.547 132.228  16.546  1.00  0.00     0.009 A 
ATOM      5  C   UNL     1      45.820 129.846  16.892  1.00  0.00     0.009 A 
ATOM      6  C   UNL     1      46.124 132.110  15.279  1.00  0.00     0.004 A 
ATOM      7  C   UNL     1      46.399 129.729  15.625  1.00  0.00     0.004 A 
BRANCH   3   8
ATOM      8  C   UNL     1      44.773 131.222  18.713  1.00  0.00     0.025 A 
ATOM      9  N   UNL     1      43.194 131.470  22.470  1.00  0.00    -0.199 N 
ATOM     10  C   UNL     1      44.156 130.761  23.117  1.00  0.00     0.405 A 
ATOM     11  C   UNL     1      43.595 131.476  21.188  1.00  0.00     0.329 A 
ATOM     12  N   UNL     1      45.139 130.342  22.280  1.00  0.00    -0.240 N 
ATOM     13  N   UNL     1      42.968 132.035  20.123  1.00  0.00    -0.243 N 
ATOM     14  C   UNL     1      44.767 130.801  21.073  1.00  0.00     0.215 A 
ATOM     15  C   UNL     1      43.542 131.919  18.885  1.00  0.00     0.206 A 
ATOM     16  C   UNL     1      45.398 130.647  19.845  1.00  0.00     0.073 A 
ATOM     17  C   UNL     1      41.977 132.039  23.036  1.00  0.00     0.300 C 
ATOM     18  H   UNL     1      45.986 129.779  22.521  1.00  0.00     0.312 HD
ATOM     19  H   UNL     1      42.066 132.549  20.238  1.00  0.00     0.312 HD
ENDBRANCH   3   8
ENDBRANCH   1   2
BRANCH   1  20
ATOM     20  C   UNL     1      48.022 129.460  13.308  1.00  0.00     0.263 C 
BRANCH  20  21
ATOM     21  N   UNL     1      48.867 129.254  14.486  1.00  0.00    -0.357 N 
ATOM     22  H   UNL     1      48.647 128.335  14.934  1.00  0.00     0.344 HD
ATOM     23  H   UNL     1      49.876 129.288  14.219  1.00  0.00     0.344 HD
ATOM     24  H   UNL     1      48.675 130.015  15.178  1.00  0.00     0.344 HD
ENDBRANCH  20  21
ENDBRANCH   1  20
TORSDOF 4
ENDMDL


