MODEL 1
REMARK VINA RESULT:      -6.0      0.000      0.000
REMARK SMILES N#C[C@H]1c2ccccc2C[C@@H]1NC(=O)C1CCCC1
REMARK SMILES IDX 3 1 4 2 5 3 6 4 7 5 8 6 9 7 10 8 11 9 2 10 1 11 12 12 13 13
REMARK SMILES IDX 14 15 15 16 16 17 19 18 17 19 18 20
REMARK H PARENT 12 14
ROOT
ATOM      1  C   UNL     1      45.776 131.310  20.563  1.00  0.00     0.145 C 
ATOM      2  C   UNL     1      44.740 130.794  21.493  1.00  0.00    -0.025 A 
ATOM      3  C   UNL     1      44.951 130.030  22.645  1.00  0.00     0.005 A 
ATOM      4  C   UNL     1      43.840 129.634  23.405  1.00  0.00     0.000 A 
ATOM      5  C   UNL     1      42.543 130.004  23.009  1.00  0.00     0.000 A 
ATOM      6  C   UNL     1      42.354 130.770  21.848  1.00  0.00     0.004 A 
ATOM      7  C   UNL     1      43.473 131.148  21.101  1.00  0.00    -0.041 A 
ATOM      8  C   UNL     1      43.478 131.960  19.864  1.00  0.00     0.062 C 
ATOM      9  C   UNL     1      44.952 131.906  19.386  1.00  0.00     0.108 C 
ENDROOT
BRANCH   1  10
ATOM     10  C   UNL     1      46.581 132.346  21.229  1.00  0.00     0.073 C 
ATOM     11  N   UNL     1      47.213 133.161  21.754  1.00  0.00    -0.198 NA
ENDBRANCH   1  10
BRANCH   9  12
ATOM     12  N   UNL     1      45.090 131.055  18.198  1.00  0.00    -0.351 N 
ATOM     13  C   UNL     1      45.425 131.601  16.913  1.00  0.00     0.223 C 
ATOM     14  H   UNL     1      44.959 130.021  18.279  1.00  0.00     0.163 HD
ATOM     15  O   UNL     1      45.585 132.846  16.778  1.00  0.00    -0.275 OA
BRANCH  13  16
ATOM     16  C   UNL     1      45.609 130.688  15.726  1.00  0.00     0.078 C 
ATOM     17  C   UNL     1      45.878 131.446  14.432  1.00  0.00     0.013 C 
ATOM     18  C   UNL     1      46.802 129.756  15.889  1.00  0.00     0.013 C 
ATOM     19  C   UNL     1      46.639 130.467  13.545  1.00  0.00     0.001 C 
ATOM     20  C   UNL     1      47.240 129.407  14.471  1.00  0.00     0.001 C 
ENDBRANCH  13  16
ENDBRANCH   9  12
TORSDOF 3
ENDMDL
MODEL 2
REMARK VINA RESULT:      -5.8      2.819      6.597
REMARK SMILES N#C[C@H]1c2ccccc2C[C@@H]1NC(=O)C1CCCC1
REMARK SMILES IDX 3 1 4 2 5 3 6 4 7 5 8 6 9 7 10 8 11 9 2 10 1 11 12 12 13 13
REMARK SMILES IDX 14 15 15 16 16 17 19 18 17 19 18 20
REMARK H PARENT 12 14
ROOT
ATOM      1  C   UNL     1      42.975 131.441  20.170  1.00  0.00     0.145 C 
ATOM      2  C   UNL     1      43.578 131.539  18.818  1.00  0.00    -0.025 A 
ATOM      3  C   UNL     1      42.909 131.465  17.591  1.00  0.00     0.005 A 
ATOM      4  C   UNL     1      43.654 131.583  16.408  1.00  0.00     0.000 A 
ATOM      5  C   UNL     1      45.046 131.773  16.464  1.00  0.00     0.000 A 
ATOM      6  C   UNL     1      45.698 131.843  17.705  1.00  0.00     0.004 A 
ATOM      7  C   UNL     1      44.939 131.715  18.872  1.00  0.00    -0.041 A 
ATOM      8  C   UNL     1      45.439 131.774  20.263  1.00  0.00     0.062 C 
ATOM      9  C   UNL     1      44.204 131.394  21.121  1.00  0.00     0.108 C 
ENDROOT
BRANCH   1  10
ATOM     10  C   UNL     1      42.138 132.622  20.436  1.00  0.00     0.073 C 
ATOM     11  N   UNL     1      41.479 133.551  20.643  1.00  0.00    -0.198 NA
ENDBRANCH   1  10
BRANCH   9  12
ATOM     12  N   UNL     1      44.349 130.047  21.686  1.00  0.00    -0.351 N 
ATOM     13  C   UNL     1      44.220 129.802  23.095  1.00  0.00     0.223 C 
ATOM     14  H   UNL     1      44.535 129.234  21.055  1.00  0.00     0.163 HD
ATOM     15  O   UNL     1      44.002 130.761  23.885  1.00  0.00    -0.275 OA
BRANCH  13  16
ATOM     16  C   UNL     1      44.324 128.395  23.631  1.00  0.00     0.078 C 
ATOM     17  C   UNL     1      42.965 127.740  23.844  1.00  0.00     0.013 C 
ATOM     18  C   UNL     1      45.063 127.463  22.681  1.00  0.00     0.013 C 
ATOM     19  C   UNL     1      43.224 126.241  23.752  1.00  0.00     0.001 C 
ATOM     20  C   UNL     1      44.544 126.065  22.998  1.00  0.00     0.001 C 
ENDBRANCH  13  16
ENDBRANCH   9  12
TORSDOF 3
ENDMDL
MODEL 3
REMARK VINA RESULT:      -5.8      3.984      5.977
REMARK SMILES N#C[C@H]1c2ccccc2C[C@@H]1NC(=O)C1CCCC1
REMARK SMILES IDX 3 1 4 2 5 3 6 4 7 5 8 6 9 7 10 8 11 9 2 10 1 11 12 12 13 13
REMARK SMILES IDX 14 15 15 16 16 17 19 18 17 19 18 20
REMARK H PARENT 12 14
ROOT
ATOM      1  C   UNL     1      44.945 126.878  23.028  1.00  0.00     0.145 C 
ATOM      2  C   UNL     1      43.744 126.007  23.073  1.00  0.00    -0.025 A 
ATOM      3  C   UNL     1      43.634 124.700  22.587  1.00  0.00     0.005 A 
ATOM      4  C   UNL     1      42.409 124.030  22.723  1.00  0.00     0.000 A 
ATOM      5  C   UNL     1      41.317 124.669  23.337  1.00  0.00     0.000 A 
ATOM      6  C   UNL     1      41.448 125.982  23.816  1.00  0.00     0.004 A 
ATOM      7  C   UNL     1      42.675 126.634  23.664  1.00  0.00    -0.041 A 
ATOM      8  C   UNL     1      43.009 128.004  24.112  1.00  0.00     0.062 C 
ATOM      9  C   UNL     1      44.422 128.255  23.525  1.00  0.00     0.108 C 
ENDROOT
BRANCH   1  10
ATOM     10  C   UNL     1      45.986 126.347  23.923  1.00  0.00     0.073 C 
ATOM     11  N   UNL     1      46.806 125.929  24.625  1.00  0.00    -0.198 NA
ENDBRANCH   1  10
BRANCH   9  12
ATOM     12  N   UNL     1      44.368 129.204  22.406  1.00  0.00    -0.351 N 
ATOM     13  C   UNL     1      44.261 130.619  22.620  1.00  0.00     0.223 C 
ATOM     14  H   UNL     1      44.423 128.853  21.422  1.00  0.00     0.163 HD
ATOM     15  O   UNL     1      44.186 131.076  23.793  1.00  0.00    -0.275 OA
BRANCH  13  16
ATOM     16  C   UNL     1      44.260 131.565  21.444  1.00  0.00     0.078 C 
ATOM     17  C   UNL     1      45.209 131.132  20.334  1.00  0.00     0.013 C 
ATOM     18  C   UNL     1      42.895 131.661  20.776  1.00  0.00     0.013 C 
ATOM     19  C   UNL     1      44.648 131.754  19.061  1.00  0.00     0.001 C 
ATOM     20  C   UNL     1      43.177 132.072  19.335  1.00  0.00     0.001 C 
ENDBRANCH  13  16
ENDBRANCH   9  12
TORSDOF 3
ENDMDL
MODEL 4
REMARK VINA RESULT:      -5.4      3.530      5.399
REMARK SMILES N#C[C@H]1c2ccccc2C[C@@H]1NC(=O)C1CCCC1
REMARK SMILES IDX 3 1 4 2 5 3 6 4 7 5 8 6 9 7 10 8 11 9 2 10 1 11 12 12 13 13
REMARK SMILES IDX 14 15 15 16 16 17 19 18 17 19 18 20
REMARK H PARENT 12 14
ROOT
ATOM      1  C   UNL     1      44.551 127.208  23.063  1.00  0.00     0.145 C 
ATOM      2  C   UNL     1      43.182 126.745  23.401  1.00  0.00    -0.025 A 
ATOM      3  C   UNL     1      42.652 125.467  23.197  1.00  0.00     0.005 A 
ATOM      4  C   UNL     1      41.328 125.214  23.585  1.00  0.00     0.000 A 
ATOM      5  C   UNL     1      40.555 126.234  24.168  1.00  0.00     0.000 A 
ATOM      6  C   UNL     1      41.105 127.511  24.361  1.00  0.00     0.004 A 
ATOM      7  C   UNL     1      42.424 127.743  23.961  1.00  0.00    -0.041 A 
ATOM      8  C   UNL     1      43.178 129.010  24.093  1.00  0.00     0.062 C 
ATOM      9  C   UNL     1      44.499 128.740  23.328  1.00  0.00     0.108 C 
ENDROOT
BRANCH   1  10
ATOM     10  C   UNL     1      45.536 126.548  23.936  1.00  0.00     0.073 C 
ATOM     11  N   UNL     1      46.311 126.030  24.622  1.00  0.00    -0.198 NA
ENDBRANCH   1  10
BRANCH   9  12
ATOM     12  N   UNL     1      44.531 129.469  22.054  1.00  0.00    -0.351 N 
ATOM     13  C   UNL     1      44.373 130.894  21.997  1.00  0.00     0.223 C 
ATOM     14  H   UNL     1      44.687 128.950  21.161  1.00  0.00     0.163 HD
ATOM     15  O   UNL     1      44.176 131.551  23.056  1.00  0.00    -0.275 OA
BRANCH  13  16
ATOM     16  C   UNL     1      44.462 131.614  20.674  1.00  0.00     0.078 C 
ATOM     17  C   UNL     1      45.322 130.875  19.655  1.00  0.00     0.013 C 
ATOM     18  C   UNL     1      43.105 131.767  20.001  1.00  0.00     0.013 C 
ATOM     19  C   UNL     1      44.814 131.334  18.294  1.00  0.00     0.001 C 
ATOM     20  C   UNL     1      43.401 131.882  18.510  1.00  0.00     0.001 C 
ENDBRANCH  13  16
ENDBRANCH   9  12
TORSDOF 3
ENDMDL
MODEL 5
REMARK VINA RESULT:      -5.4      4.079      7.220
REMARK SMILES N#C[C@H]1c2ccccc2C[C@@H]1NC(=O)C1CCCC1
REMARK SMILES IDX 3 1 4 2 5 3 6 4 7 5 8 6 9 7 10 8 11 9 2 10 1 11 12 12 13 13
REMARK SMILES IDX 14 15 15 16 16 17 19 18 17 19 18 20
REMARK H PARENT 12 14
ROOT
ATOM      1  C   UNL     1      42.944 130.496  22.971  1.00  0.00     0.145 C 
ATOM      2  C   UNL     1      43.615 130.820  21.687  1.00  0.00    -0.025 A 
ATOM      3  C   UNL     1      43.188 131.739  20.723  1.00  0.00     0.005 A 
ATOM      4  C   UNL     1      43.961 131.912  19.565  1.00  0.00     0.000 A 
ATOM      5  C   UNL     1      45.142 131.171  19.386  1.00  0.00     0.000 A 
ATOM      6  C   UNL     1      45.552 130.252  20.365  1.00  0.00     0.004 A 
ATOM      7  C   UNL     1      44.764 130.089  21.507  1.00  0.00    -0.041 A 
ATOM      8  C   UNL     1      45.034 129.186  22.647  1.00  0.00     0.062 C 
ATOM      9  C   UNL     1      43.755 129.287  23.517  1.00  0.00     0.108 C 
ENDROOT
BRANCH   1  10
ATOM     10  C   UNL     1      43.021 131.648  23.884  1.00  0.00     0.073 C 
ATOM     11  N   UNL     1      43.081 132.553  24.603  1.00  0.00    -0.198 NA
ENDBRANCH   1  10
BRANCH   9  12
ATOM     12  N   UNL     1      42.952 128.062  23.420  1.00  0.00    -0.351 N 
ATOM     13  C   UNL     1      43.437 126.801  23.906  1.00  0.00     0.223 C 
ATOM     14  H   UNL     1      41.994 128.098  23.003  1.00  0.00     0.163 HD
ATOM     15  O   UNL     1      44.591 126.721  24.410  1.00  0.00    -0.275 OA
BRANCH  13  16
ATOM     16  C   UNL     1      42.562 125.575  23.835  1.00  0.00     0.078 C 
ATOM     17  C   UNL     1      41.116 125.898  23.477  1.00  0.00     0.013 C 
ATOM     18  C   UNL     1      43.019 124.594  22.764  1.00  0.00     0.013 C 
ATOM     19  C   UNL     1      40.567 124.627  22.841  1.00  0.00     0.001 C 
ATOM     20  C   UNL     1      41.772 123.809  22.372  1.00  0.00     0.001 C 
ENDBRANCH  13  16
ENDBRANCH   9  12
TORSDOF 3
ENDMDL
MODEL 6
REMARK VINA RESULT:      -5.0      1.023      1.049
REMARK SMILES N#C[C@H]1c2ccccc2C[C@@H]1NC(=O)C1CCCC1
REMARK SMILES IDX 3 1 4 2 5 3 6 4 7 5 8 6 9 7 10 8 11 9 2 10 1 11 12 12 13 13
REMARK SMILES IDX 14 15 15 16 16 17 19 18 17 19 18 20
REMARK H PARENT 12 14
ROOT
ATOM      1  C   UNL     1      45.311 131.563  20.541  1.00  0.00     0.145 C 
ATOM      2  C   UNL     1      44.547 130.726  21.500  1.00  0.00    -0.025 A 
ATOM      3  C   UNL     1      45.047 129.687  22.292  1.00  0.00     0.005 A 
ATOM      4  C   UNL     1      44.167 129.005  23.147  1.00  0.00     0.000 A 
ATOM      5  C   UNL     1      42.809 129.368  23.199  1.00  0.00     0.000 A 
ATOM      6  C   UNL     1      42.328 130.412  22.393  1.00  0.00     0.004 A 
ATOM      7  C   UNL     1      43.220 131.073  21.544  1.00  0.00    -0.041 A 
ATOM      8  C   UNL     1      42.907 132.198  20.636  1.00  0.00     0.062 C 
ATOM      9  C   UNL     1      44.212 132.398  19.824  1.00  0.00     0.108 C 
ENDROOT
BRANCH   1  10
ATOM     10  C   UNL     1      46.252 132.430  21.268  1.00  0.00     0.073 C 
ATOM     11  N   UNL     1      46.993 133.111  21.841  1.00  0.00    -0.198 NA
ENDBRANCH   1  10
BRANCH   9  12
ATOM     12  N   UNL     1      44.051 131.930  18.442  1.00  0.00    -0.351 N 
ATOM     13  C   UNL     1      45.081 131.189  17.771  1.00  0.00     0.223 C 
ATOM     14  H   UNL     1      43.161 132.121  17.927  1.00  0.00     0.163 HD
ATOM     15  O   UNL     1      46.170 130.946  18.360  1.00  0.00    -0.275 OA
BRANCH  13  16
ATOM     16  C   UNL     1      44.858 130.680  16.368  1.00  0.00     0.078 C 
ATOM     17  C   UNL     1      45.175 131.722  15.302  1.00  0.00     0.013 C 
ATOM     18  C   UNL     1      45.748 129.493  16.031  1.00  0.00     0.013 C 
ATOM     19  C   UNL     1      45.517 130.923  14.050  1.00  0.00     0.001 C 
ATOM     20  C   UNL     1      45.899 129.516  14.514  1.00  0.00     0.001 C 
ENDBRANCH  13  16
ENDBRANCH   9  12
TORSDOF 3
ENDMDL
MODEL 7
REMARK VINA RESULT:      -4.9      3.788      6.695
REMARK SMILES N#C[C@H]1c2ccccc2C[C@@H]1NC(=O)C1CCCC1
REMARK SMILES IDX 3 1 4 2 5 3 6 4 7 5 8 6 9 7 10 8 11 9 2 10 1 11 12 12 13 13
REMARK SMILES IDX 14 15 15 16 16 17 19 18 17 19 18 20
REMARK H PARENT 12 14
ROOT
ATOM      1  C   UNL     1      43.594 130.458  22.502  1.00  0.00     0.145 C 
ATOM      2  C   UNL     1      43.588 131.054  21.143  1.00  0.00    -0.025 A 
ATOM      3  C   UNL     1      42.597 131.870  20.587  1.00  0.00     0.005 A 
ATOM      4  C   UNL     1      42.769 132.344  19.278  1.00  0.00     0.000 A 
ATOM      5  C   UNL     1      43.920 132.001  18.546  1.00  0.00     0.000 A 
ATOM      6  C   UNL     1      44.901 131.179  19.123  1.00  0.00     0.004 A 
ATOM      7  C   UNL     1      44.707 130.711  20.425  1.00  0.00    -0.041 A 
ATOM      8  C   UNL     1      45.627 129.852  21.202  1.00  0.00     0.062 C 
ATOM      9  C   UNL     1      44.826 129.508  22.484  1.00  0.00     0.108 C 
ENDROOT
BRANCH   1  10
ATOM     10  C   UNL     1      43.749 131.514  23.516  1.00  0.00     0.073 C 
ATOM     11  N   UNL     1      43.868 132.345  24.312  1.00  0.00    -0.198 NA
ENDBRANCH   1  10
BRANCH   9  12
ATOM     12  N   UNL     1      44.379 128.110  22.469  1.00  0.00    -0.351 N 
ATOM     13  C   UNL     1      44.599 127.235  23.585  1.00  0.00     0.223 C 
ATOM     14  H   UNL     1      43.872 127.734  21.635  1.00  0.00     0.163 HD
ATOM     15  O   UNL     1      45.212 127.655  24.605  1.00  0.00    -0.275 OA
BRANCH  13  16
ATOM     16  C   UNL     1      44.079 125.819  23.552  1.00  0.00     0.078 C 
ATOM     17  C   UNL     1      42.569 125.747  23.366  1.00  0.00     0.013 C 
ATOM     18  C   UNL     1      44.655 125.015  22.394  1.00  0.00     0.013 C 
ATOM     19  C   UNL     1      42.308 124.384  22.734  1.00  0.00     0.001 C 
ATOM     20  C   UNL     1      43.625 123.929  22.102  1.00  0.00     0.001 C 
ENDBRANCH  13  16
ENDBRANCH   9  12
TORSDOF 3
ENDMDL
MODEL 8
REMARK VINA RESULT:      -4.8      1.857      2.704
REMARK SMILES N#C[C@H]1c2ccccc2C[C@@H]1NC(=O)C1CCCC1
REMARK SMILES IDX 3 1 4 2 5 3 6 4 7 5 8 6 9 7 10 8 11 9 2 10 1 11 12 12 13 13
REMARK SMILES IDX 14 15 15 16 16 17 19 18 17 19 18 20
REMARK H PARENT 12 14
ROOT
ATOM      1  C   UNL     1      44.804 131.227  22.758  1.00  0.00     0.145 C 
ATOM      2  C   UNL     1      44.147 129.999  23.274  1.00  0.00    -0.025 A 
ATOM      3  C   UNL     1      44.633 129.137  24.262  1.00  0.00     0.005 A 
ATOM      4  C   UNL     1      43.864 128.020  24.622  1.00  0.00     0.000 A 
ATOM      5  C   UNL     1      42.628 127.781  23.996  1.00  0.00     0.000 A 
ATOM      6  C   UNL     1      42.159 128.658  23.005  1.00  0.00     0.004 A 
ATOM      7  C   UNL     1      42.944 129.760  22.656  1.00  0.00    -0.041 A 
ATOM      8  C   UNL     1      42.617 130.796  21.651  1.00  0.00     0.062 C 
ATOM      9  C   UNL     1      43.909 131.648  21.558  1.00  0.00     0.108 C 
ENDROOT
BRANCH   1  10
ATOM     10  C   UNL     1      44.823 132.265  23.802  1.00  0.00     0.073 C 
ATOM     11  N   UNL     1      44.837 133.079  24.623  1.00  0.00    -0.198 NA
ENDBRANCH   1  10
BRANCH   9  12
ATOM     12  N   UNL     1      44.616 131.399  20.296  1.00  0.00    -0.351 N 
ATOM     13  C   UNL     1      44.061 131.791  19.031  1.00  0.00     0.223 C 
ATOM     14  H   UNL     1      45.555 130.940  20.306  1.00  0.00     0.163 HD
ATOM     15  O   UNL     1      42.927 132.342  18.982  1.00  0.00    -0.275 OA
BRANCH  13  16
ATOM     16  C   UNL     1      44.841 131.564  17.759  1.00  0.00     0.078 C 
ATOM     17  C   UNL     1      45.695 130.303  17.805  1.00  0.00     0.013 C 
ATOM     18  C   UNL     1      43.938 131.381  16.547  1.00  0.00     0.013 C 
ATOM     19  C   UNL     1      45.877 129.890  16.349  1.00  0.00     0.001 C 
ATOM     20  C   UNL     1      44.752 130.558  15.555  1.00  0.00     0.001 C 
ENDBRANCH  13  16
ENDBRANCH   9  12
TORSDOF 3
ENDMDL
MODEL 9
REMARK VINA RESULT:      -4.7      3.917      7.029
REMARK SMILES N#C[C@H]1c2ccccc2C[C@@H]1NC(=O)C1CCCC1
REMARK SMILES IDX 3 1 4 2 5 3 6 4 7 5 8 6 9 7 10 8 11 9 2 10 1 11 12 12 13 13
REMARK SMILES IDX 14 15 15 16 16 17 19 18 17 19 18 20
REMARK H PARENT 12 14
ROOT
ATOM      1  C   UNL     1      43.365 130.588  22.881  1.00  0.00     0.145 C 
ATOM      2  C   UNL     1      43.474 131.119  21.500  1.00  0.00    -0.025 A 
ATOM      3  C   UNL     1      42.628 132.051  20.888  1.00  0.00     0.005 A 
ATOM      4  C   UNL     1      42.894 132.438  19.566  1.00  0.00     0.000 A 
ATOM      5  C   UNL     1      43.993 131.894  18.876  1.00  0.00     0.000 A 
ATOM      6  C   UNL     1      44.827 130.959  19.508  1.00  0.00     0.004 A 
ATOM      7  C   UNL     1      44.540 130.581  20.823  1.00  0.00    -0.041 A 
ATOM      8  C   UNL     1      45.305 129.626  21.656  1.00  0.00     0.062 C 
ATOM      9  C   UNL     1      44.438 129.463  22.930  1.00  0.00     0.108 C 
ENDROOT
BRANCH   1  10
ATOM     10  C   UNL     1      43.659 131.651  23.855  1.00  0.00     0.073 C 
ATOM     11  N   UNL     1      43.892 132.486  24.622  1.00  0.00    -0.198 NA
ENDBRANCH   1  10
BRANCH   9  12
ATOM     12  N   UNL     1      43.784 128.149  22.959  1.00  0.00    -0.351 N 
ATOM     13  C   UNL     1      44.536 126.935  23.103  1.00  0.00     0.223 C 
ATOM     14  H   UNL     1      42.743 128.083  22.890  1.00  0.00     0.163 HD
ATOM     15  O   UNL     1      45.795 126.978  23.183  1.00  0.00    -0.275 OA
BRANCH  13  16
ATOM     16  C   UNL     1      43.824 125.607  23.180  1.00  0.00     0.078 C 
ATOM     17  C   UNL     1      44.684 124.445  22.699  1.00  0.00     0.013 C 
ATOM     18  C   UNL     1      43.431 125.240  24.604  1.00  0.00     0.013 C 
ATOM     19  C   UNL     1      44.125 123.215  23.405  1.00  0.00     0.001 C 
ATOM     20  C   UNL     1      43.347 123.718  24.622  1.00  0.00     0.001 C 
ENDBRANCH  13  16
ENDBRANCH   9  12
TORSDOF 3
ENDMDL


