REMARK SMILES O=Cc1c([NH2+]C2CC(=O)C2)ccc2cc3ccccc3cc12
REMARK SMILES IDX 3 1 4 2 11 3 12 4 13 5 14 6 15 7 16 8 17 9 18 10 19 11 20 12
REMARK SMILES IDX 21 13 22 14 2 15 1 16 5 17 6 20 7 21 10 22 8 23 9 24
REMARK H PARENT 5 18 5 19
ROOT
ATOM      1  C   UNL     1      -0.350  -0.294   1.050  1.00  0.00     0.083 A 
ATOM      2  C   UNL     1       0.003  -1.655   0.802  1.00  0.00     0.141 A 
ATOM      3  C   UNL     1       0.650  -1.988  -0.399  1.00  0.00     0.069 A 
ATOM      4  C   UNL     1       0.959  -1.019  -1.344  1.00  0.00     0.015 A 
ATOM      5  C   UNL     1       0.622   0.318  -1.124  1.00  0.00    -0.017 A 
ATOM      6  C   UNL     1       0.939   1.279  -2.097  1.00  0.00     0.017 A 
ATOM      7  C   UNL     1       0.596   2.622  -1.909  1.00  0.00    -0.018 A 
ATOM      8  C   UNL     1       0.912   3.583  -2.882  1.00  0.00     0.009 A 
ATOM      9  C   UNL     1       0.558   4.921  -2.689  1.00  0.00     0.001 A 
ATOM     10  C   UNL     1      -0.113   5.309  -1.527  1.00  0.00     0.001 A 
ATOM     11  C   UNL     1      -0.433   4.361  -0.551  1.00  0.00     0.009 A 
ATOM     12  C   UNL     1      -0.081   3.013  -0.733  1.00  0.00    -0.018 A 
ATOM     13  C   UNL     1      -0.398   2.055   0.242  1.00  0.00     0.018 A 
ATOM     14  C   UNL     1      -0.040   0.697   0.072  1.00  0.00    -0.001 A 
ENDROOT
BRANCH   1  15
ATOM     15  C   UNL     1      -0.980   0.105   2.333  1.00  0.00     0.266 C 
ATOM     16  O   UNL     1      -1.942  -0.544   2.822  1.00  0.00    -0.298 OA
ENDBRANCH   1  15
BRANCH   2  17
ATOM     17  N   UNL     1      -0.271  -2.710   1.756  1.00  0.00    -0.310 N 
ATOM     18  H   UNL     1      -0.227  -2.336   2.731  1.00  0.00     0.352 HD
ATOM     19  H   UNL     1       0.479  -3.441   1.705  1.00  0.00     0.352 HD
BRANCH  17  20
ATOM     20  C   UNL     1      -1.601  -3.301   1.503  1.00  0.00     0.202 C 
ATOM     21  C   UNL     1      -1.992  -4.325   2.532  1.00  0.00     0.141 C 
ATOM     22  C   UNL     1      -1.602  -4.431   0.507  1.00  0.00     0.141 C 
ATOM     23  C   UNL     1      -2.012  -5.469   1.535  1.00  0.00     0.144 C 
ATOM     24  O   UNL     1      -2.248  -6.666   1.552  1.00  0.00    -0.299 OA
ENDBRANCH  17  20
ENDBRANCH   2  17
TORSDOF 3


