MODEL 1
REMARK VINA RESULT:     -10.1      0.000      0.000
REMARK SMILES C=Cc1cc(-c2ccc(C)c3n[nH]cc23)ccc1[O-]
REMARK SMILES IDX 3 1 4 2 5 3 16 4 17 5 18 6 19 7 2 8 1 9 6 10 7 11 15 12 8 13
REMARK SMILES IDX 14 14 11 15 9 16 13 17 12 18 10 19
REMARK H PARENT 13 20
ROOT
ATOM      1  C   UNL     1      46.571 130.228  15.269  1.00  0.00    -0.034 A 
ATOM      2  C   UNL     1      46.271 130.291  16.645  1.00  0.00     0.016 A 
ATOM      3  C   UNL     1      45.192 131.061  17.112  1.00  0.00    -0.017 A 
ATOM      4  C   UNL     1      44.389 131.747  16.189  1.00  0.00     0.008 A 
ATOM      5  C   UNL     1      44.667 131.676  14.824  1.00  0.00    -0.007 A 
ATOM      6  C   UNL     1      45.750 130.923  14.361  1.00  0.00    -0.102 A 
ATOM      7  O   UNL     1      46.004 130.877  12.993  1.00  0.00    -0.872 OA
ENDROOT
BRANCH   1   8
ATOM      8  C   UNL     1      47.706 129.418  14.757  1.00  0.00    -0.001 C 
ATOM      9  C   UNL     1      48.276 129.610  13.567  1.00  0.00     0.009 C 
ENDBRANCH   1   8
BRANCH   3  10
ATOM     10  C   UNL     1      44.881 131.122  18.559  1.00  0.00    -0.007 A 
ATOM     11  C   UNL     1      45.766 130.571  19.513  1.00  0.00     0.010 A 
ATOM     12  C   UNL     1      43.714 131.723  19.052  1.00  0.00     0.028 A 
ATOM     13  C   UNL     1      45.479 130.639  20.894  1.00  0.00     0.006 A 
ATOM     14  C   UNL     1      42.634 132.314  18.430  1.00  0.00     0.114 A 
ATOM     15  C   UNL     1      43.432 131.784  20.391  1.00  0.00     0.096 A 
ATOM     16  C   UNL     1      44.290 131.245  21.353  1.00  0.00    -0.023 A 
ATOM     17  N   UNL     1      41.774 132.709  19.394  1.00  0.00    -0.284 N 
ATOM     18  N   UNL     1      42.248 132.392  20.593  1.00  0.00    -0.175 NA
ATOM     19  C   UNL     1      43.981 131.347  22.818  1.00  0.00     0.047 C 
ATOM     20  H   UNL     1      40.862 133.189  19.236  1.00  0.00     0.189 HD
ENDBRANCH   3  10
TORSDOF 2
ENDMDL
MODEL 2
REMARK VINA RESULT:      -9.3      3.382      6.380
REMARK SMILES C=Cc1cc(-c2ccc(C)c3n[nH]cc23)ccc1[O-]
REMARK SMILES IDX 3 1 4 2 5 3 16 4 17 5 18 6 19 7 2 8 1 9 6 10 7 11 15 12 8 13
REMARK SMILES IDX 14 14 11 15 9 16 13 17 12 18 10 19
REMARK H PARENT 13 20
ROOT
ATOM      1  C   UNL     1      44.164 131.612  20.243  1.00  0.00    -0.034 A 
ATOM      2  C   UNL     1      44.943 131.476  19.076  1.00  0.00     0.016 A 
ATOM      3  C   UNL     1      44.367 131.638  17.804  1.00  0.00    -0.017 A 
ATOM      4  C   UNL     1      43.008 131.970  17.703  1.00  0.00     0.008 A 
ATOM      5  C   UNL     1      42.234 132.125  18.853  1.00  0.00    -0.007 A 
ATOM      6  C   UNL     1      42.803 131.948  20.118  1.00  0.00    -0.102 A 
ATOM      7  O   UNL     1      42.002 132.104  21.246  1.00  0.00    -0.872 OA
ENDROOT
BRANCH   1   8
ATOM      8  C   UNL     1      44.755 131.446  21.596  1.00  0.00    -0.001 C 
ATOM      9  C   UNL     1      44.553 130.376  22.366  1.00  0.00     0.009 C 
ENDBRANCH   1   8
BRANCH   3  10
ATOM     10  C   UNL     1      45.191 131.494  16.581  1.00  0.00    -0.007 A 
ATOM     11  C   UNL     1      45.792 132.622  15.976  1.00  0.00     0.010 A 
ATOM     12  C   UNL     1      45.418 130.252  15.970  1.00  0.00     0.028 A 
ATOM     13  C   UNL     1      46.587 132.486  14.817  1.00  0.00     0.006 A 
ATOM     14  C   UNL     1      44.973 128.978  16.252  1.00  0.00     0.114 A 
ATOM     15  C   UNL     1      46.185 130.121  14.843  1.00  0.00     0.096 A 
ATOM     16  C   UNL     1      46.787 131.221  14.225  1.00  0.00    -0.023 A 
ATOM     17  N   UNL     1      45.487 128.150  15.317  1.00  0.00    -0.284 N 
ATOM     18  N   UNL     1      46.227 128.834  14.452  1.00  0.00    -0.175 NA
ATOM     19  C   UNL     1      47.650 131.055  13.009  1.00  0.00     0.047 C 
ATOM     20  H   UNL     1      45.329 127.121  15.263  1.00  0.00     0.189 HD
ENDBRANCH   3  10
TORSDOF 2
ENDMDL
MODEL 3
REMARK VINA RESULT:      -9.2      0.912      2.052
REMARK SMILES C=Cc1cc(-c2ccc(C)c3n[nH]cc23)ccc1[O-]
REMARK SMILES IDX 3 1 4 2 5 3 16 4 17 5 18 6 19 7 2 8 1 9 6 10 7 11 15 12 8 13
REMARK SMILES IDX 14 14 11 15 9 16 13 17 12 18 10 19
REMARK H PARENT 13 20
ROOT
ATOM      1  C   UNL     1      44.959 131.171  15.174  1.00  0.00    -0.034 A 
ATOM      2  C   UNL     1      44.538 131.393  16.501  1.00  0.00     0.016 A 
ATOM      3  C   UNL     1      45.231 130.820  17.582  1.00  0.00    -0.017 A 
ATOM      4  C   UNL     1      46.373 130.045  17.331  1.00  0.00     0.008 A 
ATOM      5  C   UNL     1      46.807 129.834  16.022  1.00  0.00    -0.007 A 
ATOM      6  C   UNL     1      46.110 130.391  14.947  1.00  0.00    -0.102 A 
ATOM      7  O   UNL     1      46.566 130.158  13.653  1.00  0.00    -0.872 OA
ENDROOT
BRANCH   1   8
ATOM      8  C   UNL     1      44.241 131.769  14.020  1.00  0.00    -0.001 C 
ATOM      9  C   UNL     1      42.949 131.562  13.763  1.00  0.00     0.009 C 
ENDBRANCH   1   8
BRANCH   3  10
ATOM     10  C   UNL     1      44.783 131.058  18.974  1.00  0.00    -0.007 A 
ATOM     11  C   UNL     1      45.548 130.596  20.069  1.00  0.00     0.010 A 
ATOM     12  C   UNL     1      43.599 131.746  19.274  1.00  0.00     0.028 A 
ATOM     13  C   UNL     1      45.129 130.832  21.397  1.00  0.00     0.006 A 
ATOM     14  C   UNL     1      42.610 132.292  18.483  1.00  0.00     0.114 A 
ATOM     15  C   UNL     1      43.190 131.971  20.563  1.00  0.00     0.096 A 
ATOM     16  C   UNL     1      43.927 131.522  21.662  1.00  0.00    -0.023 A 
ATOM     17  N   UNL     1      41.677 132.822  19.304  1.00  0.00    -0.284 N 
ATOM     18  N   UNL     1      42.018 132.632  20.574  1.00  0.00    -0.175 NA
ATOM     19  C   UNL     1      43.481 131.802  23.066  1.00  0.00     0.047 C 
ATOM     20  H   UNL     1      40.804 133.306  19.001  1.00  0.00     0.189 HD
ENDBRANCH   3  10
TORSDOF 2
ENDMDL
MODEL 4
REMARK VINA RESULT:      -8.7      1.448      2.198
REMARK SMILES C=Cc1cc(-c2ccc(C)c3n[nH]cc23)ccc1[O-]
REMARK SMILES IDX 3 1 4 2 5 3 16 4 17 5 18 6 19 7 2 8 1 9 6 10 7 11 15 12 8 13
REMARK SMILES IDX 14 14 11 15 9 16 13 17 12 18 10 19
REMARK H PARENT 13 20
ROOT
ATOM      1  C   UNL     1      46.239 130.507  15.381  1.00  0.00    -0.034 A 
ATOM      2  C   UNL     1      45.703 130.694  16.672  1.00  0.00     0.016 A 
ATOM      3  C   UNL     1      44.484 131.369  16.855  1.00  0.00    -0.017 A 
ATOM      4  C   UNL     1      43.781 131.832  15.732  1.00  0.00     0.008 A 
ATOM      5  C   UNL     1      44.295 131.636  14.450  1.00  0.00    -0.007 A 
ATOM      6  C   UNL     1      45.514 130.978  14.269  1.00  0.00    -0.102 A 
ATOM      7  O   UNL     1      46.002 130.804  12.978  1.00  0.00    -0.872 OA
ENDROOT
BRANCH   1   8
ATOM      8  C   UNL     1      47.525 129.795  15.168  1.00  0.00    -0.001 C 
ATOM      9  C   UNL     1      47.998 129.465  13.966  1.00  0.00     0.009 C 
ENDBRANCH   1   8
BRANCH   3  10
ATOM     10  C   UNL     1      43.927 131.561  18.214  1.00  0.00    -0.007 A 
ATOM     11  C   UNL     1      42.614 132.053  18.395  1.00  0.00     0.010 A 
ATOM     12  C   UNL     1      44.658 131.267  19.374  1.00  0.00     0.028 A 
ATOM     13  C   UNL     1      42.076 132.225  19.690  1.00  0.00     0.006 A 
ATOM     14  C   UNL     1      45.946 130.819  19.577  1.00  0.00     0.114 A 
ATOM     15  C   UNL     1      44.138 131.440  20.630  1.00  0.00     0.096 A 
ATOM     16  C   UNL     1      42.845 131.927  20.834  1.00  0.00    -0.023 A 
ATOM     17  N   UNL     1      46.141 130.728  20.910  1.00  0.00    -0.284 N 
ATOM     18  N   UNL     1      45.048 131.104  21.563  1.00  0.00    -0.175 NA
ATOM     19  C   UNL     1      42.280 132.081  22.216  1.00  0.00     0.047 C 
ATOM     20  H   UNL     1      47.021 130.417  21.376  1.00  0.00     0.189 HD
ENDBRANCH   3  10
TORSDOF 2
ENDMDL
MODEL 5
REMARK VINA RESULT:      -8.6      1.647      2.680
REMARK SMILES C=Cc1cc(-c2ccc(C)c3n[nH]cc23)ccc1[O-]
REMARK SMILES IDX 3 1 4 2 5 3 16 4 17 5 18 6 19 7 2 8 1 9 6 10 7 11 15 12 8 13
REMARK SMILES IDX 14 14 11 15 9 16 13 17 12 18 10 19
REMARK H PARENT 13 20
ROOT
ATOM      1  C   UNL     1      46.647 130.966  14.781  1.00  0.00    -0.034 A 
ATOM      2  C   UNL     1      45.816 131.525  15.773  1.00  0.00     0.016 A 
ATOM      3  C   UNL     1      45.110 130.703  16.668  1.00  0.00    -0.017 A 
ATOM      4  C   UNL     1      45.265 129.311  16.588  1.00  0.00     0.008 A 
ATOM      5  C   UNL     1      46.099 128.749  15.622  1.00  0.00    -0.007 A 
ATOM      6  C   UNL     1      46.789 129.566  14.722  1.00  0.00    -0.102 A 
ATOM      7  O   UNL     1      47.609 128.974  13.766  1.00  0.00    -0.872 OA
ENDROOT
BRANCH   1   8
ATOM      8  C   UNL     1      47.402 131.818  13.827  1.00  0.00    -0.001 C 
ATOM      9  C   UNL     1      47.926 131.368  12.686  1.00  0.00     0.009 C 
ENDBRANCH   1   8
BRANCH   3  10
ATOM     10  C   UNL     1      44.239 131.297  17.708  1.00  0.00    -0.007 A 
ATOM     11  C   UNL     1      42.963 131.809  17.378  1.00  0.00     0.010 A 
ATOM     12  C   UNL     1      44.625 131.380  19.054  1.00  0.00     0.028 A 
ATOM     13  C   UNL     1      42.126 132.365  18.370  1.00  0.00     0.006 A 
ATOM     14  C   UNL     1      45.781 131.027  19.717  1.00  0.00     0.114 A 
ATOM     15  C   UNL     1      43.814 131.924  20.016  1.00  0.00     0.096 A 
ATOM     16  C   UNL     1      42.551 132.439  19.713  1.00  0.00    -0.023 A 
ATOM     17  N   UNL     1      45.620 131.350  21.019  1.00  0.00    -0.284 N 
ATOM     18  N   UNL     1      44.427 131.899  21.214  1.00  0.00    -0.175 NA
ATOM     19  C   UNL     1      41.664 133.004  20.783  1.00  0.00     0.047 C 
ATOM     20  H   UNL     1      46.326 131.205  21.773  1.00  0.00     0.189 HD
ENDBRANCH   3  10
TORSDOF 2
ENDMDL
MODEL 6
REMARK VINA RESULT:      -8.4      3.147      6.204
REMARK SMILES C=Cc1cc(-c2ccc(C)c3n[nH]cc23)ccc1[O-]
REMARK SMILES IDX 3 1 4 2 5 3 16 4 17 5 18 6 19 7 2 8 1 9 6 10 7 11 15 12 8 13
REMARK SMILES IDX 14 14 11 15 9 16 13 17 12 18 10 19
REMARK H PARENT 13 20
ROOT
ATOM      1  C   UNL     1      43.720 131.771  20.813  1.00  0.00    -0.034 A 
ATOM      2  C   UNL     1      44.504 131.359  19.716  1.00  0.00     0.016 A 
ATOM      3  C   UNL     1      44.022 131.482  18.401  1.00  0.00    -0.017 A 
ATOM      4  C   UNL     1      42.759 132.052  18.184  1.00  0.00     0.008 A 
ATOM      5  C   UNL     1      41.984 132.478  19.262  1.00  0.00    -0.007 A 
ATOM      6  C   UNL     1      42.456 132.342  20.571  1.00  0.00    -0.102 A 
ATOM      7  O   UNL     1      41.657 132.773  21.625  1.00  0.00    -0.872 OA
ENDROOT
BRANCH   1   8
ATOM      8  C   UNL     1      44.213 131.651  22.209  1.00  0.00    -0.001 C 
ATOM      9  C   UNL     1      44.058 130.558  22.958  1.00  0.00     0.009 C 
ENDBRANCH   1   8
BRANCH   3  10
ATOM     10  C   UNL     1      44.851 131.048  17.252  1.00  0.00    -0.007 A 
ATOM     11  C   UNL     1      46.102 130.422  17.457  1.00  0.00     0.010 A 
ATOM     12  C   UNL     1      44.445 131.230  15.922  1.00  0.00     0.028 A 
ATOM     13  C   UNL     1      46.888 129.997  16.364  1.00  0.00     0.006 A 
ATOM     14  C   UNL     1      43.334 131.821  15.358  1.00  0.00     0.114 A 
ATOM     15  C   UNL     1      45.210 130.822  14.861  1.00  0.00     0.096 A 
ATOM     16  C   UNL     1      46.450 130.203  15.039  1.00  0.00    -0.023 A 
ATOM     17  N   UNL     1      43.464 131.735  14.016  1.00  0.00    -0.284 N 
ATOM     18  N   UNL     1      44.603 131.130  13.700  1.00  0.00    -0.175 NA
ATOM     19  C   UNL     1      47.262 129.735  13.867  1.00  0.00     0.047 C 
ATOM     20  H   UNL     1      42.782 132.095  13.314  1.00  0.00     0.189 HD
ENDBRANCH   3  10
TORSDOF 2
ENDMDL
MODEL 7
REMARK VINA RESULT:      -7.9      3.479      6.646
REMARK SMILES C=Cc1cc(-c2ccc(C)c3n[nH]cc23)ccc1[O-]
REMARK SMILES IDX 3 1 4 2 5 3 16 4 17 5 18 6 19 7 2 8 1 9 6 10 7 11 15 12 8 13
REMARK SMILES IDX 14 14 11 15 9 16 13 17 12 18 10 19
REMARK H PARENT 13 20
ROOT
ATOM      1  C   UNL     1      42.943 132.066  19.563  1.00  0.00    -0.034 A 
ATOM      2  C   UNL     1      43.544 131.991  18.290  1.00  0.00     0.016 A 
ATOM      3  C   UNL     1      44.841 131.473  18.135  1.00  0.00    -0.017 A 
ATOM      4  C   UNL     1      45.528 130.997  19.261  1.00  0.00     0.008 A 
ATOM      5  C   UNL     1      44.935 131.049  20.522  1.00  0.00    -0.007 A 
ATOM      6  C   UNL     1      43.651 131.579  20.679  1.00  0.00    -0.102 A 
ATOM      7  O   UNL     1      43.089 131.623  21.951  1.00  0.00    -0.872 OA
ENDROOT
BRANCH   1   8
ATOM      8  C   UNL     1      41.573 132.608  19.746  1.00  0.00    -0.001 C 
ATOM      9  C   UNL     1      41.230 133.437  20.733  1.00  0.00     0.009 C 
ENDBRANCH   1   8
BRANCH   3  10
ATOM     10  C   UNL     1      45.466 131.397  16.794  1.00  0.00    -0.007 A 
ATOM     11  C   UNL     1      45.950 132.561  16.154  1.00  0.00     0.010 A 
ATOM     12  C   UNL     1      45.611 130.187  16.100  1.00  0.00     0.028 A 
ATOM     13  C   UNL     1      46.558 132.490  14.881  1.00  0.00     0.006 A 
ATOM     14  C   UNL     1      45.231 128.893  16.390  1.00  0.00     0.114 A 
ATOM     15  C   UNL     1      46.195 130.118  14.862  1.00  0.00     0.096 A 
ATOM     16  C   UNL     1      46.679 131.255  14.209  1.00  0.00    -0.023 A 
ATOM     17  N   UNL     1      45.605 128.116  15.351  1.00  0.00    -0.284 N 
ATOM     18  N   UNL     1      46.191 128.850  14.413  1.00  0.00    -0.175 NA
ATOM     19  C   UNL     1      47.343 131.158  12.867  1.00  0.00     0.047 C 
ATOM     20  H   UNL     1      45.453 127.087  15.276  1.00  0.00     0.189 HD
ENDBRANCH   3  10
TORSDOF 2
ENDMDL
MODEL 8
REMARK VINA RESULT:      -7.7      3.002      6.269
REMARK SMILES C=Cc1cc(-c2ccc(C)c3n[nH]cc23)ccc1[O-]
REMARK SMILES IDX 3 1 4 2 5 3 16 4 17 5 18 6 19 7 2 8 1 9 6 10 7 11 15 12 8 13
REMARK SMILES IDX 14 14 11 15 9 16 13 17 12 18 10 19
REMARK H PARENT 13 20
ROOT
ATOM      1  C   UNL     1      43.531 131.670  20.456  1.00  0.00    -0.034 A 
ATOM      2  C   UNL     1      43.955 131.547  19.117  1.00  0.00     0.016 A 
ATOM      3  C   UNL     1      45.130 130.847  18.795  1.00  0.00    -0.017 A 
ATOM      4  C   UNL     1      45.868 130.238  19.821  1.00  0.00     0.008 A 
ATOM      5  C   UNL     1      45.447 130.339  21.146  1.00  0.00    -0.007 A 
ATOM      6  C   UNL     1      44.287 131.048  21.469  1.00  0.00    -0.102 A 
ATOM      7  O   UNL     1      43.897 131.135  22.801  1.00  0.00    -0.872 OA
ENDROOT
BRANCH   1   8
ATOM      8  C   UNL     1      42.291 132.404  20.816  1.00  0.00    -0.001 C 
ATOM      9  C   UNL     1      41.624 133.191  19.970  1.00  0.00     0.009 C 
ENDBRANCH   1   8
BRANCH   3  10
ATOM     10  C   UNL     1      45.569 130.721  17.386  1.00  0.00    -0.007 A 
ATOM     11  C   UNL     1      46.813 130.133  17.064  1.00  0.00     0.010 A 
ATOM     12  C   UNL     1      44.785 131.169  16.313  1.00  0.00     0.028 A 
ATOM     13  C   UNL     1      47.228 130.001  15.721  1.00  0.00     0.006 A 
ATOM     14  C   UNL     1      43.565 131.811  16.250  1.00  0.00     0.114 A 
ATOM     15  C   UNL     1      45.190 131.047  15.009  1.00  0.00     0.096 A 
ATOM     16  C   UNL     1      46.416 130.471  14.667  1.00  0.00    -0.023 A 
ATOM     17  N   UNL     1      43.286 132.030  14.947  1.00  0.00    -0.284 N 
ATOM     18  N   UNL     1      44.268 131.570  14.181  1.00  0.00    -0.175 NA
ATOM     19  C   UNL     1      46.832 130.316  13.234  1.00  0.00     0.047 C 
ATOM     20  H   UNL     1      42.430 132.499  14.580  1.00  0.00     0.189 HD
ENDBRANCH   3  10
TORSDOF 2
ENDMDL
MODEL 9
REMARK VINA RESULT:      -7.6      3.393      6.453
REMARK SMILES C=Cc1cc(-c2ccc(C)c3n[nH]cc23)ccc1[O-]
REMARK SMILES IDX 3 1 4 2 5 3 16 4 17 5 18 6 19 7 2 8 1 9 6 10 7 11 15 12 8 13
REMARK SMILES IDX 14 14 11 15 9 16 13 17 12 18 10 19
REMARK H PARENT 13 20
ROOT
ATOM      1  C   UNL     1      43.712 131.570  20.818  1.00  0.00    -0.034 A 
ATOM      2  C   UNL     1      44.269 131.354  19.542  1.00  0.00     0.016 A 
ATOM      3  C   UNL     1      43.564 131.709  18.379  1.00  0.00    -0.017 A 
ATOM      4  C   UNL     1      42.305 132.316  18.499  1.00  0.00     0.008 A 
ATOM      5  C   UNL     1      41.753 132.550  19.759  1.00  0.00    -0.007 A 
ATOM      6  C   UNL     1      42.448 132.183  20.914  1.00  0.00    -0.102 A 
ATOM      7  O   UNL     1      41.868 132.425  22.156  1.00  0.00    -0.872 OA
ENDROOT
BRANCH   1   8
ATOM      8  C   UNL     1      44.443 131.203  22.058  1.00  0.00    -0.001 C 
ATOM      9  C   UNL     1      44.505 129.961  22.541  1.00  0.00     0.009 C 
ENDBRANCH   1   8
BRANCH   3  10
ATOM     10  C   UNL     1      44.155 131.480  17.040  1.00  0.00    -0.007 A 
ATOM     11  C   UNL     1      43.522 131.969  15.875  1.00  0.00     0.010 A 
ATOM     12  C   UNL     1      45.356 130.779  16.861  1.00  0.00     0.028 A 
ATOM     13  C   UNL     1      44.090 131.762  14.599  1.00  0.00     0.006 A 
ATOM     14  C   UNL     1      46.207 130.142  17.740  1.00  0.00     0.114 A 
ATOM     15  C   UNL     1      45.905 130.573  15.622  1.00  0.00     0.096 A 
ATOM     16  C   UNL     1      45.297 131.045  14.456  1.00  0.00    -0.023 A 
ATOM     17  N   UNL     1      47.214 129.606  17.018  1.00  0.00    -0.284 N 
ATOM     18  N   UNL     1      47.041 129.859  15.725  1.00  0.00    -0.175 NA
ATOM     19  C   UNL     1      45.926 130.837  13.110  1.00  0.00     0.047 C 
ATOM     20  H   UNL     1      48.015 129.060  17.403  1.00  0.00     0.189 HD
ENDBRANCH   3  10
TORSDOF 2
ENDMDL


