REMARK SMILES C[C@@H]1NN(/C(O)=C/c2ccn[nH+]c2)[C@@H](c2cc3ccc(F)cc3[nH]2)O1
REMARK SMILES IDX 5 1 6 2 7 4 8 5 9 6 13 7 10 8 12 9 11 10 4 12 3 13 14 14
REMARK SMILES IDX 2 15 25 16 1 18 15 19 16 20 24 21 17 22 23 23 18 24 22 25
REMARK SMILES IDX 19 26 20 27 21 29
REMARK H PARENT 6 3 12 11 3 17 24 28
ROOT
ATOM      1  C   UNL     1      -0.690   0.736  -0.662  1.00  0.00     0.205 C 
ENDROOT
BRANCH   1   2
ATOM      2  O   UNL     1      -1.645   0.303   0.261  1.00  0.00    -0.494 OA
ATOM      3  H   UNL     1      -1.603   0.537   1.243  1.00  0.00     0.295 HD
ENDBRANCH   1   2
BRANCH   1   4
ATOM      4  C   UNL     1      -0.833   0.416  -1.961  1.00  0.00     0.082 C 
BRANCH   4   5
ATOM      5  C   UNL     1      -1.928  -0.427  -2.491  1.00  0.00     0.048 A 
ATOM      6  C   UNL     1      -2.381  -1.575  -1.823  1.00  0.00     0.041 A 
ATOM      7  C   UNL     1      -2.487  -0.120  -3.737  1.00  0.00     0.343 A 
ATOM      8  C   UNL     1      -3.393  -2.343  -2.395  1.00  0.00     0.185 A 
ATOM      9  N   UNL     1      -3.473  -0.904  -4.250  1.00  0.00    -0.106 N 
ATOM     10  N   UNL     1      -3.913  -1.981  -3.596  1.00  0.00    -0.011 NA
ATOM     11  H   UNL     1      -3.893  -0.662  -5.174  1.00  0.00     0.490 HD
ENDBRANCH   4   5
ENDBRANCH   1   4
BRANCH   1  12
ATOM     12  N   UNL     1       0.426   1.546  -0.227  1.00  0.00    -0.242 N 
ATOM     13  N   UNL     1       1.332   2.126  -1.109  1.00  0.00    -0.201 NA
ATOM     14  C   UNL     1       0.670   1.953   1.135  1.00  0.00     0.283 C 
ATOM     15  C   UNL     1       2.137   2.995  -0.249  1.00  0.00     0.204 C 
ATOM     16  O   UNL     1       1.729   2.873   1.103  1.00  0.00    -0.332 OA
ATOM     17  H   UNL     1       1.943   1.355  -1.470  1.00  0.00     0.151 HD
ATOM     18  C   UNL     1       1.979   4.443  -0.698  1.00  0.00     0.058 C 
BRANCH  14  19
ATOM     19  C   UNL     1       1.062   0.775   1.981  1.00  0.00     0.068 A 
ATOM     20  C   UNL     1       2.048  -0.155   1.657  1.00  0.00     0.036 A 
ATOM     21  N   UNL     1       0.515   0.505   3.190  1.00  0.00    -0.355 N 
ATOM     22  C   UNL     1       2.076  -1.026   2.725  1.00  0.00     0.000 A 
ATOM     23  C   UNL     1       1.139  -0.599   3.630  1.00  0.00     0.049 A 
ATOM     24  C   UNL     1       2.861  -2.154   2.954  1.00  0.00     0.013 A 
ATOM     25  C   UNL     1       0.922  -1.273   4.832  1.00  0.00     0.065 A 
ATOM     26  C   UNL     1       2.664  -2.856   4.158  1.00  0.00     0.040 A 
ATOM     27  C   UNL     1       1.699  -2.417   5.093  1.00  0.00     0.125 A 
ATOM     28  H   UNL     1      -0.236   1.042   3.678  1.00  0.00     0.166 HD
ATOM     29  F   UNL     1       1.520  -3.102   6.249  1.00  0.00    -0.207 F 
ENDBRANCH  14  19
ENDBRANCH   1  12
TORSDOF 5


