REMARK SMILES O=C1Cc2ccc(-c3c[n-]c4nccc-4c3)cc2[N-]1
REMARK SMILES IDX 1 1 2 2 3 3 4 4 5 5 6 6 7 7 17 8 18 9 19 10 8 11 9 12 16 13
REMARK SMILES IDX 10 14 15 15 11 16 14 17 12 18 13 19
REMARK H PARENT
ROOT
ATOM      1  O   UNL     1      -4.869  -1.997   3.494  1.00  0.00    -0.320 OA
ATOM      2  C   UNL     1      -4.133  -1.434   2.642  1.00  0.00     0.059 C 
ATOM      3  C   UNL     1      -4.596  -0.322   1.751  1.00  0.00     0.089 C 
ATOM      4  C   UNL     1      -3.339  -0.076   0.991  1.00  0.00    -0.057 A 
ATOM      5  C   UNL     1      -3.110   0.857  -0.017  1.00  0.00     0.003 A 
ATOM      6  C   UNL     1      -1.835   0.913  -0.603  1.00  0.00     0.009 A 
ATOM      7  C   UNL     1      -0.803   0.039  -0.177  1.00  0.00    -0.020 A 
ATOM      8  C   UNL     1      -1.070  -0.895   0.850  1.00  0.00    -0.007 A 
ATOM      9  C   UNL     1      -2.344  -0.929   1.413  1.00  0.00    -0.130 A 
ATOM     10  N   UNL     1      -2.771  -1.806   2.442  1.00  0.00    -0.626 NA
ENDROOT
BRANCH   7  11
ATOM     11  C   UNL     1       0.543   0.104  -0.800  1.00  0.00    -0.022 A 
ATOM     12  C   UNL     1       0.676   0.299  -2.208  1.00  0.00    -0.014 A 
ATOM     13  C   UNL     1       1.704  -0.027  -0.000  1.00  0.00     0.016 A 
ATOM     14  N   UNL     1       1.904   0.363  -2.808  1.00  0.00    -0.442 NA
ATOM     15  C   UNL     1       2.931   0.044  -0.638  1.00  0.00    -0.026 A 
ATOM     16  C   UNL     1       3.012   0.240  -2.044  1.00  0.00    -0.052 A 
ATOM     17  C   UNL     1       4.226  -0.032  -0.194  1.00  0.00     0.003 A 
ATOM     18  N   UNL     1       4.284   0.285  -2.467  1.00  0.00    -0.442 NA
ATOM     19  C   UNL     1       5.018   0.118  -1.335  1.00  0.00    -0.022 A 
ENDBRANCH   7  11
TORSDOF 1


