MODEL 1
REMARK VINA RESULT:      -4.2      0.000      0.000
REMARK SMILES Cc1ccc(-c2ccc([O-])cc2)c2cn(C(=O)Nc3ccc(N(C)C)cc3)nc12
REMARK SMILES IDX 16 1 17 2 18 3 15 5 2 6 3 7 29 8 4 9 28 10 13 11 5 12 14 13
REMARK SMILES IDX 1 14 6 15 7 16 12 17 8 18 11 19 9 20 10 21 19 22 20 23 27 24
REMARK SMILES IDX 21 25 26 26 22 27 23 28 24 29 25 30
REMARK H PARENT 18 4
ROOT
ATOM      1  C   UNL     1      45.403 130.986  19.535  1.00  0.00     0.346 C 
ATOM      2  O   UNL     1      46.585 131.412  19.632  1.00  0.00    -0.246 OA
ATOM      3  N   UNL     1      44.794 130.836  18.241  1.00  0.00    -0.306 N 
ATOM      4  H   UNL     1      43.755 130.903  18.177  1.00  0.00     0.171 HD
ENDROOT
BRANCH   1   5
ATOM      5  N   UNL     1      44.661 130.698  20.730  1.00  0.00    -0.188 N 
ATOM      6  C   UNL     1      42.348 131.457  23.256  1.00  0.00    -0.023 A 
ATOM      7  C   UNL     1      42.068 130.692  24.408  1.00  0.00     0.006 A 
ATOM      8  C   UNL     1      43.291 130.948  22.361  1.00  0.00     0.096 A 
ATOM      9  C   UNL     1      42.704 129.448  24.619  1.00  0.00     0.010 A 
ATOM     10  N   UNL     1      43.757 131.528  21.239  1.00  0.00    -0.164 NA
ATOM     11  C   UNL     1      43.907 129.740  22.564  1.00  0.00     0.029 A 
ATOM     12  C   UNL     1      43.639 128.945  23.687  1.00  0.00    -0.007 A 
ATOM     13  C   UNL     1      44.789 129.601  21.514  1.00  0.00     0.129 A 
ATOM     14  C   UNL     1      41.716 132.801  23.045  1.00  0.00     0.047 C 
BRANCH  12  15
ATOM     15  C   UNL     1      44.301 127.637  23.908  1.00  0.00    -0.018 A 
ATOM     16  C   UNL     1      43.618 126.436  23.647  1.00  0.00     0.008 A 
ATOM     17  C   UNL     1      45.615 127.582  24.405  1.00  0.00     0.008 A 
ATOM     18  C   UNL     1      44.244 125.205  23.864  1.00  0.00    -0.008 A 
ATOM     19  C   UNL     1      46.238 126.349  24.621  1.00  0.00    -0.008 A 
ATOM     20  C   UNL     1      45.554 125.161  24.349  1.00  0.00    -0.109 A 
ATOM     21  O   UNL     1      46.175 123.937  24.564  1.00  0.00    -0.872 OA
ENDBRANCH  12  15
ENDBRANCH   1   5
BRANCH   3  22
ATOM     22  C   UNL     1      45.538 130.749  17.013  1.00  0.00     0.043 A 
ATOM     23  C   UNL     1      45.814 129.511  16.410  1.00  0.00     0.028 A 
ATOM     24  C   UNL     1      45.947 131.923  16.370  1.00  0.00     0.028 A 
ATOM     25  C   UNL     1      46.519 129.452  15.204  1.00  0.00     0.028 A 
ATOM     26  C   UNL     1      46.652 131.867  15.165  1.00  0.00     0.028 A 
ATOM     27  C   UNL     1      46.954 130.629  14.562  1.00  0.00     0.036 A 
BRANCH  27  28
ATOM     28  N   UNL     1      47.688 130.568  13.309  1.00  0.00    -0.378 N 
ATOM     29  C   UNL     1      47.393 131.516  12.227  1.00  0.00     0.143 C 
ATOM     30  C   UNL     1      48.735 129.561  13.105  1.00  0.00     0.143 C 
ENDBRANCH  27  28
ENDBRANCH   3  22
TORSDOF 4
ENDMDL
MODEL 2
REMARK VINA RESULT:      -4.1      0.690      1.083
REMARK SMILES Cc1ccc(-c2ccc([O-])cc2)c2cn(C(=O)Nc3ccc(N(C)C)cc3)nc12
REMARK SMILES IDX 16 1 17 2 18 3 15 5 2 6 3 7 29 8 4 9 28 10 13 11 5 12 14 13
REMARK SMILES IDX 1 14 6 15 7 16 12 17 8 18 11 19 9 20 10 21 19 22 20 23 27 24
REMARK SMILES IDX 21 25 26 26 22 27 23 28 24 29 25 30
REMARK H PARENT 18 4
ROOT
ATOM      1  C   UNL     1      45.417 130.866  19.523  1.00  0.00     0.346 C 
ATOM      2  O   UNL     1      46.526 131.462  19.588  1.00  0.00    -0.246 OA
ATOM      3  N   UNL     1      44.823 130.589  18.243  1.00  0.00    -0.306 N 
ATOM      4  H   UNL     1      43.784 130.503  18.192  1.00  0.00     0.171 HD
ENDROOT
BRANCH   1   5
ATOM      5  N   UNL     1      44.738 130.514  20.736  1.00  0.00    -0.188 N 
ATOM      6  C   UNL     1      42.686 131.184  23.503  1.00  0.00    -0.023 A 
ATOM      7  C   UNL     1      42.418 130.324  24.588  1.00  0.00     0.006 A 
ATOM      8  C   UNL     1      43.513 130.698  22.488  1.00  0.00     0.096 A 
ATOM      9  C   UNL     1      42.950 129.015  24.619  1.00  0.00     0.010 A 
ATOM     10  N   UNL     1      43.951 131.356  21.399  1.00  0.00    -0.164 NA
ATOM     11  C   UNL     1      44.028 129.427  22.517  1.00  0.00     0.029 A 
ATOM     12  C   UNL     1      43.768 128.539  23.570  1.00  0.00    -0.007 A 
ATOM     13  C   UNL     1      44.818 129.330  21.391  1.00  0.00     0.129 A 
ATOM     14  C   UNL     1      42.168 132.591  23.482  1.00  0.00     0.047 C 
BRANCH  12  15
ATOM     15  C   UNL     1      44.319 127.164  23.601  1.00  0.00    -0.018 A 
ATOM     16  C   UNL     1      43.702 126.163  24.372  1.00  0.00     0.008 A 
ATOM     17  C   UNL     1      45.484 126.851  22.879  1.00  0.00     0.008 A 
ATOM     18  C   UNL     1      44.231 124.869  24.404  1.00  0.00    -0.008 A 
ATOM     19  C   UNL     1      46.011 125.556  22.914  1.00  0.00    -0.008 A 
ATOM     20  C   UNL     1      45.384 124.565  23.675  1.00  0.00    -0.109 A 
ATOM     21  O   UNL     1      45.908 123.279  23.708  1.00  0.00    -0.872 OA
ENDBRANCH  12  15
ENDBRANCH   1   5
BRANCH   3  22
ATOM     22  C   UNL     1      45.559 130.570  17.007  1.00  0.00     0.043 A 
ATOM     23  C   UNL     1      45.451 131.614  16.074  1.00  0.00     0.028 A 
ATOM     24  C   UNL     1      46.447 129.518  16.750  1.00  0.00     0.028 A 
ATOM     25  C   UNL     1      46.193 131.585  14.889  1.00  0.00     0.028 A 
ATOM     26  C   UNL     1      47.188 129.487  15.566  1.00  0.00     0.028 A 
ATOM     27  C   UNL     1      47.072 130.518  14.612  1.00  0.00     0.036 A 
BRANCH  27  28
ATOM     28  N   UNL     1      47.843 130.487  13.381  1.00  0.00    -0.378 N 
ATOM     29  C   UNL     1      47.836 131.637  12.468  1.00  0.00     0.143 C 
ATOM     30  C   UNL     1      48.641 129.307  13.029  1.00  0.00     0.143 C 
ENDBRANCH  27  28
ENDBRANCH   3  22
TORSDOF 4
ENDMDL
MODEL 3
REMARK VINA RESULT:      -2.9      5.083      8.340
REMARK SMILES Cc1ccc(-c2ccc([O-])cc2)c2cn(C(=O)Nc3ccc(N(C)C)cc3)nc12
REMARK SMILES IDX 16 1 17 2 18 3 15 5 2 6 3 7 29 8 4 9 28 10 13 11 5 12 14 13
REMARK SMILES IDX 1 14 6 15 7 16 12 17 8 18 11 19 9 20 10 21 19 22 20 23 27 24
REMARK SMILES IDX 21 25 26 26 22 27 23 28 24 29 25 30
REMARK H PARENT 18 4
ROOT
ATOM      1  C   UNL     1      46.802 133.260  21.318  1.00  0.00     0.346 C 
ATOM      2  O   UNL     1      47.261 132.417  22.136  1.00  0.00    -0.246 OA
ATOM      3  N   UNL     1      47.296 134.610  21.324  1.00  0.00    -0.306 N 
ATOM      4  H   UNL     1      46.662 135.366  20.982  1.00  0.00     0.171 HD
ENDROOT
BRANCH   1   5
ATOM      5  N   UNL     1      45.755 132.867  20.420  1.00  0.00    -0.188 N 
ATOM      6  C   UNL     1      42.399 132.361  19.528  1.00  0.00    -0.023 A 
ATOM      7  C   UNL     1      41.917 131.758  18.348  1.00  0.00     0.006 A 
ATOM      8  C   UNL     1      43.783 132.489  19.664  1.00  0.00     0.096 A 
ATOM      9  C   UNL     1      42.810 131.330  17.340  1.00  0.00     0.010 A 
ATOM     10  N   UNL     1      44.464 132.970  20.721  1.00  0.00    -0.164 NA
ATOM     11  C   UNL     1      44.650 132.076  18.686  1.00  0.00     0.029 A 
ATOM     12  C   UNL     1      44.206 131.490  17.492  1.00  0.00    -0.007 A 
ATOM     13  C   UNL     1      45.910 132.317  19.191  1.00  0.00     0.129 A 
ATOM     14  C   UNL     1      41.465 132.774  20.626  1.00  0.00     0.047 C 
BRANCH  12  15
ATOM     15  C   UNL     1      45.140 131.046  16.431  1.00  0.00    -0.018 A 
ATOM     16  C   UNL     1      45.443 129.683  16.268  1.00  0.00     0.008 A 
ATOM     17  C   UNL     1      45.756 131.989  15.589  1.00  0.00     0.008 A 
ATOM     18  C   UNL     1      46.330 129.270  15.271  1.00  0.00    -0.008 A 
ATOM     19  C   UNL     1      46.644 131.572  14.592  1.00  0.00    -0.008 A 
ATOM     20  C   UNL     1      46.930 130.214  14.431  1.00  0.00    -0.109 A 
ATOM     21  O   UNL     1      47.812 129.802  13.440  1.00  0.00    -0.872 OA
ENDBRANCH  12  15
ENDBRANCH   1   5
BRANCH   3  22
ATOM     22  C   UNL     1      48.550 135.001  21.908  1.00  0.00     0.043 A 
ATOM     23  C   UNL     1      49.137 134.261  22.947  1.00  0.00     0.028 A 
ATOM     24  C   UNL     1      49.233 136.111  21.394  1.00  0.00     0.028 A 
ATOM     25  C   UNL     1      50.369 134.648  23.484  1.00  0.00     0.028 A 
ATOM     26  C   UNL     1      50.464 136.500  21.930  1.00  0.00     0.028 A 
ATOM     27  C   UNL     1      51.053 135.777  22.988  1.00  0.00     0.036 A 
BRANCH  27  28
ATOM     28  N   UNL     1      52.332 136.180  23.546  1.00  0.00    -0.378 N 
ATOM     29  C   UNL     1      52.768 137.581  23.476  1.00  0.00     0.143 C 
ATOM     30  C   UNL     1      53.209 135.196  24.190  1.00  0.00     0.143 C 
ENDBRANCH  27  28
ENDBRANCH   3  22
TORSDOF 4
ENDMDL
MODEL 4
REMARK VINA RESULT:      -2.7      6.304     10.520
REMARK SMILES Cc1ccc(-c2ccc([O-])cc2)c2cn(C(=O)Nc3ccc(N(C)C)cc3)nc12
REMARK SMILES IDX 16 1 17 2 18 3 15 5 2 6 3 7 29 8 4 9 28 10 13 11 5 12 14 13
REMARK SMILES IDX 1 14 6 15 7 16 12 17 8 18 11 19 9 20 10 21 19 22 20 23 27 24
REMARK SMILES IDX 21 25 26 26 22 27 23 28 24 29 25 30
REMARK H PARENT 18 4
ROOT
ATOM      1  C   UNL     1      47.834 124.270  22.829  1.00  0.00     0.346 C 
ATOM      2  O   UNL     1      47.510 123.405  23.686  1.00  0.00    -0.246 OA
ATOM      3  N   UNL     1      46.819 125.041  22.165  1.00  0.00    -0.306 N 
ATOM      4  H   UNL     1      47.028 125.414  21.213  1.00  0.00     0.171 HD
ENDROOT
BRANCH   1   5
ATOM      5  N   UNL     1      49.218 124.441  22.493  1.00  0.00    -0.188 N 
ATOM      6  C   UNL     1      52.510 125.471  23.140  1.00  0.00    -0.023 A 
ATOM      7  C   UNL     1      53.593 125.465  22.237  1.00  0.00     0.006 A 
ATOM      8  C   UNL     1      51.286 124.985  22.676  1.00  0.00     0.096 A 
ATOM      9  C   UNL     1      53.438 124.959  20.927  1.00  0.00     0.010 A 
ATOM     10  N   UNL     1      50.112 124.952  23.334  1.00  0.00    -0.164 NA
ATOM     11  C   UNL     1      51.134 124.491  21.406  1.00  0.00     0.029 A 
ATOM     12  C   UNL     1      52.194 124.453  20.488  1.00  0.00    -0.007 A 
ATOM     13  C   UNL     1      49.801 124.156  21.303  1.00  0.00     0.129 A 
ATOM     14  C   UNL     1      52.650 126.051  24.516  1.00  0.00     0.047 C 
BRANCH  12  15
ATOM     15  C   UNL     1      52.034 123.916  19.116  1.00  0.00    -0.018 A 
ATOM     16  C   UNL     1      51.090 122.910  18.846  1.00  0.00     0.008 A 
ATOM     17  C   UNL     1      52.845 124.391  18.071  1.00  0.00     0.008 A 
ATOM     18  C   UNL     1      50.948 122.402  17.552  1.00  0.00    -0.008 A 
ATOM     19  C   UNL     1      52.701 123.881  16.776  1.00  0.00    -0.008 A 
ATOM     20  C   UNL     1      51.752 122.888  16.516  1.00  0.00    -0.109 A 
ATOM     21  O   UNL     1      51.610 122.382  15.230  1.00  0.00    -0.872 OA
ENDBRANCH  12  15
ENDBRANCH   1   5
BRANCH   3  22
ATOM     22  C   UNL     1      45.481 125.204  22.669  1.00  0.00     0.043 A 
ATOM     23  C   UNL     1      44.749 126.381  22.438  1.00  0.00     0.028 A 
ATOM     24  C   UNL     1      44.870 124.148  23.355  1.00  0.00     0.028 A 
ATOM     25  C   UNL     1      43.442 126.508  22.918  1.00  0.00     0.028 A 
ATOM     26  C   UNL     1      43.564 124.273  23.836  1.00  0.00     0.028 A 
ATOM     27  C   UNL     1      42.827 125.457  23.629  1.00  0.00     0.036 A 
BRANCH  27  28
ATOM     28  N   UNL     1      41.470 125.588  24.129  1.00  0.00    -0.378 N 
ATOM     29  C   UNL     1      40.569 124.429  24.155  1.00  0.00     0.143 C 
ATOM     30  C   UNL     1      40.976 126.881  24.617  1.00  0.00     0.143 C 
ENDBRANCH  27  28
ENDBRANCH   3  22
TORSDOF 4
ENDMDL
MODEL 5
REMARK VINA RESULT:      -2.0      5.816      7.742
REMARK SMILES Cc1ccc(-c2ccc([O-])cc2)c2cn(C(=O)Nc3ccc(N(C)C)cc3)nc12
REMARK SMILES IDX 16 1 17 2 18 3 15 5 2 6 3 7 29 8 4 9 28 10 13 11 5 12 14 13
REMARK SMILES IDX 1 14 6 15 7 16 12 17 8 18 11 19 9 20 10 21 19 22 20 23 27 24
REMARK SMILES IDX 21 25 26 26 22 27 23 28 24 29 25 30
REMARK H PARENT 18 4
ROOT
ATOM      1  C   UNL     1      46.765 125.075  23.098  1.00  0.00     0.346 C 
ATOM      2  O   UNL     1      47.394 124.821  24.161  1.00  0.00    -0.246 OA
ATOM      3  N   UNL     1      47.472 125.172  21.849  1.00  0.00    -0.306 N 
ATOM      4  H   UNL     1      47.063 125.771  21.099  1.00  0.00     0.171 HD
ENDROOT
BRANCH   1   5
ATOM      5  N   UNL     1      45.352 125.311  23.158  1.00  0.00    -0.188 N 
ATOM      6  C   UNL     1      41.987 124.347  22.908  1.00  0.00    -0.023 A 
ATOM      7  C   UNL     1      40.856 125.184  22.998  1.00  0.00     0.006 A 
ATOM      8  C   UNL     1      43.240 124.941  23.069  1.00  0.00     0.096 A 
ATOM      9  C   UNL     1      41.000 126.564  23.267  1.00  0.00     0.010 A 
ATOM     10  N   UNL     1      44.447 124.356  22.963  1.00  0.00    -0.164 NA
ATOM     11  C   UNL     1      43.380 126.280  23.332  1.00  0.00     0.029 A 
ATOM     12  C   UNL     1      42.278 127.138  23.447  1.00  0.00    -0.007 A 
ATOM     13  C   UNL     1      44.741 126.501  23.377  1.00  0.00     0.129 A 
ATOM     14  C   UNL     1      41.850 122.891  22.574  1.00  0.00     0.047 C 
BRANCH  12  15
ATOM     15  C   UNL     1      42.427 128.584  23.735  1.00  0.00    -0.018 A 
ATOM     16  C   UNL     1      41.385 129.483  23.443  1.00  0.00     0.008 A 
ATOM     17  C   UNL     1      43.623 129.079  24.283  1.00  0.00     0.008 A 
ATOM     18  C   UNL     1      41.533 130.847  23.711  1.00  0.00    -0.008 A 
ATOM     19  C   UNL     1      43.768 130.444  24.549  1.00  0.00    -0.008 A 
ATOM     20  C   UNL     1      42.723 131.328  24.265  1.00  0.00    -0.109 A 
ATOM     21  O   UNL     1      42.869 132.684  24.530  1.00  0.00    -0.872 OA
ENDBRANCH  12  15
ENDBRANCH   1   5
BRANCH   3  22
ATOM     22  C   UNL     1      48.779 124.616  21.624  1.00  0.00     0.043 A 
ATOM     23  C   UNL     1      48.989 123.227  21.592  1.00  0.00     0.028 A 
ATOM     24  C   UNL     1      49.858 125.471  21.374  1.00  0.00     0.028 A 
ATOM     25  C   UNL     1      50.264 122.709  21.348  1.00  0.00     0.028 A 
ATOM     26  C   UNL     1      51.134 124.956  21.131  1.00  0.00     0.028 A 
ATOM     27  C   UNL     1      51.361 123.565  21.118  1.00  0.00     0.036 A 
BRANCH  27  28
ATOM     28  N   UNL     1      52.687 123.027  20.866  1.00  0.00    -0.378 N 
ATOM     29  C   UNL     1      53.510 122.524  21.973  1.00  0.00     0.143 C 
ATOM     30  C   UNL     1      53.225 122.974  19.502  1.00  0.00     0.143 C 
ENDBRANCH  27  28
ENDBRANCH   3  22
TORSDOF 4
ENDMDL
MODEL 6
REMARK VINA RESULT:      -1.9      1.413      1.832
REMARK SMILES Cc1ccc(-c2ccc([O-])cc2)c2cn(C(=O)Nc3ccc(N(C)C)cc3)nc12
REMARK SMILES IDX 16 1 17 2 18 3 15 5 2 6 3 7 29 8 4 9 28 10 13 11 5 12 14 13
REMARK SMILES IDX 1 14 6 15 7 16 12 17 8 18 11 19 9 20 10 21 19 22 20 23 27 24
REMARK SMILES IDX 21 25 26 26 22 27 23 28 24 29 25 30
REMARK H PARENT 18 4
ROOT
ATOM      1  C   UNL     1      45.298 130.985  18.950  1.00  0.00     0.346 C 
ATOM      2  O   UNL     1      45.514 132.216  18.783  1.00  0.00    -0.246 OA
ATOM      3  N   UNL     1      45.295 130.096  17.821  1.00  0.00    -0.306 N 
ATOM      4  H   UNL     1      44.725 129.223  17.884  1.00  0.00     0.171 HD
ENDROOT
BRANCH   1   5
ATOM      5  N   UNL     1      45.012 130.496  20.268  1.00  0.00    -0.188 N 
ATOM      6  C   UNL     1      43.969 130.851  23.599  1.00  0.00    -0.023 A 
ATOM      7  C   UNL     1      44.003 129.866  24.608  1.00  0.00     0.006 A 
ATOM      8  C   UNL     1      44.408 130.481  22.326  1.00  0.00     0.096 A 
ATOM      9  C   UNL     1      44.442 128.554  24.321  1.00  0.00     0.010 A 
ATOM     10  N   UNL     1      44.522 131.263  21.237  1.00  0.00    -0.164 NA
ATOM     11  C   UNL     1      44.832 129.207  22.046  1.00  0.00     0.029 A 
ATOM     12  C   UNL     1      44.862 128.199  23.019  1.00  0.00    -0.007 A 
ATOM     13  C   UNL     1      45.225 129.237  20.725  1.00  0.00     0.129 A 
ATOM     14  C   UNL     1      43.552 132.259  23.903  1.00  0.00     0.047 C 
BRANCH  12  15
ATOM     15  C   UNL     1      45.315 126.821  22.719  1.00  0.00    -0.018 A 
ATOM     16  C   UNL     1      44.396 125.758  22.675  1.00  0.00     0.008 A 
ATOM     17  C   UNL     1      46.678 126.555  22.497  1.00  0.00     0.008 A 
ATOM     18  C   UNL     1      44.829 124.458  22.398  1.00  0.00    -0.008 A 
ATOM     19  C   UNL     1      47.109 125.254  22.221  1.00  0.00    -0.008 A 
ATOM     20  C   UNL     1      46.186 124.206  22.169  1.00  0.00    -0.109 A 
ATOM     21  O   UNL     1      46.616 122.914  21.894  1.00  0.00    -0.872 OA
ENDBRANCH  12  15
ENDBRANCH   1   5
BRANCH   3  22
ATOM     22  C   UNL     1      45.907 130.405  16.557  1.00  0.00     0.043 A 
ATOM     23  C   UNL     1      45.771 131.672  15.967  1.00  0.00     0.028 A 
ATOM     24  C   UNL     1      46.704 129.444  15.924  1.00  0.00     0.028 A 
ATOM     25  C   UNL     1      46.394 131.957  14.748  1.00  0.00     0.028 A 
ATOM     26  C   UNL     1      47.327 129.726  14.705  1.00  0.00     0.028 A 
ATOM     27  C   UNL     1      47.180 130.987  14.093  1.00  0.00     0.036 A 
BRANCH  27  28
ATOM     28  N   UNL     1      47.827 131.282  12.826  1.00  0.00    -0.378 N 
ATOM     29  C   UNL     1      48.992 132.174  12.774  1.00  0.00     0.143 C 
ATOM     30  C   UNL     1      47.327 130.694  11.578  1.00  0.00     0.143 C 
ENDBRANCH  27  28
ENDBRANCH   3  22
TORSDOF 4
ENDMDL
MODEL 7
REMARK VINA RESULT:      -1.9      0.738      1.620
REMARK SMILES Cc1ccc(-c2ccc([O-])cc2)c2cn(C(=O)Nc3ccc(N(C)C)cc3)nc12
REMARK SMILES IDX 16 1 17 2 18 3 15 5 2 6 3 7 29 8 4 9 28 10 13 11 5 12 14 13
REMARK SMILES IDX 1 14 6 15 7 16 12 17 8 18 11 19 9 20 10 21 19 22 20 23 27 24
REMARK SMILES IDX 21 25 26 26 22 27 23 28 24 29 25 30
REMARK H PARENT 18 4
ROOT
ATOM      1  C   UNL     1      45.417 131.112  18.996  1.00  0.00     0.346 C 
ATOM      2  O   UNL     1      46.664 131.168  19.175  1.00  0.00    -0.246 OA
ATOM      3  N   UNL     1      44.871 131.284  17.677  1.00  0.00    -0.306 N 
ATOM      4  H   UNL     1      43.898 131.653  17.593  1.00  0.00     0.171 HD
ENDROOT
BRANCH   1   5
ATOM      5  N   UNL     1      44.555 130.922  20.126  1.00  0.00    -0.188 N 
ATOM      6  C   UNL     1      41.985 131.874  22.319  1.00  0.00    -0.023 A 
ATOM      7  C   UNL     1      41.587 131.209  23.497  1.00  0.00     0.006 A 
ATOM      8  C   UNL     1      43.019 131.298  21.576  1.00  0.00     0.096 A 
ATOM      9  C   UNL     1      42.200 129.996  23.883  1.00  0.00     0.010 A 
ATOM     10  N   UNL     1      43.599 131.783  20.463  1.00  0.00    -0.164 NA
ATOM     11  C   UNL     1      43.612 130.120  21.949  1.00  0.00     0.029 A 
ATOM     12  C   UNL     1      43.229 129.423  23.103  1.00  0.00    -0.007 A 
ATOM     13  C   UNL     1      44.601 129.899  21.014  1.00  0.00     0.129 A 
ATOM     14  C   UNL     1      41.377 133.186  21.924  1.00  0.00     0.047 C 
BRANCH  12  15
ATOM     15  C   UNL     1      43.866 128.147  23.507  1.00  0.00    -0.018 A 
ATOM     16  C   UNL     1      45.216 128.114  23.901  1.00  0.00     0.008 A 
ATOM     17  C   UNL     1      43.133 126.948  23.477  1.00  0.00     0.008 A 
ATOM     18  C   UNL     1      45.814 126.907  24.274  1.00  0.00    -0.008 A 
ATOM     19  C   UNL     1      43.735 125.742  23.851  1.00  0.00    -0.008 A 
ATOM     20  C   UNL     1      45.074 125.721  24.250  1.00  0.00    -0.109 A 
ATOM     21  O   UNL     1      45.669 124.522  24.621  1.00  0.00    -0.872 OA
ENDBRANCH  12  15
ENDBRANCH   1   5
BRANCH   3  22
ATOM     22  C   UNL     1      45.632 131.120  16.468  1.00  0.00     0.043 A 
ATOM     23  C   UNL     1      46.088 132.226  15.733  1.00  0.00     0.028 A 
ATOM     24  C   UNL     1      45.979 129.832  16.042  1.00  0.00     0.028 A 
ATOM     25  C   UNL     1      46.846 132.043  14.572  1.00  0.00     0.028 A 
ATOM     26  C   UNL     1      46.735 129.646  14.882  1.00  0.00     0.028 A 
ATOM     27  C   UNL     1      47.180 130.748  14.123  1.00  0.00     0.036 A 
BRANCH  27  28
ATOM     28  N   UNL     1      47.966 130.557  12.917  1.00  0.00    -0.378 N 
ATOM     29  C   UNL     1      48.961 129.479  12.839  1.00  0.00     0.143 C 
ATOM     30  C   UNL     1      47.779 131.435  11.757  1.00  0.00     0.143 C 
ENDBRANCH  27  28
ENDBRANCH   3  22
TORSDOF 4
ENDMDL
MODEL 8
REMARK VINA RESULT:      -1.8      5.075      8.412
REMARK SMILES Cc1ccc(-c2ccc([O-])cc2)c2cn(C(=O)Nc3ccc(N(C)C)cc3)nc12
REMARK SMILES IDX 16 1 17 2 18 3 15 5 2 6 3 7 29 8 4 9 28 10 13 11 5 12 14 13
REMARK SMILES IDX 1 14 6 15 7 16 12 17 8 18 11 19 9 20 10 21 19 22 20 23 27 24
REMARK SMILES IDX 21 25 26 26 22 27 23 28 24 29 25 30
REMARK H PARENT 18 4
ROOT
ATOM      1  C   UNL     1      46.625 133.467  21.210  1.00  0.00     0.346 C 
ATOM      2  O   UNL     1      46.956 132.739  22.184  1.00  0.00    -0.246 OA
ATOM      3  N   UNL     1      47.234 134.757  21.036  1.00  0.00    -0.306 N 
ATOM      4  H   UNL     1      46.692 135.492  20.531  1.00  0.00     0.171 HD
ENDROOT
BRANCH   1   5
ATOM      5  N   UNL     1      45.605 133.012  20.310  1.00  0.00    -0.188 N 
ATOM      6  C   UNL     1      42.280 132.383  19.381  1.00  0.00    -0.023 A 
ATOM      7  C   UNL     1      41.835 131.722  18.218  1.00  0.00     0.006 A 
ATOM      8  C   UNL     1      43.657 132.552  19.536  1.00  0.00     0.096 A 
ATOM      9  C   UNL     1      42.757 131.280  17.242  1.00  0.00     0.010 A 
ATOM     10  N   UNL     1      44.306 133.092  20.584  1.00  0.00    -0.164 NA
ATOM     11  C   UNL     1      44.552 132.125  18.589  1.00  0.00     0.029 A 
ATOM     12  C   UNL     1      44.145 131.482  17.412  1.00  0.00    -0.007 A 
ATOM     13  C   UNL     1      45.796 132.419  19.106  1.00  0.00     0.129 A 
ATOM     14  C   UNL     1      41.315 132.813  20.446  1.00  0.00     0.047 C 
BRANCH  12  15
ATOM     15  C   UNL     1      45.110 131.023  16.385  1.00  0.00    -0.018 A 
ATOM     16  C   UNL     1      45.556 131.899  15.380  1.00  0.00     0.008 A 
ATOM     17  C   UNL     1      45.572 129.695  16.390  1.00  0.00     0.008 A 
ATOM     18  C   UNL     1      46.461 131.459  14.409  1.00  0.00    -0.008 A 
ATOM     19  C   UNL     1      46.477 129.258  15.418  1.00  0.00    -0.008 A 
ATOM     20  C   UNL     1      46.922 130.139  14.428  1.00  0.00    -0.109 A 
ATOM     21  O   UNL     1      47.821 129.703  13.463  1.00  0.00    -0.872 OA
ENDBRANCH  12  15
ENDBRANCH   1   5
BRANCH   3  22
ATOM     22  C   UNL     1      48.480 135.143  21.643  1.00  0.00     0.043 A 
ATOM     23  C   UNL     1      49.123 136.342  21.298  1.00  0.00     0.028 A 
ATOM     24  C   UNL     1      49.038 134.336  22.641  1.00  0.00     0.028 A 
ATOM     25  C   UNL     1      50.322 136.707  21.918  1.00  0.00     0.028 A 
ATOM     26  C   UNL     1      50.237 134.697  23.262  1.00  0.00     0.028 A 
ATOM     27  C   UNL     1      50.903 135.889  22.909  1.00  0.00     0.036 A 
BRANCH  27  28
ATOM     28  N   UNL     1      52.149 136.266  23.552  1.00  0.00    -0.378 N 
ATOM     29  C   UNL     1      53.417 135.648  23.143  1.00  0.00     0.143 C 
ATOM     30  C   UNL     1      52.163 137.273  24.620  1.00  0.00     0.143 C 
ENDBRANCH  27  28
ENDBRANCH   3  22
TORSDOF 4
ENDMDL
MODEL 9
REMARK VINA RESULT:      -1.5      1.152      1.749
REMARK SMILES Cc1ccc(-c2ccc([O-])cc2)c2cn(C(=O)Nc3ccc(N(C)C)cc3)nc12
REMARK SMILES IDX 16 1 17 2 18 3 15 5 2 6 3 7 29 8 4 9 28 10 13 11 5 12 14 13
REMARK SMILES IDX 1 14 6 15 7 16 12 17 8 18 11 19 9 20 10 21 19 22 20 23 27 24
REMARK SMILES IDX 21 25 26 26 22 27 23 28 24 29 25 30
REMARK H PARENT 18 4
ROOT
ATOM      1  C   UNL     1      45.188 130.903  18.935  1.00  0.00     0.346 C 
ATOM      2  O   UNL     1      45.432 132.105  18.641  1.00  0.00    -0.246 OA
ATOM      3  N   UNL     1      45.207 129.893  17.912  1.00  0.00    -0.306 N 
ATOM      4  H   UNL     1      44.619 129.042  18.052  1.00  0.00     0.171 HD
ENDROOT
BRANCH   1   5
ATOM      5  N   UNL     1      44.848 130.568  20.288  1.00  0.00    -0.188 N 
ATOM      6  C   UNL     1      43.649 131.297  23.505  1.00  0.00    -0.023 A 
ATOM      7  C   UNL     1      43.649 130.439  24.624  1.00  0.00     0.006 A 
ATOM      8  C   UNL     1      44.150 130.787  22.305  1.00  0.00     0.096 A 
ATOM      9  C   UNL     1      44.114 129.110  24.514  1.00  0.00     0.010 A 
ATOM     10  N   UNL     1      44.305 131.436  21.136  1.00  0.00    -0.164 NA
ATOM     11  C   UNL     1      44.601 129.496  22.197  1.00  0.00     0.029 A 
ATOM     12  C   UNL     1      44.597 128.610  23.283  1.00  0.00    -0.007 A 
ATOM     13  C   UNL     1      45.053 129.376  20.900  1.00  0.00     0.129 A 
ATOM     14  C   UNL     1      43.204 132.724  23.620  1.00  0.00     0.047 C 
BRANCH  12  15
ATOM     15  C   UNL     1      45.079 127.214  23.169  1.00  0.00    -0.018 A 
ATOM     16  C   UNL     1      46.128 126.888  22.290  1.00  0.00     0.008 A 
ATOM     17  C   UNL     1      44.475 126.191  23.920  1.00  0.00     0.008 A 
ATOM     18  C   UNL     1      46.575 125.568  22.180  1.00  0.00    -0.008 A 
ATOM     19  C   UNL     1      44.924 124.871  23.808  1.00  0.00    -0.008 A 
ATOM     20  C   UNL     1      45.974 124.559  22.940  1.00  0.00    -0.109 A 
ATOM     21  O   UNL     1      46.419 123.248  22.830  1.00  0.00    -0.872 OA
ENDBRANCH  12  15
ENDBRANCH   1   5
BRANCH   3  22
ATOM     22  C   UNL     1      45.868 130.051  16.645  1.00  0.00     0.043 A 
ATOM     23  C   UNL     1      46.025 131.314  16.051  1.00  0.00     0.028 A 
ATOM     24  C   UNL     1      46.420 128.930  16.012  1.00  0.00     0.028 A 
ATOM     25  C   UNL     1      46.691 131.445  14.829  1.00  0.00     0.028 A 
ATOM     26  C   UNL     1      47.085 129.058  14.790  1.00  0.00     0.028 A 
ATOM     27  C   UNL     1      47.230 130.318  14.174  1.00  0.00     0.036 A 
BRANCH  27  28
ATOM     28  N   UNL     1      47.921 130.454  12.904  1.00  0.00    -0.378 N 
ATOM     29  C   UNL     1      48.856 129.416  12.450  1.00  0.00     0.143 C 
ATOM     30  C   UNL     1      47.696 131.628  12.053  1.00  0.00     0.143 C 
ENDBRANCH  27  28
ENDBRANCH   3  22
TORSDOF 4
ENDMDL


