REMARK SMILES CO/C(O)=C\[C](C)Oc1ccc([C@H]2O[C@@H]2C(=O)c2ccc(F)cc2)cc1F
REMARK SMILES IDX 8 1 6 2 7 3 5 4 3 5 4 6 2 8 1 9 9 10 10 11 26 12 11 13 25 14
REMARK SMILES IDX 12 15 27 16 13 17 14 18 15 19 16 20 17 21 18 22 19 23 24 24
REMARK SMILES IDX 20 25 23 26 21 27 22 28
REMARK H PARENT 4 7
ROOT
ATOM      1  O   UNL     1       1.942   2.201  -1.423  1.00  0.00    -0.476 OA
ENDROOT
BRANCH   1   2
ATOM      2  C   UNL     1       3.226   2.513  -0.892  1.00  0.00     0.174 C 
ATOM      3  C   UNL     1       4.252   1.471  -1.328  1.00  0.00     0.066 C 
BRANCH   2   4
ATOM      4  C   UNL     1       3.634   3.880  -1.342  1.00  0.00     0.113 C 
BRANCH   4   5
ATOM      5  C   UNL     1       3.829   4.866  -0.469  1.00  0.00     0.276 C 
BRANCH   5   6
ATOM      6  O   UNL     1       4.201   6.123  -0.948  1.00  0.00    -0.481 OA
ATOM      7  H   UNL     1       4.363   6.911  -0.334  1.00  0.00     0.296 HD
ENDBRANCH   5   6
BRANCH   5   8
ATOM      8  O   UNL     1       3.658   4.625   0.902  1.00  0.00    -0.469 OA
ATOM      9  C   UNL     1       3.838   5.619   1.903  1.00  0.00     0.282 C 
ENDBRANCH   5   8
ENDBRANCH   4   5
ENDBRANCH   2   4
ENDBRANCH   1   2
BRANCH   1  10
ATOM     10  C   UNL     1       1.046   1.306  -0.822  1.00  0.00     0.156 A 
ATOM     11  C   UNL     1       1.297   0.730   0.438  1.00  0.00     0.050 A 
ATOM     12  C   UNL     1      -0.140   0.989  -1.495  1.00  0.00     0.165 A 
ATOM     13  C   UNL     1       0.377  -0.157   1.004  1.00  0.00     0.010 A 
ATOM     14  C   UNL     1      -1.060   0.101  -0.928  1.00  0.00     0.049 A 
ATOM     15  C   UNL     1      -0.800  -0.489   0.317  1.00  0.00    -0.013 A 
ATOM     16  F   UNL     1      -0.403   1.544  -2.705  1.00  0.00    -0.203 F 
BRANCH  15  17
ATOM     17  C   UNL     1      -1.808  -1.415   0.932  1.00  0.00     0.186 C 
ATOM     18  O   UNL     1      -2.085  -2.493   0.068  1.00  0.00    -0.356 OA
ATOM     19  C   UNL     1      -1.351  -2.797   1.231  1.00  0.00     0.224 C 
BRANCH  19  20
ATOM     20  C   UNL     1      -2.191  -3.573   2.202  1.00  0.00     0.194 C 
ATOM     21  O   UNL     1      -2.922  -4.499   1.756  1.00  0.00    -0.291 OA
BRANCH  20  22
ATOM     22  C   UNL     1      -2.160  -3.298   3.662  1.00  0.00     0.021 A 
ATOM     23  C   UNL     1      -1.220  -2.407   4.216  1.00  0.00     0.015 A 
ATOM     24  C   UNL     1      -3.076  -3.936   4.521  1.00  0.00     0.015 A 
ATOM     25  C   UNL     1      -1.204  -2.156   5.592  1.00  0.00     0.040 A 
ATOM     26  C   UNL     1      -3.054  -3.683   5.896  1.00  0.00     0.040 A 
ATOM     27  C   UNL     1      -2.121  -2.793   6.431  1.00  0.00     0.123 A 
ATOM     28  F   UNL     1      -2.102  -2.549   7.765  1.00  0.00    -0.207 F 
ENDBRANCH  20  22
ENDBRANCH  19  20
ENDBRANCH  15  17
ENDBRANCH   1  10
TORSDOF 9


