REMARK SMILES C=C[C@@H]1CN[C@@H](c2c[nH+]c3ocnc3c2)N(C(=S)[NH2+]c2cc(F)c(Cl)cc2F)C1
REMARK SMILES IDX 17 1 18 2 16 3 3 4 4 5 29 6 5 7 6 8 2 10 1 11 7 12 8 13
REMARK SMILES IDX 15 14 9 15 14 16 10 17 13 18 11 19 12 20 19 22 20 25 21 26
REMARK SMILES IDX 27 27 22 28 26 29 24 30 28 31 23 32 25 33
REMARK H PARENT 5 9 9 21 19 23 19 24
ROOT
ATOM      1  C   UNL     1       0.854  -1.857  -0.121  1.00  0.00     0.275 C 
ATOM      2  S   UNL     1       1.254  -2.613  -1.526  1.00  0.00     0.004 S 
ENDROOT
BRANCH   1   3
ATOM      3  N   UNL     1      -0.502  -1.398   0.083  1.00  0.00    -0.297 N 
ATOM      4  C   UNL     1      -2.593  -2.217   1.148  1.00  0.00     0.045 C 
ATOM      5  C   UNL     1      -3.186  -1.842  -0.229  1.00  0.00     0.092 C 
ATOM      6  C   UNL     1      -1.183  -1.616   1.366  1.00  0.00     0.133 C 
ATOM      7  N   UNL     1      -2.654  -0.553  -0.677  1.00  0.00    -0.292 NA
ATOM      8  C   UNL     1      -1.217  -0.678  -0.991  1.00  0.00     0.193 C 
ATOM      9  H   UNL     1      -3.158  -0.282  -1.554  1.00  0.00     0.125 HD
BRANCH   4  10
ATOM     10  C   UNL     1      -2.608  -3.716   1.360  1.00  0.00    -0.028 C 
ATOM     11  C   UNL     1      -1.854  -4.555   0.641  1.00  0.00     0.004 C 
ENDBRANCH   4  10
BRANCH   8  12
ATOM     12  C   UNL     1      -0.619   0.698  -1.167  1.00  0.00     0.056 A 
ATOM     13  C   UNL     1       0.285   0.957  -2.234  1.00  0.00     0.317 A 
ATOM     14  C   UNL     1      -0.920   1.738  -0.256  1.00  0.00     0.053 A 
ATOM     15  N   UNL     1       0.834   2.200  -2.397  1.00  0.00    -0.177 N 
ATOM     16  C   UNL     1      -0.339   2.977  -0.482  1.00  0.00     0.179 A 
ATOM     17  C   UNL     1       0.503   3.179  -1.521  1.00  0.00     0.399 A 
ATOM     18  N   UNL     1      -0.481   4.114   0.220  1.00  0.00    -0.209 NA
ATOM     19  O   UNL     1       0.911   4.417  -1.515  1.00  0.00    -0.391 OA
ATOM     20  C   UNL     1       0.317   4.974  -0.470  1.00  0.00     0.316 A 
ATOM     21  H   UNL     1       1.496   2.390  -3.181  1.00  0.00     0.457 HD
ENDBRANCH   8  12
ENDBRANCH   1   3
BRANCH   1  22
ATOM     22  N   UNL     1       1.878  -1.604   0.862  1.00  0.00    -0.254 N 
ATOM     23  H   UNL     1       1.558  -1.908   1.808  1.00  0.00     0.360 HD
ATOM     24  H   UNL     1       2.734  -2.170   0.650  1.00  0.00     0.360 HD
BRANCH  22  25
ATOM     25  C   UNL     1       2.222  -0.204   0.872  1.00  0.00     0.175 A 
ATOM     26  C   UNL     1       1.663   0.656   1.834  1.00  0.00     0.112 A 
ATOM     27  C   UNL     1       3.126   0.322  -0.072  1.00  0.00     0.185 A 
ATOM     28  C   UNL     1       2.019   2.008   1.868  1.00  0.00     0.147 A 
ATOM     29  C   UNL     1       3.478   1.674  -0.034  1.00  0.00     0.069 A 
ATOM     30  C   UNL     1       2.934   2.516   0.940  1.00  0.00     0.080 A 
ATOM     31  F   UNL     1       3.674  -0.476  -1.022  1.00  0.00    -0.200 F 
ATOM     32  F   UNL     1       1.474   2.820   2.808  1.00  0.00    -0.205 F 
ATOM     33  Cl  UNL     1       3.406   4.205   0.991  1.00  0.00    -0.081 Cl
ENDBRANCH  22  25
ENDBRANCH   1  22
TORSDOF 5


