REMARK SMILES C=Cc1cc(C2=CC=C[C@@]3(F)N=CO[C@@]23O)cc(O)c1F
REMARK SMILES IDX 6 1 7 2 8 3 9 4 10 5 11 6 12 7 13 8 14 9 15 10 5 11 3 12
REMARK SMILES IDX 4 13 20 14 18 15 17 16 21 17 2 18 1 19 19 20 16 22
REMARK H PARENT 19 21 16 23
ROOT
ATOM      1  C   UNL     1       0.347   0.216  -0.177  1.00  0.00     0.037 C 
ATOM      2  C   UNL     1       1.380   0.906   0.327  1.00  0.00     0.011 C 
ATOM      3  C   UNL     1       2.088   1.932  -0.441  1.00  0.00     0.002 C 
ATOM      4  C   UNL     1       1.721   2.264  -1.675  1.00  0.00     0.045 C 
ATOM      5  C   UNL     1       0.585   1.596  -2.399  1.00  0.00     0.291 C 
ATOM      6  F   UNL     1      -0.331   2.566  -2.772  1.00  0.00    -0.205 F 
ATOM      7  N   UNL     1       1.116   0.961  -3.598  1.00  0.00    -0.208 NA
ATOM      8  C   UNL     1       0.919  -0.308  -3.536  1.00  0.00     0.304 C 
ATOM      9  O   UNL     1       0.253  -0.707  -2.397  1.00  0.00    -0.442 OA
ATOM     10  C   UNL     1      -0.108   0.423  -1.620  1.00  0.00     0.295 C 
ENDROOT
BRANCH   1  11
ATOM     11  C   UNL     1      -0.389  -0.735   0.702  1.00  0.00    -0.011 A 
ATOM     12  C   UNL     1      -1.420  -2.923   1.087  1.00  0.00     0.014 A 
ATOM     13  C   UNL     1      -0.702  -2.033   0.262  1.00  0.00     0.020 A 
ATOM     14  C   UNL     1      -1.799  -2.504   2.374  1.00  0.00     0.172 A 
ATOM     15  C   UNL     1      -1.494  -1.215   2.819  1.00  0.00     0.152 A 
ATOM     16  C   UNL     1      -0.796  -0.334   1.986  1.00  0.00     0.058 A 
ATOM     17  F   UNL     1      -2.482  -3.342   3.197  1.00  0.00    -0.202 F 
BRANCH  12  18
ATOM     18  C   UNL     1      -1.751  -4.303   0.650  1.00  0.00     0.003 C 
ATOM     19  C   UNL     1      -1.842  -4.676  -0.628  1.00  0.00     0.009 C 
ENDBRANCH  12  18
BRANCH  15  20
ATOM     20  O   UNL     1      -1.891  -0.815   4.094  1.00  0.00    -0.505 OA
ATOM     21  H   UNL     1      -1.686   0.113   4.447  1.00  0.00     0.293 HD
ENDBRANCH  15  20
ENDBRANCH   1  11
BRANCH  10  22
ATOM     22  O   UNL     1      -1.508   0.561  -1.665  1.00  0.00    -0.348 OA
ATOM     23  H   UNL     1      -1.747   1.337  -1.092  1.00  0.00     0.215 HD
ENDBRANCH  10  22
TORSDOF 4


