REMARK SMILES Cc1ccc(-c2ccc([NH2+]C3CC(=O)C3)c(C=O)c2)cc1
REMARK SMILES IDX 6 1 7 2 8 3 9 4 16 5 19 6 5 7 2 8 3 9 21 10 4 11 20 12 1 13
REMARK SMILES IDX 17 14 18 15 10 16 11 19 12 20 15 21 13 22 14 23
REMARK H PARENT 10 17 10 18
ROOT
ATOM      1  C   UNL     1       0.551   0.074  -0.385  1.00  0.00    -0.017 A 
ATOM      2  C   UNL     1      -0.503  -0.157  -1.277  1.00  0.00     0.015 A 
ATOM      3  C   UNL     1      -1.808   0.187  -0.934  1.00  0.00     0.069 A 
ATOM      4  C   UNL     1      -2.106   0.773   0.312  1.00  0.00     0.140 A 
ATOM      5  C   UNL     1      -1.041   1.000   1.236  1.00  0.00     0.076 A 
ATOM      6  C   UNL     1       0.271   0.653   0.863  1.00  0.00     0.026 A 
ENDROOT
BRANCH   1   7
ATOM      7  C   UNL     1       1.943  -0.289  -0.755  1.00  0.00    -0.018 A 
ATOM      8  C   UNL     1       4.584  -0.974  -1.469  1.00  0.00    -0.051 A 
ATOM      9  C   UNL     1       3.523  -1.841  -1.768  1.00  0.00     0.004 A 
ATOM     10  C   UNL     1       4.323   0.225  -0.791  1.00  0.00     0.004 A 
ATOM     11  C   UNL     1       2.213  -1.499  -1.420  1.00  0.00     0.009 A 
ATOM     12  C   UNL     1       3.013   0.568  -0.442  1.00  0.00     0.009 A 
ATOM     13  C   UNL     1       5.994  -1.359  -1.807  1.00  0.00     0.044 C 
ENDBRANCH   1   7
BRANCH   5  14
ATOM     14  C   UNL     1      -1.208   1.593   2.589  1.00  0.00     0.266 C 
ATOM     15  O   UNL     1      -2.332   1.771   3.124  1.00  0.00    -0.298 OA
ENDBRANCH   5  14
BRANCH   4  16
ATOM     16  N   UNL     1      -3.482   1.111   0.604  1.00  0.00    -0.310 N 
ATOM     17  H   UNL     1      -4.008   1.281  -0.287  1.00  0.00     0.352 HD
ATOM     18  H   UNL     1      -3.527   2.017   1.120  1.00  0.00     0.352 HD
BRANCH  16  19
ATOM     19  C   UNL     1      -4.124   0.035   1.387  1.00  0.00     0.202 C 
ATOM     20  C   UNL     1      -4.676  -1.091   0.553  1.00  0.00     0.141 C 
ATOM     21  C   UNL     1      -5.548   0.347   1.750  1.00  0.00     0.141 C 
ATOM     22  C   UNL     1      -6.117  -0.792   0.923  1.00  0.00     0.144 C 
ATOM     23  O   UNL     1      -7.218  -1.252   0.673  1.00  0.00    -0.299 OA
ENDBRANCH  16  19
ENDBRANCH   4  16
TORSDOF 4


