REMARK SMILES CC1CN(CCOC(=O)c2cc(F)ccc2[NH2+]c2cc3ccccc3[n-]2)C1
REMARK SMILES IDX 7 1 6 2 5 3 4 4 2 5 3 6 27 7 1 8 8 9 9 10 10 11 11 12 16 13
REMARK SMILES IDX 12 14 15 15 14 16 13 17 17 18 18 21 19 22 26 23 20 24 25 25
REMARK SMILES IDX 21 26 24 27 22 28 23 29
REMARK H PARENT 17 19 17 20
ROOT
ATOM      1  O   UNL     1       1.175  -1.427  -0.966  1.00  0.00    -0.461 OA
ENDROOT
BRANCH   1   2
ATOM      2  C   UNL     1       0.469  -2.167  -1.960  1.00  0.00     0.248 C 
BRANCH   2   3
ATOM      3  C   UNL     1      -1.038  -1.916  -1.864  1.00  0.00     0.126 C 
BRANCH   3   4
ATOM      4  N   UNL     1      -1.660  -2.844  -0.897  1.00  0.00    -0.299 NA
ATOM      5  C   UNL     1      -3.140  -2.179   0.549  1.00  0.00     0.014 C 
ATOM      6  C   UNL     1      -3.124  -2.699  -0.880  1.00  0.00     0.089 C 
ATOM      7  C   UNL     1      -1.629  -2.332   0.482  1.00  0.00     0.089 C 
ATOM      8  C   UNL     1      -3.616  -0.730   0.680  1.00  0.00     0.010 C 
ENDBRANCH   3   4
ENDBRANCH   2   3
ENDBRANCH   1   2
BRANCH   1   9
ATOM      9  C   UNL     1       2.569  -1.486  -0.847  1.00  0.00     0.344 C 
ATOM     10  O   UNL     1       3.214  -2.350  -1.505  1.00  0.00    -0.246 OA
BRANCH   9  11
ATOM     11  C   UNL     1       3.314  -0.502  -0.019  1.00  0.00     0.124 A 
ATOM     12  C   UNL     1       4.592  -0.107  -0.464  1.00  0.00     0.061 A 
ATOM     13  C   UNL     1       2.804   0.061   1.188  1.00  0.00     0.148 A 
ATOM     14  C   UNL     1       5.338   0.840   0.238  1.00  0.00     0.124 A 
ATOM     15  C   UNL     1       3.571   1.026   1.871  1.00  0.00     0.072 A 
ATOM     16  C   UNL     1       4.825   1.410   1.399  1.00  0.00     0.045 A 
ATOM     17  F   UNL     1       6.559   1.214  -0.217  1.00  0.00    -0.207 F 
BRANCH  13  18
ATOM     18  N   UNL     1       1.532  -0.326   1.748  1.00  0.00    -0.299 N 
ATOM     19  H   UNL     1       1.621  -0.375   2.791  1.00  0.00     0.356 HD
ATOM     20  H   UNL     1       1.240  -1.278   1.437  1.00  0.00     0.356 HD
BRANCH  18  21
ATOM     21  C   UNL     1       0.521   0.637   1.403  1.00  0.00     0.036 A 
ATOM     22  C   UNL     1      -0.456   1.095   2.283  1.00  0.00     0.050 A 
ATOM     23  N   UNL     1       0.323   1.089   0.138  1.00  0.00    -0.610 NA
ATOM     24  C   UNL     1      -1.273   1.880   1.510  1.00  0.00    -0.036 A 
ATOM     25  C   UNL     1      -0.778   1.855   0.232  1.00  0.00    -0.125 A 
ATOM     26  C   UNL     1      -2.432   2.580   1.838  1.00  0.00     0.007 A 
ATOM     27  C   UNL     1      -1.412   2.531  -0.809  1.00  0.00    -0.015 A 
ATOM     28  C   UNL     1      -3.092   3.275   0.808  1.00  0.00     0.001 A 
ATOM     29  C   UNL     1      -2.584   3.251  -0.510  1.00  0.00    -0.001 A 
ENDBRANCH  18  21
ENDBRANCH  13  18
ENDBRANCH   9  11
ENDBRANCH   1   9
TORSDOF 7


