REMARK SMILES C=CC(=O)N1CCC[C@@H](c2ccc3ccc(C)c(F)c3n2)[C@@H]1F
REMARK SMILES IDX 5 1 6 2 7 3 8 4 9 5 22 6 23 7 3 8 4 9 2 10 1 11 10 12 11 13
REMARK SMILES IDX 21 14 12 15 20 16 13 17 18 18 14 19 16 20 15 21 19 22 17 23
REMARK H PARENT
ROOT
ATOM      1  N   UNL     1      -0.794  -1.209   1.644  1.00  0.00    -0.308 N 
ATOM      2  C   UNL     1      -1.155  -0.045   2.466  1.00  0.00     0.123 C 
ATOM      3  C   UNL     1      -0.018   0.994   2.500  1.00  0.00     0.022 C 
ATOM      4  C   UNL     1       0.869   0.981   1.239  1.00  0.00     0.017 C 
ATOM      5  C   UNL     1       0.107   0.445   0.014  1.00  0.00     0.093 C 
ATOM      6  C   UNL     1      -0.330  -1.015   0.261  1.00  0.00     0.274 C 
ATOM      7  F   UNL     1      -1.343  -1.347  -0.624  1.00  0.00    -0.223 F 
ENDROOT
BRANCH   1   8
ATOM      8  C   UNL     1      -1.103  -2.540   2.097  1.00  0.00     0.248 C 
ATOM      9  O   UNL     1      -1.755  -3.316   1.349  1.00  0.00    -0.270 OA
BRANCH   8  10
ATOM     10  C   UNL     1      -0.669  -3.034   3.417  1.00  0.00     0.063 C 
ATOM     11  C   UNL     1       0.341  -2.490   4.093  1.00  0.00     0.014 C 
ENDBRANCH   8  10
ENDBRANCH   1   8
BRANCH   5  12
ATOM     12  C   UNL     1       0.919   0.577  -1.255  1.00  0.00     0.049 A 
ATOM     13  C   UNL     1       2.184  -0.024  -1.390  1.00  0.00     0.025 A 
ATOM     14  N   UNL     1       0.404   1.287  -2.297  1.00  0.00    -0.249 NA
ATOM     15  C   UNL     1       2.895   0.120  -2.582  1.00  0.00     0.012 A 
ATOM     16  C   UNL     1       1.073   1.444  -3.471  1.00  0.00     0.106 A 
ATOM     17  C   UNL     1       2.346   0.857  -3.637  1.00  0.00     0.003 A 
ATOM     18  C   UNL     1       0.502   2.185  -4.514  1.00  0.00     0.152 A 
ATOM     19  C   UNL     1       3.036   1.023  -4.845  1.00  0.00     0.011 A 
ATOM     20  C   UNL     1       1.191   2.340  -5.729  1.00  0.00    -0.013 A 
ATOM     21  C   UNL     1       2.463   1.764  -5.883  1.00  0.00     0.007 A 
ATOM     22  F   UNL     1      -0.720   2.755  -4.344  1.00  0.00    -0.204 F 
ATOM     23  C   UNL     1       0.590   3.155  -6.838  1.00  0.00     0.047 C 
ENDBRANCH   5  12
TORSDOF 3


