REMARK SMILES C=Cc1ccc(-c2cnc3oc[nH+]c3c2)c(C#N)c1F
REMARK SMILES IDX 3 1 4 2 5 3 6 4 16 5 19 6 20 7 2 8 1 9 17 10 18 11 7 12 8 13
REMARK SMILES IDX 15 14 9 15 14 16 10 17 13 18 11 19 12 20
REMARK H PARENT 13 21
ROOT
ATOM      1  C   UNL     1       2.335   0.147   2.425  1.00  0.00     0.011 A 
ATOM      2  C   UNL     1       1.703  -1.090   2.611  1.00  0.00     0.012 A 
ATOM      3  C   UNL     1       0.486  -1.368   1.990  1.00  0.00     0.011 A 
ATOM      4  C   UNL     1      -0.136  -0.411   1.173  1.00  0.00     0.004 A 
ATOM      5  C   UNL     1       0.473   0.854   1.010  1.00  0.00     0.096 A 
ATOM      6  C   UNL     1       1.700   1.130   1.637  1.00  0.00     0.148 A 
ATOM      7  F   UNL     1       2.236   2.374   1.526  1.00  0.00    -0.205 F 
ENDROOT
BRANCH   1   8
ATOM      8  C   UNL     1       3.627   0.385   3.109  1.00  0.00     0.003 C 
ATOM      9  C   UNL     1       4.609   1.120   2.589  1.00  0.00     0.009 C 
ENDBRANCH   1   8
BRANCH   5  10
ATOM     10  C   UNL     1      -0.172   1.903   0.253  1.00  0.00     0.103 C 
ATOM     11  N   UNL     1      -0.688   2.743  -0.352  1.00  0.00    -0.192 NA
ENDBRANCH   5  10
BRANCH   4  12
ATOM     12  C   UNL     1      -1.422  -0.756   0.518  1.00  0.00     0.008 A 
ATOM     13  C   UNL     1      -2.509  -1.254   1.289  1.00  0.00     0.124 A 
ATOM     14  C   UNL     1      -1.573  -0.625  -0.882  1.00  0.00     0.095 A 
ATOM     15  N   UNL     1      -3.695  -1.589   0.694  1.00  0.00    -0.215 NA
ATOM     16  C   UNL     1      -2.801  -0.981  -1.424  1.00  0.00     0.270 A 
ATOM     17  C   UNL     1      -3.812  -1.443  -0.648  1.00  0.00     0.297 A 
ATOM     18  N   UNL     1      -3.211  -0.954  -2.700  1.00  0.00    -0.175 N 
ATOM     19  O   UNL     1      -4.853  -1.709  -1.393  1.00  0.00    -0.384 OA
ATOM     20  C   UNL     1      -4.487  -1.412  -2.632  1.00  0.00     0.522 A 
ATOM     21  H   UNL     1      -2.678  -0.652  -3.545  1.00  0.00     0.457 HD
ENDBRANCH   4  12
TORSDOF 3


