MODEL 1
REMARK VINA RESULT:      -9.6      0.000      0.000
REMARK SMILES Cc1ccc(-c2ccc(N=[N+]=[N-])cc2)c2c[nH][nH+]c12
REMARK SMILES IDX 8 1 7 2 6 3 14 4 13 5 9 6 10 7 11 8 12 9 5 10 4 11 15 12
REMARK SMILES IDX 3 13 19 14 16 15 2 16 18 17 17 18 1 19
REMARK H PARENT 18 20 17 21
ROOT
ATOM      1  C   UNL     1      46.267 129.654  15.718  1.00  0.00     0.011 A 
ATOM      2  C   UNL     1      45.747 129.805  17.006  1.00  0.00     0.009 A 
ATOM      3  C   UNL     1      45.327 131.067  17.460  1.00  0.00    -0.017 A 
ATOM      4  C   UNL     1      45.453 132.176  16.607  1.00  0.00     0.009 A 
ATOM      5  C   UNL     1      45.973 132.024  15.319  1.00  0.00     0.011 A 
ATOM      6  C   UNL     1      46.383 130.757  14.865  1.00  0.00     0.038 A 
ENDROOT
BRANCH   6   7
ATOM      7  N   UNL     1      46.921 130.562  13.550  1.00  0.00    -0.061 NA
BRANCH   7   8
ATOM      8  N   UNL     1      47.938 129.896  13.347  1.00  0.00     0.005 N 
ATOM      9  N   UNL     1      48.955 129.233  13.146  1.00  0.00    -0.003 NA
ENDBRANCH   7   8
ENDBRANCH   6   7
BRANCH   3  10
ATOM     10  C   UNL     1      44.784 131.235  18.828  1.00  0.00    -0.003 A 
ATOM     11  C   UNL     1      45.543 130.858  19.959  1.00  0.00     0.010 A 
ATOM     12  C   UNL     1      43.511 131.770  19.068  1.00  0.00     0.078 A 
ATOM     13  C   UNL     1      45.026 131.009  21.264  1.00  0.00     0.011 A 
ATOM     14  C   UNL     1      43.010 131.919  20.337  1.00  0.00     0.239 A 
ATOM     15  C   UNL     1      42.540 132.287  18.230  1.00  0.00     0.163 A 
ATOM     16  C   UNL     1      43.736 131.545  21.472  1.00  0.00     0.024 A 
ATOM     17  N   UNL     1      41.792 132.485  20.275  1.00  0.00    -0.126 N 
ATOM     18  N   UNL     1      41.511 132.706  18.998  1.00  0.00    -0.174 N 
ATOM     19  C   UNL     1      43.180 131.727  22.852  1.00  0.00     0.052 C 
ATOM     20  H   UNL     1      41.165 132.732  21.074  1.00  0.00     0.488 HD
ATOM     21  H   UNL     1      40.630 133.150  18.656  1.00  0.00     0.238 HD
ENDBRANCH   3  10
TORSDOF 3
ENDMDL
MODEL 2
REMARK VINA RESULT:      -9.5      0.050      1.112
REMARK SMILES Cc1ccc(-c2ccc(N=[N+]=[N-])cc2)c2c[nH][nH+]c12
REMARK SMILES IDX 8 1 7 2 6 3 14 4 13 5 9 6 10 7 11 8 12 9 5 10 4 11 15 12
REMARK SMILES IDX 3 13 19 14 16 15 2 16 18 17 17 18 1 19
REMARK H PARENT 18 20 17 21
ROOT
ATOM      1  C   UNL     1      46.032 132.006  15.367  1.00  0.00     0.011 A 
ATOM      2  C   UNL     1      45.512 132.174  16.653  1.00  0.00     0.009 A 
ATOM      3  C   UNL     1      45.342 131.067  17.501  1.00  0.00    -0.017 A 
ATOM      4  C   UNL     1      45.688 129.788  17.033  1.00  0.00     0.009 A 
ATOM      5  C   UNL     1      46.209 129.622  15.747  1.00  0.00     0.011 A 
ATOM      6  C   UNL     1      46.387 130.735  14.904  1.00  0.00     0.038 A 
ENDROOT
BRANCH   6   7
ATOM      7  N   UNL     1      46.919 130.602  13.579  1.00  0.00    -0.061 NA
BRANCH   7   8
ATOM      8  N   UNL     1      47.933 129.945  13.339  1.00  0.00     0.005 N 
ATOM      9  N   UNL     1      48.945 129.288  13.101  1.00  0.00    -0.003 NA
ENDBRANCH   7   8
ENDBRANCH   6   7
BRANCH   3  10
ATOM     10  C   UNL     1      44.781 131.237  18.862  1.00  0.00    -0.003 A 
ATOM     11  C   UNL     1      45.527 130.864  20.003  1.00  0.00     0.010 A 
ATOM     12  C   UNL     1      43.505 131.771  19.084  1.00  0.00     0.078 A 
ATOM     13  C   UNL     1      44.992 131.016  21.301  1.00  0.00     0.011 A 
ATOM     14  C   UNL     1      42.987 131.922  20.346  1.00  0.00     0.239 A 
ATOM     15  C   UNL     1      42.544 132.284  18.232  1.00  0.00     0.163 A 
ATOM     16  C   UNL     1      43.699 131.550  21.491  1.00  0.00     0.024 A 
ATOM     17  N   UNL     1      41.769 132.486  20.267  1.00  0.00    -0.126 N 
ATOM     18  N   UNL     1      41.504 132.704  18.986  1.00  0.00    -0.174 N 
ATOM     19  C   UNL     1      43.125 131.735  22.864  1.00  0.00     0.052 C 
ATOM     20  H   UNL     1      41.132 132.733  21.058  1.00  0.00     0.488 HD
ATOM     21  H   UNL     1      40.628 133.146  18.633  1.00  0.00     0.238 HD
ENDBRANCH   3  10
TORSDOF 3
ENDMDL
MODEL 3
REMARK VINA RESULT:      -8.6      1.519      2.473
REMARK SMILES Cc1ccc(-c2ccc(N=[N+]=[N-])cc2)c2c[nH][nH+]c12
REMARK SMILES IDX 8 1 7 2 6 3 14 4 13 5 9 6 10 7 11 8 12 9 5 10 4 11 15 12
REMARK SMILES IDX 3 13 19 14 16 15 2 16 18 17 17 18 1 19
REMARK H PARENT 18 20 17 21
ROOT
ATOM      1  C   UNL     1      46.255 132.000  15.052  1.00  0.00     0.011 A 
ATOM      2  C   UNL     1      45.575 132.263  16.244  1.00  0.00     0.009 A 
ATOM      3  C   UNL     1      44.911 131.230  16.927  1.00  0.00    -0.017 A 
ATOM      4  C   UNL     1      44.927 129.934  16.385  1.00  0.00     0.009 A 
ATOM      5  C   UNL     1      45.607 129.671  15.194  1.00  0.00     0.011 A 
ATOM      6  C   UNL     1      46.280 130.707  14.519  1.00  0.00     0.038 A 
ENDROOT
BRANCH   6   7
ATOM      7  N   UNL     1      46.989 130.476  13.294  1.00  0.00    -0.061 NA
BRANCH   7   8
ATOM      8  N   UNL     1      48.039 129.832  13.252  1.00  0.00     0.005 N 
ATOM      9  N   UNL     1      49.087 129.188  13.212  1.00  0.00    -0.003 NA
ENDBRANCH   7   8
ENDBRANCH   6   7
BRANCH   3  10
ATOM     10  C   UNL     1      44.180 131.505  18.186  1.00  0.00    -0.003 A 
ATOM     11  C   UNL     1      42.835 131.941  18.160  1.00  0.00     0.010 A 
ATOM     12  C   UNL     1      44.772 131.346  19.445  1.00  0.00     0.078 A 
ATOM     13  C   UNL     1      42.138 132.212  19.357  1.00  0.00     0.011 A 
ATOM     14  C   UNL     1      44.092 131.607  20.609  1.00  0.00     0.239 A 
ATOM     15  C   UNL     1      46.016 130.892  19.844  1.00  0.00     0.163 A 
ATOM     16  C   UNL     1      42.766 132.050  20.611  1.00  0.00     0.024 A 
ATOM     17  N   UNL     1      44.884 131.339  21.661  1.00  0.00    -0.126 N 
ATOM     18  N   UNL     1      46.048 130.906  21.195  1.00  0.00    -0.174 N 
ATOM     19  C   UNL     1      42.032 132.317  21.892  1.00  0.00     0.052 C 
ATOM     20  H   UNL     1      44.645 131.430  22.675  1.00  0.00     0.488 HD
ATOM     21  H   UNL     1      46.850 130.612  21.793  1.00  0.00     0.238 HD
ENDBRANCH   3  10
TORSDOF 3
ENDMDL
MODEL 4
REMARK VINA RESULT:      -8.5      1.525      2.236
REMARK SMILES Cc1ccc(-c2ccc(N=[N+]=[N-])cc2)c2c[nH][nH+]c12
REMARK SMILES IDX 8 1 7 2 6 3 14 4 13 5 9 6 10 7 11 8 12 9 5 10 4 11 15 12
REMARK SMILES IDX 3 13 19 14 16 15 2 16 18 17 17 18 1 19
REMARK H PARENT 18 20 17 21
ROOT
ATOM      1  C   UNL     1      45.819 129.693  15.196  1.00  0.00     0.011 A 
ATOM      2  C   UNL     1      45.113 129.933  16.378  1.00  0.00     0.009 A 
ATOM      3  C   UNL     1      44.978 131.241  16.873  1.00  0.00    -0.017 A 
ATOM      4  C   UNL     1      45.576 132.302  16.172  1.00  0.00     0.009 A 
ATOM      5  C   UNL     1      46.281 132.061  14.990  1.00  0.00     0.011 A 
ATOM      6  C   UNL     1      46.405 130.751  14.492  1.00  0.00     0.038 A 
ENDROOT
BRANCH   6   7
ATOM      7  N   UNL     1      47.122 130.465  13.283  1.00  0.00    -0.061 NA
BRANCH   7   8
ATOM      8  N   UNL     1      48.145 129.778  13.270  1.00  0.00     0.005 N 
ATOM      9  N   UNL     1      49.167 129.094  13.257  1.00  0.00    -0.003 NA
ENDBRANCH   7   8
ENDBRANCH   6   7
BRANCH   3  10
ATOM     10  C   UNL     1      44.239 131.500  18.131  1.00  0.00    -0.003 A 
ATOM     11  C   UNL     1      42.882 131.896  18.104  1.00  0.00     0.010 A 
ATOM     12  C   UNL     1      44.836 131.365  19.391  1.00  0.00     0.078 A 
ATOM     13  C   UNL     1      42.177 132.152  19.300  1.00  0.00     0.011 A 
ATOM     14  C   UNL     1      44.149 131.611  20.554  1.00  0.00     0.239 A 
ATOM     15  C   UNL     1      46.093 130.950  19.791  1.00  0.00     0.163 A 
ATOM     16  C   UNL     1      42.810 132.015  20.555  1.00  0.00     0.024 A 
ATOM     17  N   UNL     1      44.949 131.372  21.607  1.00  0.00    -0.126 N 
ATOM     18  N   UNL     1      46.125 130.972  21.142  1.00  0.00    -0.174 N 
ATOM     19  C   UNL     1      42.070 132.266  21.834  1.00  0.00     0.052 C 
ATOM     20  H   UNL     1      44.708 131.461  22.620  1.00  0.00     0.488 HD
ATOM     21  H   UNL     1      46.936 130.705  21.742  1.00  0.00     0.238 HD
ENDBRANCH   3  10
TORSDOF 3
ENDMDL
MODEL 5
REMARK VINA RESULT:      -8.4      1.055      1.360
REMARK SMILES Cc1ccc(-c2ccc(N=[N+]=[N-])cc2)c2c[nH][nH+]c12
REMARK SMILES IDX 8 1 7 2 6 3 14 4 13 5 9 6 10 7 11 8 12 9 5 10 4 11 15 12
REMARK SMILES IDX 3 13 19 14 16 15 2 16 18 17 17 18 1 19
REMARK H PARENT 18 20 17 21
ROOT
ATOM      1  C   UNL     1      46.145 130.612  16.603  1.00  0.00     0.011 A 
ATOM      2  C   UNL     1      45.773 130.729  17.945  1.00  0.00     0.009 A 
ATOM      3  C   UNL     1      44.510 131.239  18.291  1.00  0.00    -0.017 A 
ATOM      4  C   UNL     1      43.635 131.645  17.270  1.00  0.00     0.009 A 
ATOM      5  C   UNL     1      44.007 131.527  15.928  1.00  0.00     0.011 A 
ATOM      6  C   UNL     1      45.269 131.006  15.586  1.00  0.00     0.038 A 
ENDROOT
BRANCH   6   7
ATOM      7  N   UNL     1      45.686 130.870  14.221  1.00  0.00    -0.061 NA
BRANCH   7   8
ATOM      8  N   UNL     1      46.744 130.320  13.907  1.00  0.00     0.005 N 
ATOM      9  N   UNL     1      47.800 129.773  13.593  1.00  0.00    -0.003 NA
ENDBRANCH   7   8
ENDBRANCH   6   7
BRANCH   3  10
ATOM     10  C   UNL     1      44.114 131.375  19.712  1.00  0.00    -0.003 A 
ATOM     11  C   UNL     1      44.909 130.820  20.741  1.00  0.00     0.010 A 
ATOM     12  C   UNL     1      42.952 132.052  20.104  1.00  0.00     0.078 A 
ATOM     13  C   UNL     1      44.530 130.940  22.095  1.00  0.00     0.011 A 
ATOM     14  C   UNL     1      42.586 132.171  21.421  1.00  0.00     0.239 A 
ATOM     15  C   UNL     1      41.992 132.751  19.394  1.00  0.00     0.163 A 
ATOM     16  C   UNL     1      43.348 131.622  22.457  1.00  0.00     0.024 A 
ATOM     17  N   UNL     1      41.455 132.893  21.510  1.00  0.00    -0.126 N 
ATOM     18  N   UNL     1      41.099 133.242  20.281  1.00  0.00    -0.174 N 
ATOM     19  C   UNL     1      42.942 131.773  23.893  1.00  0.00     0.052 C 
ATOM     20  H   UNL     1      40.939 133.160  22.378  1.00  0.00     0.488 HD
ATOM     21  H   UNL     1      40.261 133.821  20.052  1.00  0.00     0.238 HD
ENDBRANCH   3  10
TORSDOF 3
ENDMDL
MODEL 6
REMARK VINA RESULT:      -8.3      1.713      6.917
REMARK SMILES Cc1ccc(-c2ccc(N=[N+]=[N-])cc2)c2c[nH][nH+]c12
REMARK SMILES IDX 8 1 7 2 6 3 14 4 13 5 9 6 10 7 11 8 12 9 5 10 4 11 15 12
REMARK SMILES IDX 3 13 19 14 16 15 2 16 18 17 17 18 1 19
REMARK H PARENT 18 20 17 21
ROOT
ATOM      1  C   UNL     1      44.444 131.937  20.301  1.00  0.00     0.011 A 
ATOM      2  C   UNL     1      45.164 131.766  19.115  1.00  0.00     0.009 A 
ATOM      3  C   UNL     1      44.497 131.713  17.880  1.00  0.00    -0.017 A 
ATOM      4  C   UNL     1      43.097 131.819  17.854  1.00  0.00     0.009 A 
ATOM      5  C   UNL     1      42.377 131.991  19.040  1.00  0.00     0.011 A 
ATOM      6  C   UNL     1      43.050 132.054  20.274  1.00  0.00     0.038 A 
ENDROOT
BRANCH   6   7
ATOM      7  N   UNL     1      42.346 132.230  21.511  1.00  0.00    -0.061 NA
BRANCH   7   8
ATOM      8  N   UNL     1      42.654 131.621  22.537  1.00  0.00     0.005 N 
ATOM      9  N   UNL     1      42.962 131.011  23.560  1.00  0.00    -0.003 NA
ENDBRANCH   7   8
ENDBRANCH   6   7
BRANCH   3  10
ATOM     10  C   UNL     1      45.254 131.521  16.621  1.00  0.00    -0.003 A 
ATOM     11  C   UNL     1      45.872 132.616  15.974  1.00  0.00     0.010 A 
ATOM     12  C   UNL     1      45.397 130.265  16.017  1.00  0.00     0.078 A 
ATOM     13  C   UNL     1      46.587 132.438  14.770  1.00  0.00     0.011 A 
ATOM     14  C   UNL     1      46.095 130.092  14.848  1.00  0.00     0.239 A 
ATOM     15  C   UNL     1      44.989 128.997  16.388  1.00  0.00     0.163 A 
ATOM     16  C   UNL     1      46.706 131.160  14.183  1.00  0.00     0.024 A 
ATOM     17  N   UNL     1      46.101 128.790  14.516  1.00  0.00    -0.126 N 
ATOM     18  N   UNL     1      45.430 128.129  15.451  1.00  0.00    -0.174 N 
ATOM     19  C   UNL     1      47.477 130.952  12.913  1.00  0.00     0.052 C 
ATOM     20  H   UNL     1      46.557 128.347  13.686  1.00  0.00     0.488 HD
ATOM     21  H   UNL     1      45.287 127.096  15.454  1.00  0.00     0.238 HD
ENDBRANCH   3  10
TORSDOF 3
ENDMDL
MODEL 7
REMARK VINA RESULT:      -8.2      1.760      6.959
REMARK SMILES Cc1ccc(-c2ccc(N=[N+]=[N-])cc2)c2c[nH][nH+]c12
REMARK SMILES IDX 8 1 7 2 6 3 14 4 13 5 9 6 10 7 11 8 12 9 5 10 4 11 15 12
REMARK SMILES IDX 3 13 19 14 16 15 2 16 18 17 17 18 1 19
REMARK H PARENT 18 20 17 21
ROOT
ATOM      1  C   UNL     1      42.472 132.030  19.310  1.00  0.00     0.011 A 
ATOM      2  C   UNL     1      43.152 131.905  18.095  1.00  0.00     0.009 A 
ATOM      3  C   UNL     1      44.516 131.570  18.074  1.00  0.00    -0.017 A 
ATOM      4  C   UNL     1      45.191 131.378  19.291  1.00  0.00     0.009 A 
ATOM      5  C   UNL     1      44.511 131.502  20.506  1.00  0.00     0.011 A 
ATOM      6  C   UNL     1      43.142 131.827  20.522  1.00  0.00     0.038 A 
ENDROOT
BRANCH   6   7
ATOM      7  N   UNL     1      42.411 131.963  21.748  1.00  0.00    -0.061 NA
BRANCH   7   8
ATOM      8  N   UNL     1      42.952 131.870  22.851  1.00  0.00     0.005 N 
ATOM      9  N   UNL     1      43.493 131.774  23.952  1.00  0.00    -0.003 NA
ENDBRANCH   7   8
ENDBRANCH   6   7
BRANCH   3  10
ATOM     10  C   UNL     1      45.244 131.447  16.790  1.00  0.00    -0.003 A 
ATOM     11  C   UNL     1      45.839 132.578  16.185  1.00  0.00     0.010 A 
ATOM     12  C   UNL     1      45.379 130.224  16.120  1.00  0.00     0.078 A 
ATOM     13  C   UNL     1      46.526 132.466  14.956  1.00  0.00     0.011 A 
ATOM     14  C   UNL     1      46.050 130.115  14.928  1.00  0.00     0.239 A 
ATOM     15  C   UNL     1      44.988 128.936  16.437  1.00  0.00     0.163 A 
ATOM     16  C   UNL     1      46.639 131.219  14.303  1.00  0.00     0.024 A 
ATOM     17  N   UNL     1      46.056 128.831  14.531  1.00  0.00    -0.126 N 
ATOM     18  N   UNL     1      45.412 128.120  15.447  1.00  0.00    -0.174 N 
ATOM     19  C   UNL     1      47.381 131.081  13.007  1.00  0.00     0.052 C 
ATOM     20  H   UNL     1      46.496 128.434  13.669  1.00  0.00     0.488 HD
ATOM     21  H   UNL     1      45.275 127.086  15.401  1.00  0.00     0.238 HD
ENDBRANCH   3  10
TORSDOF 3
ENDMDL
MODEL 8
REMARK VINA RESULT:      -7.8      1.797      2.577
REMARK SMILES Cc1ccc(-c2ccc(N=[N+]=[N-])cc2)c2c[nH][nH+]c12
REMARK SMILES IDX 8 1 7 2 6 3 14 4 13 5 9 6 10 7 11 8 12 9 5 10 4 11 15 12
REMARK SMILES IDX 3 13 19 14 16 15 2 16 18 17 17 18 1 19
REMARK H PARENT 18 20 17 21
ROOT
ATOM      1  C   UNL     1      44.021 131.488  15.038  1.00  0.00     0.011 A 
ATOM      2  C   UNL     1      43.542 131.661  16.339  1.00  0.00     0.009 A 
ATOM      3  C   UNL     1      44.381 131.432  17.443  1.00  0.00    -0.017 A 
ATOM      4  C   UNL     1      45.703 131.011  17.220  1.00  0.00     0.009 A 
ATOM      5  C   UNL     1      46.181 130.839  15.918  1.00  0.00     0.011 A 
ATOM      6  C   UNL     1      45.340 131.080  14.816  1.00  0.00     0.038 A 
ENDROOT
BRANCH   6   7
ATOM      7  N   UNL     1      45.796 130.914  13.466  1.00  0.00    -0.061 NA
BRANCH   7   8
ATOM      8  N   UNL     1      46.981 131.045  13.150  1.00  0.00     0.005 N 
ATOM      9  N   UNL     1      48.163 131.173  12.836  1.00  0.00    -0.003 NA
ENDBRANCH   7   8
ENDBRANCH   6   7
BRANCH   3  10
ATOM     10  C   UNL     1      43.875 131.604  18.825  1.00  0.00    -0.003 A 
ATOM     11  C   UNL     1      42.678 132.314  19.074  1.00  0.00     0.010 A 
ATOM     12  C   UNL     1      44.544 131.078  19.938  1.00  0.00     0.078 A 
ATOM     13  C   UNL     1      42.198 132.487  20.390  1.00  0.00     0.011 A 
ATOM     14  C   UNL     1      44.075 131.243  21.217  1.00  0.00     0.239 A 
ATOM     15  C   UNL     1      45.680 130.299  20.064  1.00  0.00     0.163 A 
ATOM     16  C   UNL     1      42.900 131.950  21.491  1.00  0.00     0.024 A 
ATOM     17  N   UNL     1      44.889 130.610  22.079  1.00  0.00    -0.126 N 
ATOM     18  N   UNL     1      45.859 130.040  21.378  1.00  0.00    -0.174 N 
ATOM     19  C   UNL     1      42.393 132.110  22.894  1.00  0.00     0.052 C 
ATOM     20  H   UNL     1      44.789 130.549  23.118  1.00  0.00     0.488 HD
ATOM     21  H   UNL     1      46.629 129.469  21.793  1.00  0.00     0.238 HD
ENDBRANCH   3  10
TORSDOF 3
ENDMDL
MODEL 9
REMARK VINA RESULT:      -6.8      2.037      6.760
REMARK SMILES Cc1ccc(-c2ccc(N=[N+]=[N-])cc2)c2c[nH][nH+]c12
REMARK SMILES IDX 8 1 7 2 6 3 14 4 13 5 9 6 10 7 11 8 12 9 5 10 4 11 15 12
REMARK SMILES IDX 3 13 19 14 16 15 2 16 18 17 17 18 1 19
REMARK H PARENT 18 20 17 21
ROOT
ATOM      1  C   UNL     1      42.691 132.037  20.069  1.00  0.00     0.011 A 
ATOM      2  C   UNL     1      43.283 131.756  18.835  1.00  0.00     0.009 A 
ATOM      3  C   UNL     1      44.555 131.162  18.775  1.00  0.00    -0.017 A 
ATOM      4  C   UNL     1      45.229 130.870  19.972  1.00  0.00     0.009 A 
ATOM      5  C   UNL     1      44.636 131.151  21.206  1.00  0.00     0.011 A 
ATOM      6  C   UNL     1      43.358 131.736  21.261  1.00  0.00     0.038 A 
ENDROOT
BRANCH   6   7
ATOM      7  N   UNL     1      42.717 132.038  22.509  1.00  0.00    -0.061 NA
BRANCH   7   8
ATOM      8  N   UNL     1      42.650 131.221  23.429  1.00  0.00     0.005 N 
ATOM      9  N   UNL     1      42.583 130.405  24.346  1.00  0.00    -0.003 NA
ENDBRANCH   7   8
ENDBRANCH   6   7
BRANCH   3  10
ATOM     10  C   UNL     1      45.192 130.871  17.469  1.00  0.00    -0.003 A 
ATOM     11  C   UNL     1      46.429 130.190  17.404  1.00  0.00     0.010 A 
ATOM     12  C   UNL     1      44.610 131.248  16.252  1.00  0.00     0.078 A 
ATOM     13  C   UNL     1      47.043 129.919  16.162  1.00  0.00     0.011 A 
ATOM     14  C   UNL     1      45.206 130.981  15.044  1.00  0.00     0.239 A 
ATOM     15  C   UNL     1      43.410 131.860  15.938  1.00  0.00     0.163 A 
ATOM     16  C   UNL     1      46.434 130.319  14.953  1.00  0.00     0.024 A 
ATOM     17  N   UNL     1      44.418 131.419  14.048  1.00  0.00    -0.126 N 
ATOM     18  N   UNL     1      43.332 131.951  14.592  1.00  0.00    -0.174 N 
ATOM     19  C   UNL     1      47.066 130.022  13.625  1.00  0.00     0.052 C 
ATOM     20  H   UNL     1      44.597 131.351  13.020  1.00  0.00     0.488 HD
ATOM     21  H   UNL     1      42.540 132.359  14.049  1.00  0.00     0.238 HD
ENDBRANCH   3  10
TORSDOF 3
ENDMDL


