MODEL 1
REMARK VINA RESULT:      -5.2      0.000      0.000
REMARK SMILES C#CC[NH2+][C@H](C=C)C(=O)N1N[C@H](C)O[C@@H]1c1ccc2cc(C)[nH]c2c1
REMARK SMILES IDX 5 1 4 2 3 5 2 6 1 7 6 8 7 9 8 10 9 11 10 12 11 13 15 14
REMARK SMILES IDX 12 15 14 16 13 18 16 19 17 20 25 21 18 22 24 23 19 24 23 25
REMARK SMILES IDX 20 26 21 27 22 29
REMARK H PARENT 4 3 4 4 11 17 23 28
ROOT
ATOM      1  C   UNL     1      45.451 126.371  23.198  1.00  0.00     0.298 C 
ENDROOT
BRANCH   1   2
ATOM      2  N   UNL     1      44.201 125.817  23.773  1.00  0.00    -0.323 N 
ATOM      3  H   UNL     1      43.690 126.543  24.330  1.00  0.00     0.348 HD
ATOM      4  H   UNL     1      44.453 125.048  24.437  1.00  0.00     0.348 HD
BRANCH   2   5
ATOM      5  C   UNL     1      43.309 125.219  22.760  1.00  0.00     0.353 C 
BRANCH   5   6
ATOM      6  C   UNL     1      42.500 124.122  23.316  1.00  0.00    -0.047 C 
ATOM      7  C   UNL     1      41.836 123.223  23.767  1.00  0.00     0.010 C 
ENDBRANCH   5   6
ENDBRANCH   2   5
ENDBRANCH   1   2
BRANCH   1   8
ATOM      8  C   UNL     1      46.425 126.723  24.301  1.00  0.00     0.039 C 
ATOM      9  C   UNL     1      47.436 125.911  24.625  1.00  0.00     0.011 C 
ENDBRANCH   1   8
BRANCH   1  10
ATOM     10  C   UNL     1      45.188 127.614  22.368  1.00  0.00     0.301 C 
ATOM     11  O   UNL     1      45.510 127.609  21.149  1.00  0.00    -0.266 OA
BRANCH  10  12
ATOM     12  N   UNL     1      44.527 128.776  22.907  1.00  0.00    -0.237 N 
ATOM     13  N   UNL     1      43.489 128.652  23.822  1.00  0.00    -0.201 NA
ATOM     14  C   UNL     1      44.927 130.154  22.732  1.00  0.00     0.267 C 
ATOM     15  C   UNL     1      43.359 130.010  24.362  1.00  0.00     0.204 C 
ATOM     16  O   UNL     1      44.119 130.921  23.588  1.00  0.00    -0.333 OA
ATOM     17  H   UNL     1      42.639 128.382  23.274  1.00  0.00     0.151 HD
ATOM     18  C   UNL     1      41.900 130.470  24.414  1.00  0.00     0.058 C 
BRANCH  14  19
ATOM     19  C   UNL     1      44.708 130.610  21.311  1.00  0.00     0.005 A 
ATOM     20  C   UNL     1      43.558 131.372  20.976  1.00  0.00     0.009 A 
ATOM     21  C   UNL     1      45.631 130.260  20.298  1.00  0.00     0.035 A 
ATOM     22  C   UNL     1      43.348 131.818  19.660  1.00  0.00     0.011 A 
ATOM     23  C   UNL     1      45.394 130.718  19.005  1.00  0.00     0.046 A 
ATOM     24  C   UNL     1      44.294 131.473  18.698  1.00  0.00    -0.000 A 
ATOM     25  N   UNL     1      46.167 130.534  17.922  1.00  0.00    -0.359 N 
ATOM     26  C   UNL     1      44.364 131.785  17.358  1.00  0.00     0.031 A 
ATOM     27  C   UNL     1      45.534 131.177  16.912  1.00  0.00     0.013 A 
ATOM     28  H   UNL     1      47.074 130.020  17.874  1.00  0.00     0.166 HD
ATOM     29  C   UNL     1      46.087 131.293  15.530  1.00  0.00     0.064 C 
ENDBRANCH  14  19
ENDBRANCH  10  12
ENDBRANCH   1  10
TORSDOF 7
ENDMDL
MODEL 2
REMARK VINA RESULT:      -4.6      2.410      4.600
REMARK SMILES C#CC[NH2+][C@H](C=C)C(=O)N1N[C@H](C)O[C@@H]1c1ccc2cc(C)[nH]c2c1
REMARK SMILES IDX 5 1 4 2 3 5 2 6 1 7 6 8 7 9 8 10 9 11 10 12 11 13 15 14
REMARK SMILES IDX 12 15 14 16 13 18 16 19 17 20 25 21 18 22 24 23 19 24 23 25
REMARK SMILES IDX 20 26 21 27 22 29
REMARK H PARENT 4 3 4 4 11 17 23 28
ROOT
ATOM      1  C   UNL     1      44.178 129.617  22.769  1.00  0.00     0.298 C 
ENDROOT
BRANCH   1   2
ATOM      2  N   UNL     1      44.852 130.155  23.976  1.00  0.00    -0.323 N 
ATOM      3  H   UNL     1      45.829 130.461  23.755  1.00  0.00     0.348 HD
ATOM      4  H   UNL     1      44.928 129.387  24.683  1.00  0.00     0.348 HD
BRANCH   2   5
ATOM      5  C   UNL     1      44.100 131.248  24.625  1.00  0.00     0.353 C 
BRANCH   5   6
ATOM      6  C   UNL     1      44.829 132.525  24.573  1.00  0.00    -0.047 C 
ATOM      7  C   UNL     1      45.428 133.570  24.534  1.00  0.00     0.010 C 
ENDBRANCH   5   6
ENDBRANCH   2   5
ENDBRANCH   1   2
BRANCH   1   8
ATOM      8  C   UNL     1      44.358 128.116  22.692  1.00  0.00     0.039 C 
ATOM      9  C   UNL     1      45.365 127.501  23.319  1.00  0.00     0.011 C 
ENDBRANCH   1   8
BRANCH   1  10
ATOM     10  C   UNL     1      44.723 130.237  21.495  1.00  0.00     0.301 C 
ATOM     11  O   UNL     1      45.879 129.913  21.110  1.00  0.00    -0.266 OA
BRANCH  10  12
ATOM     12  N   UNL     1      43.944 131.132  20.678  1.00  0.00    -0.237 N 
ATOM     13  N   UNL     1      42.568 131.241  20.841  1.00  0.00    -0.201 NA
ATOM     14  C   UNL     1      44.454 132.118  19.752  1.00  0.00     0.267 C 
ATOM     15  C   UNL     1      42.242 132.467  20.103  1.00  0.00     0.204 C 
ATOM     16  O   UNL     1      43.355 132.887  19.334  1.00  0.00    -0.333 OA
ATOM     17  H   UNL     1      42.146 130.401  20.380  1.00  0.00     0.151 HD
ATOM     18  C   UNL     1      41.026 132.282  19.192  1.00  0.00     0.058 C 
BRANCH  14  19
ATOM     19  C   UNL     1      45.081 131.462  18.547  1.00  0.00     0.005 A 
ATOM     20  C   UNL     1      45.354 130.069  18.556  1.00  0.00     0.009 A 
ATOM     21  C   UNL     1      45.425 132.232  17.411  1.00  0.00     0.035 A 
ATOM     22  C   UNL     1      45.924 129.440  17.435  1.00  0.00     0.011 A 
ATOM     23  C   UNL     1      45.987 131.578  16.318  1.00  0.00     0.046 A 
ATOM     24  C   UNL     1      46.225 130.230  16.329  1.00  0.00    -0.000 A 
ATOM     25  N   UNL     1      46.339 132.118  15.140  1.00  0.00    -0.359 N 
ATOM     26  C   UNL     1      46.754 129.891  15.103  1.00  0.00     0.031 A 
ATOM     27  C   UNL     1      46.817 131.091  14.399  1.00  0.00     0.013 A 
ATOM     28  H   UNL     1      46.245 133.117  14.850  1.00  0.00     0.166 HD
ATOM     29  C   UNL     1      47.256 131.229  12.978  1.00  0.00     0.064 C 
ENDBRANCH  14  19
ENDBRANCH  10  12
ENDBRANCH   1  10
TORSDOF 7
ENDMDL
MODEL 3
REMARK VINA RESULT:      -4.0      3.811      6.806
REMARK SMILES C#CC[NH2+][C@H](C=C)C(=O)N1N[C@H](C)O[C@@H]1c1ccc2cc(C)[nH]c2c1
REMARK SMILES IDX 5 1 4 2 3 5 2 6 1 7 6 8 7 9 8 10 9 11 10 12 11 13 15 14
REMARK SMILES IDX 12 15 14 16 13 18 16 19 17 20 25 21 18 22 24 23 19 24 23 25
REMARK SMILES IDX 20 26 21 27 22 29
REMARK H PARENT 4 3 4 4 11 17 23 28
ROOT
ATOM      1  C   UNL     1      47.262 134.265  21.851  1.00  0.00     0.298 C 
ENDROOT
BRANCH   1   2
ATOM      2  N   UNL     1      48.602 134.754  21.447  1.00  0.00    -0.323 N 
ATOM      3  H   UNL     1      48.817 134.485  20.457  1.00  0.00     0.348 HD
ATOM      4  H   UNL     1      49.321 134.290  22.049  1.00  0.00     0.348 HD
BRANCH   2   5
ATOM      5  C   UNL     1      48.773 136.209  21.636  1.00  0.00     0.353 C 
BRANCH   5   6
ATOM      6  C   UNL     1      49.011 136.907  20.363  1.00  0.00    -0.047 C 
ATOM      7  C   UNL     1      49.210 137.478  19.320  1.00  0.00     0.010 C 
ENDBRANCH   5   6
ENDBRANCH   2   5
ENDBRANCH   1   2
BRANCH   1   8
ATOM      8  C   UNL     1      47.138 134.263  23.360  1.00  0.00     0.039 C 
ATOM      9  C   UNL     1      48.159 133.906  24.144  1.00  0.00     0.011 C 
ENDBRANCH   1   8
BRANCH   1  10
ATOM     10  C   UNL     1      46.996 132.861  21.341  1.00  0.00     0.301 C 
ATOM     11  O   UNL     1      47.978 132.124  21.053  1.00  0.00    -0.266 OA
BRANCH  10  12
ATOM     12  N   UNL     1      45.665 132.318  21.234  1.00  0.00    -0.237 N 
ATOM     13  N   UNL     1      45.057 131.687  22.311  1.00  0.00    -0.201 NA
ATOM     14  C   UNL     1      44.751 132.490  20.127  1.00  0.00     0.267 C 
ATOM     15  C   UNL     1      43.649 131.619  21.905  1.00  0.00     0.204 C 
ATOM     16  O   UNL     1      43.516 131.963  20.538  1.00  0.00    -0.333 OA
ATOM     17  H   UNL     1      45.478 130.730  22.372  1.00  0.00     0.151 HD
ATOM     18  C   UNL     1      43.048 130.233  22.150  1.00  0.00     0.058 C 
BRANCH  14  19
ATOM     19  C   UNL     1      45.224 131.741  18.906  1.00  0.00     0.005 A 
ATOM     20  C   UNL     1      45.601 130.377  19.010  1.00  0.00     0.009 A 
ATOM     21  C   UNL     1      45.319 132.398  17.657  1.00  0.00     0.035 A 
ATOM     22  C   UNL     1      46.030 129.661  17.878  1.00  0.00     0.011 A 
ATOM     23  C   UNL     1      45.745 131.660  16.556  1.00  0.00     0.046 A 
ATOM     24  C   UNL     1      46.085 130.338  16.663  1.00  0.00    -0.000 A 
ATOM     25  N   UNL     1      45.859 132.083  15.287  1.00  0.00    -0.359 N 
ATOM     26  C   UNL     1      46.433 129.895  15.406  1.00  0.00     0.031 A 
ATOM     27  C   UNL     1      46.289 131.009  14.584  1.00  0.00     0.013 A 
ATOM     28  H   UNL     1      45.643 133.036  14.917  1.00  0.00     0.166 HD
ATOM     29  C   UNL     1      46.480 131.012  13.103  1.00  0.00     0.064 C 
ENDBRANCH  14  19
ENDBRANCH  10  12
ENDBRANCH   1  10
TORSDOF 7
ENDMDL
MODEL 4
REMARK VINA RESULT:      -3.8      3.640      6.543
REMARK SMILES C#CC[NH2+][C@H](C=C)C(=O)N1N[C@H](C)O[C@@H]1c1ccc2cc(C)[nH]c2c1
REMARK SMILES IDX 5 1 4 2 3 5 2 6 1 7 6 8 7 9 8 10 9 11 10 12 11 13 15 14
REMARK SMILES IDX 12 15 14 16 13 18 16 19 17 20 25 21 18 22 24 23 19 24 23 25
REMARK SMILES IDX 20 26 21 27 22 29
REMARK H PARENT 4 3 4 4 11 17 23 28
ROOT
ATOM      1  C   UNL     1      46.894 134.021  21.844  1.00  0.00     0.298 C 
ENDROOT
BRANCH   1   2
ATOM      2  N   UNL     1      47.700 134.797  20.871  1.00  0.00    -0.323 N 
ATOM      3  H   UNL     1      47.126 135.062  20.035  1.00  0.00     0.348 HD
ATOM      4  H   UNL     1      48.478 134.188  20.523  1.00  0.00     0.348 HD
BRANCH   2   5
ATOM      5  C   UNL     1      48.337 135.990  21.462  1.00  0.00     0.353 C 
BRANCH   5   6
ATOM      6  C   UNL     1      48.616 137.024  20.453  1.00  0.00    -0.047 C 
ATOM      7  C   UNL     1      48.841 137.869  19.623  1.00  0.00     0.010 C 
ENDBRANCH   5   6
ENDBRANCH   2   5
ENDBRANCH   1   2
BRANCH   1   8
ATOM      8  C   UNL     1      47.632 133.904  23.161  1.00  0.00     0.039 C 
ATOM      9  C   UNL     1      48.967 133.878  23.213  1.00  0.00     0.011 C 
ENDBRANCH   1   8
BRANCH   1  10
ATOM     10  C   UNL     1      46.586 132.624  21.336  1.00  0.00     0.301 C 
ATOM     11  O   UNL     1      47.521 131.942  20.834  1.00  0.00    -0.266 OA
BRANCH  10  12
ATOM     12  N   UNL     1      45.281 132.027  21.464  1.00  0.00    -0.237 N 
ATOM     13  N   UNL     1      44.976 131.186  22.527  1.00  0.00    -0.201 NA
ATOM     14  C   UNL     1      44.114 132.328  20.666  1.00  0.00     0.267 C 
ATOM     15  C   UNL     1      43.513 131.102  22.474  1.00  0.00     0.204 C 
ATOM     16  O   UNL     1      43.032 131.664  21.266  1.00  0.00    -0.333 OA
ATOM     17  H   UNL     1      45.414 130.260  22.309  1.00  0.00     0.151 HD
ATOM     18  C   UNL     1      43.015 129.661  22.606  1.00  0.00     0.058 C 
BRANCH  14  19
ATOM     19  C   UNL     1      44.275 131.827  19.252  1.00  0.00     0.005 A 
ATOM     20  C   UNL     1      43.230 132.009  18.309  1.00  0.00     0.009 A 
ATOM     21  C   UNL     1      45.455 131.151  18.863  1.00  0.00     0.035 A 
ATOM     22  C   UNL     1      43.371 131.561  16.983  1.00  0.00     0.011 A 
ATOM     23  C   UNL     1      45.563 130.722  17.543  1.00  0.00     0.046 A 
ATOM     24  C   UNL     1      44.558 130.923  16.636  1.00  0.00    -0.000 A 
ATOM     25  N   UNL     1      46.611 130.106  16.971  1.00  0.00    -0.359 N 
ATOM     26  C   UNL     1      44.981 130.413  15.428  1.00  0.00     0.031 A 
ATOM     27  C   UNL     1      46.253 129.907  15.681  1.00  0.00     0.013 A 
ATOM     28  H   UNL     1      47.518 129.852  17.422  1.00  0.00     0.166 HD
ATOM     29  C   UNL     1      47.160 129.314  14.653  1.00  0.00     0.064 C 
ENDBRANCH  14  19
ENDBRANCH  10  12
ENDBRANCH   1  10
TORSDOF 7
ENDMDL
MODEL 5
REMARK VINA RESULT:      -3.7      1.551      1.712
REMARK SMILES C#CC[NH2+][C@H](C=C)C(=O)N1N[C@H](C)O[C@@H]1c1ccc2cc(C)[nH]c2c1
REMARK SMILES IDX 5 1 4 2 3 5 2 6 1 7 6 8 7 9 8 10 9 11 10 12 11 13 15 14
REMARK SMILES IDX 12 15 14 16 13 18 16 19 17 20 25 21 18 22 24 23 19 24 23 25
REMARK SMILES IDX 20 26 21 27 22 29
REMARK H PARENT 4 3 4 4 11 17 23 28
ROOT
ATOM      1  C   UNL     1      43.659 127.764  22.854  1.00  0.00     0.298 C 
ENDROOT
BRANCH   1   2
ATOM      2  N   UNL     1      42.756 127.191  23.882  1.00  0.00    -0.323 N 
ATOM      3  H   UNL     1      42.599 127.870  24.664  1.00  0.00     0.348 HD
ATOM      4  H   UNL     1      43.219 126.350  24.300  1.00  0.00     0.348 HD
BRANCH   2   5
ATOM      5  C   UNL     1      41.466 126.728  23.332  1.00  0.00     0.353 C 
BRANCH   5   6
ATOM      6  C   UNL     1      41.219 125.307  23.626  1.00  0.00    -0.047 C 
ATOM      7  C   UNL     1      41.015 124.145  23.872  1.00  0.00     0.010 C 
ENDBRANCH   5   6
ENDBRANCH   2   5
ENDBRANCH   1   2
BRANCH   1   8
ATOM      8  C   UNL     1      44.401 126.658  22.133  1.00  0.00     0.039 C 
ATOM      9  C   UNL     1      44.667 125.493  22.730  1.00  0.00     0.011 C 
ENDBRANCH   1   8
BRANCH   1  10
ATOM     10  C   UNL     1      44.674 128.714  23.461  1.00  0.00     0.301 C 
ATOM     11  O   UNL     1      45.802 128.261  23.798  1.00  0.00    -0.266 OA
BRANCH  10  12
ATOM     12  N   UNL     1      44.420 130.125  23.606  1.00  0.00    -0.237 N 
ATOM     13  N   UNL     1      43.532 130.601  24.562  1.00  0.00    -0.201 NA
ATOM     14  C   UNL     1      45.130 131.200  22.950  1.00  0.00     0.267 C 
ATOM     15  C   UNL     1      43.836 132.035  24.613  1.00  0.00     0.204 C 
ATOM     16  O   UNL     1      44.682 132.396  23.535  1.00  0.00    -0.333 OA
ATOM     17  H   UNL     1      42.570 130.433  24.184  1.00  0.00     0.151 HD
ATOM     18  C   UNL     1      42.568 132.891  24.581  1.00  0.00     0.058 C 
BRANCH  14  19
ATOM     19  C   UNL     1      44.829 131.233  21.472  1.00  0.00     0.005 A 
ATOM     20  C   UNL     1      43.536 131.598  21.017  1.00  0.00     0.009 A 
ATOM     21  C   UNL     1      45.824 130.875  20.532  1.00  0.00     0.035 A 
ATOM     22  C   UNL     1      43.244 131.648  19.643  1.00  0.00     0.011 A 
ATOM     23  C   UNL     1      45.503 130.936  19.179  1.00  0.00     0.046 A 
ATOM     24  C   UNL     1      44.258 131.313  18.750  1.00  0.00    -0.000 A 
ATOM     25  N   UNL     1      46.312 130.682  18.138  1.00  0.00    -0.359 N 
ATOM     26  C   UNL     1      44.271 131.298  17.373  1.00  0.00     0.031 A 
ATOM     27  C   UNL     1      45.559 130.893  17.034  1.00  0.00     0.013 A 
ATOM     28  H   UNL     1      47.317 130.400  18.174  1.00  0.00     0.166 HD
ATOM     29  C   UNL     1      46.088 130.796  15.640  1.00  0.00     0.064 C 
ENDBRANCH  14  19
ENDBRANCH  10  12
ENDBRANCH   1  10
TORSDOF 7
ENDMDL
MODEL 6
REMARK VINA RESULT:      -3.3      3.497      5.970
REMARK SMILES C#CC[NH2+][C@H](C=C)C(=O)N1N[C@H](C)O[C@@H]1c1ccc2cc(C)[nH]c2c1
REMARK SMILES IDX 5 1 4 2 3 5 2 6 1 7 6 8 7 9 8 10 9 11 10 12 11 13 15 14
REMARK SMILES IDX 12 15 14 16 13 18 16 19 17 20 25 21 18 22 24 23 19 24 23 25
REMARK SMILES IDX 20 26 21 27 22 29
REMARK H PARENT 4 3 4 4 11 17 23 28
ROOT
ATOM      1  C   UNL     1      47.439 133.592  22.097  1.00  0.00     0.298 C 
ENDROOT
BRANCH   1   2
ATOM      2  N   UNL     1      46.731 133.849  23.374  1.00  0.00    -0.323 N 
ATOM      3  H   UNL     1      45.847 133.290  23.433  1.00  0.00     0.348 HD
ATOM      4  H   UNL     1      46.453 134.858  23.403  1.00  0.00     0.348 HD
BRANCH   2   5
ATOM      5  C   UNL     1      47.573 133.615  24.565  1.00  0.00     0.353 C 
BRANCH   5   6
ATOM      6  C   UNL     1      48.925 134.173  24.404  1.00  0.00    -0.047 C 
ATOM      7  C   UNL     1      50.032 134.631  24.276  1.00  0.00     0.010 C 
ENDBRANCH   5   6
ENDBRANCH   2   5
ENDBRANCH   1   2
BRANCH   1   8
ATOM      8  C   UNL     1      47.340 134.799  21.190  1.00  0.00     0.039 C 
ATOM      9  C   UNL     1      48.213 135.808  21.273  1.00  0.00     0.011 C 
ENDBRANCH   1   8
BRANCH   1  10
ATOM     10  C   UNL     1      46.869 132.389  21.368  1.00  0.00     0.301 C 
ATOM     11  O   UNL     1      47.641 131.686  20.662  1.00  0.00    -0.266 OA
BRANCH  10  12
ATOM     12  N   UNL     1      45.493 131.986  21.505  1.00  0.00    -0.237 N 
ATOM     13  N   UNL     1      45.072 131.218  22.584  1.00  0.00    -0.201 NA
ATOM     14  C   UNL     1      44.379 132.432  20.698  1.00  0.00     0.267 C 
ATOM     15  C   UNL     1      43.611 131.342  22.530  1.00  0.00     0.204 C 
ATOM     16  O   UNL     1      43.214 131.940  21.310  1.00  0.00    -0.333 OA
ATOM     17  H   UNL     1      45.374 130.235  22.387  1.00  0.00     0.151 HD
ATOM     18  C   UNL     1      42.915 129.988  22.691  1.00  0.00     0.058 C 
BRANCH  14  19
ATOM     19  C   UNL     1      44.467 131.884  19.295  1.00  0.00     0.005 A 
ATOM     20  C   UNL     1      43.373 132.031  18.404  1.00  0.00     0.009 A 
ATOM     21  C   UNL     1      45.628 131.198  18.867  1.00  0.00     0.035 A 
ATOM     22  C   UNL     1      43.445 131.540  17.088  1.00  0.00     0.011 A 
ATOM     23  C   UNL     1      45.667 130.725  17.559  1.00  0.00     0.046 A 
ATOM     24  C   UNL     1      44.615 130.893  16.700  1.00  0.00    -0.000 A 
ATOM     25  N   UNL     1      46.686 130.093  16.952  1.00  0.00    -0.359 N 
ATOM     26  C   UNL     1      44.975 130.344  15.488  1.00  0.00     0.031 A 
ATOM     27  C   UNL     1      46.261 129.850  15.690  1.00  0.00     0.013 A 
ATOM     28  H   UNL     1      47.616 129.857  17.363  1.00  0.00     0.166 HD
ATOM     29  C   UNL     1      47.114 129.224  14.636  1.00  0.00     0.064 C 
ENDBRANCH  14  19
ENDBRANCH  10  12
ENDBRANCH   1  10
TORSDOF 7
ENDMDL
MODEL 7
REMARK VINA RESULT:      -3.1      3.622      5.635
REMARK SMILES C#CC[NH2+][C@H](C=C)C(=O)N1N[C@H](C)O[C@@H]1c1ccc2cc(C)[nH]c2c1
REMARK SMILES IDX 5 1 4 2 3 5 2 6 1 7 6 8 7 9 8 10 9 11 10 12 11 13 15 14
REMARK SMILES IDX 12 15 14 16 13 18 16 19 17 20 25 21 18 22 24 23 19 24 23 25
REMARK SMILES IDX 20 26 21 27 22 29
REMARK H PARENT 4 3 4 4 11 17 23 28
ROOT
ATOM      1  C   UNL     1      43.576 123.885  22.561  1.00  0.00     0.298 C 
ENDROOT
BRANCH   1   2
ATOM      2  N   UNL     1      43.001 122.979  23.585  1.00  0.00    -0.323 N 
ATOM      3  H   UNL     1      43.745 122.386  24.023  1.00  0.00     0.348 HD
ATOM      4  H   UNL     1      42.333 122.325  23.113  1.00  0.00     0.348 HD
BRANCH   2   5
ATOM      5  C   UNL     1      42.227 123.689  24.623  1.00  0.00     0.353 C 
BRANCH   5   6
ATOM      6  C   UNL     1      41.319 124.693  24.044  1.00  0.00    -0.047 C 
ATOM      7  C   UNL     1      40.578 125.515  23.566  1.00  0.00     0.010 C 
ENDBRANCH   5   6
ENDBRANCH   2   5
ENDBRANCH   1   2
BRANCH   1   8
ATOM      8  C   UNL     1      42.716 123.883  21.316  1.00  0.00     0.039 C 
ATOM      9  C   UNL     1      41.471 123.397  21.328  1.00  0.00     0.011 C 
ENDBRANCH   1   8
BRANCH   1  10
ATOM     10  C   UNL     1      44.987 123.478  22.177  1.00  0.00     0.301 C 
ATOM     11  O   UNL     1      45.144 122.491  21.407  1.00  0.00    -0.266 OA
BRANCH  10  12
ATOM     12  N   UNL     1      46.147 124.215  22.608  1.00  0.00    -0.237 N 
ATOM     13  N   UNL     1      47.152 123.606  23.348  1.00  0.00    -0.201 NA
ATOM     14  C   UNL     1      46.509 125.559  22.215  1.00  0.00     0.267 C 
ATOM     15  C   UNL     1      48.257 124.567  23.261  1.00  0.00     0.204 C 
ATOM     16  O   UNL     1      47.802 125.791  22.713  1.00  0.00    -0.333 OA
ATOM     17  H   UNL     1      46.795 123.531  24.330  1.00  0.00     0.151 HD
ATOM     18  C   UNL     1      48.904 124.822  24.625  1.00  0.00     0.058 C 
BRANCH  14  19
ATOM     19  C   UNL     1      45.564 126.575  22.807  1.00  0.00     0.005 A 
ATOM     20  C   UNL     1      44.632 126.184  23.803  1.00  0.00     0.009 A 
ATOM     21  C   UNL     1      45.582 127.915  22.356  1.00  0.00     0.035 A 
ATOM     22  C   UNL     1      43.755 127.122  24.376  1.00  0.00     0.011 A 
ATOM     23  C   UNL     1      44.702 128.819  22.945  1.00  0.00     0.046 A 
ATOM     24  C   UNL     1      43.822 128.436  23.922  1.00  0.00    -0.000 A 
ATOM     25  N   UNL     1      44.595 130.134  22.691  1.00  0.00    -0.359 N 
ATOM     26  C   UNL     1      43.120 129.556  24.311  1.00  0.00     0.031 A 
ATOM     27  C   UNL     1      43.621 130.584  23.518  1.00  0.00     0.013 A 
ATOM     28  H   UNL     1      45.157 130.694  22.013  1.00  0.00     0.166 HD
ATOM     29  C   UNL     1      43.223 132.019  23.622  1.00  0.00     0.064 C 
ENDBRANCH  14  19
ENDBRANCH  10  12
ENDBRANCH   1  10
TORSDOF 7
ENDMDL
MODEL 8
REMARK VINA RESULT:      -3.0      1.802      2.431
REMARK SMILES C#CC[NH2+][C@H](C=C)C(=O)N1N[C@H](C)O[C@@H]1c1ccc2cc(C)[nH]c2c1
REMARK SMILES IDX 5 1 4 2 3 5 2 6 1 7 6 8 7 9 8 10 9 11 10 12 11 13 15 14
REMARK SMILES IDX 12 15 14 16 13 18 16 19 17 20 25 21 18 22 24 23 19 24 23 25
REMARK SMILES IDX 20 26 21 27 22 29
REMARK H PARENT 4 3 4 4 11 17 23 28
ROOT
ATOM      1  C   UNL     1      44.351 127.189  22.280  1.00  0.00     0.298 C 
ENDROOT
BRANCH   1   2
ATOM      2  N   UNL     1      43.149 127.590  23.052  1.00  0.00    -0.323 N 
ATOM      3  H   UNL     1      42.352 127.820  22.413  1.00  0.00     0.348 HD
ATOM      4  H   UNL     1      43.372 128.463  23.584  1.00  0.00     0.348 HD
BRANCH   2   5
ATOM      5  C   UNL     1      42.738 126.585  24.052  1.00  0.00     0.353 C 
BRANCH   5   6
ATOM      6  C   UNL     1      41.291 126.633  24.320  1.00  0.00    -0.047 C 
ATOM      7  C   UNL     1      40.106 126.674  24.535  1.00  0.00     0.010 C 
ENDBRANCH   5   6
ENDBRANCH   2   5
ENDBRANCH   1   2
BRANCH   1   8
ATOM      8  C   UNL     1      45.281 126.367  23.146  1.00  0.00     0.039 C 
ATOM      9  C   UNL     1      45.858 126.883  24.235  1.00  0.00     0.011 C 
ENDBRANCH   1   8
BRANCH   1  10
ATOM     10  C   UNL     1      45.113 128.393  21.757  1.00  0.00     0.301 C 
ATOM     11  O   UNL     1      46.249 128.213  21.239  1.00  0.00    -0.266 OA
BRANCH  10  12
ATOM     12  N   UNL     1      44.559 129.723  21.773  1.00  0.00    -0.237 N 
ATOM     13  N   UNL     1      43.419 130.019  22.510  1.00  0.00    -0.201 NA
ATOM     14  C   UNL     1      45.158 130.913  21.211  1.00  0.00     0.267 C 
ATOM     15  C   UNL     1      43.415 131.485  22.541  1.00  0.00     0.204 C 
ATOM     16  O   UNL     1      44.372 131.998  21.632  1.00  0.00    -0.333 OA
ATOM     17  H   UNL     1      42.606 129.652  21.962  1.00  0.00     0.151 HD
ATOM     18  C   UNL     1      42.035 132.062  22.217  1.00  0.00     0.058 C 
BRANCH  14  19
ATOM     19  C   UNL     1      45.161 130.863  19.703  1.00  0.00     0.005 A 
ATOM     20  C   UNL     1      46.191 130.169  19.016  1.00  0.00     0.009 A 
ATOM     21  C   UNL     1      44.155 131.529  18.964  1.00  0.00     0.035 A 
ATOM     22  C   UNL     1      46.199 130.100  17.612  1.00  0.00     0.011 A 
ATOM     23  C   UNL     1      44.192 131.441  17.575  1.00  0.00     0.046 A 
ATOM     24  C   UNL     1      45.177 130.748  16.923  1.00  0.00    -0.000 A 
ATOM     25  N   UNL     1      43.312 131.959  16.703  1.00  0.00    -0.359 N 
ATOM     26  C   UNL     1      44.917 130.828  15.573  1.00  0.00     0.031 A 
ATOM     27  C   UNL     1      43.759 131.595  15.478  1.00  0.00     0.013 A 
ATOM     28  H   UNL     1      42.454 132.512  16.925  1.00  0.00     0.166 HD
ATOM     29  C   UNL     1      43.033 131.899  14.209  1.00  0.00     0.064 C 
ENDBRANCH  14  19
ENDBRANCH  10  12
ENDBRANCH   1  10
TORSDOF 7
ENDMDL
MODEL 9
REMARK VINA RESULT:      -2.9      3.159      4.991
REMARK SMILES C#CC[NH2+][C@H](C=C)C(=O)N1N[C@H](C)O[C@@H]1c1ccc2cc(C)[nH]c2c1
REMARK SMILES IDX 5 1 4 2 3 5 2 6 1 7 6 8 7 9 8 10 9 11 10 12 11 13 15 14
REMARK SMILES IDX 12 15 14 16 13 18 16 19 17 20 25 21 18 22 24 23 19 24 23 25
REMARK SMILES IDX 20 26 21 27 22 29
REMARK H PARENT 4 3 4 4 11 17 23 28
ROOT
ATOM      1  C   UNL     1      45.492 131.636  22.030  1.00  0.00     0.298 C 
ENDROOT
BRANCH   1   2
ATOM      2  N   UNL     1      44.128 131.688  22.611  1.00  0.00    -0.323 N 
ATOM      3  H   UNL     1      43.431 131.234  21.974  1.00  0.00     0.348 HD
ATOM      4  H   UNL     1      43.844 132.692  22.703  1.00  0.00     0.348 HD
BRANCH   2   5
ATOM      5  C   UNL     1      44.049 131.105  23.965  1.00  0.00     0.353 C 
BRANCH   5   6
ATOM      6  C   UNL     1      43.383 129.793  23.963  1.00  0.00    -0.047 C 
ATOM      7  C   UNL     1      42.839 128.717  23.966  1.00  0.00     0.010 C 
ENDBRANCH   5   6
ENDBRANCH   2   5
ENDBRANCH   1   2
BRANCH   1   8
ATOM      8  C   UNL     1      46.206 132.953  22.248  1.00  0.00     0.039 C 
ATOM      9  C   UNL     1      46.543 133.369  23.473  1.00  0.00     0.011 C 
ENDBRANCH   1   8
BRANCH   1  10
ATOM     10  C   UNL     1      45.460 131.343  20.541  1.00  0.00     0.301 C 
ATOM     11  O   UNL     1      46.491 130.864  19.995  1.00  0.00    -0.266 OA
BRANCH  10  12
ATOM     12  N   UNL     1      44.276 131.532  19.743  1.00  0.00    -0.237 N 
ATOM     13  N   UNL     1      43.024 131.151  20.211  1.00  0.00    -0.201 NA
ATOM     14  C   UNL     1      44.184 132.257  18.495  1.00  0.00     0.267 C 
ATOM     15  C   UNL     1      42.105 131.825  19.288  1.00  0.00     0.204 C 
ATOM     16  O   UNL     1      42.817 132.351  18.182  1.00  0.00    -0.333 OA
ATOM     17  H   UNL     1      42.970 130.111  20.104  1.00  0.00     0.151 HD
ATOM     18  C   UNL     1      41.002 130.887  18.791  1.00  0.00     0.058 C 
BRANCH  14  19
ATOM     19  C   UNL     1      44.894 131.524  17.384  1.00  0.00     0.005 A 
ATOM     20  C   UNL     1      44.892 130.106  17.352  1.00  0.00     0.009 A 
ATOM     21  C   UNL     1      45.587 132.244  16.382  1.00  0.00     0.035 A 
ATOM     22  C   UNL     1      45.536 129.409  16.314  1.00  0.00     0.011 A 
ATOM     23  C   UNL     1      46.212 131.524  15.369  1.00  0.00     0.046 A 
ATOM     24  C   UNL     1      46.185 130.155  15.335  1.00  0.00    -0.000 A 
ATOM     25  N   UNL     1      46.878 132.017  14.311  1.00  0.00    -0.359 N 
ATOM     26  C   UNL     1      46.864 129.754  14.205  1.00  0.00     0.031 A 
ATOM     27  C   UNL     1      47.286 130.937  13.604  1.00  0.00     0.013 A 
ATOM     28  H   UNL     1      47.031 133.023  14.075  1.00  0.00     0.166 HD
ATOM     29  C   UNL     1      48.005 131.027  12.298  1.00  0.00     0.064 C 
ENDBRANCH  14  19
ENDBRANCH  10  12
ENDBRANCH   1  10
TORSDOF 7
ENDMDL


