REMARK SMILES CC(=O)c1c(-c2cccc3[nH+]coc23)cc(/C(O)=N/[C@@H]2C=CCC2)c(F)c1[O-]
REMARK SMILES IDX 16 1 15 2 5 3 4 4 27 5 28 6 25 7 26 8 17 9 18 10 19 12 20 13
REMARK SMILES IDX 21 14 24 15 22 16 23 17 6 18 7 19 14 20 8 21 10 22 13 23
REMARK SMILES IDX 9 24 11 25 12 26 2 28 3 29 1 30
REMARK H PARENT 18 11 11 27
ROOT
ATOM      1  C   UNL     1       0.905  -1.187   1.484  1.00  0.00     0.072 A 
ATOM      2  C   UNL     1       0.229  -0.746   0.332  1.00  0.00     0.026 A 
ATOM      3  C   UNL     1       0.340   0.580  -0.117  1.00  0.00    -0.003 A 
ATOM      4  C   UNL     1       1.165   1.491   0.587  1.00  0.00     0.020 A 
ATOM      5  C   UNL     1       1.847   1.048   1.738  1.00  0.00    -0.059 A 
ATOM      6  O   UNL     1       2.690   1.907   2.436  1.00  0.00    -0.870 OA
ATOM      7  C   UNL     1       1.712  -0.271   2.185  1.00  0.00     0.128 A 
ATOM      8  F   UNL     1       2.394  -0.648   3.296  1.00  0.00    -0.207 F 
ENDROOT
BRANCH   1   9
ATOM      9  C   UNL     1       0.759  -2.595   1.945  1.00  0.00     0.217 C 
BRANCH   9  10
ATOM     10  O   UNL     1       1.369  -2.995   3.139  1.00  0.00    -0.493 OA
ATOM     11  H   UNL     1       1.308  -3.934   3.509  1.00  0.00     0.295 HD
ENDBRANCH   9  10
BRANCH   9  12
ATOM     12  N   UNL     1       0.063  -3.435   1.231  1.00  0.00    -0.244 NA
BRANCH  12  13
ATOM     13  C   UNL     1      -0.180  -4.841   1.549  1.00  0.00     0.132 C 
ATOM     14  C   UNL     1      -0.851  -5.495   0.395  1.00  0.00    -0.005 C 
ATOM     15  C   UNL     1      -1.186  -4.995   2.705  1.00  0.00     0.036 C 
ATOM     16  C   UNL     1      -2.054  -5.949   0.699  1.00  0.00    -0.029 C 
ATOM     17  C   UNL     1      -2.420  -5.684   2.113  1.00  0.00     0.029 C 
ENDBRANCH  12  13
ENDBRANCH   9  12
ENDBRANCH   1   9
BRANCH   3  18
ATOM     18  C   UNL     1      -0.454   0.988  -1.299  1.00  0.00     0.032 A 
ATOM     19  C   UNL     1      -0.329   0.314  -2.535  1.00  0.00     0.013 A 
ATOM     20  C   UNL     1      -1.383   2.033  -1.236  1.00  0.00     0.212 A 
ATOM     21  C   UNL     1      -1.101   0.708  -3.652  1.00  0.00     0.008 A 
ATOM     22  C   UNL     1      -2.124   2.409  -2.317  1.00  0.00     0.249 A 
ATOM     23  O   UNL     1      -1.709   2.790  -0.217  1.00  0.00    -0.403 OA
ATOM     24  C   UNL     1      -2.014   1.773  -3.550  1.00  0.00     0.083 A 
ATOM     25  N   UNL     1      -2.925   3.425  -1.968  1.00  0.00    -0.176 N 
ATOM     26  C   UNL     1      -2.634   3.627  -0.660  1.00  0.00     0.521 A 
ATOM     27  H   UNL     1      -3.616   3.939  -2.560  1.00  0.00     0.457 HD
ENDBRANCH   3  18
BRANCH   4  28
ATOM     28  C   UNL     1       1.367   2.877   0.094  1.00  0.00     0.159 C 
ATOM     29  O   UNL     1       1.632   3.073  -1.123  1.00  0.00    -0.295 OA
ATOM     30  C   UNL     1       1.279   4.055   1.014  1.00  0.00     0.093 C 
ENDBRANCH   4  28
TORSDOF 6


