REMARK SMILES C=Cc1cc(-c2ccc3c(c2)[C@@H](N)CC3)c(F)cc1N
REMARK SMILES IDX 6 1 7 2 8 3 9 4 10 5 11 6 12 7 14 8 15 9 5 10 3 11 4 12
REMARK SMILES IDX 19 13 18 14 16 15 17 16 2 17 1 18 20 19 13 22
REMARK H PARENT 20 20 20 21 13 23 13 24
ROOT
ATOM      1  C   UNL     1      -0.186   0.430   0.656  1.00  0.00    -0.015 A 
ATOM      2  C   UNL     1      -0.710   1.583   1.284  1.00  0.00     0.009 A 
ATOM      3  C   UNL     1      -2.081   1.869   1.219  1.00  0.00     0.005 A 
ATOM      4  C   UNL     1      -2.918   0.999   0.519  1.00  0.00    -0.043 A 
ATOM      5  C   UNL     1      -2.421  -0.122  -0.094  1.00  0.00    -0.027 A 
ATOM      6  C   UNL     1      -1.058  -0.429  -0.045  1.00  0.00     0.014 A 
ATOM      7  C   UNL     1      -3.486  -0.908  -0.767  1.00  0.00     0.081 C 
ATOM      8  C   UNL     1      -4.755  -0.036  -0.590  1.00  0.00     0.028 C 
ATOM      9  C   UNL     1      -4.383   1.129   0.346  1.00  0.00     0.038 C 
ENDROOT
BRANCH   1  10
ATOM     10  C   UNL     1       1.266   0.132   0.718  1.00  0.00     0.018 A 
ATOM     11  C   UNL     1       3.340  -0.506  -0.420  1.00  0.00    -0.002 A 
ATOM     12  C   UNL     1       1.960  -0.221  -0.451  1.00  0.00     0.022 A 
ATOM     13  C   UNL     1       4.028  -0.444   0.815  1.00  0.00     0.042 A 
ATOM     14  C   UNL     1       3.325  -0.105   1.981  1.00  0.00     0.066 A 
ATOM     15  C   UNL     1       1.961   0.182   1.938  1.00  0.00     0.133 A 
ATOM     16  F   UNL     1       1.315   0.474   3.095  1.00  0.00    -0.206 F 
BRANCH  11  17
ATOM     17  C   UNL     1       4.036  -0.927  -1.662  1.00  0.00     0.002 C 
ATOM     18  C   UNL     1       3.745  -0.424  -2.861  1.00  0.00     0.009 C 
ENDBRANCH  11  17
BRANCH  13  19
ATOM     19  N   UNL     1       5.439  -0.685   0.908  1.00  0.00    -0.398 N 
ATOM     20  H   UNL     1       5.914  -0.694   1.839  1.00  0.00     0.156 HD
ATOM     21  H   UNL     1       6.046  -0.782   0.066  1.00  0.00     0.156 HD
ENDBRANCH  13  19
ENDBRANCH   1  10
BRANCH   7  22
ATOM     22  N   UNL     1      -3.627  -2.219  -0.133  1.00  0.00    -0.324 NA
ATOM     23  H   UNL     1      -3.935  -2.096   0.861  1.00  0.00     0.119 HD
ATOM     24  H   UNL     1      -4.382  -2.745  -0.630  1.00  0.00     0.119 HD
ENDBRANCH   7  22
TORSDOF 4


