MODEL 1
REMARK VINA RESULT:      -5.6      0.000      0.000
REMARK SMILES O=C1c2cc(-c3ccc4[nH]ccc4c3)cnc2C/[N+]1=C(\O)OCCOCC(F)(F)F
REMARK SMILES IDX 23 1 22 2 20 3 21 4 19 6 2 7 18 8 3 9 17 10 4 11 16 12 5 13
REMARK SMILES IDX 15 14 1 15 6 16 7 17 14 18 8 19 13 20 9 21 12 22 10 23 11 24
REMARK SMILES IDX 24 26 25 27 26 28 27 29 28 30 29 31 30 32
REMARK H PARENT 21 5 10 25
ROOT
ATOM      1  C   UNL     1      43.990 127.633  23.446  1.00  0.00     0.268 C 
ENDROOT
BRANCH   1   2
ATOM      2  O   UNL     1      44.592 128.917  23.567  1.00  0.00    -0.412 OA
BRANCH   2   3
ATOM      3  C   UNL     1      44.000 130.104  23.111  1.00  0.00     0.555 C 
BRANCH   3   4
ATOM      4  O   UNL     1      43.306 130.943  23.988  1.00  0.00    -0.430 OA
ATOM      5  H   UNL     1      42.504 131.488  23.701  1.00  0.00     0.303 HD
ENDBRANCH   3   4
BRANCH   3   6
ATOM      6  N   UNL     1      44.094 130.431  21.853  1.00  0.00    -0.083 N 
ATOM      7  C   UNL     1      45.071 129.962  20.919  1.00  0.00     0.427 C 
ATOM      8  C   UNL     1      43.189 131.358  21.155  1.00  0.00     0.426 C 
ATOM      9  C   UNL     1      44.827 130.557  19.630  1.00  0.00     0.119 A 
ATOM     10  C   UNL     1      43.729 131.369  19.758  1.00  0.00     0.123 A 
ATOM     11  C   UNL     1      45.479 130.409  18.411  1.00  0.00     0.031 A 
ATOM     12  N   UNL     1      43.240 132.062  18.699  1.00  0.00    -0.253 NA
ATOM     13  C   UNL     1      44.981 131.127  17.301  1.00  0.00     0.001 A 
ATOM     14  C   UNL     1      43.844 131.957  17.479  1.00  0.00     0.120 A 
ATOM     15  O   UNL     1      45.998 129.152  21.186  1.00  0.00    -0.214 OA
BRANCH  13  16
ATOM     16  C   UNL     1      45.633 131.008  15.972  1.00  0.00    -0.016 A 
ATOM     17  C   UNL     1      45.124 131.726  14.854  1.00  0.00     0.011 A 
ATOM     18  C   UNL     1      46.770 130.181  15.805  1.00  0.00     0.019 A 
ATOM     19  C   UNL     1      45.739 131.629  13.593  1.00  0.00     0.027 A 
ATOM     20  C   UNL     1      47.349 130.106  14.540  1.00  0.00    -0.000 A 
ATOM     21  C   UNL     1      46.855 130.804  13.473  1.00  0.00     0.045 A 
ATOM     22  C   UNL     1      48.447 129.400  14.098  1.00  0.00     0.028 A 
ATOM     23  N   UNL     1      47.585 130.573  12.371  1.00  0.00    -0.361 N 
ATOM     24  C   UNL     1      48.560 129.715  12.747  1.00  0.00     0.083 A 
ATOM     25  H   UNL     1      47.435 130.973  11.417  1.00  0.00     0.166 HD
ENDBRANCH  13  16
ENDBRANCH   3   6
ENDBRANCH   2   3
ENDBRANCH   1   2
BRANCH   1  26
ATOM     26  C   UNL     1      44.406 126.762  24.624  1.00  0.00     0.202 C 
BRANCH  26  27
ATOM     27  O   UNL     1      44.428 125.410  24.220  1.00  0.00    -0.368 OA
BRANCH  27  28
ATOM     28  C   UNL     1      45.015 125.310  22.940  1.00  0.00     0.275 C 
BRANCH  28  29
ATOM     29  C   UNL     1      44.766 123.914  22.379  1.00  0.00     0.411 C 
ATOM     30  F   UNL     1      43.625 123.917  21.594  1.00  0.00    -0.168 F 
ATOM     31  F   UNL     1      44.597 123.019  23.418  1.00  0.00    -0.168 F 
ATOM     32  F   UNL     1      45.846 123.516  21.611  1.00  0.00    -0.168 F 
ENDBRANCH  28  29
ENDBRANCH  27  28
ENDBRANCH  26  27
ENDBRANCH   1  26
TORSDOF 9
ENDMDL
MODEL 2
REMARK VINA RESULT:      -4.7      1.807      2.526
REMARK SMILES O=C1c2cc(-c3ccc4[nH]ccc4c3)cnc2C/[N+]1=C(\O)OCCOCC(F)(F)F
REMARK SMILES IDX 23 1 22 2 20 3 21 4 19 6 2 7 18 8 3 9 17 10 4 11 16 12 5 13
REMARK SMILES IDX 15 14 1 15 6 16 7 17 14 18 8 19 13 20 9 21 12 22 10 23 11 24
REMARK SMILES IDX 24 26 25 27 26 28 27 29 28 30 29 31 30 32
REMARK H PARENT 21 5 10 25
ROOT
ATOM      1  C   UNL     1      41.374 129.259  23.749  1.00  0.00     0.268 C 
ENDROOT
BRANCH   1   2
ATOM      2  O   UNL     1      41.798 130.581  24.062  1.00  0.00    -0.412 OA
BRANCH   2   3
ATOM      3  C   UNL     1      42.072 131.562  23.099  1.00  0.00     0.555 C 
BRANCH   3   4
ATOM      4  O   UNL     1      41.452 132.814  23.153  1.00  0.00    -0.430 OA
ATOM      5  H   UNL     1      41.923 133.643  23.492  1.00  0.00     0.303 HD
ENDBRANCH   3   4
BRANCH   3   6
ATOM      6  N   UNL     1      42.915 131.308  22.138  1.00  0.00    -0.083 N 
ATOM      7  C   UNL     1      42.834 131.770  20.786  1.00  0.00     0.427 C 
ATOM      8  C   UNL     1      44.129 130.488  22.279  1.00  0.00     0.426 C 
ATOM      9  C   UNL     1      43.962 131.274  20.041  1.00  0.00     0.119 A 
ATOM     10  C   UNL     1      44.724 130.529  20.904  1.00  0.00     0.123 A 
ATOM     11  C   UNL     1      44.339 131.454  18.716  1.00  0.00     0.031 A 
ATOM     12  N   UNL     1      45.874 129.936  20.495  1.00  0.00    -0.253 NA
ATOM     13  C   UNL     1      45.534 130.841  18.276  1.00  0.00     0.001 A 
ATOM     14  C   UNL     1      46.290 130.078  19.202  1.00  0.00     0.120 A 
ATOM     15  O   UNL     1      41.916 132.500  20.325  1.00  0.00    -0.214 OA
BRANCH  13  16
ATOM     16  C   UNL     1      45.990 130.999  16.872  1.00  0.00    -0.016 A 
ATOM     17  C   UNL     1      45.766 132.219  16.175  1.00  0.00     0.011 A 
ATOM     18  C   UNL     1      46.656 129.938  16.213  1.00  0.00     0.019 A 
ATOM     19  C   UNL     1      46.201 132.383  14.848  1.00  0.00     0.027 A 
ATOM     20  C   UNL     1      47.068 130.135  14.897  1.00  0.00    -0.000 A 
ATOM     21  C   UNL     1      46.852 131.314  14.238  1.00  0.00     0.045 A 
ATOM     22  C   UNL     1      47.733 129.294  14.031  1.00  0.00     0.028 A 
ATOM     23  N   UNL     1      47.345 131.262  12.990  1.00  0.00    -0.361 N 
ATOM     24  C   UNL     1      47.884 130.029  12.858  1.00  0.00     0.083 A 
ATOM     25  H   UNL     1      47.320 132.017  12.268  1.00  0.00     0.166 HD
ENDBRANCH  13  16
ENDBRANCH   3   6
ENDBRANCH   2   3
ENDBRANCH   1   2
BRANCH   1  26
ATOM     26  C   UNL     1      42.591 128.384  23.480  1.00  0.00     0.202 C 
BRANCH  26  27
ATOM     27  O   UNL     1      43.526 128.554  24.523  1.00  0.00    -0.368 OA
BRANCH  27  28
ATOM     28  C   UNL     1      44.386 127.436  24.574  1.00  0.00     0.275 C 
BRANCH  28  29
ATOM     29  C   UNL     1      44.419 126.761  23.207  1.00  0.00     0.411 C 
ATOM     30  F   UNL     1      44.813 127.671  22.240  1.00  0.00    -0.168 F 
ATOM     31  F   UNL     1      43.160 126.287  22.893  1.00  0.00    -0.168 F 
ATOM     32  F   UNL     1      45.309 125.702  23.226  1.00  0.00    -0.168 F 
ENDBRANCH  28  29
ENDBRANCH  27  28
ENDBRANCH  26  27
ENDBRANCH   1  26
TORSDOF 9
ENDMDL
MODEL 3
REMARK VINA RESULT:      -4.4      4.090      5.163
REMARK SMILES O=C1c2cc(-c3ccc4[nH]ccc4c3)cnc2C/[N+]1=C(\O)OCCOCC(F)(F)F
REMARK SMILES IDX 23 1 22 2 20 3 21 4 19 6 2 7 18 8 3 9 17 10 4 11 16 12 5 13
REMARK SMILES IDX 15 14 1 15 6 16 7 17 14 18 8 19 13 20 9 21 12 22 10 23 11 24
REMARK SMILES IDX 24 26 25 27 26 28 27 29 28 30 29 31 30 32
REMARK H PARENT 21 5 10 25
ROOT
ATOM      1  C   UNL     1      44.796 133.255  24.097  1.00  0.00     0.268 C 
ENDROOT
BRANCH   1   2
ATOM      2  O   UNL     1      44.381 131.919  24.360  1.00  0.00    -0.412 OA
BRANCH   2   3
ATOM      3  C   UNL     1      43.468 131.213  23.562  1.00  0.00     0.555 C 
BRANCH   3   4
ATOM      4  O   UNL     1      42.503 130.382  24.140  1.00  0.00    -0.430 OA
ATOM      5  H   UNL     1      42.119 129.578  23.662  1.00  0.00     0.303 HD
ENDBRANCH   3   4
BRANCH   3   6
ATOM      6  N   UNL     1      43.516 131.330  22.265  1.00  0.00    -0.083 N 
ATOM      7  C   UNL     1      44.587 130.916  21.410  1.00  0.00     0.427 C 
ATOM      8  C   UNL     1      42.454 131.915  21.433  1.00  0.00     0.426 C 
ATOM      9  C   UNL     1      44.250 131.215  20.042  1.00  0.00     0.119 A 
ATOM     10  C   UNL     1      43.007 131.794  20.046  1.00  0.00     0.123 A 
ATOM     11  C   UNL     1      44.941 130.995  18.856  1.00  0.00     0.031 A 
ATOM     12  N   UNL     1      42.407 132.178  18.891  1.00  0.00    -0.253 NA
ATOM     13  C   UNL     1      44.328 131.391  17.647  1.00  0.00     0.001 A 
ATOM     14  C   UNL     1      43.042 131.988  17.698  1.00  0.00     0.120 A 
ATOM     15  O   UNL     1      45.654 130.372  21.798  1.00  0.00    -0.214 OA
BRANCH  13  16
ATOM     16  C   UNL     1      45.016 131.180  16.348  1.00  0.00    -0.016 A 
ATOM     17  C   UNL     1      44.525 131.799  15.165  1.00  0.00     0.011 A 
ATOM     18  C   UNL     1      46.169 130.362  16.275  1.00  0.00     0.019 A 
ATOM     19  C   UNL     1      45.174 131.613  13.931  1.00  0.00     0.027 A 
ATOM     20  C   UNL     1      46.782 130.197  15.034  1.00  0.00    -0.000 A 
ATOM     21  C   UNL     1      46.304 130.801  13.903  1.00  0.00     0.045 A 
ATOM     22  C   UNL     1      47.901 129.478  14.676  1.00  0.00     0.028 A 
ATOM     23  N   UNL     1      47.066 130.497  12.841  1.00  0.00    -0.361 N 
ATOM     24  C   UNL     1      48.044 129.687  13.307  1.00  0.00     0.083 A 
ATOM     25  H   UNL     1      46.934 130.818  11.855  1.00  0.00     0.166 HD
ENDBRANCH  13  16
ENDBRANCH   3   6
ENDBRANCH   2   3
ENDBRANCH   1   2
BRANCH   1  26
ATOM     26  C   UNL     1      46.269 133.265  23.712  1.00  0.00     0.202 C 
BRANCH  26  27
ATOM     27  O   UNL     1      46.961 134.173  24.541  1.00  0.00    -0.368 OA
BRANCH  27  28
ATOM     28  C   UNL     1      47.799 134.989  23.750  1.00  0.00     0.275 C 
BRANCH  28  29
ATOM     29  C   UNL     1      48.243 134.212  22.516  1.00  0.00     0.411 C 
ATOM     30  F   UNL     1      49.161 133.239  22.876  1.00  0.00    -0.168 F 
ATOM     31  F   UNL     1      48.831 135.074  21.611  1.00  0.00    -0.168 F 
ATOM     32  F   UNL     1      47.149 133.609  21.921  1.00  0.00    -0.168 F 
ENDBRANCH  28  29
ENDBRANCH  27  28
ENDBRANCH  26  27
ENDBRANCH   1  26
TORSDOF 9
ENDMDL


