MODEL 1
REMARK VINA RESULT:      -3.2      0.000      0.000
REMARK SMILES C=CCOC(=O)Oc1c([NH2+]c2ccc(C)c(F)c2)ccc([C@@H]2O[C@H]2c2ccccc2)c1N
REMARK SMILES IDX 5 1 6 2 4 3 3 4 2 5 1 6 7 7 8 8 9 9 31 10 19 11 21 12 20 13
REMARK SMILES IDX 10 14 11 17 12 18 18 19 13 20 16 21 14 22 17 23 15 24 32 25
REMARK SMILES IDX 22 28 23 29 24 30 25 31 26 32 30 33 27 34 29 35 28 36
REMARK H PARENT 10 15 10 16 32 26 32 27
ROOT
ATOM      1  C   UNL     1      44.184 132.172  23.334  1.00  0.00     0.514 C 
ATOM      2  O   UNL     1      44.548 132.499  24.501  1.00  0.00    -0.203 OA
ENDROOT
BRANCH   1   3
ATOM      3  O   UNL     1      42.875 131.749  23.091  1.00  0.00    -0.430 OA
BRANCH   3   4
ATOM      4  C   UNL     1      41.964 132.469  22.262  1.00  0.00     0.264 C 
BRANCH   4   5
ATOM      5  C   UNL     1      42.478 132.550  20.851  1.00  0.00     0.006 C 
ATOM      6  C   UNL     1      41.738 132.138  19.817  1.00  0.00     0.007 C 
ENDBRANCH   4   5
ENDBRANCH   3   4
ENDBRANCH   1   3
BRANCH   1   7
ATOM      7  O   UNL     1      45.092 132.212  22.271  1.00  0.00    -0.386 OA
BRANCH   7   8
ATOM      8  C   UNL     1      45.191 131.195  21.314  1.00  0.00     0.218 A 
ATOM      9  C   UNL     1      45.203 129.852  21.744  1.00  0.00     0.180 A 
ATOM     10  C   UNL     1      45.265 131.501  19.933  1.00  0.00     0.087 A 
ATOM     11  C   UNL     1      45.329 128.828  20.794  1.00  0.00     0.073 A 
ATOM     12  C   UNL     1      45.446 130.457  18.998  1.00  0.00     0.011 A 
ATOM     13  C   UNL     1      45.450 129.126  19.440  1.00  0.00     0.015 A 
BRANCH   9  14
ATOM     14  N   UNL     1      45.135 129.525  23.152  1.00  0.00    -0.278 N 
ATOM     15  H   UNL     1      44.577 130.243  23.671  1.00  0.00     0.358 HD
ATOM     16  H   UNL     1      46.099 129.542  23.560  1.00  0.00     0.358 HD
BRANCH  14  17
ATOM     17  C   UNL     1      44.517 128.232  23.333  1.00  0.00     0.137 A 
ATOM     18  C   UNL     1      43.139 128.127  23.591  1.00  0.00     0.068 A 
ATOM     19  C   UNL     1      45.287 127.059  23.259  1.00  0.00     0.107 A 
ATOM     20  C   UNL     1      42.551 126.876  23.800  1.00  0.00     0.012 A 
ATOM     21  C   UNL     1      44.698 125.806  23.465  1.00  0.00     0.132 A 
ATOM     22  C   UNL     1      43.327 125.710  23.752  1.00  0.00    -0.015 A 
ATOM     23  F   UNL     1      45.467 124.690  23.386  1.00  0.00    -0.206 F 
ATOM     24  C   UNL     1      42.694 124.365  23.962  1.00  0.00     0.047 C 
ENDBRANCH  14  17
ENDBRANCH   9  14
BRANCH  10  25
ATOM     25  N   UNL     1      45.102 132.858  19.485  1.00  0.00    -0.395 N 
ATOM     26  H   UNL     1      44.719 133.081  18.542  1.00  0.00     0.156 HD
ATOM     27  H   UNL     1      45.460 133.664  20.042  1.00  0.00     0.156 HD
ENDBRANCH  10  25
BRANCH  12  28
ATOM     28  C   UNL     1      45.579 130.748  17.526  1.00  0.00     0.185 C 
ATOM     29  O   UNL     1      44.883 129.817  16.729  1.00  0.00    -0.359 OA
ATOM     30  C   UNL     1      46.288 129.707  16.736  1.00  0.00     0.183 C 
BRANCH  30  31
ATOM     31  C   UNL     1      46.911 130.183  15.454  1.00  0.00    -0.016 A 
ATOM     32  C   UNL     1      46.661 131.474  14.956  1.00  0.00     0.006 A 
ATOM     33  C   UNL     1      47.724 129.308  14.718  1.00  0.00     0.006 A 
ATOM     34  C   UNL     1      47.244 131.890  13.754  1.00  0.00     0.000 A 
ATOM     35  C   UNL     1      48.305 129.728  13.519  1.00  0.00     0.000 A 
ATOM     36  C   UNL     1      48.070 131.019  13.039  1.00  0.00     0.000 A 
ENDBRANCH  30  31
ENDBRANCH  12  28
ENDBRANCH   7   8
ENDBRANCH   1   7
TORSDOF 10
ENDMDL
MODEL 2
REMARK VINA RESULT:      -2.2      2.178      3.590
REMARK SMILES C=CCOC(=O)Oc1c([NH2+]c2ccc(C)c(F)c2)ccc([C@@H]2O[C@H]2c2ccccc2)c1N
REMARK SMILES IDX 5 1 6 2 4 3 3 4 2 5 1 6 7 7 8 8 9 9 31 10 19 11 21 12 20 13
REMARK SMILES IDX 10 14 11 17 12 18 18 19 13 20 16 21 14 22 17 23 15 24 32 25
REMARK SMILES IDX 22 28 23 29 24 30 25 31 26 32 30 33 27 34 29 35 28 36
REMARK H PARENT 10 15 10 16 32 26 32 27
ROOT
ATOM      1  C   UNL     1      46.353 131.753  21.157  1.00  0.00     0.514 C 
ATOM      2  O   UNL     1      47.197 130.827  20.988  1.00  0.00    -0.203 OA
ENDROOT
BRANCH   1   3
ATOM      3  O   UNL     1      46.774 133.060  21.418  1.00  0.00    -0.430 OA
BRANCH   3   4
ATOM      4  C   UNL     1      48.146 133.450  21.429  1.00  0.00     0.264 C 
BRANCH   4   5
ATOM      5  C   UNL     1      48.444 134.323  22.617  1.00  0.00     0.006 C 
ATOM      6  C   UNL     1      47.580 134.436  23.630  1.00  0.00     0.007 C 
ENDBRANCH   4   5
ENDBRANCH   3   4
ENDBRANCH   1   3
BRANCH   1   7
ATOM      7  O   UNL     1      44.981 131.482  21.101  1.00  0.00    -0.386 OA
BRANCH   7   8
ATOM      8  C   UNL     1      44.219 131.639  19.938  1.00  0.00     0.218 A 
ATOM      9  C   UNL     1      42.828 131.839  20.056  1.00  0.00     0.180 A 
ATOM     10  C   UNL     1      44.828 131.613  18.660  1.00  0.00     0.087 A 
ATOM     11  C   UNL     1      42.052 131.970  18.895  1.00  0.00     0.073 A 
ATOM     12  C   UNL     1      44.021 131.693  17.502  1.00  0.00     0.011 A 
ATOM     13  C   UNL     1      42.640 131.896  17.636  1.00  0.00     0.015 A 
BRANCH   9  14
ATOM     14  N   UNL     1      42.191 131.861  21.354  1.00  0.00    -0.278 N 
ATOM     15  H   UNL     1      41.150 131.802  21.256  1.00  0.00     0.358 HD
ATOM     16  H   UNL     1      42.396 132.773  21.827  1.00  0.00     0.358 HD
BRANCH  14  17
ATOM     17  C   UNL     1      42.649 130.748  22.153  1.00  0.00     0.137 A 
ATOM     18  C   UNL     1      43.692 130.914  23.081  1.00  0.00     0.068 A 
ATOM     19  C   UNL     1      42.060 129.480  22.009  1.00  0.00     0.107 A 
ATOM     20  C   UNL     1      44.155 129.826  23.827  1.00  0.00     0.012 A 
ATOM     21  C   UNL     1      42.523 128.392  22.758  1.00  0.00     0.132 A 
ATOM     22  C   UNL     1      43.585 128.557  23.661  1.00  0.00    -0.015 A 
ATOM     23  F   UNL     1      41.934 127.178  22.599  1.00  0.00    -0.206 F 
ATOM     24  C   UNL     1      44.072 127.392  24.473  1.00  0.00     0.047 C 
ENDBRANCH  14  17
ENDBRANCH   9  14
BRANCH  10  25
ATOM     25  N   UNL     1      46.261 131.560  18.545  1.00  0.00    -0.395 N 
ATOM     26  H   UNL     1      46.731 130.989  17.811  1.00  0.00     0.156 HD
ATOM     27  H   UNL     1      46.883 132.003  19.255  1.00  0.00     0.156 HD
ENDBRANCH  10  25
BRANCH  12  28
ATOM     28  C   UNL     1      44.629 131.617  16.126  1.00  0.00     0.185 C 
ATOM     29  O   UNL     1      43.889 130.790  15.256  1.00  0.00    -0.359 OA
ATOM     30  C   UNL     1      45.113 130.271  15.721  1.00  0.00     0.183 C 
BRANCH  30  31
ATOM     31  C   UNL     1      46.176 130.261  14.658  1.00  0.00    -0.016 A 
ATOM     32  C   UNL     1      47.227 129.327  14.684  1.00  0.00     0.006 A 
ATOM     33  C   UNL     1      46.141 131.229  13.643  1.00  0.00     0.006 A 
ATOM     34  C   UNL     1      48.210 129.346  13.689  1.00  0.00     0.000 A 
ATOM     35  C   UNL     1      47.125 131.244  12.651  1.00  0.00     0.000 A 
ATOM     36  C   UNL     1      48.156 130.300  12.670  1.00  0.00     0.000 A 
ENDBRANCH  30  31
ENDBRANCH  12  28
ENDBRANCH   7   8
ENDBRANCH   1   7
TORSDOF 10
ENDMDL
MODEL 3
REMARK VINA RESULT:      -1.8      1.430      1.894
REMARK SMILES C=CCOC(=O)Oc1c([NH2+]c2ccc(C)c(F)c2)ccc([C@@H]2O[C@H]2c2ccccc2)c1N
REMARK SMILES IDX 5 1 6 2 4 3 3 4 2 5 1 6 7 7 8 8 9 9 31 10 19 11 21 12 20 13
REMARK SMILES IDX 10 14 11 17 12 18 18 19 13 20 16 21 14 22 17 23 15 24 32 25
REMARK SMILES IDX 22 28 23 29 24 30 25 31 26 32 30 33 27 34 29 35 28 36
REMARK H PARENT 10 15 10 16 32 26 32 27
ROOT
ATOM      1  C   UNL     1      42.814 131.130  23.385  1.00  0.00     0.514 C 
ATOM      2  O   UNL     1      42.444 130.592  24.467  1.00  0.00    -0.203 OA
ENDROOT
BRANCH   1   3
ATOM      3  O   UNL     1      41.871 131.607  22.470  1.00  0.00    -0.430 OA
BRANCH   3   4
ATOM      4  C   UNL     1      41.515 132.984  22.362  1.00  0.00     0.264 C 
BRANCH   4   5
ATOM      5  C   UNL     1      40.021 133.154  22.402  1.00  0.00     0.006 C 
ATOM      6  C   UNL     1      39.454 134.158  23.076  1.00  0.00     0.007 C 
ENDBRANCH   4   5
ENDBRANCH   3   4
ENDBRANCH   1   3
BRANCH   1   7
ATOM      7  O   UNL     1      44.174 131.242  23.077  1.00  0.00    -0.386 OA
BRANCH   7   8
ATOM      8  C   UNL     1      44.784 130.522  22.044  1.00  0.00     0.218 A 
ATOM      9  C   UNL     1      45.223 129.206  22.298  1.00  0.00     0.180 A 
ATOM     10  C   UNL     1      44.949 131.092  20.758  1.00  0.00     0.087 A 
ATOM     11  C   UNL     1      45.860 128.486  21.276  1.00  0.00     0.073 A 
ATOM     12  C   UNL     1      45.641 130.369  19.760  1.00  0.00     0.011 A 
ATOM     13  C   UNL     1      46.068 129.060  20.025  1.00  0.00     0.015 A 
BRANCH   9  14
ATOM     14  N   UNL     1      45.067 128.613  23.608  1.00  0.00    -0.278 N 
ATOM     15  H   UNL     1      44.218 128.994  24.087  1.00  0.00     0.358 HD
ATOM     16  H   UNL     1      45.889 128.868  24.205  1.00  0.00     0.358 HD
BRANCH  14  17
ATOM     17  C   UNL     1      44.935 127.179  23.492  1.00  0.00     0.137 A 
ATOM     18  C   UNL     1      45.939 126.326  23.980  1.00  0.00     0.068 A 
ATOM     19  C   UNL     1      43.799 126.617  22.885  1.00  0.00     0.107 A 
ATOM     20  C   UNL     1      45.823 124.940  23.836  1.00  0.00     0.012 A 
ATOM     21  C   UNL     1      43.681 125.230  22.743  1.00  0.00     0.132 A 
ATOM     22  C   UNL     1      44.702 124.383  23.205  1.00  0.00    -0.015 A 
ATOM     23  F   UNL     1      42.572 124.714  22.153  1.00  0.00    -0.206 F 
ATOM     24  C   UNL     1      44.569 122.895  23.064  1.00  0.00     0.047 C 
ENDBRANCH  14  17
ENDBRANCH   9  14
BRANCH  10  25
ATOM     25  N   UNL     1      44.369 132.373  20.457  1.00  0.00    -0.395 N 
ATOM     26  H   UNL     1      43.722 132.850  21.120  1.00  0.00     0.156 HD
ATOM     27  H   UNL     1      44.487 132.822  19.523  1.00  0.00     0.156 HD
ENDBRANCH  10  25
BRANCH  12  28
ATOM     28  C   UNL     1      45.881 130.964  18.396  1.00  0.00     0.185 C 
ATOM     29  O   UNL     1      44.679 131.277  17.729  1.00  0.00    -0.359 OA
ATOM     30  C   UNL     1      45.382 130.151  17.256  1.00  0.00     0.183 C 
BRANCH  30  31
ATOM     31  C   UNL     1      46.060 130.407  15.939  1.00  0.00    -0.016 A 
ATOM     32  C   UNL     1      46.222 131.712  15.441  1.00  0.00     0.006 A 
ATOM     33  C   UNL     1      46.503 129.319  15.171  1.00  0.00     0.006 A 
ATOM     34  C   UNL     1      46.847 131.923  14.207  1.00  0.00     0.000 A 
ATOM     35  C   UNL     1      47.127 129.534  13.939  1.00  0.00     0.000 A 
ATOM     36  C   UNL     1      47.304 130.834  13.460  1.00  0.00     0.000 A 
ENDBRANCH  30  31
ENDBRANCH  12  28
ENDBRANCH   7   8
ENDBRANCH   1   7
TORSDOF 10
ENDMDL
MODEL 4
REMARK VINA RESULT:      -1.8      3.828      8.436
REMARK SMILES C=CCOC(=O)Oc1c([NH2+]c2ccc(C)c(F)c2)ccc([C@@H]2O[C@H]2c2ccccc2)c1N
REMARK SMILES IDX 5 1 6 2 4 3 3 4 2 5 1 6 7 7 8 8 9 9 31 10 19 11 21 12 20 13
REMARK SMILES IDX 10 14 11 17 12 18 18 19 13 20 16 21 14 22 17 23 15 24 32 25
REMARK SMILES IDX 22 28 23 29 24 30 25 31 26 32 30 33 27 34 29 35 28 36
REMARK H PARENT 10 15 10 16 32 26 32 27
ROOT
ATOM      1  C   UNL     1      45.583 131.278  18.221  1.00  0.00     0.514 C 
ATOM      2  O   UNL     1      46.071 130.195  18.654  1.00  0.00    -0.203 OA
ENDROOT
BRANCH   1   3
ATOM      3  O   UNL     1      45.169 131.388  16.891  1.00  0.00    -0.430 OA
BRANCH   3   4
ATOM      4  C   UNL     1      45.989 131.935  15.860  1.00  0.00     0.264 C 
BRANCH   4   5
ATOM      5  C   UNL     1      46.583 130.843  15.015  1.00  0.00     0.006 C 
ATOM      6  C   UNL     1      46.737 130.991  13.696  1.00  0.00     0.007 C 
ENDBRANCH   4   5
ENDBRANCH   3   4
ENDBRANCH   1   3
BRANCH   1   7
ATOM      7  O   UNL     1      45.467 132.391  19.061  1.00  0.00    -0.386 OA
BRANCH   7   8
ATOM      8  C   UNL     1      45.231 132.287  20.437  1.00  0.00     0.218 A 
ATOM      9  C   UNL     1      45.868 133.194  21.308  1.00  0.00     0.180 A 
ATOM     10  C   UNL     1      44.357 131.298  20.952  1.00  0.00     0.087 A 
ATOM     11  C   UNL     1      45.659 133.080  22.690  1.00  0.00     0.073 A 
ATOM     12  C   UNL     1      44.202 131.167  22.351  1.00  0.00     0.011 A 
ATOM     13  C   UNL     1      44.839 132.079  23.204  1.00  0.00     0.015 A 
BRANCH   9  14
ATOM     14  N   UNL     1      46.769 134.203  20.797  1.00  0.00    -0.278 N 
ATOM     15  H   UNL     1      46.283 135.128  20.724  1.00  0.00     0.358 HD
ATOM     16  H   UNL     1      47.067 133.945  19.827  1.00  0.00     0.358 HD
BRANCH  14  17
ATOM     17  C   UNL     1      47.910 134.342  21.672  1.00  0.00     0.137 A 
ATOM     18  C   UNL     1      48.134 133.419  22.708  1.00  0.00     0.068 A 
ATOM     19  C   UNL     1      48.810 135.408  21.503  1.00  0.00     0.107 A 
ATOM     20  C   UNL     1      49.220 133.576  23.574  1.00  0.00     0.012 A 
ATOM     21  C   UNL     1      49.899 135.564  22.368  1.00  0.00     0.132 A 
ATOM     22  C   UNL     1      50.101 134.655  23.420  1.00  0.00    -0.015 A 
ATOM     23  F   UNL     1      50.754 136.602  22.180  1.00  0.00    -0.206 F 
ATOM     24  C   UNL     1      51.276 134.816  24.340  1.00  0.00     0.047 C 
ENDBRANCH  14  17
ENDBRANCH   9  14
BRANCH  10  25
ATOM     25  N   UNL     1      43.593 130.473  20.055  1.00  0.00    -0.395 N 
ATOM     26  H   UNL     1      43.141 129.590  20.374  1.00  0.00     0.156 HD
ATOM     27  H   UNL     1      43.553 130.669  19.032  1.00  0.00     0.156 HD
ENDBRANCH  10  25
BRANCH  12  28
ATOM     28  C   UNL     1      43.321 130.095  22.936  1.00  0.00     0.185 C 
ATOM     29  O   UNL     1      43.422 130.024  24.341  1.00  0.00    -0.359 OA
ATOM     30  C   UNL     1      44.040 128.986  23.617  1.00  0.00     0.183 C 
BRANCH  30  31
ATOM     31  C   UNL     1      43.285 127.690  23.709  1.00  0.00    -0.016 A 
ATOM     32  C   UNL     1      43.674 126.563  22.963  1.00  0.00     0.006 A 
ATOM     33  C   UNL     1      42.146 127.614  24.525  1.00  0.00     0.006 A 
ATOM     34  C   UNL     1      42.948 125.371  23.059  1.00  0.00     0.000 A 
ATOM     35  C   UNL     1      41.424 126.422  24.618  1.00  0.00     0.000 A 
ATOM     36  C   UNL     1      41.827 125.299  23.890  1.00  0.00     0.000 A 
ENDBRANCH  30  31
ENDBRANCH  12  28
ENDBRANCH   7   8
ENDBRANCH   1   7
TORSDOF 10
ENDMDL
MODEL 5
REMARK VINA RESULT:      -1.5      2.209      3.245
REMARK SMILES C=CCOC(=O)Oc1c([NH2+]c2ccc(C)c(F)c2)ccc([C@@H]2O[C@H]2c2ccccc2)c1N
REMARK SMILES IDX 5 1 6 2 4 3 3 4 2 5 1 6 7 7 8 8 9 9 31 10 19 11 21 12 20 13
REMARK SMILES IDX 10 14 11 17 12 18 18 19 13 20 16 21 14 22 17 23 15 24 32 25
REMARK SMILES IDX 22 28 23 29 24 30 25 31 26 32 30 33 27 34 29 35 28 36
REMARK H PARENT 10 15 10 16 32 26 32 27
ROOT
ATOM      1  C   UNL     1      46.278 132.469  22.285  1.00  0.00     0.514 C 
ATOM      2  O   UNL     1      46.772 132.462  23.449  1.00  0.00    -0.203 OA
ENDROOT
BRANCH   1   3
ATOM      3  O   UNL     1      46.530 133.532  21.413  1.00  0.00    -0.430 OA
BRANCH   3   4
ATOM      4  C   UNL     1      47.842 133.906  20.998  1.00  0.00     0.264 C 
BRANCH   4   5
ATOM      5  C   UNL     1      48.558 134.646  22.095  1.00  0.00     0.006 C 
ATOM      6  C   UNL     1      47.934 134.984  23.227  1.00  0.00     0.007 C 
ENDBRANCH   4   5
ENDBRANCH   3   4
ENDBRANCH   1   3
BRANCH   1   7
ATOM      7  O   UNL     1      45.456 131.421  21.857  1.00  0.00    -0.386 OA
BRANCH   7   8
ATOM      8  C   UNL     1      44.575 131.536  20.775  1.00  0.00     0.218 A 
ATOM      9  C   UNL     1      43.198 131.698  21.031  1.00  0.00     0.180 A 
ATOM     10  C   UNL     1      45.053 131.505  19.442  1.00  0.00     0.087 A 
ATOM     11  C   UNL     1      42.305 131.787  19.953  1.00  0.00     0.073 A 
ATOM     12  C   UNL     1      44.131 131.541  18.371  1.00  0.00     0.011 A 
ATOM     13  C   UNL     1      42.765 131.707  18.642  1.00  0.00     0.015 A 
BRANCH   9  14
ATOM     14  N   UNL     1      42.695 131.725  22.387  1.00  0.00    -0.278 N 
ATOM     15  H   UNL     1      41.703 132.058  22.406  1.00  0.00     0.358 HD
ATOM     16  H   UNL     1      43.252 132.409  22.951  1.00  0.00     0.358 HD
BRANCH  14  17
ATOM     17  C   UNL     1      42.755 130.403  22.966  1.00  0.00     0.137 A 
ATOM     18  C   UNL     1      43.987 129.741  23.112  1.00  0.00     0.068 A 
ATOM     19  C   UNL     1      41.580 129.757  23.388  1.00  0.00     0.107 A 
ATOM     20  C   UNL     1      44.037 128.448  23.642  1.00  0.00     0.012 A 
ATOM     21  C   UNL     1      41.631 128.464  23.920  1.00  0.00     0.132 A 
ATOM     22  C   UNL     1      42.861 127.796  24.036  1.00  0.00    -0.015 A 
ATOM     23  F   UNL     1      40.479 127.865  24.321  1.00  0.00    -0.206 F 
ATOM     24  C   UNL     1      42.915 126.413  24.619  1.00  0.00     0.047 C 
ENDBRANCH  14  17
ENDBRANCH   9  14
BRANCH  10  25
ATOM     25  N   UNL     1      46.467 131.491  19.183  1.00  0.00    -0.395 N 
ATOM     26  H   UNL     1      46.891 130.841  18.487  1.00  0.00     0.156 HD
ATOM     27  H   UNL     1      47.134 132.052  19.756  1.00  0.00     0.156 HD
ENDBRANCH  10  25
BRANCH  12  28
ATOM     28  C   UNL     1      44.598 131.459  16.941  1.00  0.00     0.185 C 
ATOM     29  O   UNL     1      44.017 130.378  16.248  1.00  0.00    -0.359 OA
ATOM     30  C   UNL     1      45.374 130.238  16.599  1.00  0.00     0.183 C 
BRANCH  30  31
ATOM     31  C   UNL     1      46.292 130.369  15.416  1.00  0.00    -0.016 A 
ATOM     32  C   UNL     1      46.415 131.583  14.717  1.00  0.00     0.006 A 
ATOM     33  C   UNL     1      47.010 129.247  14.975  1.00  0.00     0.006 A 
ATOM     34  C   UNL     1      47.268 131.677  13.613  1.00  0.00     0.000 A 
ATOM     35  C   UNL     1      47.862 129.345  13.872  1.00  0.00     0.000 A 
ATOM     36  C   UNL     1      47.995 130.560  13.194  1.00  0.00     0.000 A 
ENDBRANCH  30  31
ENDBRANCH  12  28
ENDBRANCH   7   8
ENDBRANCH   1   7
TORSDOF 10
ENDMDL
MODEL 6
REMARK VINA RESULT:      -1.3      1.498      2.086
REMARK SMILES C=CCOC(=O)Oc1c([NH2+]c2ccc(C)c(F)c2)ccc([C@@H]2O[C@H]2c2ccccc2)c1N
REMARK SMILES IDX 5 1 6 2 4 3 3 4 2 5 1 6 7 7 8 8 9 9 31 10 19 11 21 12 20 13
REMARK SMILES IDX 10 14 11 17 12 18 18 19 13 20 16 21 14 22 17 23 15 24 32 25
REMARK SMILES IDX 22 28 23 29 24 30 25 31 26 32 30 33 27 34 29 35 28 36
REMARK H PARENT 10 15 10 16 32 26 32 27
ROOT
ATOM      1  C   UNL     1      42.426 131.667  22.293  1.00  0.00     0.514 C 
ATOM      2  O   UNL     1      41.735 131.059  21.426  1.00  0.00    -0.203 OA
ENDROOT
BRANCH   1   3
ATOM      3  O   UNL     1      41.886 132.744  23.003  1.00  0.00    -0.430 OA
BRANCH   3   4
ATOM      4  C   UNL     1      40.618 133.322  22.700  1.00  0.00     0.264 C 
BRANCH   4   5
ATOM      5  C   UNL     1      40.413 133.408  21.212  1.00  0.00     0.006 C 
ATOM      6  C   UNL     1      41.391 133.816  20.399  1.00  0.00     0.007 C 
ENDBRANCH   4   5
ENDBRANCH   3   4
ENDBRANCH   1   3
BRANCH   1   7
ATOM      7  O   UNL     1      43.748 131.284  22.545  1.00  0.00    -0.386 OA
BRANCH   7   8
ATOM      8  C   UNL     1      44.532 130.594  21.614  1.00  0.00     0.218 A 
ATOM      9  C   UNL     1      45.141 129.382  22.001  1.00  0.00     0.180 A 
ATOM     10  C   UNL     1      44.705 131.089  20.298  1.00  0.00     0.087 A 
ATOM     11  C   UNL     1      45.951 128.697  21.083  1.00  0.00     0.073 A 
ATOM     12  C   UNL     1      45.569 130.412  19.408  1.00  0.00     0.011 A 
ATOM     13  C   UNL     1      46.163 129.206  19.805  1.00  0.00     0.015 A 
BRANCH   9  14
ATOM     14  N   UNL     1      44.978 128.867  23.343  1.00  0.00    -0.278 N 
ATOM     15  H   UNL     1      44.692 129.631  23.999  1.00  0.00     0.358 HD
ATOM     16  H   UNL     1      45.897 128.503  23.689  1.00  0.00     0.358 HD
BRANCH  14  17
ATOM     17  C   UNL     1      43.970 127.833  23.360  1.00  0.00     0.137 A 
ATOM     18  C   UNL     1      44.289 126.516  22.989  1.00  0.00     0.068 A 
ATOM     19  C   UNL     1      42.651 128.133  23.744  1.00  0.00     0.107 A 
ATOM     20  C   UNL     1      43.302 125.526  22.975  1.00  0.00     0.012 A 
ATOM     21  C   UNL     1      41.664 127.141  23.732  1.00  0.00     0.132 A 
ATOM     22  C   UNL     1      41.982 125.833  23.332  1.00  0.00    -0.015 A 
ATOM     23  F   UNL     1      40.398 127.459  24.110  1.00  0.00    -0.206 F 
ATOM     24  C   UNL     1      40.925 124.767  23.331  1.00  0.00     0.047 C 
ENDBRANCH  14  17
ENDBRANCH   9  14
BRANCH  10  25
ATOM     25  N   UNL     1      43.966 132.242  19.859  1.00  0.00    -0.395 N 
ATOM     26  H   UNL     1      42.972 132.393  20.135  1.00  0.00     0.156 HD
ATOM     27  H   UNL     1      44.359 132.912  19.163  1.00  0.00     0.156 HD
ENDBRANCH  10  25
BRANCH  12  28
ATOM     28  C   UNL     1      45.817 130.937  18.018  1.00  0.00     0.185 C 
ATOM     29  O   UNL     1      44.652 130.929  17.224  1.00  0.00    -0.359 OA
ATOM     30  C   UNL     1      45.620 129.950  16.924  1.00  0.00     0.183 C 
BRANCH  30  31
ATOM     31  C   UNL     1      46.361 130.245  15.650  1.00  0.00    -0.016 A 
ATOM     32  C   UNL     1      47.133 129.260  15.009  1.00  0.00     0.006 A 
ATOM     33  C   UNL     1      46.315 131.540  15.111  1.00  0.00     0.006 A 
ATOM     34  C   UNL     1      47.823 129.562  13.830  1.00  0.00     0.000 A 
ATOM     35  C   UNL     1      47.005 131.838  13.933  1.00  0.00     0.000 A 
ATOM     36  C   UNL     1      47.753 130.849  13.289  1.00  0.00     0.000 A 
ENDBRANCH  30  31
ENDBRANCH  12  28
ENDBRANCH   7   8
ENDBRANCH   1   7
TORSDOF 10
ENDMDL
MODEL 7
REMARK VINA RESULT:      -0.3      1.761      2.349
REMARK SMILES C=CCOC(=O)Oc1c([NH2+]c2ccc(C)c(F)c2)ccc([C@@H]2O[C@H]2c2ccccc2)c1N
REMARK SMILES IDX 5 1 6 2 4 3 3 4 2 5 1 6 7 7 8 8 9 9 31 10 19 11 21 12 20 13
REMARK SMILES IDX 10 14 11 17 12 18 18 19 13 20 16 21 14 22 17 23 15 24 32 25
REMARK SMILES IDX 22 28 23 29 24 30 25 31 26 32 30 33 27 34 29 35 28 36
REMARK H PARENT 10 15 10 16 32 26 32 27
ROOT
ATOM      1  C   UNL     1      42.132 132.607  21.698  1.00  0.00     0.514 C 
ATOM      2  O   UNL     1      42.860 132.813  22.712  1.00  0.00    -0.203 OA
ENDROOT
BRANCH   1   3
ATOM      3  O   UNL     1      41.050 133.447  21.419  1.00  0.00    -0.430 OA
BRANCH   3   4
ATOM      4  C   UNL     1      39.857 133.467  22.200  1.00  0.00     0.264 C 
BRANCH   4   5
ATOM      5  C   UNL     1      40.096 134.145  23.521  1.00  0.00     0.006 C 
ATOM      6  C   UNL     1      40.444 133.448  24.607  1.00  0.00     0.007 C 
ENDBRANCH   4   5
ENDBRANCH   3   4
ENDBRANCH   1   3
BRANCH   1   7
ATOM      7  O   UNL     1      42.388 131.526  20.848  1.00  0.00    -0.386 OA
BRANCH   7   8
ATOM      8  C   UNL     1      43.658 131.247  20.329  1.00  0.00     0.218 A 
ATOM      9  C   UNL     1      44.701 130.918  21.220  1.00  0.00     0.180 A 
ATOM     10  C   UNL     1      43.897 131.280  18.933  1.00  0.00     0.087 A 
ATOM     11  C   UNL     1      45.983 130.664  20.711  1.00  0.00     0.073 A 
ATOM     12  C   UNL     1      45.208 131.074  18.447  1.00  0.00     0.011 A 
ATOM     13  C   UNL     1      46.233 130.742  19.344  1.00  0.00     0.015 A 
BRANCH   9  14
ATOM     14  N   UNL     1      44.473 130.888  22.648  1.00  0.00    -0.278 N 
ATOM     15  H   UNL     1      43.728 131.572  22.917  1.00  0.00     0.358 HD
ATOM     16  H   UNL     1      45.346 131.183  23.145  1.00  0.00     0.358 HD
BRANCH  14  17
ATOM     17  C   UNL     1      44.064 129.565  23.058  1.00  0.00     0.137 A 
ATOM     18  C   UNL     1      44.908 128.459  22.856  1.00  0.00     0.068 A 
ATOM     19  C   UNL     1      42.810 129.364  23.662  1.00  0.00     0.107 A 
ATOM     20  C   UNL     1      44.494 127.176  23.224  1.00  0.00     0.012 A 
ATOM     21  C   UNL     1      42.397 128.079  24.032  1.00  0.00     0.132 A 
ATOM     22  C   UNL     1      43.232 126.975  23.801  1.00  0.00    -0.015 A 
ATOM     23  F   UNL     1      41.181 127.915  24.615  1.00  0.00    -0.206 F 
ATOM     24  C   UNL     1      42.793 125.598  24.210  1.00  0.00     0.047 C 
ENDBRANCH  14  17
ENDBRANCH   9  14
BRANCH  10  25
ATOM     25  N   UNL     1      42.803 131.467  18.019  1.00  0.00    -0.395 N 
ATOM     26  H   UNL     1      42.852 132.159  17.241  1.00  0.00     0.156 HD
ATOM     27  H   UNL     1      41.882 130.999  18.164  1.00  0.00     0.156 HD
ENDBRANCH  10  25
BRANCH  12  28
ATOM     28  C   UNL     1      45.509 131.151  16.973  1.00  0.00     0.185 C 
ATOM     29  O   UNL     1      44.661 130.324  16.207  1.00  0.00    -0.359 OA
ATOM     30  C   UNL     1      45.992 129.886  16.359  1.00  0.00     0.183 C 
BRANCH  30  31
ATOM     31  C   UNL     1      46.799 130.048  15.101  1.00  0.00    -0.016 A 
ATOM     32  C   UNL     1      46.677 131.195  14.297  1.00  0.00     0.006 A 
ATOM     33  C   UNL     1      47.660 129.016  14.699  1.00  0.00     0.006 A 
ATOM     34  C   UNL     1      47.431 131.317  13.125  1.00  0.00     0.000 A 
ATOM     35  C   UNL     1      48.412 129.142  13.528  1.00  0.00     0.000 A 
ATOM     36  C   UNL     1      48.303 130.293  12.744  1.00  0.00     0.000 A 
ENDBRANCH  30  31
ENDBRANCH  12  28
ENDBRANCH   7   8
ENDBRANCH   1   7
TORSDOF 10
ENDMDL


