MODEL 1
REMARK VINA RESULT:      -7.8      0.000      0.000
REMARK SMILES Cc1cc[nH+]c(F)c1-c1cc2c(C)c(F)cc([NH2+]c3cccc(N)c3O)c2[nH]1
REMARK SMILES IDX 18 1 17 4 9 5 10 6 28 7 11 8 27 9 12 10 14 11 16 12 13 14
REMARK SMILES IDX 15 15 8 16 2 17 3 18 4 19 6 20 5 21 1 22 7 23 19 25 20 26
REMARK SMILES IDX 25 27 21 28 23 29 22 30 26 31 24 33
REMARK H PARENT 18 2 18 3 28 13 5 24 26 32 24 34 24 35
ROOT
ATOM      1  N   UNL     1      46.159 130.272  19.636  1.00  0.00    -0.276 N 
ATOM      2  H   UNL     1      46.991 130.884  19.794  1.00  0.00     0.358 HD
ATOM      3  H   UNL     1      46.528 129.321  19.400  1.00  0.00     0.358 HD
ENDROOT
BRANCH   1   4
ATOM      4  C   UNL     1      45.388 130.224  20.857  1.00  0.00     0.162 A 
ATOM      5  C   UNL     1      45.361 127.011  22.322  1.00  0.00     0.056 A 
ATOM      6  C   UNL     1      44.620 127.716  23.267  1.00  0.00     0.038 A 
ATOM      7  N   UNL     1      45.742 127.824  21.309  1.00  0.00    -0.349 N 
ATOM      8  C   UNL     1      44.550 129.008  22.784  1.00  0.00     0.012 A 
ATOM      9  C   UNL     1      45.244 129.040  21.599  1.00  0.00     0.109 A 
ATOM     10  C   UNL     1      43.936 130.146  23.318  1.00  0.00    -0.005 A 
ATOM     11  C   UNL     1      44.064 131.354  22.594  1.00  0.00     0.132 A 
ATOM     12  C   UNL     1      44.780 131.388  21.378  1.00  0.00     0.110 A 
ATOM     13  H   UNL     1      46.299 127.550  20.472  1.00  0.00     0.167 HD
ATOM     14  C   UNL     1      43.197 130.084  24.625  1.00  0.00     0.048 C 
ATOM     15  F   UNL     1      43.507 132.500  23.060  1.00  0.00    -0.206 F 
BRANCH   5  16
ATOM     16  C   UNL     1      45.746 125.586  22.414  1.00  0.00     0.105 A 
ATOM     17  C   UNL     1      44.788 124.543  22.424  1.00  0.00    -0.026 A 
ATOM     18  C   UNL     1      45.227 123.217  22.549  1.00  0.00     0.075 A 
ATOM     19  C   UNL     1      46.590 122.939  22.623  1.00  0.00     0.309 A 
ATOM     20  C   UNL     1      47.112 125.250  22.479  1.00  0.00     0.367 A 
ATOM     21  N   UNL     1      47.497 123.949  22.583  1.00  0.00    -0.186 N 
ATOM     22  C   UNL     1      43.310 124.808  22.310  1.00  0.00     0.045 C 
ATOM     23  F   UNL     1      48.062 126.221  22.477  1.00  0.00    -0.135 F 
ATOM     24  H   UNL     1      48.515 123.720  22.642  1.00  0.00     0.456 HD
ENDBRANCH   5  16
ENDBRANCH   1   4
BRANCH   1  25
ATOM     25  C   UNL     1      45.340 130.731  18.533  1.00  0.00     0.179 A 
ATOM     26  C   UNL     1      44.111 131.364  18.797  1.00  0.00     0.072 A 
ATOM     27  C   UNL     1      45.723 130.503  17.187  1.00  0.00     0.201 A 
ATOM     28  C   UNL     1      43.303 131.813  17.756  1.00  0.00     0.009 A 
ATOM     29  C   UNL     1      44.914 130.996  16.132  1.00  0.00     0.080 A 
ATOM     30  C   UNL     1      43.704 131.638  16.433  1.00  0.00     0.030 A 
BRANCH  27  31
ATOM     31  O   UNL     1      46.886 129.770  16.932  1.00  0.00    -0.501 OA
ATOM     32  H   UNL     1      47.693 130.139  16.451  1.00  0.00     0.293 HD
ENDBRANCH  27  31
BRANCH  29  33
ATOM     33  N   UNL     1      45.301 130.873  14.757  1.00  0.00    -0.396 N 
ATOM     34  H   UNL     1      46.050 131.486  14.365  1.00  0.00     0.156 HD
ATOM     35  H   UNL     1      44.944 130.115  14.136  1.00  0.00     0.156 HD
ENDBRANCH  29  33
ENDBRANCH   1  25
TORSDOF 5
ENDMDL
MODEL 2
REMARK VINA RESULT:      -7.6      1.114      1.599
REMARK SMILES Cc1cc[nH+]c(F)c1-c1cc2c(C)c(F)cc([NH2+]c3cccc(N)c3O)c2[nH]1
REMARK SMILES IDX 18 1 17 4 9 5 10 6 28 7 11 8 27 9 12 10 14 11 16 12 13 14
REMARK SMILES IDX 15 15 8 16 2 17 3 18 4 19 6 20 5 21 1 22 7 23 19 25 20 26
REMARK SMILES IDX 25 27 21 28 23 29 22 30 26 31 24 33
REMARK H PARENT 18 2 18 3 28 13 5 24 26 32 24 34 24 35
ROOT
ATOM      1  N   UNL     1      46.115 130.300  19.727  1.00  0.00    -0.276 N 
ATOM      2  H   UNL     1      46.925 130.932  19.917  1.00  0.00     0.358 HD
ATOM      3  H   UNL     1      46.517 129.359  19.507  1.00  0.00     0.358 HD
ENDROOT
BRANCH   1   4
ATOM      4  C   UNL     1      45.300 130.233  20.918  1.00  0.00     0.162 A 
ATOM      5  C   UNL     1      45.233 127.001  22.339  1.00  0.00     0.056 A 
ATOM      6  C   UNL     1      44.453 127.690  23.264  1.00  0.00     0.038 A 
ATOM      7  N   UNL     1      45.648 127.829  21.352  1.00  0.00    -0.349 N 
ATOM      8  C   UNL     1      44.396 128.988  22.796  1.00  0.00     0.012 A 
ATOM      9  C   UNL     1      45.134 129.038  21.638  1.00  0.00     0.109 A 
ATOM     10  C   UNL     1      43.757 130.116  23.322  1.00  0.00    -0.005 A 
ATOM     11  C   UNL     1      43.907 131.334  22.618  1.00  0.00     0.132 A 
ATOM     12  C   UNL     1      44.667 131.387  21.431  1.00  0.00     0.110 A 
ATOM     13  H   UNL     1      46.237 127.568  20.532  1.00  0.00     0.167 HD
ATOM     14  C   UNL     1      42.970 130.034  24.599  1.00  0.00     0.048 C 
ATOM     15  F   UNL     1      43.327 132.472  23.078  1.00  0.00    -0.206 F 
BRANCH   5  16
ATOM     16  C   UNL     1      45.621 125.577  22.427  1.00  0.00     0.105 A 
ATOM     17  C   UNL     1      46.912 125.168  22.844  1.00  0.00    -0.026 A 
ATOM     18  C   UNL     1      47.219 123.800  22.870  1.00  0.00     0.075 A 
ATOM     19  C   UNL     1      46.248 122.863  22.522  1.00  0.00     0.309 A 
ATOM     20  C   UNL     1      44.674 124.588  22.098  1.00  0.00     0.367 A 
ATOM     21  N   UNL     1      45.006 123.270  22.151  1.00  0.00    -0.186 N 
ATOM     22  C   UNL     1      47.972 126.155  23.260  1.00  0.00     0.045 C 
ATOM     23  F   UNL     1      43.427 124.938  21.688  1.00  0.00    -0.135 F 
ATOM     24  H   UNL     1      44.293 122.552  21.893  1.00  0.00     0.456 HD
ENDBRANCH   5  16
ENDBRANCH   1   4
BRANCH   1  25
ATOM     25  C   UNL     1      45.329 130.739  18.593  1.00  0.00     0.179 A 
ATOM     26  C   UNL     1      44.106 131.403  18.811  1.00  0.00     0.072 A 
ATOM     27  C   UNL     1      45.735 130.462  17.263  1.00  0.00     0.201 A 
ATOM     28  C   UNL     1      43.329 131.833  17.740  1.00  0.00     0.009 A 
ATOM     29  C   UNL     1      44.957 130.937  16.177  1.00  0.00     0.080 A 
ATOM     30  C   UNL     1      43.754 131.610  16.432  1.00  0.00     0.030 A 
BRANCH  27  31
ATOM     31  O   UNL     1      46.889 129.701  17.056  1.00  0.00    -0.501 OA
ATOM     32  H   UNL     1      46.972 128.978  16.356  1.00  0.00     0.293 HD
ENDBRANCH  27  31
BRANCH  29  33
ATOM     33  N   UNL     1      45.371 130.764  14.815  1.00  0.00    -0.396 N 
ATOM     34  H   UNL     1      46.016 129.984  14.556  1.00  0.00     0.156 HD
ATOM     35  H   UNL     1      44.972 131.321  14.029  1.00  0.00     0.156 HD
ENDBRANCH  29  33
ENDBRANCH   1  25
TORSDOF 5
ENDMDL
MODEL 3
REMARK VINA RESULT:      -6.3      2.804      7.145
REMARK SMILES Cc1cc[nH+]c(F)c1-c1cc2c(C)c(F)cc([NH2+]c3cccc(N)c3O)c2[nH]1
REMARK SMILES IDX 18 1 17 4 9 5 10 6 28 7 11 8 27 9 12 10 14 11 16 12 13 14
REMARK SMILES IDX 15 15 8 16 2 17 3 18 4 19 6 20 5 21 1 22 7 23 19 25 20 26
REMARK SMILES IDX 25 27 21 28 23 29 22 30 26 31 24 33
REMARK H PARENT 18 2 18 3 28 13 5 24 26 32 24 34 24 35
ROOT
ATOM      1  N   UNL     1      45.607 129.948  21.381  1.00  0.00    -0.276 N 
ATOM      2  H   UNL     1      46.032 129.351  20.636  1.00  0.00     0.358 HD
ATOM      3  H   UNL     1      46.379 130.542  21.764  1.00  0.00     0.358 HD
ENDROOT
BRANCH   1   4
ATOM      4  C   UNL     1      44.588 130.775  20.778  1.00  0.00     0.162 A 
ATOM      5  C   UNL     1      45.043 131.176  17.300  1.00  0.00     0.056 A 
ATOM      6  C   UNL     1      43.861 131.890  17.474  1.00  0.00     0.038 A 
ATOM      7  N   UNL     1      45.477 130.672  18.478  1.00  0.00    -0.349 N 
ATOM      8  C   UNL     1      43.587 131.814  18.826  1.00  0.00     0.012 A 
ATOM      9  C   UNL     1      44.583 131.065  19.403  1.00  0.00     0.109 A 
ATOM     10  C   UNL     1      42.524 132.341  19.568  1.00  0.00    -0.005 A 
ATOM     11  C   UNL     1      42.502 132.065  20.955  1.00  0.00     0.132 A 
ATOM     12  C   UNL     1      43.523 131.293  21.549  1.00  0.00     0.110 A 
ATOM     13  H   UNL     1      46.339 130.106  18.630  1.00  0.00     0.167 HD
ATOM     14  C   UNL     1      41.440 133.142  18.905  1.00  0.00     0.048 C 
ATOM     15  F   UNL     1      41.494 132.532  21.735  1.00  0.00    -0.206 F 
BRANCH   5  16
ATOM     16  C   UNL     1      45.723 130.933  16.009  1.00  0.00     0.105 A 
ATOM     17  C   UNL     1      45.787 129.646  15.418  1.00  0.00    -0.026 A 
ATOM     18  C   UNL     1      46.479 129.486  14.209  1.00  0.00     0.075 A 
ATOM     19  C   UNL     1      47.060 130.591  13.588  1.00  0.00     0.309 A 
ATOM     20  C   UNL     1      46.316 132.017  15.333  1.00  0.00     0.367 A 
ATOM     21  N   UNL     1      46.965 131.822  14.153  1.00  0.00    -0.186 N 
ATOM     22  C   UNL     1      45.140 128.440  16.046  1.00  0.00     0.045 C 
ATOM     23  F   UNL     1      46.281 133.264  15.869  1.00  0.00    -0.135 F 
ATOM     24  H   UNL     1      47.408 132.637  13.673  1.00  0.00     0.456 HD
ENDBRANCH   5  16
ENDBRANCH   1   4
BRANCH   1  25
ATOM     25  C   UNL     1      45.053 129.163  22.465  1.00  0.00     0.179 A 
ATOM     26  C   UNL     1      44.429 129.815  23.545  1.00  0.00     0.072 A 
ATOM     27  C   UNL     1      45.179 127.751  22.491  1.00  0.00     0.201 A 
ATOM     28  C   UNL     1      43.891 129.086  24.602  1.00  0.00     0.009 A 
ATOM     29  C   UNL     1      44.596 127.012  23.551  1.00  0.00     0.080 A 
ATOM     30  C   UNL     1      43.965 127.694  24.602  1.00  0.00     0.030 A 
BRANCH  27  31
ATOM     31  O   UNL     1      45.904 127.120  21.475  1.00  0.00    -0.501 OA
ATOM     32  H   UNL     1      45.503 126.822  20.597  1.00  0.00     0.293 HD
ENDBRANCH  27  31
BRANCH  29  33
ATOM     33  N   UNL     1      44.614 125.579  23.578  1.00  0.00    -0.396 N 
ATOM     34  H   UNL     1      45.357 125.073  24.111  1.00  0.00     0.156 HD
ATOM     35  H   UNL     1      43.849 124.997  23.174  1.00  0.00     0.156 HD
ENDBRANCH  29  33
ENDBRANCH   1  25
TORSDOF 5
ENDMDL
MODEL 4
REMARK VINA RESULT:      -5.8      1.340      1.619
REMARK SMILES Cc1cc[nH+]c(F)c1-c1cc2c(C)c(F)cc([NH2+]c3cccc(N)c3O)c2[nH]1
REMARK SMILES IDX 18 1 17 4 9 5 10 6 28 7 11 8 27 9 12 10 14 11 16 12 13 14
REMARK SMILES IDX 15 15 8 16 2 17 3 18 4 19 6 20 5 21 1 22 7 23 19 25 20 26
REMARK SMILES IDX 25 27 21 28 23 29 22 30 26 31 24 33
REMARK H PARENT 18 2 18 3 28 13 5 24 26 32 24 34 24 35
ROOT
ATOM      1  N   UNL     1      46.098 130.742  20.396  1.00  0.00    -0.276 N 
ATOM      2  H   UNL     1      46.577 131.641  20.630  1.00  0.00     0.358 HD
ATOM      3  H   UNL     1      46.839 130.002  20.393  1.00  0.00     0.358 HD
ENDROOT
BRANCH   1   4
ATOM      4  C   UNL     1      45.117 130.468  21.421  1.00  0.00     0.162 A 
ATOM      5  C   UNL     1      45.047 127.065  22.359  1.00  0.00     0.056 A 
ATOM      6  C   UNL     1      44.092 127.577  23.233  1.00  0.00     0.038 A 
ATOM      7  N   UNL     1      45.553 128.043  21.573  1.00  0.00    -0.349 N 
ATOM      8  C   UNL     1      44.022 128.926  22.942  1.00  0.00     0.012 A 
ATOM      9  C   UNL     1      44.922 129.175  21.936  1.00  0.00     0.109 A 
ATOM     10  C   UNL     1      43.237 129.937  23.508  1.00  0.00    -0.005 A 
ATOM     11  C   UNL     1      43.412 131.249  23.010  1.00  0.00     0.132 A 
ATOM     12  C   UNL     1      44.340 131.507  21.978  1.00  0.00     0.110 A 
ATOM     13  H   UNL     1      46.276 127.930  20.831  1.00  0.00     0.167 HD
ATOM     14  C   UNL     1      42.272 129.637  24.619  1.00  0.00     0.048 C 
ATOM     15  F   UNL     1      42.696 132.282  23.521  1.00  0.00    -0.206 F 
BRANCH   5  16
ATOM     16  C   UNL     1      45.510 125.660  22.313  1.00  0.00     0.105 A 
ATOM     17  C   UNL     1      44.610 124.567  22.309  1.00  0.00    -0.026 A 
ATOM     18  C   UNL     1      45.123 123.262  22.300  1.00  0.00     0.075 A 
ATOM     19  C   UNL     1      46.501 123.057  22.257  1.00  0.00     0.309 A 
ATOM     20  C   UNL     1      46.893 125.397  22.256  1.00  0.00     0.367 A 
ATOM     21  N   UNL     1      47.350 124.116  22.231  1.00  0.00    -0.186 N 
ATOM     22  C   UNL     1      43.115 124.756  22.320  1.00  0.00     0.045 C 
ATOM     23  F   UNL     1      47.789 126.418  22.262  1.00  0.00    -0.135 F 
ATOM     24  H   UNL     1      48.379 123.941  22.200  1.00  0.00     0.456 HD
ENDBRANCH   5  16
ENDBRANCH   1   4
BRANCH   1  25
ATOM     25  C   UNL     1      45.477 130.774  19.088  1.00  0.00     0.179 A 
ATOM     26  C   UNL     1      46.050 130.043  18.030  1.00  0.00     0.072 A 
ATOM     27  C   UNL     1      44.334 131.574  18.835  1.00  0.00     0.201 A 
ATOM     28  C   UNL     1      45.475 130.058  16.762  1.00  0.00     0.009 A 
ATOM     29  C   UNL     1      43.733 131.555  17.551  1.00  0.00     0.080 A 
ATOM     30  C   UNL     1      44.321 130.801  16.525  1.00  0.00     0.030 A 
BRANCH  27  31
ATOM     31  O   UNL     1      43.841 132.388  19.859  1.00  0.00    -0.501 OA
ATOM     32  H   UNL     1      44.065 133.367  19.960  1.00  0.00     0.293 HD
ENDBRANCH  27  31
BRANCH  29  33
ATOM     33  N   UNL     1      42.524 132.273  17.268  1.00  0.00    -0.396 N 
ATOM     34  H   UNL     1      41.605 131.908  17.606  1.00  0.00     0.156 HD
ATOM     35  H   UNL     1      42.519 133.216  16.825  1.00  0.00     0.156 HD
ENDBRANCH  29  33
ENDBRANCH   1  25
TORSDOF 5
ENDMDL
MODEL 5
REMARK VINA RESULT:      -5.3      1.319      1.552
REMARK SMILES Cc1cc[nH+]c(F)c1-c1cc2c(C)c(F)cc([NH2+]c3cccc(N)c3O)c2[nH]1
REMARK SMILES IDX 18 1 17 4 9 5 10 6 28 7 11 8 27 9 12 10 14 11 16 12 13 14
REMARK SMILES IDX 15 15 8 16 2 17 3 18 4 19 6 20 5 21 1 22 7 23 19 25 20 26
REMARK SMILES IDX 25 27 21 28 23 29 22 30 26 31 24 33
REMARK H PARENT 18 2 18 3 28 13 5 24 26 32 24 34 24 35
ROOT
ATOM      1  N   UNL     1      46.228 129.968  18.564  1.00  0.00    -0.276 N 
ATOM      2  H   UNL     1      47.205 130.298  18.735  1.00  0.00     0.358 HD
ATOM      3  H   UNL     1      46.271 128.922  18.518  1.00  0.00     0.358 HD
ENDROOT
BRANCH   1   4
ATOM      4  C   UNL     1      45.402 130.388  19.672  1.00  0.00     0.162 A 
ATOM      5  C   UNL     1      45.161 127.933  22.198  1.00  0.00     0.056 A 
ATOM      6  C   UNL     1      44.411 128.953  22.778  1.00  0.00     0.038 A 
ATOM      7  N   UNL     1      45.624 128.310  20.984  1.00  0.00    -0.349 N 
ATOM      8  C   UNL     1      44.424 129.981  21.856  1.00  0.00     0.012 A 
ATOM      9  C   UNL     1      45.171 129.560  20.783  1.00  0.00     0.109 A 
ATOM     10  C   UNL     1      43.839 131.252  21.905  1.00  0.00    -0.005 A 
ATOM     11  C   UNL     1      44.056 132.108  20.801  1.00  0.00     0.132 A 
ATOM     12  C   UNL     1      44.826 131.678  19.699  1.00  0.00     0.110 A 
ATOM     13  H   UNL     1      46.205 127.735  20.337  1.00  0.00     0.167 HD
ATOM     14  C   UNL     1      43.040 131.690  23.099  1.00  0.00     0.048 C 
ATOM     15  F   UNL     1      43.532 133.360  20.786  1.00  0.00    -0.206 F 
BRANCH   5  16
ATOM     16  C   UNL     1      45.475 126.629  22.822  1.00  0.00     0.105 A 
ATOM     17  C   UNL     1      44.495 125.855  23.491  1.00  0.00    -0.026 A 
ATOM     18  C   UNL     1      44.875 124.645  24.089  1.00  0.00     0.075 A 
ATOM     19  C   UNL     1      46.193 124.203  23.990  1.00  0.00     0.309 A 
ATOM     20  C   UNL     1      46.790 126.131  22.741  1.00  0.00     0.367 A 
ATOM     21  N   UNL     1      47.114 124.944  23.321  1.00  0.00    -0.186 N 
ATOM     22  C   UNL     1      43.055 126.288  23.585  1.00  0.00     0.045 C 
ATOM     23  F   UNL     1      47.759 126.845  22.113  1.00  0.00    -0.135 F 
ATOM     24  H   UNL     1      48.097 124.596  23.259  1.00  0.00     0.456 HD
ENDBRANCH   5  16
ENDBRANCH   1   4
BRANCH   1  25
ATOM     25  C   UNL     1      45.693 130.460  17.312  1.00  0.00     0.179 A 
ATOM     26  C   UNL     1      44.439 131.102  17.297  1.00  0.00     0.072 A 
ATOM     27  C   UNL     1      46.377 130.256  16.087  1.00  0.00     0.201 A 
ATOM     28  C   UNL     1      43.900 131.582  16.107  1.00  0.00     0.009 A 
ATOM     29  C   UNL     1      45.840 130.781  14.885  1.00  0.00     0.080 A 
ATOM     30  C   UNL     1      44.597 131.431  14.911  1.00  0.00     0.030 A 
BRANCH  27  31
ATOM     31  O   UNL     1      47.563 129.515  16.093  1.00  0.00    -0.501 OA
ATOM     32  H   UNL     1      47.851 128.903  15.343  1.00  0.00     0.293 HD
ENDBRANCH  27  31
BRANCH  29  33
ATOM     33  N   UNL     1      46.536 130.683  13.635  1.00  0.00    -0.396 N 
ATOM     34  H   UNL     1      46.670 131.532  13.041  1.00  0.00     0.156 HD
ATOM     35  H   UNL     1      47.023 129.814  13.327  1.00  0.00     0.156 HD
ENDBRANCH  29  33
ENDBRANCH   1  25
TORSDOF 5
ENDMDL
MODEL 6
REMARK VINA RESULT:      -5.2      3.020      7.236
REMARK SMILES Cc1cc[nH+]c(F)c1-c1cc2c(C)c(F)cc([NH2+]c3cccc(N)c3O)c2[nH]1
REMARK SMILES IDX 18 1 17 4 9 5 10 6 28 7 11 8 27 9 12 10 14 11 16 12 13 14
REMARK SMILES IDX 15 15 8 16 2 17 3 18 4 19 6 20 5 21 1 22 7 23 19 25 20 26
REMARK SMILES IDX 25 27 21 28 23 29 22 30 26 31 24 33
REMARK H PARENT 18 2 18 3 28 13 5 24 26 32 24 34 24 35
ROOT
ATOM      1  N   UNL     1      45.502 130.754  21.121  1.00  0.00    -0.276 N 
ATOM      2  H   UNL     1      46.038 130.073  20.537  1.00  0.00     0.358 HD
ATOM      3  H   UNL     1      46.186 131.485  21.429  1.00  0.00     0.358 HD
ENDROOT
BRANCH   1   4
ATOM      4  C   UNL     1      44.470 131.345  20.301  1.00  0.00     0.162 A 
ATOM      5  C   UNL     1      45.172 131.107  16.849  1.00  0.00     0.056 A 
ATOM      6  C   UNL     1      43.923 131.722  16.801  1.00  0.00     0.038 A 
ATOM      7  N   UNL     1      45.549 130.887  18.129  1.00  0.00    -0.349 N 
ATOM      8  C   UNL     1      43.547 131.882  18.121  1.00  0.00     0.012 A 
ATOM      9  C   UNL     1      44.553 131.361  18.898  1.00  0.00     0.109 A 
ATOM     10  C   UNL     1      42.388 132.436  18.674  1.00  0.00    -0.005 A 
ATOM     11  C   UNL     1      42.276 132.433  20.083  1.00  0.00     0.132 A 
ATOM     12  C   UNL     1      43.306 131.895  20.884  1.00  0.00     0.110 A 
ATOM     13  H   UNL     1      46.440 130.447  18.446  1.00  0.00     0.167 HD
ATOM     14  C   UNL     1      41.298 132.983  17.796  1.00  0.00     0.048 C 
ATOM     15  F   UNL     1      41.172 132.941  20.689  1.00  0.00    -0.206 F 
BRANCH   5  16
ATOM     16  C   UNL     1      45.973 130.686  15.678  1.00  0.00     0.105 A 
ATOM     17  C   UNL     1      46.591 131.620  14.810  1.00  0.00    -0.026 A 
ATOM     18  C   UNL     1      47.306 131.147  13.700  1.00  0.00     0.075 A 
ATOM     19  C   UNL     1      47.431 129.776  13.485  1.00  0.00     0.309 A 
ATOM     20  C   UNL     1      46.141 129.312  15.423  1.00  0.00     0.367 A 
ATOM     21  N   UNL     1      46.856 128.894  14.343  1.00  0.00    -0.186 N 
ATOM     22  C   UNL     1      46.504 133.107  15.035  1.00  0.00     0.045 C 
ATOM     23  F   UNL     1      45.560 128.386  16.229  1.00  0.00    -0.135 F 
ATOM     24  H   UNL     1      46.960 127.870  14.164  1.00  0.00     0.456 HD
ENDBRANCH   5  16
ENDBRANCH   1   4
BRANCH   1  25
ATOM     25  C   UNL     1      44.929 130.138  22.299  1.00  0.00     0.179 A 
ATOM     26  C   UNL     1      44.464 130.950  23.351  1.00  0.00     0.072 A 
ATOM     27  C   UNL     1      44.881 128.728  22.444  1.00  0.00     0.201 A 
ATOM     28  C   UNL     1      43.911 130.384  24.496  1.00  0.00     0.009 A 
ATOM     29  C   UNL     1      44.282 128.159  23.596  1.00  0.00     0.080 A 
ATOM     30  C   UNL     1      43.813 129.000  24.616  1.00  0.00     0.030 A 
BRANCH  27  31
ATOM     31  O   UNL     1      45.451 127.929  21.448  1.00  0.00    -0.501 OA
ATOM     32  H   UNL     1      45.039 127.074  21.105  1.00  0.00     0.293 HD
ENDBRANCH  27  31
BRANCH  29  33
ATOM     33  N   UNL     1      44.125 126.742  23.749  1.00  0.00    -0.396 N 
ATOM     34  H   UNL     1      43.258 126.270  23.405  1.00  0.00     0.156 HD
ATOM     35  H   UNL     1      44.889 126.124  24.095  1.00  0.00     0.156 HD
ENDBRANCH  29  33
ENDBRANCH   1  25
TORSDOF 5
ENDMDL
MODEL 7
REMARK VINA RESULT:      -5.1      2.484      6.791
REMARK SMILES Cc1cc[nH+]c(F)c1-c1cc2c(C)c(F)cc([NH2+]c3cccc(N)c3O)c2[nH]1
REMARK SMILES IDX 18 1 17 4 9 5 10 6 28 7 11 8 27 9 12 10 14 11 16 12 13 14
REMARK SMILES IDX 15 15 8 16 2 17 3 18 4 19 6 20 5 21 1 22 7 23 19 25 20 26
REMARK SMILES IDX 25 27 21 28 23 29 22 30 26 31 24 33
REMARK H PARENT 18 2 18 3 28 13 5 24 26 32 24 34 24 35
ROOT
ATOM      1  N   UNL     1      45.382 131.024  21.676  1.00  0.00    -0.276 N 
ATOM      2  H   UNL     1      46.203 130.859  21.052  1.00  0.00     0.358 HD
ATOM      3  H   UNL     1      45.681 131.738  22.381  1.00  0.00     0.358 HD
ENDROOT
BRANCH   1   4
ATOM      4  C   UNL     1      44.293 131.533  20.875  1.00  0.00     0.162 A 
ATOM      5  C   UNL     1      44.852 131.136  17.411  1.00  0.00     0.056 A 
ATOM      6  C   UNL     1      43.580 131.703  17.389  1.00  0.00     0.038 A 
ATOM      7  N   UNL     1      45.293 130.998  18.683  1.00  0.00    -0.349 N 
ATOM      8  C   UNL     1      43.257 131.920  18.714  1.00  0.00     0.012 A 
ATOM      9  C   UNL     1      44.314 131.477  19.471  1.00  0.00     0.109 A 
ATOM     10  C   UNL     1      42.102 132.461  19.290  1.00  0.00    -0.005 A 
ATOM     11  C   UNL     1      42.052 132.529  20.702  1.00  0.00     0.132 A 
ATOM     12  C   UNL     1      43.136 132.072  21.481  1.00  0.00     0.110 A 
ATOM     13  H   UNL     1      46.213 130.608  18.981  1.00  0.00     0.167 HD
ATOM     14  C   UNL     1      40.955 132.922  18.436  1.00  0.00     0.048 C 
ATOM     15  F   UNL     1      40.957 133.029  21.330  1.00  0.00    -0.206 F 
BRANCH   5  16
ATOM     16  C   UNL     1      45.617 130.682  16.229  1.00  0.00     0.105 A 
ATOM     17  C   UNL     1      45.209 130.979  14.905  1.00  0.00    -0.026 A 
ATOM     18  C   UNL     1      45.965 130.485  13.832  1.00  0.00     0.075 A 
ATOM     19  C   UNL     1      47.120 129.746  14.078  1.00  0.00     0.309 A 
ATOM     20  C   UNL     1      46.799 129.942  16.421  1.00  0.00     0.367 A 
ATOM     21  N   UNL     1      47.513 129.495  15.353  1.00  0.00    -0.186 N 
ATOM     22  C   UNL     1      43.985 131.805  14.607  1.00  0.00     0.045 C 
ATOM     23  F   UNL     1      47.221 129.633  17.675  1.00  0.00    -0.135 F 
ATOM     24  H   UNL     1      48.382 128.938  15.517  1.00  0.00     0.456 HD
ENDBRANCH   5  16
ENDBRANCH   1   4
BRANCH   1  25
ATOM     25  C   UNL     1      44.980 129.825  22.382  1.00  0.00     0.179 A 
ATOM     26  C   UNL     1      44.314 129.937  23.618  1.00  0.00     0.072 A 
ATOM     27  C   UNL     1      45.295 128.535  21.884  1.00  0.00     0.201 A 
ATOM     28  C   UNL     1      43.920 128.801  24.320  1.00  0.00     0.009 A 
ATOM     29  C   UNL     1      44.857 127.384  22.585  1.00  0.00     0.080 A 
ATOM     30  C   UNL     1      44.180 127.534  23.804  1.00  0.00     0.030 A 
BRANCH  27  31
ATOM     31  O   UNL     1      46.059 128.432  20.717  1.00  0.00    -0.501 OA
ATOM     32  H   UNL     1      47.013 128.750  20.636  1.00  0.00     0.293 HD
ENDBRANCH  27  31
BRANCH  29  33
ATOM     33  N   UNL     1      45.069 126.059  22.077  1.00  0.00    -0.396 N 
ATOM     34  H   UNL     1      45.224 125.263  22.735  1.00  0.00     0.156 HD
ATOM     35  H   UNL     1      44.968 125.819  21.067  1.00  0.00     0.156 HD
ENDBRANCH  29  33
ENDBRANCH   1  25
TORSDOF 5
ENDMDL


