MODEL 1
REMARK VINA RESULT:      -4.8      0.000      0.000
REMARK SMILES CC(C)(C)c1cccc(N/C(O)=N/C(=O)c2ccc(-c3cc(F)cc(F)c3O)cc2)c1
REMARK SMILES IDX 13 1 11 2 10 3 12 5 9 7 8 8 31 9 7 10 5 11 6 12 2 13 1 14
REMARK SMILES IDX 3 15 4 16 14 17 15 18 16 19 17 20 30 21 18 22 29 23 19 24
REMARK SMILES IDX 20 25 21 26 27 27 22 28 25 29 24 30 23 31 26 32 28 33
REMARK H PARENT 10 4 12 6 28 34
ROOT
ATOM      1  N   UNL     1      42.383 131.041  22.182  1.00  0.00    -0.156 NA
ENDROOT
BRANCH   1   2
ATOM      2  C   UNL     1      41.796 131.266  23.321  1.00  0.00     0.294 C 
ATOM      3  N   UNL     1      41.703 130.223  24.303  1.00  0.00    -0.310 N 
ATOM      4  H   UNL     1      41.576 130.506  25.300  1.00  0.00     0.171 HD
BRANCH   2   5
ATOM      5  O   UNL     1      41.299 132.533  23.622  1.00  0.00    -0.480 OA
ATOM      6  H   UNL     1      41.529 132.990  24.495  1.00  0.00     0.296 HD
ENDBRANCH   2   5
BRANCH   3   7
ATOM      7  C   UNL     1      41.839 128.822  24.005  1.00  0.00     0.043 A 
ATOM      8  C   UNL     1      40.693 128.025  23.917  1.00  0.00     0.026 A 
ATOM      9  C   UNL     1      43.097 128.250  23.744  1.00  0.00     0.030 A 
ATOM     10  C   UNL     1      40.803 126.668  23.616  1.00  0.00     0.002 A 
ATOM     11  C   UNL     1      43.234 126.876  23.445  1.00  0.00    -0.041 A 
ATOM     12  C   UNL     1      42.055 126.095  23.386  1.00  0.00     0.004 A 
BRANCH  11  13
ATOM     13  C   UNL     1      44.638 126.292  23.183  1.00  0.00    -0.013 C 
ATOM     14  C   UNL     1      45.187 125.671  24.486  1.00  0.00     0.016 C 
ATOM     15  C   UNL     1      44.549 125.202  22.093  1.00  0.00     0.016 C 
ATOM     16  C   UNL     1      45.655 127.354  22.701  1.00  0.00     0.016 C 
ENDBRANCH  11  13
ENDBRANCH   3   7
ENDBRANCH   1   2
BRANCH   1  17
ATOM     17  C   UNL     1      43.772 131.275  21.908  1.00  0.00     0.281 C 
ATOM     18  O   UNL     1      44.535 131.567  22.868  1.00  0.00    -0.267 OA
BRANCH  17  19
ATOM     19  C   UNL     1      44.342 131.120  20.549  1.00  0.00     0.042 A 
ATOM     20  C   UNL     1      45.635 130.599  20.381  1.00  0.00     0.014 A 
ATOM     21  C   UNL     1      43.584 131.445  19.411  1.00  0.00     0.014 A 
ATOM     22  C   UNL     1      46.173 130.435  19.100  1.00  0.00     0.010 A 
ATOM     23  C   UNL     1      44.121 131.280  18.131  1.00  0.00     0.010 A 
ATOM     24  C   UNL     1      45.425 130.783  17.964  1.00  0.00    -0.014 A 
BRANCH  24  25
ATOM     25  C   UNL     1      45.988 130.602  16.604  1.00  0.00     0.029 A 
ATOM     26  C   UNL     1      46.253 129.305  16.130  1.00  0.00     0.052 A 
ATOM     27  C   UNL     1      46.259 131.709  15.772  1.00  0.00     0.159 A 
ATOM     28  C   UNL     1      46.794 129.112  14.856  1.00  0.00     0.127 A 
ATOM     29  C   UNL     1      46.807 131.504  14.494  1.00  0.00     0.168 A 
ATOM     30  C   UNL     1      47.072 130.210  14.042  1.00  0.00     0.082 A 
ATOM     31  F   UNL     1      47.052 127.856  14.413  1.00  0.00    -0.207 F 
ATOM     32  F   UNL     1      47.076 132.559  13.684  1.00  0.00    -0.203 F 
BRANCH  27  33
ATOM     33  O   UNL     1      45.966 133.002  16.208  1.00  0.00    -0.504 OA
ATOM     34  H   UNL     1      46.292 133.823  15.713  1.00  0.00     0.293 HD
ENDBRANCH  27  33
ENDBRANCH  24  25
ENDBRANCH  17  19
ENDBRANCH   1  17
TORSDOF 8
ENDMDL
MODEL 2
REMARK VINA RESULT:      -3.4      1.546      2.288
REMARK SMILES CC(C)(C)c1cccc(N/C(O)=N/C(=O)c2ccc(-c3cc(F)cc(F)c3O)cc2)c1
REMARK SMILES IDX 13 1 11 2 10 3 12 5 9 7 8 8 31 9 7 10 5 11 6 12 2 13 1 14
REMARK SMILES IDX 3 15 4 16 14 17 15 18 16 19 17 20 30 21 18 22 29 23 19 24
REMARK SMILES IDX 20 25 21 26 27 27 22 28 25 29 24 30 23 31 26 32 28 33
REMARK H PARENT 10 4 12 6 28 34
ROOT
ATOM      1  N   UNL     1      42.709 131.376  20.616  1.00  0.00    -0.156 NA
ENDROOT
BRANCH   1   2
ATOM      2  C   UNL     1      43.453 132.059  21.436  1.00  0.00     0.294 C 
ATOM      3  N   UNL     1      43.992 131.435  22.611  1.00  0.00    -0.310 N 
ATOM      4  H   UNL     1      44.848 131.858  23.036  1.00  0.00     0.171 HD
BRANCH   2   5
ATOM      5  O   UNL     1      43.781 133.385  21.156  1.00  0.00    -0.480 OA
ATOM      6  H   UNL     1      43.495 133.821  20.288  1.00  0.00     0.296 HD
ENDBRANCH   2   5
BRANCH   3   7
ATOM      7  C   UNL     1      43.465 130.231  23.197  1.00  0.00     0.043 A 
ATOM      8  C   UNL     1      42.281 130.290  23.938  1.00  0.00     0.026 A 
ATOM      9  C   UNL     1      44.087 128.987  22.991  1.00  0.00     0.030 A 
ATOM     10  C   UNL     1      41.748 129.133  24.503  1.00  0.00     0.002 A 
ATOM     11  C   UNL     1      43.569 127.801  23.560  1.00  0.00    -0.041 A 
ATOM     12  C   UNL     1      42.382 127.902  24.323  1.00  0.00     0.004 A 
BRANCH  11  13
ATOM     13  C   UNL     1      44.297 126.462  23.319  1.00  0.00    -0.013 C 
ATOM     14  C   UNL     1      43.329 125.464  22.648  1.00  0.00     0.016 C 
ATOM     15  C   UNL     1      45.514 126.695  22.397  1.00  0.00     0.016 C 
ATOM     16  C   UNL     1      44.816 125.812  24.624  1.00  0.00     0.016 C 
ENDBRANCH  11  13
ENDBRANCH   3   7
ENDBRANCH   1   2
BRANCH   1  17
ATOM     17  C   UNL     1      42.480 131.704  19.238  1.00  0.00     0.281 C 
ATOM     18  O   UNL     1      41.404 132.282  18.927  1.00  0.00    -0.267 OA
BRANCH  17  19
ATOM     19  C   UNL     1      43.495 131.443  18.190  1.00  0.00     0.042 A 
ATOM     20  C   UNL     1      44.740 130.894  18.533  1.00  0.00     0.014 A 
ATOM     21  C   UNL     1      43.210 131.698  16.837  1.00  0.00     0.014 A 
ATOM     22  C   UNL     1      45.696 130.631  17.546  1.00  0.00     0.010 A 
ATOM     23  C   UNL     1      44.165 131.435  15.851  1.00  0.00     0.010 A 
ATOM     24  C   UNL     1      45.421 130.909  16.197  1.00  0.00    -0.014 A 
BRANCH  24  25
ATOM     25  C   UNL     1      46.428 130.623  15.147  1.00  0.00     0.029 A 
ATOM     26  C   UNL     1      46.878 129.304  14.957  1.00  0.00     0.052 A 
ATOM     27  C   UNL     1      46.941 131.651  14.328  1.00  0.00     0.159 A 
ATOM     28  C   UNL     1      47.834 129.014  13.981  1.00  0.00     0.127 A 
ATOM     29  C   UNL     1      47.906 131.349  13.351  1.00  0.00     0.168 A 
ATOM     30  C   UNL     1      48.349 130.035  13.182  1.00  0.00     0.082 A 
ATOM     31  F   UNL     1      48.266 127.740  13.813  1.00  0.00    -0.207 F 
ATOM     32  F   UNL     1      48.412 132.328  12.558  1.00  0.00    -0.203 F 
BRANCH  27  33
ATOM     33  O   UNL     1      46.478 132.959  14.472  1.00  0.00    -0.504 OA
ATOM     34  H   UNL     1      47.018 133.672  14.948  1.00  0.00     0.293 HD
ENDBRANCH  27  33
ENDBRANCH  24  25
ENDBRANCH  17  19
ENDBRANCH   1  17
TORSDOF 8
ENDMDL
MODEL 3
REMARK VINA RESULT:      -2.1      1.807      2.636
REMARK SMILES CC(C)(C)c1cccc(N/C(O)=N/C(=O)c2ccc(-c3cc(F)cc(F)c3O)cc2)c1
REMARK SMILES IDX 13 1 11 2 10 3 12 5 9 7 8 8 31 9 7 10 5 11 6 12 2 13 1 14
REMARK SMILES IDX 3 15 4 16 14 17 15 18 16 19 17 20 30 21 18 22 29 23 19 24
REMARK SMILES IDX 20 25 21 26 27 27 22 28 25 29 24 30 23 31 26 32 28 33
REMARK H PARENT 10 4 12 6 28 34
ROOT
ATOM      1  N   UNL     1      42.943 131.544  20.531  1.00  0.00    -0.156 NA
ENDROOT
BRANCH   1   2
ATOM      2  C   UNL     1      43.894 132.027  21.276  1.00  0.00     0.294 C 
ATOM      3  N   UNL     1      44.429 131.248  22.357  1.00  0.00    -0.310 N 
ATOM      4  H   UNL     1      45.393 131.477  22.689  1.00  0.00     0.171 HD
BRANCH   2   5
ATOM      5  O   UNL     1      44.440 133.279  21.000  1.00  0.00    -0.480 OA
ATOM      6  H   UNL     1      44.571 133.964  21.734  1.00  0.00     0.296 HD
ENDBRANCH   2   5
BRANCH   3   7
ATOM      7  C   UNL     1      43.746 130.137  22.965  1.00  0.00     0.043 A 
ATOM      8  C   UNL     1      42.502 130.342  23.568  1.00  0.00     0.026 A 
ATOM      9  C   UNL     1      44.280 128.837  22.913  1.00  0.00     0.030 A 
ATOM     10  C   UNL     1      41.818 129.276  24.150  1.00  0.00     0.002 A 
ATOM     11  C   UNL     1      43.609 127.741  23.503  1.00  0.00    -0.041 A 
ATOM     12  C   UNL     1      42.363 127.991  24.124  1.00  0.00     0.004 A 
BRANCH  11  13
ATOM     13  C   UNL     1      44.244 126.337  23.435  1.00  0.00    -0.013 C 
ATOM     14  C   UNL     1      45.691 126.400  23.970  1.00  0.00     0.016 C 
ATOM     15  C   UNL     1      43.420 125.356  24.297  1.00  0.00     0.016 C 
ATOM     16  C   UNL     1      44.298 125.765  21.998  1.00  0.00     0.016 C 
ENDBRANCH  11  13
ENDBRANCH   3   7
ENDBRANCH   1   2
BRANCH   1  17
ATOM     17  C   UNL     1      42.705 131.896  19.161  1.00  0.00     0.281 C 
ATOM     18  O   UNL     1      41.679 132.574  18.883  1.00  0.00    -0.267 OA
BRANCH  17  19
ATOM     19  C   UNL     1      43.659 131.546  18.082  1.00  0.00     0.042 A 
ATOM     20  C   UNL     1      43.189 131.246  16.794  1.00  0.00     0.014 A 
ATOM     21  C   UNL     1      45.044 131.554  18.319  1.00  0.00     0.014 A 
ATOM     22  C   UNL     1      44.084 130.930  15.768  1.00  0.00     0.010 A 
ATOM     23  C   UNL     1      45.940 131.239  17.293  1.00  0.00     0.010 A 
ATOM     24  C   UNL     1      45.468 130.914  16.010  1.00  0.00    -0.014 A 
BRANCH  24  25
ATOM     25  C   UNL     1      46.421 130.589  14.922  1.00  0.00     0.029 A 
ATOM     26  C   UNL     1      47.488 129.707  15.174  1.00  0.00     0.052 A 
ATOM     27  C   UNL     1      46.275 131.143  13.632  1.00  0.00     0.159 A 
ATOM     28  C   UNL     1      48.404 129.395  14.167  1.00  0.00     0.127 A 
ATOM     29  C   UNL     1      47.205 130.825  12.627  1.00  0.00     0.168 A 
ATOM     30  C   UNL     1      48.263 129.955  12.897  1.00  0.00     0.082 A 
ATOM     31  F   UNL     1      49.432 128.550  14.425  1.00  0.00    -0.207 F 
ATOM     32  F   UNL     1      47.080 131.353  11.383  1.00  0.00    -0.203 F 
BRANCH  27  33
ATOM     33  O   UNL     1      45.201 131.987  13.350  1.00  0.00    -0.504 OA
ATOM     34  H   UNL     1      45.055 132.383  12.429  1.00  0.00     0.293 HD
ENDBRANCH  27  33
ENDBRANCH  24  25
ENDBRANCH  17  19
ENDBRANCH   1  17
TORSDOF 8
ENDMDL
MODEL 4
REMARK VINA RESULT:      -2.1      1.890      2.745
REMARK SMILES CC(C)(C)c1cccc(N/C(O)=N/C(=O)c2ccc(-c3cc(F)cc(F)c3O)cc2)c1
REMARK SMILES IDX 13 1 11 2 10 3 12 5 9 7 8 8 31 9 7 10 5 11 6 12 2 13 1 14
REMARK SMILES IDX 3 15 4 16 14 17 15 18 16 19 17 20 30 21 18 22 29 23 19 24
REMARK SMILES IDX 20 25 21 26 27 27 22 28 25 29 24 30 23 31 26 32 28 33
REMARK H PARENT 10 4 12 6 28 34
ROOT
ATOM      1  N   UNL     1      44.402 129.665  22.655  1.00  0.00    -0.156 NA
ENDROOT
BRANCH   1   2
ATOM      2  C   UNL     1      44.652 129.455  23.914  1.00  0.00     0.294 C 
ATOM      3  N   UNL     1      44.080 128.320  24.583  1.00  0.00    -0.310 N 
ATOM      4  H   UNL     1      44.563 127.970  25.441  1.00  0.00     0.171 HD
BRANCH   2   5
ATOM      5  O   UNL     1      45.516 130.296  24.613  1.00  0.00    -0.480 OA
ATOM      6  H   UNL     1      45.529 130.307  25.625  1.00  0.00     0.296 HD
ENDBRANCH   2   5
BRANCH   3   7
ATOM      7  C   UNL     1      42.927 127.602  24.109  1.00  0.00     0.043 A 
ATOM      8  C   UNL     1      41.759 128.305  23.803  1.00  0.00     0.026 A 
ATOM      9  C   UNL     1      42.971 126.213  23.892  1.00  0.00     0.030 A 
ATOM     10  C   UNL     1      40.635 127.629  23.329  1.00  0.00     0.002 A 
ATOM     11  C   UNL     1      41.843 125.505  23.420  1.00  0.00    -0.041 A 
ATOM     12  C   UNL     1      40.670 126.246  23.143  1.00  0.00     0.004 A 
BRANCH  11  13
ATOM     13  C   UNL     1      41.936 123.978  23.216  1.00  0.00    -0.013 C 
ATOM     14  C   UNL     1      41.061 123.567  22.012  1.00  0.00     0.016 C 
ATOM     15  C   UNL     1      43.404 123.582  22.943  1.00  0.00     0.016 C 
ATOM     16  C   UNL     1      41.455 123.172  24.446  1.00  0.00     0.016 C 
ENDBRANCH  11  13
ENDBRANCH   3   7
ENDBRANCH   1   2
BRANCH   1  17
ATOM     17  C   UNL     1      44.508 130.932  21.991  1.00  0.00     0.281 C 
ATOM     18  O   UNL     1      44.506 131.981  22.690  1.00  0.00    -0.267 OA
BRANCH  17  19
ATOM     19  C   UNL     1      44.687 131.039  20.523  1.00  0.00     0.042 A 
ATOM     20  C   UNL     1      44.911 132.290  19.928  1.00  0.00     0.014 A 
ATOM     21  C   UNL     1      44.681 129.890  19.715  1.00  0.00     0.014 A 
ATOM     22  C   UNL     1      45.097 132.395  18.546  1.00  0.00     0.010 A 
ATOM     23  C   UNL     1      44.866 129.994  18.333  1.00  0.00     0.010 A 
ATOM     24  C   UNL     1      45.066 131.249  17.735  1.00  0.00    -0.014 A 
BRANCH  24  25
ATOM     25  C   UNL     1      45.271 131.356  16.270  1.00  0.00     0.029 A 
ATOM     26  C   UNL     1      46.578 131.377  15.751  1.00  0.00     0.052 A 
ATOM     27  C   UNL     1      44.176 131.431  15.382  1.00  0.00     0.159 A 
ATOM     28  C   UNL     1      46.794 131.488  14.376  1.00  0.00     0.127 A 
ATOM     29  C   UNL     1      44.404 131.546  14.000  1.00  0.00     0.168 A 
ATOM     30  C   UNL     1      45.709 131.574  13.503  1.00  0.00     0.082 A 
ATOM     31  F   UNL     1      48.059 131.515  13.889  1.00  0.00    -0.207 F 
ATOM     32  F   UNL     1      43.362 131.623  13.135  1.00  0.00    -0.203 F 
BRANCH  27  33
ATOM     33  O   UNL     1      42.871 131.370  15.872  1.00  0.00    -0.504 OA
ATOM     34  H   UNL     1      42.118 131.913  15.467  1.00  0.00     0.293 HD
ENDBRANCH  27  33
ENDBRANCH  24  25
ENDBRANCH  17  19
ENDBRANCH   1  17
TORSDOF 8
ENDMDL


