REMARK SMILES O/C(=C\C(F)(F)F)Nc1cc(F)c[n-]/c1=N\c1c[nH]c2[nH+]ccc-2c1
REMARK SMILES IDX 8 1 2 3 1 4 3 6 4 7 5 8 6 9 7 10 9 11 10 12 15 13 11 14
REMARK SMILES IDX 14 15 13 16 12 17 16 18 17 19 25 20 18 21 24 22 19 23 23 24
REMARK SMILES IDX 20 25 22 26 21 27
REMARK H PARENT 8 2 1 5 19 28 21 29
ROOT
ATOM      1  N   UNL     1      -2.085   1.573   1.865  1.00  0.00    -0.327 N 
ATOM      2  H   UNL     1      -2.595   1.972   2.686  1.00  0.00     0.170 HD
ENDROOT
BRANCH   1   3
ATOM      3  C   UNL     1      -1.387   2.473   0.988  1.00  0.00     0.193 C 
BRANCH   3   4
ATOM      4  O   UNL     1      -1.184   2.142  -0.354  1.00  0.00    -0.495 OA
ATOM      5  H   UNL     1      -1.569   1.300  -0.762  1.00  0.00     0.295 HD
ENDBRANCH   3   4
BRANCH   3   6
ATOM      6  C   UNL     1      -0.947   3.646   1.457  1.00  0.00     0.152 C 
BRANCH   6   7
ATOM      7  C   UNL     1      -0.214   4.632   0.597  1.00  0.00     0.414 C 
ATOM      8  F   UNL     1       0.123   5.743   1.349  1.00  0.00    -0.167 F 
ATOM      9  F   UNL     1      -1.019   5.031  -0.456  1.00  0.00    -0.167 F 
ATOM     10  F   UNL     1       0.943   4.058   0.101  1.00  0.00    -0.167 F 
ENDBRANCH   6   7
ENDBRANCH   3   6
ENDBRANCH   1   3
BRANCH   1  11
ATOM     11  C   UNL     1      -2.223   0.165   1.612  1.00  0.00     0.043 A 
ATOM     12  C   UNL     1      -3.470  -0.445   1.805  1.00  0.00     0.064 A 
ATOM     13  C   UNL     1      -1.126  -0.637   1.225  1.00  0.00    -0.034 A 
ATOM     14  C   UNL     1      -3.626  -1.812   1.578  1.00  0.00     0.121 A 
ATOM     15  N   UNL     1      -1.313  -1.972   1.022  1.00  0.00    -0.438 NA
ATOM     16  C   UNL     1      -2.525  -2.567   1.176  1.00  0.00     0.018 A 
ATOM     17  F   UNL     1      -4.835  -2.401   1.749  1.00  0.00    -0.207 F 
BRANCH  13  18
ATOM     18  N   UNL     1       0.061  -0.109   1.131  1.00  0.00    -0.431 NA
BRANCH  18  19
ATOM     19  C   UNL     1       1.272  -0.759   0.710  1.00  0.00    -0.001 A 
ATOM     20  C   UNL     1       1.278  -1.715  -0.336  1.00  0.00     0.024 A 
ATOM     21  C   UNL     1       2.497  -0.354   1.306  1.00  0.00     0.201 A 
ATOM     22  C   UNL     1       2.502  -2.255  -0.696  1.00  0.00     0.068 A 
ATOM     23  N   UNL     1       3.693  -0.901   0.928  1.00  0.00    -0.247 N 
ATOM     24  C   UNL     1       2.885  -3.167  -1.653  1.00  0.00     0.060 A 
ATOM     25  C   UNL     1       3.698  -1.839  -0.047  1.00  0.00     0.284 A 
ATOM     26  C   UNL     1       4.276  -3.268  -1.544  1.00  0.00     0.198 A 
ATOM     27  N   UNL     1       4.765  -2.459  -0.571  1.00  0.00    -0.247 N 
ATOM     28  H   UNL     1       4.584  -0.593   1.379  1.00  0.00     0.312 HD
ATOM     29  H   UNL     1       5.765  -2.337  -0.297  1.00  0.00     0.311 HD
ENDBRANCH  18  19
ENDBRANCH  13  18
ENDBRANCH   1  11
TORSDOF 7


