REMARK SMILES Nc1c(C(=O)NCc2ccc[nH]2)ccc2cc[nH]c12
REMARK SMILES IDX 4 1 5 2 6 3 3 5 2 6 19 7 13 8 18 9 15 10 14 11 17 12 16 13
REMARK SMILES IDX 1 15 7 18 8 19 9 20 12 21 10 22 11 23
REMARK H PARENT 6 4 18 14 1 16 1 17 12 24
ROOT
ATOM      1  C   UNL     1       0.361  -1.698  -0.958  1.00  0.00     0.253 C 
ATOM      2  O   UNL     1      -0.225  -2.456  -1.778  1.00  0.00    -0.269 OA
ATOM      3  N   UNL     1       1.278  -0.700  -1.433  1.00  0.00    -0.346 N 
ATOM      4  H   UNL     1       1.754  -0.071  -0.747  1.00  0.00     0.164 HD
ENDROOT
BRANCH   1   5
ATOM      5  C   UNL     1       0.123  -1.864   0.492  1.00  0.00     0.064 A 
ATOM      6  C   UNL     1      -1.187  -2.058   1.019  1.00  0.00     0.069 A 
ATOM      7  C   UNL     1      -1.303  -2.277   2.402  1.00  0.00     0.070 A 
ATOM      8  C   UNL     1       1.241  -1.872   1.366  1.00  0.00     0.017 A 
ATOM      9  N   UNL     1      -2.425  -2.476   3.121  1.00  0.00    -0.359 N 
ATOM     10  C   UNL     1      -0.207  -2.287   3.224  1.00  0.00     0.002 A 
ATOM     11  C   UNL     1       1.080  -2.084   2.743  1.00  0.00     0.011 A 
ATOM     12  C   UNL     1      -2.028  -2.619   4.405  1.00  0.00     0.083 A 
ATOM     13  C   UNL     1      -0.648  -2.507   4.510  1.00  0.00     0.028 A 
ATOM     14  H   UNL     1      -3.410  -2.513   2.780  1.00  0.00     0.166 HD
BRANCH   6  15
ATOM     15  N   UNL     1      -2.357  -1.980   0.190  1.00  0.00    -0.396 N 
ATOM     16  H   UNL     1      -3.298  -2.245   0.551  1.00  0.00     0.156 HD
ATOM     17  H   UNL     1      -2.318  -1.589  -0.776  1.00  0.00     0.156 HD
ENDBRANCH   6  15
ENDBRANCH   1   5
BRANCH   3  18
ATOM     18  C   UNL     1       1.534  -0.487  -2.855  1.00  0.00     0.170 C 
BRANCH  18  19
ATOM     19  C   UNL     1       0.346   0.155  -3.503  1.00  0.00     0.034 A 
ATOM     20  C   UNL     1      -0.049   1.467  -3.329  1.00  0.00     0.025 A 
ATOM     21  N   UNL     1      -0.531  -0.497  -4.290  1.00  0.00    -0.364 N 
ATOM     22  C   UNL     1      -1.214   1.617  -4.054  1.00  0.00     0.020 A 
ATOM     23  C   UNL     1      -1.481   0.391  -4.631  1.00  0.00     0.082 A 
ATOM     24  H   UNL     1      -0.491  -1.501  -4.574  1.00  0.00     0.166 HD
ENDBRANCH  18  19
ENDBRANCH   3  18
TORSDOF 4


