MODEL 1
REMARK VINA RESULT:      -8.6      0.000      0.000
REMARK SMILES C=Cc1ccc([C@H]2CCC[C@]3(Cl)C=CO[C@H]23)nc1
REMARK SMILES IDX 3 1 4 2 5 3 6 4 17 5 18 6 2 7 1 8 7 9 8 10 16 11 9 12 15 13
REMARK SMILES IDX 11 14 10 15 14 16 13 17 12 18
REMARK H PARENT
ROOT
ATOM      1  C   UNL     1      46.527 130.512  15.071  1.00  0.00    -0.008 A 
ATOM      2  C   UNL     1      46.043 131.824  15.189  1.00  0.00     0.011 A 
ATOM      3  C   UNL     1      45.435 132.249  16.371  1.00  0.00     0.025 A 
ATOM      4  C   UNL     1      45.309 131.356  17.443  1.00  0.00     0.047 A 
ATOM      5  N   UNL     1      45.809 130.095  17.322  1.00  0.00    -0.260 NA
ATOM      6  C   UNL     1      46.402 129.655  16.180  1.00  0.00     0.119 A 
ENDROOT
BRANCH   1   7
ATOM      7  C   UNL     1      47.172 130.101  13.799  1.00  0.00     0.002 C 
ATOM      8  C   UNL     1      47.733 130.945  12.934  1.00  0.00     0.009 C 
ENDBRANCH   1   7
BRANCH   4   9
ATOM      9  C   UNL     1      44.687 131.798  18.748  1.00  0.00     0.081 C 
ATOM     10  C   UNL     1      43.159 131.773  18.658  1.00  0.00     0.014 C 
ATOM     11  C   UNL     1      45.237 130.942  19.923  1.00  0.00     0.206 C 
ATOM     12  C   UNL     1      42.560 132.272  19.969  1.00  0.00     0.003 C 
ATOM     13  O   UNL     1      46.484 131.507  20.310  1.00  0.00    -0.495 OA
ATOM     14  C   UNL     1      44.409 131.021  21.242  1.00  0.00     0.103 C 
ATOM     15  C   UNL     1      42.896 131.298  21.094  1.00  0.00     0.031 C 
ATOM     16  C   UNL     1      46.338 132.249  21.470  1.00  0.00     0.185 C 
ATOM     17  C   UNL     1      45.142 132.080  22.000  1.00  0.00     0.038 C 
ATOM     18  Cl  UNL     1      44.608 129.494  22.160  1.00  0.00    -0.111 Cl
ENDBRANCH   4   9
TORSDOF 2
ENDMDL
MODEL 2
REMARK VINA RESULT:      -8.5      0.647      1.132
REMARK SMILES C=Cc1ccc([C@H]2CCC[C@]3(Cl)C=CO[C@H]23)nc1
REMARK SMILES IDX 3 1 4 2 5 3 6 4 17 5 18 6 2 7 1 8 7 9 8 10 16 11 9 12 15 13
REMARK SMILES IDX 11 14 10 15 14 16 13 17 12 18
REMARK H PARENT
ROOT
ATOM      1  C   UNL     1      46.564 130.618  15.039  1.00  0.00    -0.008 A 
ATOM      2  C   UNL     1      46.389 129.681  16.067  1.00  0.00     0.011 A 
ATOM      3  C   UNL     1      45.798 130.056  17.274  1.00  0.00     0.025 A 
ATOM      4  C   UNL     1      45.379 131.380  17.455  1.00  0.00     0.047 A 
ATOM      5  N   UNL     1      45.531 132.273  16.437  1.00  0.00    -0.260 NA
ATOM      6  C   UNL     1      46.106 131.932  15.254  1.00  0.00     0.119 A 
ENDROOT
BRANCH   1   7
ATOM      7  C   UNL     1      47.191 130.178  13.768  1.00  0.00     0.002 C 
ATOM      8  C   UNL     1      47.631 131.006  12.821  1.00  0.00     0.009 C 
ENDBRANCH   1   7
BRANCH   4   9
ATOM      9  C   UNL     1      44.705 131.809  18.739  1.00  0.00     0.081 C 
ATOM     10  C   UNL     1      43.181 131.732  18.605  1.00  0.00     0.014 C 
ATOM     11  C   UNL     1      45.249 130.981  19.936  1.00  0.00     0.206 C 
ATOM     12  C   UNL     1      42.529 132.221  19.894  1.00  0.00     0.003 C 
ATOM     13  O   UNL     1      46.464 131.591  20.353  1.00  0.00    -0.495 OA
ATOM     14  C   UNL     1      44.381 131.041  21.230  1.00  0.00     0.103 C 
ATOM     15  C   UNL     1      42.864 131.267  21.036  1.00  0.00     0.031 C 
ATOM     16  C   UNL     1      46.260 132.335  21.503  1.00  0.00     0.185 C 
ATOM     17  C   UNL     1      45.056 132.129  22.000  1.00  0.00     0.038 C 
ATOM     18  Cl  UNL     1      44.604 129.529  22.166  1.00  0.00    -0.111 Cl
ENDBRANCH   4   9
TORSDOF 2
ENDMDL
MODEL 3
REMARK VINA RESULT:      -6.3      2.563      3.854
REMARK SMILES C=Cc1ccc([C@H]2CCC[C@]3(Cl)C=CO[C@H]23)nc1
REMARK SMILES IDX 3 1 4 2 5 3 6 4 17 5 18 6 2 7 1 8 7 9 8 10 16 11 9 12 15 13
REMARK SMILES IDX 11 14 10 15 14 16 13 17 12 18
REMARK H PARENT
ROOT
ATOM      1  C   UNL     1      44.722 131.459  17.888  1.00  0.00    -0.008 A 
ATOM      2  C   UNL     1      45.757 130.832  18.596  1.00  0.00     0.011 A 
ATOM      3  C   UNL     1      45.670 130.668  19.979  1.00  0.00     0.025 A 
ATOM      4  C   UNL     1      44.538 131.134  20.659  1.00  0.00     0.047 A 
ATOM      5  N   UNL     1      43.528 131.716  19.953  1.00  0.00    -0.260 NA
ATOM      6  C   UNL     1      43.591 131.890  18.607  1.00  0.00     0.119 A 
ENDROOT
BRANCH   1   7
ATOM      7  C   UNL     1      44.850 131.608  16.417  1.00  0.00     0.002 C 
ATOM      8  C   UNL     1      46.004 131.810  15.780  1.00  0.00     0.009 C 
ENDBRANCH   1   7
BRANCH   4   9
ATOM      9  C   UNL     1      44.398 130.941  22.152  1.00  0.00     0.081 C 
ATOM     10  C   UNL     1      43.724 132.154  22.798  1.00  0.00     0.014 C 
ATOM     11  C   UNL     1      43.660 129.607  22.455  1.00  0.00     0.206 C 
ATOM     12  C   UNL     1      43.645 131.953  24.308  1.00  0.00     0.003 C 
ATOM     13  O   UNL     1      44.628 128.566  22.395  1.00  0.00    -0.495 OA
ATOM     14  C   UNL     1      43.110 129.471  23.908  1.00  0.00     0.103 C 
ATOM     15  C   UNL     1      42.719 130.783  24.625  1.00  0.00     0.031 C 
ATOM     16  C   UNL     1      44.989 128.169  23.672  1.00  0.00     0.185 C 
ATOM     17  C   UNL     1      44.213 128.723  24.584  1.00  0.00     0.038 C 
ATOM     18  Cl  UNL     1      41.679 128.391  23.903  1.00  0.00    -0.111 Cl
ENDBRANCH   4   9
TORSDOF 2
ENDMDL
MODEL 4
REMARK VINA RESULT:      -6.1      2.481      3.716
REMARK SMILES C=Cc1ccc([C@H]2CCC[C@]3(Cl)C=CO[C@H]23)nc1
REMARK SMILES IDX 3 1 4 2 5 3 6 4 17 5 18 6 2 7 1 8 7 9 8 10 16 11 9 12 15 13
REMARK SMILES IDX 11 14 10 15 14 16 13 17 12 18
REMARK H PARENT
ROOT
ATOM      1  C   UNL     1      44.707 131.346  17.808  1.00  0.00    -0.008 A 
ATOM      2  C   UNL     1      43.583 131.868  18.465  1.00  0.00     0.011 A 
ATOM      3  C   UNL     1      43.446 131.736  19.847  1.00  0.00     0.025 A 
ATOM      4  C   UNL     1      44.441 131.077  20.579  1.00  0.00     0.047 A 
ATOM      5  N   UNL     1      45.540 130.600  19.931  1.00  0.00    -0.260 NA
ATOM      6  C   UNL     1      45.695 130.713  18.586  1.00  0.00     0.119 A 
ENDROOT
BRANCH   1   7
ATOM      7  C   UNL     1      44.818 131.513  16.338  1.00  0.00     0.002 C 
ATOM      8  C   UNL     1      45.971 131.527  15.669  1.00  0.00     0.009 C 
ENDBRANCH   1   7
BRANCH   4   9
ATOM      9  C   UNL     1      44.338 130.948  22.082  1.00  0.00     0.081 C 
ATOM     10  C   UNL     1      43.702 132.200  22.693  1.00  0.00     0.014 C 
ATOM     11  C   UNL     1      43.585 129.642  22.460  1.00  0.00     0.206 C 
ATOM     12  C   UNL     1      43.660 132.063  24.212  1.00  0.00     0.003 C 
ATOM     13  O   UNL     1      44.533 128.581  22.419  1.00  0.00    -0.495 OA
ATOM     14  C   UNL     1      43.072 129.577  23.931  1.00  0.00     0.103 C 
ATOM     15  C   UNL     1      42.723 130.925  24.602  1.00  0.00     0.031 C 
ATOM     16  C   UNL     1      44.921 128.232  23.702  1.00  0.00     0.185 C 
ATOM     17  C   UNL     1      44.179 128.838  24.609  1.00  0.00     0.038 C 
ATOM     18  Cl  UNL     1      41.623 128.525  24.008  1.00  0.00    -0.111 Cl
ENDBRANCH   4   9
TORSDOF 2
ENDMDL
MODEL 5
REMARK VINA RESULT:      -5.9      1.246      1.635
REMARK SMILES C=Cc1ccc([C@H]2CCC[C@]3(Cl)C=CO[C@H]23)nc1
REMARK SMILES IDX 3 1 4 2 5 3 6 4 17 5 18 6 2 7 1 8 7 9 8 10 16 11 9 12 15 13
REMARK SMILES IDX 11 14 10 15 14 16 13 17 12 18
REMARK H PARENT
ROOT
ATOM      1  C   UNL     1      45.554 130.389  15.880  1.00  0.00    -0.008 A 
ATOM      2  C   UNL     1      46.170 130.084  17.103  1.00  0.00     0.011 A 
ATOM      3  C   UNL     1      45.667 130.604  18.296  1.00  0.00     0.025 A 
ATOM      4  C   UNL     1      44.540 131.434  18.267  1.00  0.00     0.047 A 
ATOM      5  N   UNL     1      43.937 131.698  17.075  1.00  0.00    -0.260 NA
ATOM      6  C   UNL     1      44.409 131.207  15.898  1.00  0.00     0.119 A 
ENDROOT
BRANCH   1   7
ATOM      7  C   UNL     1      46.116 129.811  14.633  1.00  0.00     0.002 C 
ATOM      8  C   UNL     1      46.538 130.533  13.595  1.00  0.00     0.009 C 
ENDBRANCH   1   7
BRANCH   4   9
ATOM      9  C   UNL     1      43.951 131.984  19.547  1.00  0.00     0.081 C 
ATOM     10  C   UNL     1      42.453 132.254  19.384  1.00  0.00     0.014 C 
ATOM     11  C   UNL     1      44.269 131.036  20.736  1.00  0.00     0.206 C 
ATOM     12  C   UNL     1      41.899 132.856  20.672  1.00  0.00     0.003 C 
ATOM     13  O   UNL     1      45.581 131.351  21.188  1.00  0.00    -0.495 OA
ATOM     14  C   UNL     1      43.409 131.270  22.016  1.00  0.00     0.103 C 
ATOM     15  C   UNL     1      41.986 131.834  21.800  1.00  0.00     0.031 C 
ATOM     16  C   UNL     1      45.525 132.104  22.349  1.00  0.00     0.185 C 
ATOM     17  C   UNL     1      44.294 132.167  22.820  1.00  0.00     0.038 C 
ATOM     18  Cl  UNL     1      43.267 129.732  22.925  1.00  0.00    -0.111 Cl
ENDBRANCH   4   9
TORSDOF 2
ENDMDL
MODEL 6
REMARK VINA RESULT:      -5.6      2.671      6.184
REMARK SMILES C=Cc1ccc([C@H]2CCC[C@]3(Cl)C=CO[C@H]23)nc1
REMARK SMILES IDX 3 1 4 2 5 3 6 4 17 5 18 6 2 7 1 8 7 9 8 10 16 11 9 12 15 13
REMARK SMILES IDX 11 14 10 15 14 16 13 17 12 18
REMARK H PARENT
ROOT
ATOM      1  C   UNL     1      44.579 131.631  21.018  1.00  0.00    -0.008 A 
ATOM      2  C   UNL     1      43.501 132.076  20.239  1.00  0.00     0.011 A 
ATOM      3  C   UNL     1      43.474 131.835  18.865  1.00  0.00     0.025 A 
ATOM      4  C   UNL     1      44.534 131.144  18.265  1.00  0.00     0.047 A 
ATOM      5  N   UNL     1      45.561 130.695  19.039  1.00  0.00    -0.260 NA
ATOM      6  C   UNL     1      45.611 130.920  20.378  1.00  0.00     0.119 A 
ENDROOT
BRANCH   1   7
ATOM      7  C   UNL     1      44.567 131.902  22.478  1.00  0.00     0.002 C 
ATOM      8  C   UNL     1      43.577 131.552  23.298  1.00  0.00     0.009 C 
ENDBRANCH   1   7
BRANCH   4   9
ATOM      9  C   UNL     1      44.517 130.838  16.784  1.00  0.00     0.081 C 
ATOM     10  C   UNL     1      43.493 131.715  16.059  1.00  0.00     0.014 C 
ATOM     11  C   UNL     1      45.948 130.964  16.192  1.00  0.00     0.206 C 
ATOM     12  C   UNL     1      43.461 131.347  14.579  1.00  0.00     0.003 C 
ATOM     13  O   UNL     1      46.623 129.739  16.453  1.00  0.00    -0.495 OA
ATOM     14  C   UNL     1      46.014 131.059  14.637  1.00  0.00     0.103 C 
ATOM     15  C   UNL     1      44.796 131.697  13.931  1.00  0.00     0.031 C 
ATOM     16  C   UNL     1      46.672 128.962  15.308  1.00  0.00     0.185 C 
ATOM     17  C   UNL     1      46.252 129.635  14.254  1.00  0.00     0.038 C 
ATOM     18  Cl  UNL     1      47.479 131.976  14.160  1.00  0.00    -0.111 Cl
ENDBRANCH   4   9
TORSDOF 2
ENDMDL


