REMARK SMILES [NH3+]/C=C(\O)c1ccc(-c2c[nH+]c3ccnn3c2)c2c[n-]nc12
REMARK SMILES IDX 3 1 4 2 2 4 1 5 5 9 6 10 22 11 7 12 21 13 18 14 8 15 20 16
REMARK SMILES IDX 19 17 9 18 17 19 10 20 16 21 11 22 15 23 12 24 14 25 13 26
REMARK H PARENT 4 3 1 6 1 7 1 8 11 27
ROOT
ATOM      1  C   UNL     1       2.788  -1.835   3.611  1.00  0.00     0.178 C 
ENDROOT
BRANCH   1   2
ATOM      2  O   UNL     1       3.870  -1.107   4.116  1.00  0.00    -0.503 OA
ATOM      3  H   UNL     1       4.425  -1.407   4.908  1.00  0.00     0.293 HD
ENDBRANCH   1   2
BRANCH   1   4
ATOM      4  C   UNL     1       2.412  -3.000   4.173  1.00  0.00     0.265 C 
BRANCH   4   5
ATOM      5  N   UNL     1       3.103  -3.566   5.294  1.00  0.00    -0.328 N 
ATOM      6  H   UNL     1       3.055  -2.911   6.107  1.00  0.00     0.350 HD
ATOM      7  H   UNL     1       4.096  -3.763   5.034  1.00  0.00     0.350 HD
ATOM      8  H   UNL     1       2.641  -4.466   5.560  1.00  0.00     0.350 HD
ENDBRANCH   4   5
ENDBRANCH   1   4
BRANCH   1   9
ATOM      9  C   UNL     1       2.056  -1.277   2.444  1.00  0.00     0.046 A 
ATOM     10  C   UNL     1       1.478  -2.105   1.451  1.00  0.00     0.015 A 
ATOM     11  C   UNL     1       1.946   0.107   2.254  1.00  0.00     0.059 A 
ATOM     12  C   UNL     1       0.809  -1.547   0.341  1.00  0.00     0.010 A 
ATOM     13  N   UNL     1       2.434   1.088   3.034  1.00  0.00    -0.367 NA
ATOM     14  C   UNL     1       1.291   0.645   1.179  1.00  0.00    -0.014 A 
ATOM     15  C   UNL     1       0.696  -0.148   0.190  1.00  0.00    -0.003 A 
ATOM     16  N   UNL     1       2.112   2.247   2.467  1.00  0.00    -0.581 NA
ATOM     17  C   UNL     1       1.419   2.009   1.331  1.00  0.00    -0.113 A 
BRANCH  15  18
ATOM     18  C   UNL     1      -0.019   0.434  -0.969  1.00  0.00     0.063 A 
ATOM     19  C   UNL     1       0.224  -0.039  -2.273  1.00  0.00     0.245 A 
ATOM     20  C   UNL     1      -0.985   1.456  -0.797  1.00  0.00     0.210 A 
ATOM     21  N   UNL     1      -0.468   0.522  -3.293  1.00  0.00    -0.104 N 
ATOM     22  N   UNL     1      -1.646   1.977  -1.873  1.00  0.00    -0.245 N 
ATOM     23  N   UNL     1      -0.378   0.224  -4.577  1.00  0.00    -0.086 NA
ATOM     24  C   UNL     1      -1.366   1.492  -3.108  1.00  0.00     0.306 A 
ATOM     25  C   UNL     1      -1.252   1.035  -5.222  1.00  0.00     0.167 A 
ATOM     26  C   UNL     1      -1.907   1.864  -4.315  1.00  0.00     0.125 A 
ATOM     27  H   UNL     1      -2.357   2.730  -1.742  1.00  0.00     0.312 HD
ENDBRANCH  15  18
ENDBRANCH   1   9
TORSDOF 5


