REMARK SMILES C=Cc1ccc(-c2cc(C=O)c(N)c3ccoc23)[nH+]c1
REMARK SMILES IDX 7 1 8 2 9 3 12 4 14 5 15 6 16 7 17 8 18 9 6 10 3 11 4 12
REMARK SMILES IDX 20 13 5 14 19 15 2 17 1 18 10 19 11 20 13 21
REMARK H PARENT 19 16 13 22 13 23
ROOT
ATOM      1  C   UNL     1      -0.571  -0.636  -1.106  1.00  0.00     0.090 A 
ATOM      2  C   UNL     1       0.274  -0.693  -2.235  1.00  0.00     0.032 A 
ATOM      3  C   UNL     1      -0.069  -1.458  -3.378  1.00  0.00     0.039 A 
ATOM      4  C   UNL     1      -1.276  -2.217  -3.381  1.00  0.00     0.053 A 
ATOM      5  C   UNL     1      -2.099  -2.121  -2.252  1.00  0.00     0.045 A 
ATOM      6  C   UNL     1      -3.316  -2.704  -1.963  1.00  0.00     0.053 A 
ATOM      7  C   UNL     1      -3.643  -2.239  -0.697  1.00  0.00     0.196 A 
ATOM      8  O   UNL     1      -2.697  -1.440  -0.245  1.00  0.00    -0.463 OA
ATOM      9  C   UNL     1      -1.761  -1.364  -1.161  1.00  0.00     0.149 A 
ENDROOT
BRANCH   1  10
ATOM     10  C   UNL     1      -0.211   0.171   0.086  1.00  0.00     0.214 A 
ATOM     11  C   UNL     1       0.459   1.677   2.347  1.00  0.00     0.038 A 
ATOM     12  C   UNL     1       0.659   2.207   1.061  1.00  0.00     0.021 A 
ATOM     13  C   UNL     1      -0.092   0.391   2.455  1.00  0.00     0.314 A 
ATOM     14  C   UNL     1       0.330   1.456  -0.067  1.00  0.00     0.081 A 
ATOM     15  N   UNL     1      -0.407  -0.326   1.342  1.00  0.00    -0.210 N 
ATOM     16  H   UNL     1      -0.786  -1.291   1.471  1.00  0.00     0.453 HD
BRANCH  11  17
ATOM     17  C   UNL     1       0.779   2.424   3.589  1.00  0.00     0.006 C 
ATOM     18  C   UNL     1       1.555   3.507   3.635  1.00  0.00     0.009 C 
ENDBRANCH  11  17
ENDBRANCH   1  10
BRANCH   3  19
ATOM     19  C   UNL     1       0.846  -1.391  -4.539  1.00  0.00     0.262 C 
ATOM     20  O   UNL     1       0.444  -1.602  -5.713  1.00  0.00    -0.298 OA
ENDBRANCH   3  19
BRANCH   4  21
ATOM     21  N   UNL     1      -1.630  -3.098  -4.457  1.00  0.00    -0.398 N 
ATOM     22  H   UNL     1      -2.591  -3.500  -4.527  1.00  0.00     0.156 HD
ATOM     23  H   UNL     1      -0.916  -3.475  -5.116  1.00  0.00     0.156 HD
ENDBRANCH   4  21
TORSDOF 4


