MODEL 1
REMARK VINA RESULT:      -9.7      0.000      0.000
REMARK SMILES [O-]C(N[C@H]1Cc2ccccc2[C@@H]1O)=C1CCCC1
REMARK SMILES IDX 4 1 5 2 6 3 7 4 8 5 9 6 10 7 11 8 12 9 3 10 2 12 1 13 14 14
REMARK SMILES IDX 15 15 18 16 16 17 17 18 13 19
REMARK H PARENT 3 11 13 20
ROOT
ATOM      1  C   UNL     1      44.748 130.916  16.047  1.00  0.00     0.115 C 
ATOM      2  C   UNL     1      45.113 131.746  14.793  1.00  0.00     0.063 C 
ATOM      3  C   UNL     1      46.276 131.030  14.220  1.00  0.00    -0.040 A 
ATOM      4  C   UNL     1      47.001 131.399  13.083  1.00  0.00     0.004 A 
ATOM      5  C   UNL     1      48.088 130.605  12.688  1.00  0.00     0.000 A 
ATOM      6  C   UNL     1      48.434 129.461  13.430  1.00  0.00     0.000 A 
ATOM      7  C   UNL     1      47.694 129.109  14.568  1.00  0.00     0.007 A 
ATOM      8  C   UNL     1      46.611 129.910  14.943  1.00  0.00    -0.014 A 
ATOM      9  C   UNL     1      45.723 129.707  16.114  1.00  0.00     0.167 C 
ENDROOT
BRANCH   1  10
ATOM     10  N   UNL     1      44.805 131.726  17.272  1.00  0.00    -0.391 N 
ATOM     11  H   UNL     1      45.652 132.325  17.393  1.00  0.00     0.159 HD
BRANCH  10  12
ATOM     12  C   UNL     1      43.769 131.735  18.276  1.00  0.00    -0.046 C 
ATOM     13  O   UNL     1      42.460 132.040  17.913  1.00  0.00    -0.860 OA
BRANCH  12  14
ATOM     14  C   UNL     1      44.038 131.456  19.564  1.00  0.00    -0.062 C 
ATOM     15  C   UNL     1      45.341 130.895  20.017  1.00  0.00     0.032 C 
ATOM     16  C   UNL     1      43.091 131.663  20.696  1.00  0.00     0.032 C 
ATOM     17  C   UNL     1      45.124 130.552  21.485  1.00  0.00     0.005 C 
ATOM     18  C   UNL     1      43.910 131.357  21.945  1.00  0.00     0.005 C 
ENDBRANCH  12  14
ENDBRANCH  10  12
ENDBRANCH   1  10
BRANCH   9  19
ATOM     19  O   UNL     1      45.031 128.495  15.971  1.00  0.00    -0.386 OA
ATOM     20  H   UNL     1      44.756 128.223  16.886  1.00  0.00     0.211 HD
ENDBRANCH   9  19
TORSDOF 4
ENDMDL
MODEL 2
REMARK VINA RESULT:      -9.5      1.212      1.563
REMARK SMILES [O-]C(N[C@H]1Cc2ccccc2[C@@H]1O)=C1CCCC1
REMARK SMILES IDX 4 1 5 2 6 3 7 4 8 5 9 6 10 7 11 8 12 9 3 10 2 12 1 13 14 14
REMARK SMILES IDX 15 15 18 16 16 17 17 18 13 19
REMARK H PARENT 3 11 13 20
ROOT
ATOM      1  C   UNL     1      45.114 131.071  16.399  1.00  0.00     0.115 C 
ATOM      2  C   UNL     1      45.461 131.962  15.182  1.00  0.00     0.063 C 
ATOM      3  C   UNL     1      46.492 131.185  14.457  1.00  0.00    -0.040 A 
ATOM      4  C   UNL     1      47.158 131.573  13.291  1.00  0.00     0.004 A 
ATOM      5  C   UNL     1      48.120 130.711  12.743  1.00  0.00     0.000 A 
ATOM      6  C   UNL     1      48.403 129.482  13.364  1.00  0.00     0.000 A 
ATOM      7  C   UNL     1      47.724 129.111  14.535  1.00  0.00     0.007 A 
ATOM      8  C   UNL     1      46.765 129.982  15.063  1.00  0.00    -0.014 A 
ATOM      9  C   UNL     1      45.958 129.771  16.289  1.00  0.00     0.167 C 
ENDROOT
BRANCH   1  10
ATOM     10  N   UNL     1      45.353 131.768  17.671  1.00  0.00    -0.391 N 
ATOM     11  H   UNL     1      45.747 132.733  17.603  1.00  0.00     0.159 HD
BRANCH  10  12
ATOM     12  C   UNL     1      45.068 131.197  18.964  1.00  0.00    -0.046 C 
ATOM     13  O   UNL     1      45.876 130.177  19.460  1.00  0.00    -0.860 OA
BRANCH  12  14
ATOM     14  C   UNL     1      44.034 131.627  19.709  1.00  0.00    -0.062 C 
ATOM     15  C   UNL     1      44.034 131.586  21.197  1.00  0.00     0.032 C 
ATOM     16  C   UNL     1      42.767 132.190  19.162  1.00  0.00     0.032 C 
ATOM     17  C   UNL     1      42.614 131.965  21.593  1.00  0.00     0.005 C 
ATOM     18  C   UNL     1      41.999 132.672  20.387  1.00  0.00     0.005 C 
ENDBRANCH  12  14
ENDBRANCH  10  12
ENDBRANCH   1  10
BRANCH   9  19
ATOM     19  O   UNL     1      45.134 128.649  16.120  1.00  0.00    -0.386 OA
ATOM     20  H   UNL     1      44.403 128.738  16.785  1.00  0.00     0.211 HD
ENDBRANCH   9  19
TORSDOF 4
ENDMDL
MODEL 3
REMARK VINA RESULT:      -9.4      1.134      1.502
REMARK SMILES [O-]C(N[C@H]1Cc2ccccc2[C@@H]1O)=C1CCCC1
REMARK SMILES IDX 4 1 5 2 6 3 7 4 8 5 9 6 10 7 11 8 12 9 3 10 2 12 1 13 14 14
REMARK SMILES IDX 15 15 18 16 16 17 17 18 13 19
REMARK H PARENT 3 11 13 20
ROOT
ATOM      1  C   UNL     1      44.185 130.363  15.342  1.00  0.00     0.115 C 
ATOM      2  C   UNL     1      44.644 131.266  14.172  1.00  0.00     0.063 C 
ATOM      3  C   UNL     1      46.011 130.785  13.868  1.00  0.00    -0.040 A 
ATOM      4  C   UNL     1      46.876 131.299  12.898  1.00  0.00     0.004 A 
ATOM      5  C   UNL     1      48.148 130.723  12.754  1.00  0.00     0.000 A 
ATOM      6  C   UNL     1      48.536 129.651  13.577  1.00  0.00     0.000 A 
ATOM      7  C   UNL     1      47.652 129.151  14.545  1.00  0.00     0.007 A 
ATOM      8  C   UNL     1      46.388 129.734  14.670  1.00  0.00    -0.014 A 
ATOM      9  C   UNL     1      45.329 129.353  15.636  1.00  0.00     0.167 C 
ENDROOT
BRANCH   1  10
ATOM     10  N   UNL     1      43.837 131.150  16.533  1.00  0.00    -0.391 N 
ATOM     11  H   UNL     1      42.818 131.279  16.722  1.00  0.00     0.159 HD
BRANCH  10  12
ATOM     12  C   UNL     1      44.811 131.724  17.429  1.00  0.00    -0.046 C 
ATOM     13  O   UNL     1      45.774 132.598  16.931  1.00  0.00    -0.860 OA
BRANCH  12  14
ATOM     14  C   UNL     1      44.815 131.432  18.742  1.00  0.00    -0.062 C 
ATOM     15  C   UNL     1      43.759 131.905  19.680  1.00  0.00     0.032 C 
ATOM     16  C   UNL     1      45.854 130.615  19.430  1.00  0.00     0.032 C 
ATOM     17  C   UNL     1      44.273 131.523  21.062  1.00  0.00     0.005 C 
ATOM     18  C   UNL     1      45.329 130.440  20.850  1.00  0.00     0.005 C 
ENDBRANCH  12  14
ENDBRANCH  10  12
ENDBRANCH   1  10
BRANCH   9  19
ATOM     19  O   UNL     1      44.915 128.037  15.381  1.00  0.00    -0.386 OA
ATOM     20  H   UNL     1      45.682 127.584  14.942  1.00  0.00     0.211 HD
ENDBRANCH   9  19
TORSDOF 4
ENDMDL
MODEL 4
REMARK VINA RESULT:      -9.4      1.104      1.512
REMARK SMILES [O-]C(N[C@H]1Cc2ccccc2[C@@H]1O)=C1CCCC1
REMARK SMILES IDX 4 1 5 2 6 3 7 4 8 5 9 6 10 7 11 8 12 9 3 10 2 12 1 13 14 14
REMARK SMILES IDX 15 15 18 16 16 17 17 18 13 19
REMARK H PARENT 3 11 13 20
ROOT
ATOM      1  C   UNL     1      44.360 130.664  15.535  1.00  0.00     0.115 C 
ATOM      2  C   UNL     1      44.814 131.494  14.310  1.00  0.00     0.063 C 
ATOM      3  C   UNL     1      46.111 130.886  13.931  1.00  0.00    -0.040 A 
ATOM      4  C   UNL     1      46.949 131.298  12.891  1.00  0.00     0.004 A 
ATOM      5  C   UNL     1      48.153 130.609  12.681  1.00  0.00     0.000 A 
ATOM      6  C   UNL     1      48.502 129.526  13.509  1.00  0.00     0.000 A 
ATOM      7  C   UNL     1      47.646 129.130  14.548  1.00  0.00     0.007 A 
ATOM      8  C   UNL     1      46.449 129.826  14.738  1.00  0.00    -0.014 A 
ATOM      9  C   UNL     1      45.429 129.564  15.783  1.00  0.00     0.167 C 
ENDROOT
BRANCH   1  10
ATOM     10  N   UNL     1      44.163 131.507  16.722  1.00  0.00    -0.391 N 
ATOM     11  H   UNL     1      43.527 132.328  16.607  1.00  0.00     0.159 HD
BRANCH  10  12
ATOM     12  C   UNL     1      44.783 131.252  17.999  1.00  0.00    -0.046 C 
ATOM     13  O   UNL     1      46.080 130.746  18.046  1.00  0.00    -0.860 OA
BRANCH  12  14
ATOM     14  C   UNL     1      44.136 131.491  19.154  1.00  0.00    -0.062 C 
ATOM     15  C   UNL     1      42.722 131.953  19.209  1.00  0.00     0.032 C 
ATOM     16  C   UNL     1      44.730 131.332  20.511  1.00  0.00     0.032 C 
ATOM     17  C   UNL     1      42.483 132.287  20.675  1.00  0.00     0.005 C 
ATOM     18  C   UNL     1      43.567 131.560  21.469  1.00  0.00     0.005 C 
ENDBRANCH  12  14
ENDBRANCH  10  12
ENDBRANCH   1  10
BRANCH   9  19
ATOM     19  O   UNL     1      44.886 128.284  15.596  1.00  0.00    -0.386 OA
ATOM     20  H   UNL     1      43.904 128.407  15.520  1.00  0.00     0.211 HD
ENDBRANCH   9  19
TORSDOF 4
ENDMDL
MODEL 5
REMARK VINA RESULT:      -9.0      1.594      6.575
REMARK SMILES [O-]C(N[C@H]1Cc2ccccc2[C@@H]1O)=C1CCCC1
REMARK SMILES IDX 4 1 5 2 6 3 7 4 8 5 9 6 10 7 11 8 12 9 3 10 2 12 1 13 14 14
REMARK SMILES IDX 15 15 18 16 16 17 17 18 13 19
REMARK H PARENT 3 11 13 20
ROOT
ATOM      1  C   UNL     1      45.878 130.850  18.016  1.00  0.00     0.115 C 
ATOM      2  C   UNL     1      44.604 131.654  17.660  1.00  0.00     0.063 C 
ATOM      3  C   UNL     1      43.882 131.765  18.948  1.00  0.00    -0.040 A 
ATOM      4  C   UNL     1      42.646 132.383  19.157  1.00  0.00     0.004 A 
ATOM      5  C   UNL     1      42.102 132.385  20.450  1.00  0.00     0.000 A 
ATOM      6  C   UNL     1      42.794 131.772  21.509  1.00  0.00     0.000 A 
ATOM      7  C   UNL     1      44.034 131.156  21.278  1.00  0.00     0.007 A 
ATOM      8  C   UNL     1      44.562 131.169  19.983  1.00  0.00    -0.014 A 
ATOM      9  C   UNL     1      45.843 130.565  19.544  1.00  0.00     0.167 C 
ENDROOT
BRANCH   1  10
ATOM     10  N   UNL     1      45.977 129.610  17.235  1.00  0.00    -0.391 N 
ATOM     11  H   UNL     1      46.288 128.759  17.755  1.00  0.00     0.159 HD
BRANCH  10  12
ATOM     12  C   UNL     1      45.664 129.519  15.830  1.00  0.00    -0.046 C 
ATOM     13  O   UNL     1      44.433 129.005  15.430  1.00  0.00    -0.860 OA
BRANCH  12  14
ATOM     14  C   UNL     1      46.537 129.921  14.889  1.00  0.00    -0.062 C 
ATOM     15  C   UNL     1      46.562 131.307  14.346  1.00  0.00     0.032 C 
ATOM     16  C   UNL     1      47.579 129.055  14.269  1.00  0.00     0.032 C 
ATOM     17  C   UNL     1      47.546 131.248  13.185  1.00  0.00     0.005 C 
ATOM     18  C   UNL     1      48.401 130.001  13.402  1.00  0.00     0.005 C 
ENDBRANCH  12  14
ENDBRANCH  10  12
ENDBRANCH   1  10
BRANCH   9  19
ATOM     19  O   UNL     1      46.909 131.202  20.198  1.00  0.00    -0.386 OA
ATOM     20  H   UNL     1      47.603 130.506  20.340  1.00  0.00     0.211 HD
ENDBRANCH   9  19
TORSDOF 4
ENDMDL
MODEL 6
REMARK VINA RESULT:      -8.7      1.675      6.777
REMARK SMILES [O-]C(N[C@H]1Cc2ccccc2[C@@H]1O)=C1CCCC1
REMARK SMILES IDX 4 1 5 2 6 3 7 4 8 5 9 6 10 7 11 8 12 9 3 10 2 12 1 13 14 14
REMARK SMILES IDX 15 15 18 16 16 17 17 18 13 19
REMARK H PARENT 3 11 13 20
ROOT
ATOM      1  C   UNL     1      45.469 131.293  18.535  1.00  0.00     0.115 C 
ATOM      2  C   UNL     1      44.144 132.068  18.735  1.00  0.00     0.063 C 
ATOM      3  C   UNL     1      43.757 131.757  20.130  1.00  0.00    -0.040 A 
ATOM      4  C   UNL     1      42.608 132.197  20.792  1.00  0.00     0.004 A 
ATOM      5  C   UNL     1      42.395 131.793  22.118  1.00  0.00     0.000 A 
ATOM      6  C   UNL     1      43.327 130.958  22.761  1.00  0.00     0.000 A 
ATOM      7  C   UNL     1      44.475 130.527  22.078  1.00  0.00     0.007 A 
ATOM      8  C   UNL     1      44.671 130.944  20.758  1.00  0.00    -0.014 A 
ATOM      9  C   UNL     1      45.809 130.586  19.877  1.00  0.00     0.167 C 
ENDROOT
BRANCH   1  10
ATOM     10  N   UNL     1      45.379 130.336  17.425  1.00  0.00    -0.391 N 
ATOM     11  H   UNL     1      45.459 129.325  17.677  1.00  0.00     0.159 HD
BRANCH  10  12
ATOM     12  C   UNL     1      45.180 130.719  16.048  1.00  0.00    -0.046 C 
ATOM     13  O   UNL     1      43.970 131.288  15.660  1.00  0.00    -0.860 OA
BRANCH  12  14
ATOM     14  C   UNL     1      46.140 130.538  15.124  1.00  0.00    -0.062 C 
ATOM     15  C   UNL     1      46.689 131.649  14.298  1.00  0.00     0.032 C 
ATOM     16  C   UNL     1      46.775 129.230  14.801  1.00  0.00     0.032 C 
ATOM     17  C   UNL     1      47.576 130.961  13.269  1.00  0.00     0.005 C 
ATOM     18  C   UNL     1      47.895 129.575  13.826  1.00  0.00     0.005 C 
ENDBRANCH  12  14
ENDBRANCH  10  12
ENDBRANCH   1  10
BRANCH   9  19
ATOM     19  O   UNL     1      47.000 131.088  20.423  1.00  0.00    -0.386 OA
ATOM     20  H   UNL     1      46.858 131.135  21.404  1.00  0.00     0.211 HD
ENDBRANCH   9  19
TORSDOF 4
ENDMDL
MODEL 7
REMARK VINA RESULT:      -8.3      1.149      1.561
REMARK SMILES [O-]C(N[C@H]1Cc2ccccc2[C@@H]1O)=C1CCCC1
REMARK SMILES IDX 4 1 5 2 6 3 7 4 8 5 9 6 10 7 11 8 12 9 3 10 2 12 1 13 14 14
REMARK SMILES IDX 15 15 18 16 16 17 17 18 13 19
REMARK H PARENT 3 11 13 20
ROOT
ATOM      1  C   UNL     1      45.279 130.571  17.027  1.00  0.00     0.115 C 
ATOM      2  C   UNL     1      45.624 131.804  16.158  1.00  0.00     0.063 C 
ATOM      3  C   UNL     1      46.481 131.254  15.083  1.00  0.00    -0.040 A 
ATOM      4  C   UNL     1      47.083 131.975  14.048  1.00  0.00     0.004 A 
ATOM      5  C   UNL     1      47.876 131.287  13.118  1.00  0.00     0.000 A 
ATOM      6  C   UNL     1      48.059 129.897  13.235  1.00  0.00     0.000 A 
ATOM      7  C   UNL     1      47.447 129.192  14.282  1.00  0.00     0.007 A 
ATOM      8  C   UNL     1      46.656 129.895  15.197  1.00  0.00    -0.014 A 
ATOM      9  C   UNL     1      45.942 129.329  16.367  1.00  0.00     0.167 C 
ENDROOT
BRANCH   1  10
ATOM     10  N   UNL     1      45.717 130.744  18.419  1.00  0.00    -0.391 N 
ATOM     11  H   UNL     1      46.592 130.245  18.695  1.00  0.00     0.159 HD
BRANCH  10  12
ATOM     12  C   UNL     1      45.017 131.556  19.385  1.00  0.00    -0.046 C 
ATOM     13  O   UNL     1      44.792 132.904  19.118  1.00  0.00    -0.860 OA
BRANCH  12  14
ATOM     14  C   UNL     1      44.575 131.040  20.545  1.00  0.00    -0.062 C 
ATOM     15  C   UNL     1      43.285 131.443  21.172  1.00  0.00     0.032 C 
ATOM     16  C   UNL     1      45.297 130.016  21.352  1.00  0.00     0.032 C 
ATOM     17  C   UNL     1      43.298 130.776  22.541  1.00  0.00     0.005 C 
ATOM     18  C   UNL     1      44.324 129.648  22.467  1.00  0.00     0.005 C 
ENDBRANCH  12  14
ENDBRANCH  10  12
ENDBRANCH   1  10
BRANCH   9  19
ATOM     19  O   UNL     1      44.972 128.416  15.928  1.00  0.00    -0.386 OA
ATOM     20  H   UNL     1      44.118 128.691  16.353  1.00  0.00     0.211 HD
ENDBRANCH   9  19
TORSDOF 4
ENDMDL
MODEL 8
REMARK VINA RESULT:      -8.3      1.606      6.701
REMARK SMILES [O-]C(N[C@H]1Cc2ccccc2[C@@H]1O)=C1CCCC1
REMARK SMILES IDX 4 1 5 2 6 3 7 4 8 5 9 6 10 7 11 8 12 9 3 10 2 12 1 13 14 14
REMARK SMILES IDX 15 15 18 16 16 17 17 18 13 19
REMARK H PARENT 3 11 13 20
ROOT
ATOM      1  C   UNL     1      45.029 131.368  18.398  1.00  0.00     0.115 C 
ATOM      2  C   UNL     1      43.763 132.101  18.905  1.00  0.00     0.063 C 
ATOM      3  C   UNL     1      43.644 131.668  20.317  1.00  0.00    -0.040 A 
ATOM      4  C   UNL     1      42.638 132.032  21.215  1.00  0.00     0.004 A 
ATOM      5  C   UNL     1      42.678 131.516  22.519  1.00  0.00     0.000 A 
ATOM      6  C   UNL     1      43.715 130.647  22.905  1.00  0.00     0.000 A 
ATOM      7  C   UNL     1      44.715 130.294  21.987  1.00  0.00     0.007 A 
ATOM      8  C   UNL     1      44.661 130.823  20.693  1.00  0.00    -0.014 A 
ATOM      9  C   UNL     1      45.615 130.559  19.589  1.00  0.00     0.167 C 
ENDROOT
BRANCH   1  10
ATOM     10  N   UNL     1      44.735 130.504  17.247  1.00  0.00    -0.391 N 
ATOM     11  H   UNL     1      44.501 129.509  17.463  1.00  0.00     0.159 HD
BRANCH  10  12
ATOM     12  C   UNL     1      44.745 130.959  15.878  1.00  0.00    -0.046 C 
ATOM     13  O   UNL     1      43.644 131.644  15.372  1.00  0.00    -0.860 OA
BRANCH  12  14
ATOM     14  C   UNL     1      45.799 130.735  15.073  1.00  0.00    -0.062 C 
ATOM     15  C   UNL     1      46.219 129.370  14.649  1.00  0.00     0.032 C 
ATOM     16  C   UNL     1      46.677 131.796  14.504  1.00  0.00     0.032 C 
ATOM     17  C   UNL     1      47.547 129.581  13.934  1.00  0.00     0.005 C 
ATOM     18  C   UNL     1      47.603 131.057  13.545  1.00  0.00     0.005 C 
ENDBRANCH  12  14
ENDBRANCH  10  12
ENDBRANCH   1  10
BRANCH   9  19
ATOM     19  O   UNL     1      46.886 131.035  19.944  1.00  0.00    -0.386 OA
ATOM     20  H   UNL     1      47.476 130.861  19.165  1.00  0.00     0.211 HD
ENDBRANCH   9  19
TORSDOF 4
ENDMDL
MODEL 9
REMARK VINA RESULT:      -8.2      1.356      2.172
REMARK SMILES [O-]C(N[C@H]1Cc2ccccc2[C@@H]1O)=C1CCCC1
REMARK SMILES IDX 4 1 5 2 6 3 7 4 8 5 9 6 10 7 11 8 12 9 3 10 2 12 1 13 14 14
REMARK SMILES IDX 15 15 18 16 16 17 17 18 13 19
REMARK H PARENT 3 11 13 20
ROOT
ATOM      1  C   UNL     1      45.364 131.413  16.822  1.00  0.00     0.115 C 
ATOM      2  C   UNL     1      46.214 130.120  16.786  1.00  0.00     0.063 C 
ATOM      3  C   UNL     1      46.816 130.128  15.432  1.00  0.00    -0.040 A 
ATOM      4  C   UNL     1      47.653 129.150  14.889  1.00  0.00     0.004 A 
ATOM      5  C   UNL     1      48.126 129.318  13.579  1.00  0.00     0.000 A 
ATOM      6  C   UNL     1      47.756 130.451  12.833  1.00  0.00     0.000 A 
ATOM      7  C   UNL     1      46.913 131.421  13.397  1.00  0.00     0.007 A 
ATOM      8  C   UNL     1      46.456 131.239  14.706  1.00  0.00    -0.014 A 
ATOM      9  C   UNL     1      45.556 132.142  15.463  1.00  0.00     0.167 C 
ENDROOT
BRANCH   1  10
ATOM     10  N   UNL     1      43.948 131.127  17.089  1.00  0.00    -0.391 N 
ATOM     11  H   UNL     1      43.477 130.463  16.434  1.00  0.00     0.159 HD
BRANCH  10  12
ATOM     12  C   UNL     1      43.206 131.700  18.186  1.00  0.00    -0.046 C 
ATOM     13  O   UNL     1      41.992 132.335  17.939  1.00  0.00    -0.860 OA
BRANCH  12  14
ATOM     14  C   UNL     1      43.663 131.637  19.449  1.00  0.00    -0.062 C 
ATOM     15  C   UNL     1      42.763 131.525  20.631  1.00  0.00     0.032 C 
ATOM     16  C   UNL     1      45.101 131.673  19.838  1.00  0.00     0.032 C 
ATOM     17  C   UNL     1      43.683 131.695  21.833  1.00  0.00     0.005 C 
ATOM     18  C   UNL     1      45.100 131.410  21.340  1.00  0.00     0.005 C 
ENDBRANCH  12  14
ENDBRANCH  10  12
ENDBRANCH   1  10
BRANCH   9  19
ATOM     19  O   UNL     1      46.184 133.384  15.643  1.00  0.00    -0.386 OA
ATOM     20  H   UNL     1      45.734 133.813  16.418  1.00  0.00     0.211 HD
ENDBRANCH   9  19
TORSDOF 4
ENDMDL


