REMARK SMILES Cc1cc(N)c(OC(=O)C[C@H]2CC[C@@H](C)N2)c(-n2nc3ccccc3[nH+]2)c1
REMARK SMILES IDX 7 1 6 2 2 3 3 4 27 5 4 6 17 7 1 8 5 9 18 12 19 13 26 14
REMARK SMILES IDX 20 15 25 16 21 17 24 18 22 19 23 20 8 22 9 23 10 24 11 25
REMARK SMILES IDX 12 26 16 27 13 28 14 29 15 31
REMARK H PARENT 5 10 5 11 26 21 16 30
ROOT
ATOM      1  O   UNL     1      -1.722   0.819  -1.077  1.00  0.00    -0.422 OA
ENDROOT
BRANCH   1   2
ATOM      2  C   UNL     1      -1.992   1.760  -0.075  1.00  0.00     0.185 A 
ATOM      3  C   UNL     1      -2.487   3.752   1.851  1.00  0.00    -0.046 A 
ATOM      4  C   UNL     1      -3.243   3.705   0.673  1.00  0.00     0.033 A 
ATOM      5  C   UNL     1      -1.485   2.797   2.067  1.00  0.00     0.042 A 
ATOM      6  C   UNL     1      -3.009   2.710  -0.286  1.00  0.00     0.078 A 
ATOM      7  C   UNL     1      -1.253   1.781   1.130  1.00  0.00     0.173 A 
ATOM      8  C   UNL     1      -2.711   4.848   2.851  1.00  0.00     0.044 C 
BRANCH   6   9
ATOM      9  N   UNL     1      -3.785   2.692  -1.490  1.00  0.00    -0.396 N 
ATOM     10  H   UNL     1      -3.630   1.970  -2.227  1.00  0.00     0.156 HD
ATOM     11  H   UNL     1      -4.527   3.409  -1.656  1.00  0.00     0.156 HD
ENDBRANCH   6   9
BRANCH   7  12
ATOM     12  N   UNL     1      -0.295   0.756   1.431  1.00  0.00    -0.009 N 
ATOM     13  N   UNL     1       0.894   0.999   1.983  1.00  0.00     0.054 NA
ATOM     14  N   UNL     1      -0.505  -0.544   1.237  1.00  0.00    -0.161 N 
ATOM     15  C   UNL     1       1.461  -0.213   2.126  1.00  0.00     0.249 A 
ATOM     16  C   UNL     1       0.599  -1.164   1.671  1.00  0.00     0.198 A 
ATOM     17  C   UNL     1       2.718  -0.535   2.627  1.00  0.00     0.064 A 
ATOM     18  C   UNL     1       0.911  -2.519   1.676  1.00  0.00     0.058 A 
ATOM     19  C   UNL     1       3.076  -1.899   2.648  1.00  0.00     0.005 A 
ATOM     20  C   UNL     1       2.177  -2.886   2.174  1.00  0.00     0.005 A 
ATOM     21  H   UNL     1      -1.370  -0.980   0.845  1.00  0.00     0.340 HD
ENDBRANCH   7  12
ENDBRANCH   1   2
BRANCH   1  22
ATOM     22  C   UNL     1      -0.468   0.683  -1.686  1.00  0.00     0.312 C 
ATOM     23  O   UNL     1       0.468   1.485  -1.419  1.00  0.00    -0.252 OA
BRANCH  22  24
ATOM     24  C   UNL     1      -0.246  -0.412  -2.684  1.00  0.00     0.142 C 
BRANCH  24  25
ATOM     25  C   UNL     1       0.580  -1.562  -2.085  1.00  0.00     0.065 C 
ATOM     26  C   UNL     1       0.721  -2.723  -3.073  1.00  0.00     0.021 C 
ATOM     27  N   UNL     1       1.932  -1.083  -1.760  1.00  0.00    -0.311 NA
ATOM     28  C   UNL     1       2.115  -2.582  -3.630  1.00  0.00     0.020 C 
ATOM     29  C   UNL     1       2.883  -1.913  -2.501  1.00  0.00     0.050 C 
ATOM     30  H   UNL     1       2.108  -1.202  -0.735  1.00  0.00     0.123 HD
ATOM     31  C   UNL     1       4.035  -1.054  -3.021  1.00  0.00     0.024 C 
ENDBRANCH  24  25
ENDBRANCH  22  24
ENDBRANCH   1  22
TORSDOF 6


