REMARK SMILES Cc1cc(F)ncc1-c1ccc2c(C)[nH]nc2c1
REMARK SMILES IDX 9 1 10 2 11 3 12 4 13 5 14 6 15 7 16 8 17 9 18 10 8 12 2 13
REMARK SMILES IDX 3 14 4 15 7 16 6 17 1 18 5 19
REMARK H PARENT 15 11
ROOT
ATOM      1  C   UNL     1       0.562   0.044   0.158  1.00  0.00    -0.014 A 
ATOM      2  C   UNL     1      -0.810   0.222  -0.162  1.00  0.00     0.009 A 
ATOM      3  C   UNL     1      -1.361  -0.363  -1.317  1.00  0.00     0.013 A 
ATOM      4  C   UNL     1      -0.512  -1.112  -2.126  1.00  0.00     0.023 A 
ATOM      5  C   UNL     1      -0.707  -1.799  -3.302  1.00  0.00     0.040 A 
ATOM      6  C   UNL     1      -1.970  -1.887  -4.096  1.00  0.00     0.067 C 
ATOM      7  N   UNL     1       0.480  -2.327  -3.676  1.00  0.00    -0.282 N 
ATOM      8  N   UNL     1       1.416  -2.018  -2.784  1.00  0.00    -0.175 NA
ATOM      9  C   UNL     1       0.814  -1.277  -1.835  1.00  0.00     0.093 A 
ATOM     10  C   UNL     1       1.392  -0.712  -0.702  1.00  0.00     0.039 A 
ATOM     11  H   UNL     1       0.660  -2.889  -4.537  1.00  0.00     0.190 HD
ENDROOT
BRANCH   1  12
ATOM     12  C   UNL     1       1.136   0.673   1.369  1.00  0.00     0.003 A 
ATOM     13  C   UNL     1       0.656   0.389   2.670  1.00  0.00    -0.037 A 
ATOM     14  C   UNL     1       1.221   1.059   3.766  1.00  0.00     0.064 A 
ATOM     15  C   UNL     1       2.265   1.962   3.565  1.00  0.00     0.213 A 
ATOM     16  C   UNL     1       2.198   1.580   1.224  1.00  0.00     0.123 A 
ATOM     17  N   UNL     1       2.730   2.197   2.311  1.00  0.00    -0.228 NA
ATOM     18  C   UNL     1      -0.454  -0.600   2.914  1.00  0.00     0.045 C 
ATOM     19  F   UNL     1       2.822   2.603   4.621  1.00  0.00    -0.185 F 
ENDBRANCH   1  12
TORSDOF 1


