REMARK SMILES NN(C(=O)OCc1ccccc1Cl)c1ccccc1-c1nc2ccccc2[n-]1
REMARK SMILES IDX 3 1 4 2 2 3 1 4 14 7 15 8 19 9 16 10 18 11 17 12 20 13 21 14
REMARK SMILES IDX 28 15 22 16 27 17 23 18 26 19 24 20 25 21 5 22 6 23 7 24
REMARK SMILES IDX 8 25 12 26 9 27 11 28 10 29 13 30
REMARK H PARENT 1 5 1 6
ROOT
ATOM      1  C   UNL     1      -2.452  -1.260   0.178  1.00  0.00     0.429 C 
ATOM      2  O   UNL     1      -2.700  -2.166   1.020  1.00  0.00    -0.222 OA
ENDROOT
BRANCH   1   3
ATOM      3  N   UNL     1      -2.486   0.120   0.579  1.00  0.00    -0.212 N 
BRANCH   3   4
ATOM      4  N   UNL     1      -3.011   0.493   1.827  1.00  0.00    -0.238 NA
ATOM      5  H   UNL     1      -2.464  -0.004   2.567  1.00  0.00     0.144 HD
ATOM      6  H   UNL     1      -3.998   0.149   1.873  1.00  0.00     0.144 HD
ENDBRANCH   3   4
BRANCH   3   7
ATOM      7  C   UNL     1      -2.107   1.148  -0.345  1.00  0.00     0.071 A 
ATOM      8  C   UNL     1      -3.107   1.984  -0.863  1.00  0.00     0.028 A 
ATOM      9  C   UNL     1      -0.761   1.315  -0.767  1.00  0.00    -0.001 A 
ATOM     10  C   UNL     1      -2.797   2.958  -1.811  1.00  0.00     0.002 A 
ATOM     11  C   UNL     1      -0.473   2.297  -1.735  1.00  0.00     0.010 A 
ATOM     12  C   UNL     1      -1.484   3.110  -2.252  1.00  0.00     0.001 A 
BRANCH   9  13
ATOM     13  C   UNL     1       0.359   0.520  -0.198  1.00  0.00    -0.049 A 
ATOM     14  N   UNL     1       1.601   0.497  -0.757  1.00  0.00    -0.435 NA
ATOM     15  N   UNL     1       0.252  -0.222   0.937  1.00  0.00    -0.435 NA
ATOM     16  C   UNL     1       2.284  -0.306   0.069  1.00  0.00    -0.038 A 
ATOM     17  C   UNL     1       1.480  -0.737   1.077  1.00  0.00    -0.038 A 
ATOM     18  C   UNL     1       3.618  -0.696  -0.028  1.00  0.00     0.004 A 
ATOM     19  C   UNL     1       1.937  -1.596   2.072  1.00  0.00     0.004 A 
ATOM     20  C   UNL     1       4.118  -1.564   0.961  1.00  0.00     0.000 A 
ATOM     21  C   UNL     1       3.280  -2.013   2.008  1.00  0.00     0.000 A 
ENDBRANCH   9  13
ENDBRANCH   3   7
ENDBRANCH   1   3
BRANCH   1  22
ATOM     22  O   UNL     1      -2.142  -1.592  -1.147  1.00  0.00    -0.443 OA
BRANCH  22  23
ATOM     23  C   UNL     1      -1.919  -2.928  -1.588  1.00  0.00     0.272 C 
BRANCH  23  24
ATOM     24  C   UNL     1      -0.535  -3.378  -1.198  1.00  0.00     0.008 A 
ATOM     25  C   UNL     1      -0.368  -4.247  -0.106  1.00  0.00     0.009 A 
ATOM     26  C   UNL     1       0.607  -2.909  -1.884  1.00  0.00     0.047 A 
ATOM     27  C   UNL     1       0.909  -4.665   0.279  1.00  0.00     0.001 A 
ATOM     28  C   UNL     1       1.881  -3.342  -1.497  1.00  0.00     0.021 A 
ATOM     29  C   UNL     1       2.031  -4.218  -0.420  1.00  0.00     0.002 A 
ATOM     30  Cl  UNL     1       0.479  -1.773  -3.223  1.00  0.00    -0.084 Cl
ENDBRANCH  23  24
ENDBRANCH  22  23
ENDBRANCH   1  22
TORSDOF 7


