REMARK SMILES N#CC1(C(=O)[N-]CCCS[C@H](C(=O)c2ccc(F)cc2)[C@H](O)c2ccc(Cl)c(F)c2)CC1
REMARK SMILES IDX 8 1 7 2 6 3 4 4 5 5 3 6 31 7 32 8 2 9 1 10 9 11 10 12 11 13
REMARK SMILES IDX 12 14 13 15 14 16 15 17 20 18 16 19 19 20 17 21 18 22 21 23
REMARK SMILES IDX 22 24 23 26 24 27 30 28 25 29 28 30 26 31 29 32 27 33
REMARK H PARENT 22 25
ROOT
ATOM      1  C   UNL     1       2.059   1.153  -0.022  1.00  0.00    -0.008 C 
ENDROOT
BRANCH   1   2
ATOM      2  C   UNL     1       3.484   0.885  -0.518  1.00  0.00    -0.117 C 
BRANCH   2   3
ATOM      3  N   UNL     1       3.829  -0.524  -0.365  1.00  0.00    -0.652 NA
BRANCH   3   4
ATOM      4  C   UNL     1       4.007  -1.178   0.895  1.00  0.00     0.072 C 
ATOM      5  O   UNL     1       3.847  -0.546   1.974  1.00  0.00    -0.319 OA
BRANCH   4   6
ATOM      6  C   UNL     1       4.363  -2.632   0.922  1.00  0.00     0.099 C 
ATOM      7  C   UNL     1       5.806  -2.957   0.567  1.00  0.00     0.030 C 
ATOM      8  C   UNL     1       5.321  -3.108   2.004  1.00  0.00     0.030 C 
BRANCH   6   9
ATOM      9  C   UNL     1       3.372  -3.610   0.453  1.00  0.00     0.075 C 
ATOM     10  N   UNL     1       2.593  -4.381   0.082  1.00  0.00    -0.197 NA
ENDBRANCH   6   9
ENDBRANCH   4   6
ENDBRANCH   3   4
ENDBRANCH   2   3
ENDBRANCH   1   2
BRANCH   1  11
ATOM     11  C   UNL     1       1.578   2.547  -0.439  1.00  0.00     0.069 C 
BRANCH  11  12
ATOM     12  S   UNL     1       0.057   3.015   0.463  1.00  0.00    -0.147 SA
BRANCH  12  13
ATOM     13  C   UNL     1      -1.143   1.994  -0.497  1.00  0.00     0.151 C 
BRANCH  13  14
ATOM     14  C   UNL     1      -2.012   2.893  -1.347  1.00  0.00     0.178 C 
ATOM     15  O   UNL     1      -2.452   3.963  -0.843  1.00  0.00    -0.293 OA
BRANCH  14  16
ATOM     16  C   UNL     1      -2.388   2.549  -2.745  1.00  0.00     0.019 A 
ATOM     17  C   UNL     1      -2.808   3.567  -3.623  1.00  0.00     0.015 A 
ATOM     18  C   UNL     1      -2.354   1.220  -3.218  1.00  0.00     0.015 A 
ATOM     19  C   UNL     1      -3.167   3.268  -4.940  1.00  0.00     0.040 A 
ATOM     20  C   UNL     1      -2.716   0.927  -4.536  1.00  0.00     0.040 A 
ATOM     21  C   UNL     1      -3.120   1.949  -5.397  1.00  0.00     0.123 A 
ATOM     22  F   UNL     1      -3.470   1.661  -6.675  1.00  0.00    -0.207 F 
ENDBRANCH  14  16
ENDBRANCH  13  14
BRANCH  13  23
ATOM     23  C   UNL     1      -2.017   1.104   0.429  1.00  0.00     0.165 C 
BRANCH  23  24
ATOM     24  O   UNL     1      -2.868   1.849   1.271  1.00  0.00    -0.387 OA
ATOM     25  H   UNL     1      -2.345   2.580   1.688  1.00  0.00     0.211 HD
ENDBRANCH  23  24
BRANCH  23  26
ATOM     26  C   UNL     1      -1.177   0.115   1.217  1.00  0.00    -0.015 A 
ATOM     27  C   UNL     1      -0.840  -1.121   0.634  1.00  0.00     0.008 A 
ATOM     28  C   UNL     1      -0.658   0.429   2.489  1.00  0.00     0.047 A 
ATOM     29  C   UNL     1      -0.020  -2.026   1.313  1.00  0.00     0.024 A 
ATOM     30  C   UNL     1       0.165  -0.478   3.164  1.00  0.00     0.142 A 
ATOM     31  C   UNL     1       0.482  -1.708   2.578  1.00  0.00     0.076 A 
ATOM     32  F   UNL     1       0.657  -0.154   4.386  1.00  0.00    -0.205 F 
ATOM     33  Cl  UNL     1       1.509  -2.854   3.423  1.00  0.00    -0.081 Cl
ENDBRANCH  23  26
ENDBRANCH  13  23
ENDBRANCH  12  13
ENDBRANCH  11  12
ENDBRANCH   1  11
TORSDOF 13


