REMARK SMILES C=Cc1cc(-c2cnc3cc[nH+]n3c2)ccc1CCN
REMARK SMILES IDX 18 1 17 2 3 3 4 4 5 5 16 6 15 7 2 8 1 9 6 10 7 11 14 12 8 13
REMARK SMILES IDX 13 14 9 15 12 16 10 17 11 18 19 20 20 21
REMARK H PARENT 12 19 20 22 20 23
ROOT
ATOM      1  C   UNL     1      -1.590  -4.262   1.310  1.00  0.00     0.051 C 
ENDROOT
BRANCH   1   2
ATOM      2  C   UNL     1      -1.097  -2.934   0.771  1.00  0.00    -0.039 A 
ATOM      3  C   UNL     1      -1.602  -1.690   1.232  1.00  0.00    -0.022 A 
ATOM      4  C   UNL     1      -1.105  -0.498   0.665  1.00  0.00     0.017 A 
ATOM      5  C   UNL     1      -0.110  -0.522  -0.327  1.00  0.00    -0.015 A 
ATOM      6  C   UNL     1      -0.103  -2.947  -0.221  1.00  0.00     0.005 A 
ATOM      7  C   UNL     1       0.386  -1.759  -0.761  1.00  0.00     0.009 A 
BRANCH   3   8
ATOM      8  C   UNL     1      -2.663  -1.628   2.274  1.00  0.00     0.000 C 
ATOM      9  C   UNL     1      -2.761  -0.634   3.157  1.00  0.00     0.009 C 
ENDBRANCH   3   8
BRANCH   5  10
ATOM     10  C   UNL     1       0.404   0.743  -0.910  1.00  0.00     0.022 A 
ATOM     11  C   UNL     1       0.693   0.847  -2.295  1.00  0.00     0.124 A 
ATOM     12  C   UNL     1       0.621   1.879  -0.103  1.00  0.00     0.169 A 
ATOM     13  N   UNL     1       1.165   2.013  -2.825  1.00  0.00    -0.233 NA
ATOM     14  N   UNL     1       1.092   3.001  -0.696  1.00  0.00    -0.111 N 
ATOM     15  C   UNL     1       1.356   3.072  -2.003  1.00  0.00     0.199 A 
ATOM     16  N   UNL     1       1.367   4.162  -0.131  1.00  0.00    -0.125 N 
ATOM     17  C   UNL     1       1.823   4.327  -2.323  1.00  0.00     0.126 A 
ATOM     18  C   UNL     1       1.815   4.995  -1.098  1.00  0.00     0.337 A 
ATOM     19  H   UNL     1       1.253   4.384   0.884  1.00  0.00     0.488 HD
ENDBRANCH   5  10
ENDBRANCH   1   2
BRANCH   1  20
ATOM     20  C   UNL     1      -2.847  -4.757   0.573  1.00  0.00     0.082 C 
BRANCH  20  21
ATOM     21  N   UNL     1      -2.565  -5.144  -0.809  1.00  0.00    -0.330 NA
ATOM     22  H   UNL     1      -1.757  -5.808  -0.825  1.00  0.00     0.118 HD
ATOM     23  H   UNL     1      -2.298  -4.294  -1.356  1.00  0.00     0.118 HD
ENDBRANCH  20  21
ENDBRANCH   1  20
TORSDOF 5


