REMARK SMILES NC(=O)c1ccc(C2CC2)c(F)c1CCC(=O)c1ccccc1
REMARK SMILES IDX 14 1 13 2 4 3 5 4 6 5 11 6 7 7 12 8 2 9 1 10 3 13 8 14 9 15
REMARK SMILES IDX 10 16 15 17 16 18 17 19 18 20 19 21 23 22 20 23 22 24 21 25
REMARK H PARENT 1 11 1 12
ROOT
ATOM      1  C   UNL     1      -0.473  -2.739   0.885  1.00  0.00     0.047 C 
ENDROOT
BRANCH   1   2
ATOM      2  C   UNL     1      -0.549  -1.421   0.131  1.00  0.00     0.001 A 
ATOM      3  C   UNL     1      -1.558  -0.456   0.398  1.00  0.00     0.045 A 
ATOM      4  C   UNL     1      -1.478   0.808  -0.206  1.00  0.00     0.014 A 
ATOM      5  C   UNL     1      -0.429   1.125  -1.064  1.00  0.00     0.008 A 
ATOM      6  C   UNL     1       0.499  -1.089  -0.754  1.00  0.00     0.130 A 
ATOM      7  C   UNL     1       0.552   0.175  -1.363  1.00  0.00    -0.009 A 
ATOM      8  F   UNL     1       1.504  -1.972  -0.985  1.00  0.00    -0.206 F 
BRANCH   3   9
ATOM      9  C   UNL     1      -2.693  -0.719   1.312  1.00  0.00     0.249 C 
ATOM     10  N   UNL     1      -3.065   0.244   2.297  1.00  0.00    -0.366 N 
ATOM     11  H   UNL     1      -3.884   0.068   2.923  1.00  0.00     0.159 HD
ATOM     12  H   UNL     1      -2.504   1.113   2.441  1.00  0.00     0.159 HD
ATOM     13  O   UNL     1      -3.366  -1.777   1.200  1.00  0.00    -0.270 OA
ENDBRANCH   3   9
BRANCH   7  14
ATOM     14  C   UNL     1       1.728   0.547  -2.227  1.00  0.00     0.022 C 
ATOM     15  C   UNL     1       1.388   1.183  -3.567  1.00  0.00     0.009 C 
ATOM     16  C   UNL     1       1.856  -0.258  -3.512  1.00  0.00     0.009 C 
ENDBRANCH   7  14
ENDBRANCH   1   2
BRANCH   1  17
ATOM     17  C   UNL     1       0.048  -2.561   2.319  1.00  0.00     0.086 C 
BRANCH  17  18
ATOM     18  C   UNL     1       1.447  -1.993   2.340  1.00  0.00     0.163 C 
ATOM     19  O   UNL     1       2.417  -2.800   2.340  1.00  0.00    -0.294 OA
BRANCH  18  20
ATOM     20  C   UNL     1       1.718  -0.537   2.225  1.00  0.00     0.017 A 
ATOM     21  C   UNL     1       2.888  -0.102   1.573  1.00  0.00     0.012 A 
ATOM     22  C   UNL     1       0.807   0.430   2.696  1.00  0.00     0.012 A 
ATOM     23  C   UNL     1       3.119   1.260   1.362  1.00  0.00     0.001 A 
ATOM     24  C   UNL     1       1.042   1.790   2.477  1.00  0.00     0.001 A 
ATOM     25  C   UNL     1       2.192   2.205   1.805  1.00  0.00     0.000 A 
ENDBRANCH  18  20
ENDBRANCH  17  18
ENDBRANCH   1  17
TORSDOF 6


