MODEL 1
REMARK VINA RESULT:      -9.8      0.000      0.000
REMARK SMILES c1ccc2[n-]c([NH2+]c3cn4ccccc4n3)cc2c1
REMARK SMILES IDX 7 1 6 4 1 5 2 6 19 7 3 8 18 9 4 10 17 11 5 12 8 13 9 14
REMARK SMILES IDX 16 15 10 16 15 17 11 18 14 19 12 20 13 21
REMARK H PARENT 7 2 7 3
ROOT
ATOM      1  N   UNL     1      43.394 131.772  16.397  1.00  0.00    -0.282 N 
ATOM      2  H   UNL     1      42.580 131.162  16.150  1.00  0.00     0.358 HD
ATOM      3  H   UNL     1      43.187 132.750  16.088  1.00  0.00     0.358 HD
ENDROOT
BRANCH   1   4
ATOM      4  C   UNL     1      44.573 131.291  15.737  1.00  0.00     0.037 A 
ATOM      5  C   UNL     1      48.052 129.206  13.764  1.00  0.00     0.001 A 
ATOM      6  C   UNL     1      48.171 130.488  13.184  1.00  0.00    -0.001 A 
ATOM      7  C   UNL     1      47.024 128.933  14.685  1.00  0.00     0.007 A 
ATOM      8  C   UNL     1      47.262 131.509  13.518  1.00  0.00    -0.015 A 
ATOM      9  C   UNL     1      46.142 129.967  14.997  1.00  0.00    -0.036 A 
ATOM     10  C   UNL     1      46.254 131.213  14.435  1.00  0.00    -0.125 A 
ATOM     11  C   UNL     1      45.059 129.991  15.839  1.00  0.00     0.050 A 
ATOM     12  N   UNL     1      45.292 132.047  14.870  1.00  0.00    -0.610 NA
ENDBRANCH   1   4
BRANCH   1  13
ATOM     13  C   UNL     1      43.608 131.748  17.813  1.00  0.00     0.246 A 
ATOM     14  C   UNL     1      42.615 131.855  18.775  1.00  0.00     0.183 A 
ATOM     15  N   UNL     1      44.817 131.520  18.384  1.00  0.00    -0.177 NA
ATOM     16  N   UNL     1      43.221 131.709  19.961  1.00  0.00    -0.301 N 
ATOM     17  C   UNL     1      44.526 131.513  19.701  1.00  0.00     0.143 A 
ATOM     18  C   UNL     1      42.699 131.727  21.214  1.00  0.00     0.093 A 
ATOM     19  C   UNL     1      45.437 131.314  20.737  1.00  0.00     0.048 A 
ATOM     20  C   UNL     1      43.571 131.535  22.295  1.00  0.00     0.018 A 
ATOM     21  C   UNL     1      44.943 131.328  22.052  1.00  0.00     0.005 A 
ENDBRANCH   1  13
TORSDOF 2
ENDMDL
MODEL 2
REMARK VINA RESULT:      -9.7      0.621      1.352
REMARK SMILES c1ccc2[n-]c([NH2+]c3cn4ccccc4n3)cc2c1
REMARK SMILES IDX 7 1 6 4 1 5 2 6 19 7 3 8 18 9 4 10 17 11 5 12 8 13 9 14
REMARK SMILES IDX 16 15 10 16 15 17 11 18 14 19 12 20 13 21
REMARK H PARENT 7 2 7 3
ROOT
ATOM      1  N   UNL     1      43.288 131.759  16.294  1.00  0.00    -0.282 N 
ATOM      2  H   UNL     1      42.461 131.152  16.087  1.00  0.00     0.358 HD
ATOM      3  H   UNL     1      43.070 132.738  15.995  1.00  0.00     0.358 HD
ENDROOT
BRANCH   1   4
ATOM      4  C   UNL     1      44.432 131.275  15.578  1.00  0.00     0.037 A 
ATOM      5  C   UNL     1      48.184 130.352  13.252  1.00  0.00     0.001 A 
ATOM      6  C   UNL     1      47.993 129.118  13.911  1.00  0.00    -0.001 A 
ATOM      7  C   UNL     1      47.285 131.415  13.454  1.00  0.00     0.007 A 
ATOM      8  C   UNL     1      46.901 128.936  14.778  1.00  0.00    -0.015 A 
ATOM      9  C   UNL     1      46.212 131.201  14.317  1.00  0.00    -0.036 A 
ATOM     10  C   UNL     1      46.023 130.004  14.959  1.00  0.00    -0.125 A 
ATOM     11  C   UNL     1      45.199 132.041  14.705  1.00  0.00     0.050 A 
ATOM     12  N   UNL     1      44.935 130.027  15.750  1.00  0.00    -0.610 NA
ENDBRANCH   1   4
BRANCH   1  13
ATOM     13  C   UNL     1      43.570 131.736  17.698  1.00  0.00     0.246 A 
ATOM     14  C   UNL     1      42.623 131.818  18.707  1.00  0.00     0.183 A 
ATOM     15  N   UNL     1      44.809 131.532  18.209  1.00  0.00    -0.177 NA
ATOM     16  N   UNL     1      43.288 131.681  19.862  1.00  0.00    -0.301 N 
ATOM     17  C   UNL     1      44.582 131.514  19.539  1.00  0.00     0.143 A 
ATOM     18  C   UNL     1      42.826 131.683  21.138  1.00  0.00     0.093 A 
ATOM     19  C   UNL     1      45.546 131.331  20.529  1.00  0.00     0.048 A 
ATOM     20  C   UNL     1      43.752 131.506  22.176  1.00  0.00     0.018 A 
ATOM     21  C   UNL     1      45.115 131.331  21.866  1.00  0.00     0.005 A 
ENDBRANCH   1  13
TORSDOF 2
ENDMDL
MODEL 3
REMARK VINA RESULT:      -9.7      0.625      1.331
REMARK SMILES c1ccc2[n-]c([NH2+]c3cn4ccccc4n3)cc2c1
REMARK SMILES IDX 7 1 6 4 1 5 2 6 19 7 3 8 18 9 4 10 17 11 5 12 8 13 9 14
REMARK SMILES IDX 16 15 10 16 15 17 11 18 14 19 12 20 13 21
REMARK H PARENT 7 2 7 3
ROOT
ATOM      1  N   UNL     1      43.452 131.788  16.342  1.00  0.00    -0.282 N 
ATOM      2  H   UNL     1      42.621 131.232  16.032  1.00  0.00     0.358 HD
ATOM      3  H   UNL     1      43.297 132.792  16.093  1.00  0.00     0.358 HD
ENDROOT
BRANCH   1   4
ATOM      4  C   UNL     1      44.630 131.299  15.688  1.00  0.00     0.037 A 
ATOM      5  C   UNL     1      48.099 129.189  13.725  1.00  0.00     0.001 A 
ATOM      6  C   UNL     1      48.239 130.474  13.156  1.00  0.00    -0.001 A 
ATOM      7  C   UNL     1      47.060 128.921  14.634  1.00  0.00     0.007 A 
ATOM      8  C   UNL     1      47.340 131.503  13.493  1.00  0.00    -0.015 A 
ATOM      9  C   UNL     1      46.189 129.962  14.948  1.00  0.00    -0.036 A 
ATOM     10  C   UNL     1      46.321 131.211  14.399  1.00  0.00    -0.125 A 
ATOM     11  C   UNL     1      45.100 129.992  15.782  1.00  0.00     0.050 A 
ATOM     12  N   UNL     1      45.366 132.053  14.833  1.00  0.00    -0.610 NA
ENDBRANCH   1   4
BRANCH   1  13
ATOM     13  C   UNL     1      43.618 131.663  17.760  1.00  0.00     0.246 A 
ATOM     14  C   UNL     1      44.823 131.441  18.409  1.00  0.00     0.183 A 
ATOM     15  N   UNL     1      42.612 131.846  18.650  1.00  0.00    -0.177 NA
ATOM     16  N   UNL     1      44.556 131.469  19.721  1.00  0.00    -0.301 N 
ATOM     17  C   UNL     1      43.238 131.709  19.837  1.00  0.00     0.143 A 
ATOM     18  C   UNL     1      45.387 131.310  20.782  1.00  0.00     0.093 A 
ATOM     19  C   UNL     1      42.639 131.809  21.092  1.00  0.00     0.048 A 
ATOM     20  C   UNL     1      44.838 131.399  22.070  1.00  0.00     0.018 A 
ATOM     21  C   UNL     1      43.460 131.648  22.221  1.00  0.00     0.005 A 
ENDBRANCH   1  13
TORSDOF 2
ENDMDL
MODEL 4
REMARK VINA RESULT:      -9.6      0.594      6.604
REMARK SMILES c1ccc2[n-]c([NH2+]c3cn4ccccc4n3)cc2c1
REMARK SMILES IDX 7 1 6 4 1 5 2 6 19 7 3 8 18 9 4 10 17 11 5 12 8 13 9 14
REMARK SMILES IDX 16 15 10 16 15 17 11 18 14 19 12 20 13 21
REMARK H PARENT 7 2 7 3
ROOT
ATOM      1  N   UNL     1      43.337 131.777  16.393  1.00  0.00    -0.282 N 
ATOM      2  H   UNL     1      43.120 132.753  16.084  1.00  0.00     0.358 HD
ATOM      3  H   UNL     1      42.533 131.157  16.142  1.00  0.00     0.358 HD
ENDROOT
BRANCH   1   4
ATOM      4  C   UNL     1      43.544 131.757  17.812  1.00  0.00     0.037 A 
ATOM      5  C   UNL     1      43.582 131.572  22.318  1.00  0.00     0.001 A 
ATOM      6  C   UNL     1      44.950 131.346  22.051  1.00  0.00    -0.001 A 
ATOM      7  C   UNL     1      42.673 131.771  21.263  1.00  0.00     0.007 A 
ATOM      8  C   UNL     1      45.421 131.316  20.725  1.00  0.00    -0.015 A 
ATOM      9  C   UNL     1      43.172 131.740  19.962  1.00  0.00    -0.036 A 
ATOM     10  C   UNL     1      44.499 131.519  19.699  1.00  0.00    -0.125 A 
ATOM     11  C   UNL     1      42.532 131.891  18.758  1.00  0.00     0.050 A 
ATOM     12  N   UNL     1      44.754 131.518  18.377  1.00  0.00    -0.610 NA
ENDBRANCH   1   4
BRANCH   1  13
ATOM     13  C   UNL     1      44.526 131.313  15.740  1.00  0.00     0.246 A 
ATOM     14  C   UNL     1      45.037 130.027  15.826  1.00  0.00     0.183 A 
ATOM     15  N   UNL     1      45.246 132.067  14.874  1.00  0.00    -0.177 NA
ATOM     16  N   UNL     1      46.101 129.989  15.013  1.00  0.00    -0.301 N 
ATOM     17  C   UNL     1      46.204 131.211  14.462  1.00  0.00     0.143 A 
ATOM     18  C   UNL     1      46.947 128.965  14.735  1.00  0.00     0.093 A 
ATOM     19  C   UNL     1      47.217 131.498  13.550  1.00  0.00     0.048 A 
ATOM     20  C   UNL     1      47.988 129.198  13.825  1.00  0.00     0.018 A 
ATOM     21  C   UNL     1      48.121 130.470  13.233  1.00  0.00     0.005 A 
ENDBRANCH   1  13
TORSDOF 2
ENDMDL
MODEL 5
REMARK VINA RESULT:      -9.6      0.754      6.647
REMARK SMILES c1ccc2[n-]c([NH2+]c3cn4ccccc4n3)cc2c1
REMARK SMILES IDX 7 1 6 4 1 5 2 6 19 7 3 8 18 9 4 10 17 11 5 12 8 13 9 14
REMARK SMILES IDX 16 15 10 16 15 17 11 18 14 19 12 20 13 21
REMARK H PARENT 7 2 7 3
ROOT
ATOM      1  N   UNL     1      43.414 131.804  16.400  1.00  0.00    -0.282 N 
ATOM      2  H   UNL     1      43.243 132.806  16.150  1.00  0.00     0.358 HD
ATOM      3  H   UNL     1      42.588 131.236  16.098  1.00  0.00     0.358 HD
ENDROOT
BRANCH   1   4
ATOM      4  C   UNL     1      43.595 131.686  17.817  1.00  0.00     0.037 A 
ATOM      5  C   UNL     1      44.768 131.431  22.165  1.00  0.00     0.001 A 
ATOM      6  C   UNL     1      43.385 131.684  22.297  1.00  0.00    -0.001 A 
ATOM      7  C   UNL     1      45.357 131.335  20.891  1.00  0.00     0.007 A 
ATOM      8  C   UNL     1      42.578 131.843  21.156  1.00  0.00    -0.015 A 
ATOM      9  C   UNL     1      44.528 131.493  19.781  1.00  0.00    -0.036 A 
ATOM     10  C   UNL     1      43.186 131.739  19.905  1.00  0.00    -0.125 A 
ATOM     11  C   UNL     1      44.819 131.459  18.440  1.00  0.00     0.050 A 
ATOM     12  N   UNL     1      42.587 131.870  18.707  1.00  0.00    -0.610 NA
ENDBRANCH   1   4
BRANCH   1  13
ATOM     13  C   UNL     1      44.592 131.330  15.737  1.00  0.00     0.246 A 
ATOM     14  C   UNL     1      45.087 130.037  15.809  1.00  0.00     0.183 A 
ATOM     15  N   UNL     1      45.318 132.082  14.872  1.00  0.00    -0.177 NA
ATOM     16  N   UNL     1      46.147 129.992  14.990  1.00  0.00    -0.301 N 
ATOM     17  C   UNL     1      46.263 131.218  14.448  1.00  0.00     0.143 A 
ATOM     18  C   UNL     1      46.978 128.961  14.698  1.00  0.00     0.093 A 
ATOM     19  C   UNL     1      47.274 131.500  13.532  1.00  0.00     0.048 A 
ATOM     20  C   UNL     1      48.017 129.188  13.784  1.00  0.00     0.018 A 
ATOM     21  C   UNL     1      48.163 130.462  13.202  1.00  0.00     0.005 A 
ENDBRANCH   1  13
TORSDOF 2
ENDMDL
MODEL 6
REMARK VINA RESULT:      -9.6      0.869      1.894
REMARK SMILES c1ccc2[n-]c([NH2+]c3cn4ccccc4n3)cc2c1
REMARK SMILES IDX 7 1 6 4 1 5 2 6 19 7 3 8 18 9 4 10 17 11 5 12 8 13 9 14
REMARK SMILES IDX 16 15 10 16 15 17 11 18 14 19 12 20 13 21
REMARK H PARENT 7 2 7 3
ROOT
ATOM      1  N   UNL     1      43.281 131.850  16.421  1.00  0.00    -0.282 N 
ATOM      2  H   UNL     1      42.417 131.324  16.152  1.00  0.00     0.358 HD
ATOM      3  H   UNL     1      43.141 132.863  16.198  1.00  0.00     0.358 HD
ENDROOT
BRANCH   1   4
ATOM      4  C   UNL     1      44.403 131.341  15.689  1.00  0.00     0.037 A 
ATOM      5  C   UNL     1      48.105 130.335  13.316  1.00  0.00     0.001 A 
ATOM      6  C   UNL     1      47.882 129.098  13.961  1.00  0.00    -0.001 A 
ATOM      7  C   UNL     1      47.241 131.421  13.540  1.00  0.00     0.007 A 
ATOM      8  C   UNL     1      46.792 128.938  14.837  1.00  0.00    -0.015 A 
ATOM      9  C   UNL     1      46.169 131.229  14.410  1.00  0.00    -0.036 A 
ATOM     10  C   UNL     1      45.949 130.030  15.039  1.00  0.00    -0.125 A 
ATOM     11  C   UNL     1      45.185 132.094  14.818  1.00  0.00     0.050 A 
ATOM     12  N   UNL     1      44.869 130.075  15.840  1.00  0.00    -0.610 NA
ENDBRANCH   1   4
BRANCH   1  13
ATOM     13  C   UNL     1      43.528 131.695  17.824  1.00  0.00     0.246 A 
ATOM     14  C   UNL     1      44.774 131.512  18.403  1.00  0.00     0.183 A 
ATOM     15  N   UNL     1      42.563 131.806  18.770  1.00  0.00    -0.177 NA
ATOM     16  N   UNL     1      44.576 131.492  19.727  1.00  0.00    -0.301 N 
ATOM     17  C   UNL     1      43.257 131.667  19.919  1.00  0.00     0.143 A 
ATOM     18  C   UNL     1      45.469 131.344  20.739  1.00  0.00     0.093 A 
ATOM     19  C   UNL     1      42.722 131.705  21.205  1.00  0.00     0.048 A 
ATOM     20  C   UNL     1      44.986 131.371  22.055  1.00  0.00     0.018 A 
ATOM     21  C   UNL     1      43.608 131.552  22.284  1.00  0.00     0.005 A 
ENDBRANCH   1  13
TORSDOF 2
ENDMDL
MODEL 7
REMARK VINA RESULT:      -9.2      0.865      6.589
REMARK SMILES c1ccc2[n-]c([NH2+]c3cn4ccccc4n3)cc2c1
REMARK SMILES IDX 7 1 6 4 1 5 2 6 19 7 3 8 18 9 4 10 17 11 5 12 8 13 9 14
REMARK SMILES IDX 16 15 10 16 15 17 11 18 14 19 12 20 13 21
REMARK H PARENT 7 2 7 3
ROOT
ATOM      1  N   UNL     1      43.336 131.821  16.351  1.00  0.00    -0.282 N 
ATOM      2  H   UNL     1      43.189 132.830  16.112  1.00  0.00     0.358 HD
ATOM      3  H   UNL     1      42.474 131.286  16.093  1.00  0.00     0.358 HD
ENDROOT
BRANCH   1   4
ATOM      4  C   UNL     1      43.588 131.692  17.756  1.00  0.00     0.037 A 
ATOM      5  C   UNL     1      44.973 131.431  22.041  1.00  0.00     0.001 A 
ATOM      6  C   UNL     1      43.587 131.615  22.241  1.00  0.00    -0.001 A 
ATOM      7  C   UNL     1      45.505 131.381  20.740  1.00  0.00     0.007 A 
ATOM      8  C   UNL     1      42.721 131.751  21.140  1.00  0.00    -0.015 A 
ATOM      9  C   UNL     1      44.620 131.516  19.672  1.00  0.00    -0.036 A 
ATOM     10  C   UNL     1      43.274 131.695  19.862  1.00  0.00    -0.125 A 
ATOM     11  C   UNL     1      44.849 131.515  18.319  1.00  0.00     0.050 A 
ATOM     12  N   UNL     1      42.615 131.814  18.694  1.00  0.00    -0.610 NA
ENDBRANCH   1   4
BRANCH   1  13
ATOM     13  C   UNL     1      44.459 131.307  15.625  1.00  0.00     0.246 A 
ATOM     14  C   UNL     1      45.266 132.043  14.772  1.00  0.00     0.183 A 
ATOM     15  N   UNL     1      44.924 130.041  15.765  1.00  0.00    -0.177 NA
ATOM     16  N   UNL     1      46.237 131.215  14.363  1.00  0.00    -0.301 N 
ATOM     17  C   UNL     1      46.010 130.034  14.965  1.00  0.00     0.143 A 
ATOM     18  C   UNL     1      47.280 131.443  13.525  1.00  0.00     0.093 A 
ATOM     19  C   UNL     1      46.861 128.951  14.753  1.00  0.00     0.048 A 
ATOM     20  C   UNL     1      48.168 130.387  13.273  1.00  0.00     0.018 A 
ATOM     21  C   UNL     1      47.953 129.139  13.890  1.00  0.00     0.005 A 
ENDBRANCH   1  13
TORSDOF 2
ENDMDL
MODEL 8
REMARK VINA RESULT:      -9.1      0.752      6.533
REMARK SMILES c1ccc2[n-]c([NH2+]c3cn4ccccc4n3)cc2c1
REMARK SMILES IDX 7 1 6 4 1 5 2 6 19 7 3 8 18 9 4 10 17 11 5 12 8 13 9 14
REMARK SMILES IDX 16 15 10 16 15 17 11 18 14 19 12 20 13 21
REMARK H PARENT 7 2 7 3
ROOT
ATOM      1  N   UNL     1      43.188 131.840  16.412  1.00  0.00    -0.282 N 
ATOM      2  H   UNL     1      43.008 132.830  16.125  1.00  0.00     0.358 HD
ATOM      3  H   UNL     1      42.341 131.267  16.191  1.00  0.00     0.358 HD
ENDROOT
BRANCH   1   4
ATOM      4  C   UNL     1      43.459 131.788  17.818  1.00  0.00     0.037 A 
ATOM      5  C   UNL     1      43.702 131.499  22.313  1.00  0.00     0.001 A 
ATOM      6  C   UNL     1      45.058 131.290  21.979  1.00  0.00    -0.001 A 
ATOM      7  C   UNL     1      42.745 131.715  21.305  1.00  0.00     0.007 A 
ATOM      8  C   UNL     1      45.469 131.295  20.633  1.00  0.00    -0.015 A 
ATOM      9  C   UNL     1      43.185 131.718  19.983  1.00  0.00    -0.036 A 
ATOM     10  C   UNL     1      44.501 131.515  19.654  1.00  0.00    -0.125 A 
ATOM     11  C   UNL     1      42.490 131.893  18.813  1.00  0.00     0.050 A 
ATOM     12  N   UNL     1      44.694 131.546  18.323  1.00  0.00    -0.610 NA
ENDBRANCH   1   4
BRANCH   1  13
ATOM     13  C   UNL     1      44.318 131.324  15.698  1.00  0.00     0.246 A 
ATOM     14  C   UNL     1      45.130 132.057  14.846  1.00  0.00     0.183 A 
ATOM     15  N   UNL     1      44.787 130.061  15.851  1.00  0.00    -0.177 NA
ATOM     16  N   UNL     1      46.107 131.230  14.451  1.00  0.00    -0.301 N 
ATOM     17  C   UNL     1      45.880 130.053  15.059  1.00  0.00     0.143 A 
ATOM     18  C   UNL     1      47.156 131.456  13.620  1.00  0.00     0.093 A 
ATOM     19  C   UNL     1      46.735 128.971  14.862  1.00  0.00     0.048 A 
ATOM     20  C   UNL     1      48.049 130.401  13.382  1.00  0.00     0.018 A 
ATOM     21  C   UNL     1      47.834 129.156  14.006  1.00  0.00     0.005 A 
ENDBRANCH   1  13
TORSDOF 2
ENDMDL
MODEL 9
REMARK VINA RESULT:      -7.8      3.029      4.980
REMARK SMILES c1ccc2[n-]c([NH2+]c3cn4ccccc4n3)cc2c1
REMARK SMILES IDX 7 1 6 4 1 5 2 6 19 7 3 8 18 9 4 10 17 11 5 12 8 13 9 14
REMARK SMILES IDX 16 15 10 16 15 17 11 18 14 19 12 20 13 21
REMARK H PARENT 7 2 7 3
ROOT
ATOM      1  N   UNL     1      44.850 131.380  22.233  1.00  0.00    -0.282 N 
ATOM      2  H   UNL     1      44.379 132.255  22.561  1.00  0.00     0.358 HD
ATOM      3  H   UNL     1      45.836 131.378  22.582  1.00  0.00     0.358 HD
ENDROOT
BRANCH   1   4
ATOM      4  C   UNL     1      44.839 131.334  20.801  1.00  0.00     0.037 A 
ATOM      5  C   UNL     1      45.211 130.718  16.348  1.00  0.00     0.001 A 
ATOM      6  C   UNL     1      43.977 131.403  16.400  1.00  0.00    -0.001 A 
ATOM      7  C   UNL     1      45.920 130.437  17.530  1.00  0.00     0.007 A 
ATOM      8  C   UNL     1      43.441 131.812  17.635  1.00  0.00    -0.015 A 
ATOM      9  C   UNL     1      45.363 130.859  18.736  1.00  0.00    -0.036 A 
ATOM     10  C   UNL     1      44.165 131.523  18.791  1.00  0.00    -0.125 A 
ATOM     11  C   UNL     1      45.817 130.720  20.024  1.00  0.00     0.050 A 
ATOM     12  N   UNL     1      43.816 131.821  20.055  1.00  0.00    -0.610 NA
ENDBRANCH   1   4
BRANCH   1  13
ATOM     13  C   UNL     1      44.156 130.234  22.744  1.00  0.00     0.246 A 
ATOM     14  C   UNL     1      42.828 130.214  23.141  1.00  0.00     0.183 A 
ATOM     15  N   UNL     1      44.703 128.996  22.808  1.00  0.00    -0.177 NA
ATOM     16  N   UNL     1      42.553 128.946  23.474  1.00  0.00    -0.301 N 
ATOM     17  C   UNL     1      43.682 128.244  23.269  1.00  0.00     0.143 A 
ATOM     18  C   UNL     1      41.397 128.394  23.922  1.00  0.00     0.093 A 
ATOM     19  C   UNL     1      43.724 126.873  23.514  1.00  0.00     0.048 A 
ATOM     20  C   UNL     1      41.382 127.017  24.189  1.00  0.00     0.018 A 
ATOM     21  C   UNL     1      42.551 126.258  23.984  1.00  0.00     0.005 A 
ENDBRANCH   1  13
TORSDOF 2
ENDMDL


