REMARK SMILES Cc1cc(-c2c[nH+]c3c(c2)C(=O)NC3)c(N)c2cc[nH]c12
REMARK SMILES IDX 1 1 2 2 3 3 4 4 15 5 17 6 18 7 19 8 20 9 21 10 5 12 6 13
REMARK SMILES IDX 10 14 7 15 9 16 8 17 11 18 14 19 13 20 12 22 16 24
REMARK H PARENT 20 11 7 21 13 23 16 25 16 26
ROOT
ATOM      1  C   UNL     1       1.797  -2.454  -2.674  1.00  0.00     0.046 C 
ATOM      2  C   UNL     1       1.551  -1.050  -2.204  1.00  0.00    -0.026 A 
ATOM      3  C   UNL     1       0.692  -0.784  -1.118  1.00  0.00     0.016 A 
ATOM      4  C   UNL     1       0.466   0.542  -0.669  1.00  0.00     0.012 A 
ATOM      5  C   UNL     1       1.096   1.631  -1.333  1.00  0.00     0.049 A 
ATOM      6  C   UNL     1       1.951   1.330  -2.401  1.00  0.00     0.023 A 
ATOM      7  C   UNL     1       2.692   2.154  -3.227  1.00  0.00     0.030 A 
ATOM      8  C   UNL     1       3.337   1.305  -4.116  1.00  0.00     0.083 A 
ATOM      9  N   UNL     1       3.017   0.018  -3.865  1.00  0.00    -0.361 N 
ATOM     10  C   UNL     1       2.170   0.041  -2.820  1.00  0.00     0.050 A 
ATOM     11  H   UNL     1       3.359  -0.819  -4.388  1.00  0.00     0.166 HD
ENDROOT
BRANCH   4  12
ATOM     12  C   UNL     1      -0.408   0.748   0.507  1.00  0.00     0.049 A 
ATOM     13  C   UNL     1      -1.736   0.255   0.507  1.00  0.00     0.315 A 
ATOM     14  C   UNL     1       0.084   1.396   1.658  1.00  0.00     0.035 A 
ATOM     15  N   UNL     1      -2.541   0.421   1.599  1.00  0.00    -0.212 N 
ATOM     16  C   UNL     1      -0.778   1.540   2.739  1.00  0.00     0.109 A 
ATOM     17  C   UNL     1      -2.062   1.059   2.698  1.00  0.00     0.211 A 
ATOM     18  C   UNL     1      -0.593   2.140   4.034  1.00  0.00     0.258 C 
ATOM     19  C   UNL     1      -2.792   1.326   3.983  1.00  0.00     0.225 C 
ATOM     20  N   UNL     1      -1.790   2.022   4.794  1.00  0.00    -0.342 N 
ATOM     21  H   UNL     1      -3.520   0.057   1.588  1.00  0.00     0.453 HD
ATOM     22  O   UNL     1       0.460   2.691   4.452  1.00  0.00    -0.269 OA
ATOM     23  H   UNL     1      -1.930   2.373   5.768  1.00  0.00     0.164 HD
ENDBRANCH   4  12
BRANCH   5  24
ATOM     24  N   UNL     1       0.839   2.994  -0.966  1.00  0.00    -0.398 N 
ATOM     25  H   UNL     1       1.363   3.780  -1.408  1.00  0.00     0.156 HD
ATOM     26  H   UNL     1       0.080   3.248  -0.296  1.00  0.00     0.156 HD
ENDBRANCH   5  24
TORSDOF 2


