REMARK SMILES [H]/N=c1\[n-]cccc1[NH2+]c1ccc(C(C)=O)c(F)c1
REMARK SMILES IDX 9 1 8 4 3 5 4 6 5 7 7 8 6 9 2 10 1 11 10 12 11 13 19 14
REMARK SMILES IDX 12 15 17 16 13 17 18 18 14 19 16 20 15 21
REMARK H PARENT 9 2 9 3
ROOT
ATOM      1  N   UNL     1       1.153   1.542   0.566  1.00  0.00    -0.282 N 
ATOM      2  H   UNL     1       2.150   1.800   0.753  1.00  0.00     0.358 HD
ATOM      3  H   UNL     1       0.966   1.801  -0.430  1.00  0.00     0.358 HD
ENDROOT
BRANCH   1   4
ATOM      4  C   UNL     1       0.277   2.273   1.454  1.00  0.00     0.133 A 
ATOM      5  C   UNL     1      -1.047   2.605   1.085  1.00  0.00    -0.002 A 
ATOM      6  N   UNL     1      -1.849   3.270   1.963  1.00  0.00    -0.438 NA
ATOM      7  C   UNL     1      -1.422   3.630   3.201  1.00  0.00    -0.022 A 
ATOM      8  C   UNL     1       0.722   2.639   2.736  1.00  0.00     0.067 A 
ATOM      9  C   UNL     1      -0.126   3.319   3.610  1.00  0.00     0.002 A 
BRANCH   5  10
ATOM     10  N   UNL     1      -1.507   2.287  -0.083  1.00  0.00    -0.477 NA
ATOM     11  H   UNL     1      -2.482   2.525  -0.371  1.00  0.00     0.020 HD
ENDBRANCH   5  10
ENDBRANCH   1   4
BRANCH   1  12
ATOM     12  C   UNL     1       0.977   0.123   0.762  1.00  0.00     0.137 A 
ATOM     13  C   UNL     1       1.648  -0.538   1.802  1.00  0.00     0.069 A 
ATOM     14  C   UNL     1       0.108  -0.611  -0.061  1.00  0.00     0.108 A 
ATOM     15  C   UNL     1       1.461  -1.906   2.010  1.00  0.00     0.021 A 
ATOM     16  C   UNL     1      -0.083  -1.981   0.143  1.00  0.00     0.139 A 
ATOM     17  C   UNL     1       0.600  -2.651   1.183  1.00  0.00     0.053 A 
ATOM     18  F   UNL     1      -0.961  -2.629  -0.663  1.00  0.00    -0.206 F 
BRANCH  17  19
ATOM     19  C   UNL     1       0.433  -4.109   1.437  1.00  0.00     0.162 C 
ATOM     20  O   UNL     1       0.744  -4.581   2.564  1.00  0.00    -0.294 OA
ATOM     21  C   UNL     1      -0.102  -5.051   0.401  1.00  0.00     0.093 C 
ENDBRANCH  17  19
ENDBRANCH   1  12
TORSDOF 4


