MODEL 1
REMARK VINA RESULT:      -9.8      0.000      0.000
REMARK SMILES O=Cc1c(NC2CC(=O)C2)ccc2cc3ccccc3cc12
REMARK SMILES IDX 3 1 4 2 11 3 12 4 13 5 14 6 15 7 16 8 17 9 18 10 19 11 20 12
REMARK SMILES IDX 21 13 22 14 2 15 1 16 5 17 6 19 7 20 10 21 8 22 9 23
REMARK H PARENT 5 18
ROOT
ATOM      1  C   UNL     1      43.229 131.845  19.857  1.00  0.00     0.045 A 
ATOM      2  C   UNL     1      43.685 131.580  21.176  1.00  0.00     0.046 A 
ATOM      3  C   UNL     1      44.924 130.949  21.366  1.00  0.00     0.027 A 
ATOM      4  C   UNL     1      45.725 130.604  20.283  1.00  0.00     0.011 A 
ATOM      5  C   UNL     1      45.306 130.873  18.977  1.00  0.00    -0.017 A 
ATOM      6  C   UNL     1      46.131 130.516  17.899  1.00  0.00     0.017 A 
ATOM      7  C   UNL     1      45.723 130.753  16.582  1.00  0.00    -0.018 A 
ATOM      8  C   UNL     1      46.548 130.396  15.503  1.00  0.00     0.009 A 
ATOM      9  C   UNL     1      46.129 130.630  14.191  1.00  0.00     0.001 A 
ATOM     10  C   UNL     1      44.886 131.218  13.945  1.00  0.00     0.001 A 
ATOM     11  C   UNL     1      44.055 131.577  15.011  1.00  0.00     0.009 A 
ATOM     12  C   UNL     1      44.467 131.350  16.335  1.00  0.00    -0.018 A 
ATOM     13  C   UNL     1      43.640 131.708  17.410  1.00  0.00     0.018 A 
ATOM     14  C   UNL     1      44.049 131.491  18.746  1.00  0.00    -0.005 A 
ENDROOT
BRANCH   1  15
ATOM     15  C   UNL     1      41.899 132.465  19.646  1.00  0.00     0.262 C 
ATOM     16  O   UNL     1      41.521 133.438  20.354  1.00  0.00    -0.298 OA
ENDBRANCH   1  15
BRANCH   2  17
ATOM     17  N   UNL     1      42.917 132.007  22.321  1.00  0.00    -0.381 N 
ATOM     18  H   UNL     1      42.589 132.998  22.362  1.00  0.00     0.160 HD
BRANCH  17  19
ATOM     19  C   UNL     1      42.654 131.140  23.477  1.00  0.00     0.094 C 
ATOM     20  C   UNL     1      42.848 129.680  23.179  1.00  0.00     0.100 C 
ATOM     21  C   UNL     1      43.835 131.023  24.395  1.00  0.00     0.100 C 
ATOM     22  C   UNL     1      44.036 129.545  24.114  1.00  0.00     0.137 C 
ATOM     23  O   UNL     1      44.797 128.661  24.472  1.00  0.00    -0.300 OA
ENDBRANCH  17  19
ENDBRANCH   2  17
TORSDOF 3
ENDMDL
MODEL 2
REMARK VINA RESULT:      -9.7      0.878      1.055
REMARK SMILES O=Cc1c(NC2CC(=O)C2)ccc2cc3ccccc3cc12
REMARK SMILES IDX 3 1 4 2 11 3 12 4 13 5 14 6 15 7 16 8 17 9 18 10 19 11 20 12
REMARK SMILES IDX 21 13 22 14 2 15 1 16 5 17 6 19 7 20 10 21 8 22 9 23
REMARK H PARENT 5 18
ROOT
ATOM      1  C   UNL     1      43.454 131.734  19.743  1.00  0.00     0.045 A 
ATOM      2  C   UNL     1      43.913 131.448  21.057  1.00  0.00     0.046 A 
ATOM      3  C   UNL     1      45.141 130.791  21.233  1.00  0.00     0.027 A 
ATOM      4  C   UNL     1      45.927 130.441  20.142  1.00  0.00     0.011 A 
ATOM      5  C   UNL     1      45.506 130.730  18.841  1.00  0.00    -0.017 A 
ATOM      6  C   UNL     1      46.317 130.368  17.755  1.00  0.00     0.017 A 
ATOM      7  C   UNL     1      45.906 130.625  16.443  1.00  0.00    -0.018 A 
ATOM      8  C   UNL     1      46.717 130.262  15.356  1.00  0.00     0.009 A 
ATOM      9  C   UNL     1      46.294 130.516  14.048  1.00  0.00     0.001 A 
ATOM     10  C   UNL     1      45.061 131.131  13.816  1.00  0.00     0.001 A 
ATOM     11  C   UNL     1      44.245 131.496  14.890  1.00  0.00     0.009 A 
ATOM     12  C   UNL     1      44.660 131.248  16.209  1.00  0.00    -0.018 A 
ATOM     13  C   UNL     1      43.847 131.613  17.293  1.00  0.00     0.018 A 
ATOM     14  C   UNL     1      44.260 131.375  18.624  1.00  0.00    -0.005 A 
ENDROOT
BRANCH   1  15
ATOM     15  C   UNL     1      42.135 132.382  19.548  1.00  0.00     0.262 C 
ATOM     16  O   UNL     1      41.819 133.412  20.201  1.00  0.00    -0.298 OA
ENDBRANCH   1  15
BRANCH   2  17
ATOM     17  N   UNL     1      43.161 131.879  22.211  1.00  0.00    -0.381 N 
ATOM     18  H   UNL     1      42.533 132.708  22.117  1.00  0.00     0.160 HD
BRANCH  17  19
ATOM     19  C   UNL     1      43.307 131.264  23.537  1.00  0.00     0.094 C 
ATOM     20  C   UNL     1      42.004 131.124  24.273  1.00  0.00     0.100 C 
ATOM     21  C   UNL     1      43.340 129.765  23.480  1.00  0.00     0.100 C 
ATOM     22  C   UNL     1      42.031 129.606  24.233  1.00  0.00     0.137 C 
ATOM     23  O   UNL     1      41.329 128.689  24.624  1.00  0.00    -0.300 OA
ENDBRANCH  17  19
ENDBRANCH   2  17
TORSDOF 3
ENDMDL
MODEL 3
REMARK VINA RESULT:      -9.1      1.376      2.426
REMARK SMILES O=Cc1c(NC2CC(=O)C2)ccc2cc3ccccc3cc12
REMARK SMILES IDX 3 1 4 2 11 3 12 4 13 5 14 6 15 7 16 8 17 9 18 10 19 11 20 12
REMARK SMILES IDX 21 13 22 14 2 15 1 16 5 17 6 19 7 20 10 21 8 22 9 23
REMARK H PARENT 5 18
ROOT
ATOM      1  C   UNL     1      44.862 131.401  19.796  1.00  0.00     0.045 A 
ATOM      2  C   UNL     1      43.701 131.718  20.550  1.00  0.00     0.046 A 
ATOM      3  C   UNL     1      42.497 131.994  19.882  1.00  0.00     0.027 A 
ATOM      4  C   UNL     1      42.418 131.936  18.496  1.00  0.00     0.011 A 
ATOM      5  C   UNL     1      43.543 131.606  17.735  1.00  0.00    -0.017 A 
ATOM      6  C   UNL     1      43.439 131.553  16.336  1.00  0.00     0.017 A 
ATOM      7  C   UNL     1      44.557 131.249  15.551  1.00  0.00    -0.018 A 
ATOM      8  C   UNL     1      44.454 131.196  14.152  1.00  0.00     0.009 A 
ATOM      9  C   UNL     1      45.578 130.900  13.376  1.00  0.00     0.001 A 
ATOM     10  C   UNL     1      46.809 130.657  13.988  1.00  0.00     0.001 A 
ATOM     11  C   UNL     1      46.924 130.708  15.380  1.00  0.00     0.009 A 
ATOM     12  C   UNL     1      45.802 131.002  16.171  1.00  0.00    -0.018 A 
ATOM     13  C   UNL     1      45.908 131.054  17.569  1.00  0.00     0.018 A 
ATOM     14  C   UNL     1      44.782 131.341  18.374  1.00  0.00    -0.005 A 
ENDROOT
BRANCH   1  15
ATOM     15  C   UNL     1      46.149 131.158  20.491  1.00  0.00     0.262 C 
ATOM     16  O   UNL     1      46.648 132.032  21.249  1.00  0.00    -0.298 OA
ENDBRANCH   1  15
BRANCH   2  17
ATOM     17  N   UNL     1      43.730 131.698  21.993  1.00  0.00    -0.381 N 
ATOM     18  H   UNL     1      44.280 132.432  22.491  1.00  0.00     0.160 HD
BRANCH  17  19
ATOM     19  C   UNL     1      43.098 130.641  22.792  1.00  0.00     0.094 C 
ATOM     20  C   UNL     1      43.699 129.283  22.561  1.00  0.00     0.100 C 
ATOM     21  C   UNL     1      43.652 130.557  24.185  1.00  0.00     0.100 C 
ATOM     22  C   UNL     1      44.255 129.180  23.970  1.00  0.00     0.137 C 
ATOM     23  O   UNL     1      44.889 128.369  24.624  1.00  0.00    -0.300 OA
ENDBRANCH  17  19
ENDBRANCH   2  17
TORSDOF 3
ENDMDL
MODEL 4
REMARK VINA RESULT:      -8.9      1.613      2.601
REMARK SMILES O=Cc1c(NC2CC(=O)C2)ccc2cc3ccccc3cc12
REMARK SMILES IDX 3 1 4 2 11 3 12 4 13 5 14 6 15 7 16 8 17 9 18 10 19 11 20 12
REMARK SMILES IDX 21 13 22 14 2 15 1 16 5 17 6 19 7 20 10 21 8 22 9 23
REMARK H PARENT 5 18
ROOT
ATOM      1  C   UNL     1      44.871 131.650  20.344  1.00  0.00     0.045 A 
ATOM      2  C   UNL     1      43.785 131.907  21.222  1.00  0.00     0.046 A 
ATOM      3  C   UNL     1      42.500 132.109  20.692  1.00  0.00     0.027 A 
ATOM      4  C   UNL     1      42.271 132.034  19.323  1.00  0.00     0.011 A 
ATOM      5  C   UNL     1      43.321 131.761  18.442  1.00  0.00    -0.017 A 
ATOM      6  C   UNL     1      43.066 131.689  17.064  1.00  0.00     0.017 A 
ATOM      7  C   UNL     1      44.104 131.442  16.160  1.00  0.00    -0.018 A 
ATOM      8  C   UNL     1      43.849 131.370  14.781  1.00  0.00     0.009 A 
ATOM      9  C   UNL     1      44.895 131.130  13.885  1.00  0.00     0.001 A 
ATOM     10  C   UNL     1      46.199 130.963  14.357  1.00  0.00     0.001 A 
ATOM     11  C   UNL     1      46.465 131.033  15.727  1.00  0.00     0.009 A 
ATOM     12  C   UNL     1      45.423 131.271  16.638  1.00  0.00    -0.018 A 
ATOM     13  C   UNL     1      45.680 131.342  18.015  1.00  0.00     0.018 A 
ATOM     14  C   UNL     1      44.637 131.572  18.940  1.00  0.00    -0.005 A 
ENDROOT
BRANCH   1  15
ATOM     15  C   UNL     1      46.239 131.486  20.892  1.00  0.00     0.262 C 
ATOM     16  O   UNL     1      46.858 132.466  21.387  1.00  0.00    -0.298 OA
ENDBRANCH   1  15
BRANCH   2  17
ATOM     17  N   UNL     1      43.975 131.903  22.652  1.00  0.00    -0.381 N 
ATOM     18  H   UNL     1      44.157 132.811  23.135  1.00  0.00     0.160 HD
BRANCH  17  19
ATOM     19  C   UNL     1      44.018 130.671  23.451  1.00  0.00     0.094 C 
ATOM     20  C   UNL     1      42.805 130.482  24.317  1.00  0.00     0.100 C 
ATOM     21  C   UNL     1      43.555 129.466  22.684  1.00  0.00     0.100 C 
ATOM     22  C   UNL     1      42.331 129.256  23.557  1.00  0.00     0.137 C 
ATOM     23  O   UNL     1      41.401 128.468  23.620  1.00  0.00    -0.300 OA
ENDBRANCH  17  19
ENDBRANCH   2  17
TORSDOF 3
ENDMDL
MODEL 5
REMARK VINA RESULT:      -7.7      2.685      6.810
REMARK SMILES O=Cc1c(NC2CC(=O)C2)ccc2cc3ccccc3cc12
REMARK SMILES IDX 3 1 4 2 11 3 12 4 13 5 14 6 15 7 16 8 17 9 18 10 19 11 20 12
REMARK SMILES IDX 21 13 22 14 2 15 1 16 5 17 6 19 7 20 10 21 8 22 9 23
REMARK H PARENT 5 18
ROOT
ATOM      1  C   UNL     1      43.552 131.684  18.177  1.00  0.00     0.045 A 
ATOM      2  C   UNL     1      44.576 131.392  17.237  1.00  0.00     0.046 A 
ATOM      3  C   UNL     1      45.808 130.893  17.689  1.00  0.00     0.027 A 
ATOM      4  C   UNL     1      46.031 130.654  19.040  1.00  0.00     0.011 A 
ATOM      5  C   UNL     1      45.032 130.915  19.981  1.00  0.00    -0.017 A 
ATOM      6  C   UNL     1      45.279 130.666  21.340  1.00  0.00     0.017 A 
ATOM      7  C   UNL     1      44.303 130.941  22.303  1.00  0.00    -0.018 A 
ATOM      8  C   UNL     1      44.551 130.692  23.663  1.00  0.00     0.009 A 
ATOM      9  C   UNL     1      43.572 130.979  24.619  1.00  0.00     0.001 A 
ATOM     10  C   UNL     1      42.344 131.515  24.227  1.00  0.00     0.001 A 
ATOM     11  C   UNL     1      42.086 131.768  22.876  1.00  0.00     0.009 A 
ATOM     12  C   UNL     1      43.060 131.482  21.906  1.00  0.00    -0.018 A 
ATOM     13  C   UNL     1      42.810 131.732  20.548  1.00  0.00     0.018 A 
ATOM     14  C   UNL     1      43.781 131.440  19.563  1.00  0.00    -0.005 A 
ENDROOT
BRANCH   1  15
ATOM     15  C   UNL     1      42.267 132.259  17.714  1.00  0.00     0.262 C 
ATOM     16  O   UNL     1      41.506 132.868  18.513  1.00  0.00    -0.298 OA
ENDBRANCH   1  15
BRANCH   2  17
ATOM     17  N   UNL     1      44.343 131.545  15.821  1.00  0.00    -0.381 N 
ATOM     18  H   UNL     1      43.876 132.416  15.483  1.00  0.00     0.160 HD
BRANCH  17  19
ATOM     19  C   UNL     1      44.646 130.494  14.842  1.00  0.00     0.094 C 
ATOM     20  C   UNL     1      45.771 130.854  13.914  1.00  0.00     0.100 C 
ATOM     21  C   UNL     1      45.552 129.431  15.393  1.00  0.00     0.100 C 
ATOM     22  C   UNL     1      46.694 129.776  14.454  1.00  0.00     0.137 C 
ATOM     23  O   UNL     1      47.825 129.374  14.234  1.00  0.00    -0.300 OA
ENDBRANCH  17  19
ENDBRANCH   2  17
TORSDOF 3
ENDMDL
MODEL 6
REMARK VINA RESULT:      -6.9      1.764      3.298
REMARK SMILES O=Cc1c(NC2CC(=O)C2)ccc2cc3ccccc3cc12
REMARK SMILES IDX 3 1 4 2 11 3 12 4 13 5 14 6 15 7 16 8 17 9 18 10 19 11 20 12
REMARK SMILES IDX 21 13 22 14 2 15 1 16 5 17 6 19 7 20 10 21 8 22 9 23
REMARK H PARENT 5 18
ROOT
ATOM      1  C   UNL     1      44.975 130.587  18.474  1.00  0.00     0.045 A 
ATOM      2  C   UNL     1      43.776 131.213  18.909  1.00  0.00     0.046 A 
ATOM      3  C   UNL     1      43.010 131.952  17.993  1.00  0.00     0.027 A 
ATOM      4  C   UNL     1      43.392 132.057  16.661  1.00  0.00     0.011 A 
ATOM      5  C   UNL     1      44.557 131.432  16.206  1.00  0.00    -0.017 A 
ATOM      6  C   UNL     1      44.923 131.551  14.856  1.00  0.00     0.017 A 
ATOM      7  C   UNL     1      46.096 130.956  14.382  1.00  0.00    -0.018 A 
ATOM      8  C   UNL     1      46.463 131.075  13.032  1.00  0.00     0.009 A 
ATOM      9  C   UNL     1      47.642 130.483  12.570  1.00  0.00     0.001 A 
ATOM     10  C   UNL     1      48.462 129.771  13.448  1.00  0.00     0.001 A 
ATOM     11  C   UNL     1      48.107 129.647  14.795  1.00  0.00     0.009 A 
ATOM     12  C   UNL     1      46.924 130.235  15.271  1.00  0.00    -0.018 A 
ATOM     13  C   UNL     1      46.560 130.113  16.621  1.00  0.00     0.018 A 
ATOM     14  C   UNL     1      45.368 130.694  17.108  1.00  0.00    -0.005 A 
ENDROOT
BRANCH   1  15
ATOM     15  C   UNL     1      45.816 129.848  19.446  1.00  0.00     0.262 C 
ATOM     16  O   UNL     1      46.489 130.464  20.316  1.00  0.00    -0.298 OA
ENDBRANCH   1  15
BRANCH   2  17
ATOM     17  N   UNL     1      43.307 131.048  20.264  1.00  0.00    -0.381 N 
ATOM     18  H   UNL     1      42.831 130.155  20.522  1.00  0.00     0.160 HD
BRANCH  17  19
ATOM     19  C   UNL     1      43.385 132.112  21.273  1.00  0.00     0.094 C 
ATOM     20  C   UNL     1      42.456 131.896  22.435  1.00  0.00     0.100 C 
ATOM     21  C   UNL     1      44.511 131.908  22.245  1.00  0.00     0.100 C 
ATOM     22  C   UNL     1      43.585 131.701  23.430  1.00  0.00     0.137 C 
ATOM     23  O   UNL     1      43.697 131.480  24.625  1.00  0.00    -0.300 OA
ENDBRANCH  17  19
ENDBRANCH   2  17
TORSDOF 3
ENDMDL


