REMARK SMILES Nc1c(C(=O)[N-]Cc2ccc[nH]2)ccc2cc[nH]c12
REMARK SMILES IDX 4 1 5 2 3 3 2 4 19 5 13 6 18 7 15 8 14 9 17 10 16 11 1 13
REMARK SMILES IDX 6 16 7 17 8 18 9 19 12 20 10 21 11 22
REMARK H PARENT 18 12 1 14 1 15 12 23
ROOT
ATOM      1  C   UNL     1       0.372   0.063  -0.129  1.00  0.00     0.084 C 
ATOM      2  O   UNL     1       1.229   0.942   0.161  1.00  0.00    -0.315 OA
ENDROOT
BRANCH   1   3
ATOM      3  C   UNL     1       0.158  -1.097   0.765  1.00  0.00     0.024 A 
ATOM      4  C   UNL     1       1.223  -1.698   1.502  1.00  0.00     0.065 A 
ATOM      5  C   UNL     1       0.893  -2.736   2.388  1.00  0.00     0.069 A 
ATOM      6  C   UNL     1      -1.165  -1.589   0.921  1.00  0.00     0.013 A 
ATOM      7  N   UNL     1       1.720  -3.450   3.176  1.00  0.00    -0.359 N 
ATOM      8  C   UNL     1      -0.395  -3.182   2.529  1.00  0.00     0.002 A 
ATOM      9  C   UNL     1      -1.449  -2.638   1.808  1.00  0.00     0.011 A 
ATOM     10  C   UNL     1       0.942  -4.347   3.824  1.00  0.00     0.083 A 
ATOM     11  C   UNL     1      -0.387  -4.210   3.445  1.00  0.00     0.028 A 
ATOM     12  H   UNL     1       2.753  -3.354   3.279  1.00  0.00     0.166 HD
BRANCH   4  13
ATOM     13  N   UNL     1       2.592  -1.311   1.312  1.00  0.00    -0.396 N 
ATOM     14  H   UNL     1       2.902  -0.794   0.461  1.00  0.00     0.156 HD
ATOM     15  H   UNL     1       3.339  -1.620   1.970  1.00  0.00     0.156 HD
ENDBRANCH   4  13
ENDBRANCH   1   3
BRANCH   1  16
ATOM     16  N   UNL     1      -0.434   0.213  -1.303  1.00  0.00    -0.644 NA
BRANCH  16  17
ATOM     17  C   UNL     1      -0.356   1.363  -2.195  1.00  0.00    -0.062 C 
BRANCH  17  18
ATOM     18  C   UNL     1      -0.927   2.575  -1.526  1.00  0.00    -0.003 A 
ATOM     19  C   UNL     1      -2.268   2.797  -1.280  1.00  0.00     0.021 A 
ATOM     20  N   UNL     1      -0.186   3.579  -1.022  1.00  0.00    -0.366 N 
ATOM     21  C   UNL     1      -2.341   3.998  -0.604  1.00  0.00     0.019 A 
ATOM     22  C   UNL     1      -1.044   4.451  -0.462  1.00  0.00     0.082 A 
ATOM     23  H   UNL     1       0.854   3.666  -1.049  1.00  0.00     0.166 HD
ENDBRANCH  17  18
ENDBRANCH  16  17
ENDBRANCH   1  16
TORSDOF 5


