REMARK SMILES Cc1ccc(-c2ccc([N-]C(=O)c3cccc(C)c3)c(C(=O)O[C@H](C)[C@H](C)[N+](=O)[O-])c2)cc1
REMARK SMILES IDX 21 1 22 2 20 3 6 4 7 5 31 6 8 7 9 8 5 9 2 10 3 11 33 12 4 13
REMARK SMILES IDX 32 14 1 15 10 16 11 17 12 18 13 19 14 20 19 21 15 22 17 23
REMARK SMILES IDX 16 24 18 25 23 26 24 27 25 28 26 29 27 30 28 31 29 32 30 33
REMARK H PARENT
ROOT
ATOM      1  C   UNL     1       1.421  -1.031  -0.138  1.00  0.00     0.337 C 
ATOM      2  O   UNL     1       2.328  -1.654  -0.754  1.00  0.00    -0.246 OA
ENDROOT
BRANCH   1   3
ATOM      3  C   UNL     1       0.067  -1.613  -0.006  1.00  0.00     0.046 A 
ATOM      4  C   UNL     1      -1.944  -1.873   1.367  1.00  0.00    -0.018 A 
ATOM      5  C   UNL     1      -2.434  -2.817   0.452  1.00  0.00     0.007 A 
ATOM      6  C   UNL     1      -0.692  -1.281   1.131  1.00  0.00     0.023 A 
ATOM      7  C   UNL     1      -1.700  -3.142  -0.688  1.00  0.00    -0.014 A 
ATOM      8  C   UNL     1      -0.472  -2.526  -0.950  1.00  0.00    -0.119 A 
BRANCH   4   9
ATOM      9  C   UNL     1      -2.732  -1.517   2.575  1.00  0.00    -0.018 A 
ATOM     10  C   UNL     1      -4.227  -0.829   4.864  1.00  0.00    -0.051 A 
ATOM     11  C   UNL     1      -4.864  -0.992   3.626  1.00  0.00     0.004 A 
ATOM     12  C   UNL     1      -2.844  -1.037   4.959  1.00  0.00     0.004 A 
ATOM     13  C   UNL     1      -4.123  -1.327   2.489  1.00  0.00     0.009 A 
ATOM     14  C   UNL     1      -2.101  -1.371   3.823  1.00  0.00     0.009 A 
ATOM     15  C   UNL     1      -5.030  -0.509   6.090  1.00  0.00     0.044 C 
ENDBRANCH   4   9
BRANCH   8  16
ATOM     16  N   UNL     1       0.177  -2.834  -2.192  1.00  0.00    -0.622 NA
BRANCH  16  17
ATOM     17  C   UNL     1       0.720  -1.892  -3.130  1.00  0.00     0.085 C 
ATOM     18  O   UNL     1       1.559  -2.306  -3.974  1.00  0.00    -0.315 OA
BRANCH  17  19
ATOM     19  C   UNL     1       0.326  -0.462  -3.147  1.00  0.00    -0.000 A 
ATOM     20  C   UNL     1      -0.980  -0.062  -2.813  1.00  0.00     0.010 A 
ATOM     21  C   UNL     1       1.258   0.513  -3.544  1.00  0.00     0.013 A 
ATOM     22  C   UNL     1      -1.335   1.288  -2.846  1.00  0.00     0.001 A 
ATOM     23  C   UNL     1       0.904   1.871  -3.577  1.00  0.00    -0.050 A 
ATOM     24  C   UNL     1      -0.400   2.252  -3.230  1.00  0.00     0.003 A 
ATOM     25  C   UNL     1       1.894   2.894  -4.050  1.00  0.00     0.044 C 
ENDBRANCH  17  19
ENDBRANCH  16  17
ENDBRANCH   8  16
ENDBRANCH   1   3
BRANCH   1  26
ATOM     26  O   UNL     1       1.696   0.205   0.462  1.00  0.00    -0.452 OA
BRANCH  26  27
ATOM     27  C   UNL     1       2.969   0.853   0.408  1.00  0.00     0.247 C 
ATOM     28  C   UNL     1       3.943   0.147   1.362  1.00  0.00     0.061 C 
BRANCH  27  29
ATOM     29  C   UNL     1       2.793   2.339   0.798  1.00  0.00     0.364 C 
ATOM     30  C   UNL     1       1.786   3.045  -0.116  1.00  0.00     0.098 C 
BRANCH  29  31
ATOM     31  N   UNL     1       4.074   3.047   0.753  1.00  0.00     0.026 N 
ATOM     32  O   UNL     1       4.737   3.097  -0.305  1.00  0.00    -0.264 OA
ATOM     33  O   UNL     1       4.511   3.743   1.856  1.00  0.00    -0.264 OA
ENDBRANCH  29  31
ENDBRANCH  27  29
ENDBRANCH  26  27
ENDBRANCH   1  26
TORSDOF 9


