REMARK SMILES C=Cc1ccc(-c2ccc([O-])cc2)c2c[n-]nc12
REMARK SMILES IDX 3 1 4 2 5 3 6 4 14 5 15 6 16 7 17 8 18 9 2 10 1 11 7 12 8 13
REMARK SMILES IDX 13 14 9 15 12 16 10 17 11 18
REMARK H PARENT
ROOT
ATOM      1  C   UNL     1       0.915   0.750  -2.674  1.00  0.00    -0.002 A 
ATOM      2  C   UNL     1       1.028   1.928  -1.894  1.00  0.00     0.011 A 
ATOM      3  C   UNL     1       0.675   1.928  -0.527  1.00  0.00     0.010 A 
ATOM      4  C   UNL     1       0.186   0.760   0.098  1.00  0.00    -0.011 A 
ATOM      5  C   UNL     1       0.081  -0.386  -0.701  1.00  0.00    -0.014 A 
ATOM      6  C   UNL     1      -0.300  -1.681  -0.427  1.00  0.00    -0.113 A 
ATOM      7  N   UNL     1      -0.187  -2.406  -1.563  1.00  0.00    -0.581 NA
ATOM      8  N   UNL     1       0.257  -1.621  -2.540  1.00  0.00    -0.367 NA
ATOM      9  C   UNL     1       0.426  -0.390  -2.024  1.00  0.00     0.055 A 
ENDROOT
BRANCH   1  10
ATOM     10  C   UNL     1       1.267   0.689  -4.114  1.00  0.00     0.002 C 
ATOM     11  C   UNL     1       1.996   1.610  -4.746  1.00  0.00     0.009 C 
ENDBRANCH   1  10
BRANCH   4  12
ATOM     12  C   UNL     1      -0.194   0.768   1.529  1.00  0.00    -0.018 A 
ATOM     13  C   UNL     1      -1.429   0.241   1.946  1.00  0.00     0.008 A 
ATOM     14  C   UNL     1       0.667   1.331   2.488  1.00  0.00     0.008 A 
ATOM     15  C   UNL     1      -1.787   0.261   3.297  1.00  0.00    -0.008 A 
ATOM     16  C   UNL     1       0.306   1.349   3.838  1.00  0.00    -0.008 A 
ATOM     17  C   UNL     1      -0.920   0.813   4.244  1.00  0.00    -0.109 A 
ATOM     18  O   UNL     1      -1.276   0.832   5.587  1.00  0.00    -0.872 OA
ENDBRANCH   4  12
TORSDOF 2


