REMARK SMILES C=C1[C@@H](F)C[C@H](Nc2cccc(N)c2[O-])[C@H]2CC(c3ncncc3F)=N[C@@H]12
REMARK SMILES IDX 7 1 6 3 2 4 3 5 27 6 5 7 26 8 16 9 18 10 17 11 1 12 4 13
REMARK SMILES IDX 19 14 20 15 24 16 21 17 23 18 22 19 25 20 8 21 9 22 14 23
REMARK SMILES IDX 10 24 12 25 11 26 15 27 13 28
REMARK H PARENT 7 2 13 29 13 30
ROOT
ATOM      1  N   UNL     1      -0.208  -1.750   1.376  1.00  0.00    -0.382 N 
ATOM      2  H   UNL     1      -1.214  -1.975   1.549  1.00  0.00     0.160 HD
ENDROOT
BRANCH   1   3
ATOM      3  C   UNL     1       0.103  -0.477   0.703  1.00  0.00     0.088 C 
ATOM      4  C   UNL     1      -1.782  -1.069  -1.402  1.00  0.00    -0.019 C 
ATOM      5  C   UNL     1      -0.351  -1.541  -1.553  1.00  0.00     0.196 C 
ATOM      6  C   UNL     1      -2.186   0.048  -0.451  1.00  0.00     0.139 C 
ATOM      7  C   UNL     1       0.639  -0.732  -0.715  1.00  0.00     0.067 C 
ATOM      8  N   UNL     1      -2.402   1.265  -1.211  1.00  0.00    -0.279 NA
ATOM      9  C   UNL     1      -1.153   0.427   0.645  1.00  0.00     0.046 C 
ATOM     10  C   UNL     1      -1.686   2.248  -0.785  1.00  0.00     0.065 C 
ATOM     11  C   UNL     1      -0.818   1.905   0.370  1.00  0.00     0.066 C 
ATOM     12  C   UNL     1      -2.735  -1.662  -2.139  1.00  0.00     0.013 C 
ATOM     13  F   UNL     1       0.026  -1.466  -2.884  1.00  0.00    -0.243 F 
BRANCH  10  14
ATOM     14  C   UNL     1      -1.723   3.592  -1.401  1.00  0.00     0.123 A 
ATOM     15  N   UNL     1      -0.934   4.574  -0.884  1.00  0.00    -0.232 NA
ATOM     16  C   UNL     1      -2.545   3.888  -2.503  1.00  0.00     0.168 A 
ATOM     17  C   UNL     1      -0.925   5.826  -1.410  1.00  0.00     0.222 A 
ATOM     18  C   UNL     1      -2.520   5.181  -3.026  1.00  0.00     0.154 A 
ATOM     19  N   UNL     1      -1.714   6.123  -2.473  1.00  0.00    -0.242 NA
ATOM     20  F   UNL     1      -3.354   2.955  -3.066  1.00  0.00    -0.203 F 
ENDBRANCH  10  14
ENDBRANCH   1   3
BRANCH   1  21
ATOM     21  C   UNL     1       0.776  -2.738   1.750  1.00  0.00     0.028 A 
ATOM     22  C   UNL     1       2.144  -2.414   1.849  1.00  0.00     0.025 A 
ATOM     23  C   UNL     1       0.366  -4.056   2.040  1.00  0.00    -0.061 A 
ATOM     24  C   UNL     1       3.077  -3.384   2.219  1.00  0.00     0.004 A 
ATOM     25  C   UNL     1       1.310  -5.031   2.414  1.00  0.00     0.025 A 
ATOM     26  C   UNL     1       2.664  -4.686   2.500  1.00  0.00     0.025 A 
ATOM     27  O   UNL     1      -0.980  -4.401   1.948  1.00  0.00    -0.870 OA
BRANCH  25  28
ATOM     28  N   UNL     1       0.901  -6.372   2.707  1.00  0.00    -0.399 N 
ATOM     29  H   UNL     1      -0.102  -6.659   2.652  1.00  0.00     0.156 HD
ATOM     30  H   UNL     1       1.603  -7.094   2.983  1.00  0.00     0.156 HD
ENDBRANCH  25  28
ENDBRANCH   1  21
TORSDOF 4


