REMARK SMILES [NH-]C(=O)c1ccc(-c2cc(F)cc(F)c2OCc2n[nH]c3c2CCC3)cc1
REMARK SMILES IDX 8 1 9 2 10 3 11 4 12 5 13 6 14 7 15 8 7 9 4 10 5 11 27 12
REMARK SMILES IDX 6 13 26 14 2 15 3 16 1 17 16 19 17 20 18 21 19 22 22 23
REMARK SMILES IDX 20 24 21 25 23 26 25 27 24 28
REMARK H PARENT 1 18 20 29
ROOT
ATOM      1  C   UNL     1       0.707   0.621  -1.335  1.00  0.00     0.030 A 
ATOM      2  C   UNL     1       1.561   0.820  -2.432  1.00  0.00     0.052 A 
ATOM      3  C   UNL     1       2.925   1.040  -2.235  1.00  0.00     0.127 A 
ATOM      4  F   UNL     1       3.739   1.238  -3.301  1.00  0.00    -0.207 F 
ATOM      5  C   UNL     1       3.450   1.059  -0.944  1.00  0.00     0.082 A 
ATOM      6  C   UNL     1       2.619   0.851   0.161  1.00  0.00     0.168 A 
ATOM      7  F   UNL     1       3.176   0.884   1.396  1.00  0.00    -0.203 F 
ATOM      8  C   UNL     1       1.236   0.620  -0.025  1.00  0.00     0.163 A 
ENDROOT
BRANCH   1   9
ATOM      9  C   UNL     1      -0.736   0.375  -1.569  1.00  0.00    -0.014 A 
ATOM     10  C   UNL     1      -3.483  -0.143  -1.970  1.00  0.00    -0.001 A 
ATOM     11  C   UNL     1      -2.507  -0.891  -2.653  1.00  0.00     0.011 A 
ATOM     12  C   UNL     1      -3.068   0.874  -1.092  1.00  0.00     0.011 A 
ATOM     13  C   UNL     1      -1.148  -0.632  -2.457  1.00  0.00     0.009 A 
ATOM     14  C   UNL     1      -1.708   1.132  -0.896  1.00  0.00     0.009 A 
BRANCH  10  15
ATOM     15  C   UNL     1      -4.925  -0.423  -2.168  1.00  0.00     0.080 C 
ATOM     16  O   UNL     1      -5.795   0.261  -1.564  1.00  0.00    -0.315 OA
BRANCH  15  17
ATOM     17  N   UNL     1      -5.346  -1.467  -3.044  1.00  0.00    -0.664 NA
ATOM     18  H   UNL     1      -6.360  -1.671  -3.188  1.00  0.00    -0.121 HD
ENDBRANCH  15  17
ENDBRANCH  10  15
ENDBRANCH   1   9
BRANCH   8  19
ATOM     19  O   UNL     1       0.356   0.370   1.041  1.00  0.00    -0.483 OA
BRANCH  19  20
ATOM     20  C   UNL     1       0.723   0.101   2.390  1.00  0.00     0.288 C 
BRANCH  20  21
ATOM     21  C   UNL     1      -0.495  -0.288   3.162  1.00  0.00     0.103 A 
ATOM     22  N   UNL     1      -0.578  -0.227   4.512  1.00  0.00    -0.177 NA
ATOM     23  C   UNL     1      -1.558  -1.038   2.694  1.00  0.00    -0.000 A 
ATOM     24  N   UNL     1      -1.653  -0.910   4.884  1.00  0.00    -0.282 N 
ATOM     25  C   UNL     1      -2.251  -1.394   3.783  1.00  0.00     0.039 A 
ATOM     26  C   UNL     1      -1.693  -1.999   1.580  1.00  0.00     0.040 C 
ATOM     27  C   UNL     1      -2.992  -2.659   3.612  1.00  0.00     0.056 C 
ATOM     28  C   UNL     1      -2.769  -2.978   2.112  1.00  0.00     0.011 C 
ATOM     29  H   UNL     1      -1.890  -1.143   5.874  1.00  0.00     0.190 HD
ENDBRANCH  20  21
ENDBRANCH  19  20
ENDBRANCH   8  19
TORSDOF 6


