REMARK SMILES Cn1nnc2cc([N-]C(=O)c3cc(F)c[nH]3)ccc21
REMARK SMILES IDX 8 1 7 2 2 3 3 4 19 5 4 6 18 7 5 8 17 9 6 10 1 11 9 12 10 13
REMARK SMILES IDX 11 14 12 15 16 16 13 17 15 18 14 20
REMARK H PARENT 16 19
ROOT
ATOM      1  N   UNL     1       1.217  -1.683  -2.245  1.00  0.00    -0.621 NA
ENDROOT
BRANCH   1   2
ATOM      2  C   UNL     1       0.226  -0.773  -1.749  1.00  0.00    -0.132 A 
ATOM      3  N   UNL     1      -2.524   1.961  -0.448  1.00  0.00    -0.248 N 
ATOM      4  N   UNL     1      -1.838   3.070  -0.705  1.00  0.00    -0.066 NA
ATOM      5  C   UNL     1      -1.758   0.926  -0.820  1.00  0.00     0.088 A 
ATOM      6  N   UNL     1      -0.646   2.782  -1.227  1.00  0.00    -0.130 NA
ATOM      7  C   UNL     1      -2.013  -0.442  -0.789  1.00  0.00     0.029 A 
ATOM      8  C   UNL     1      -0.594   1.439  -1.298  1.00  0.00     0.111 A 
ATOM      9  C   UNL     1      -1.002  -1.297  -1.268  1.00  0.00    -0.014 A 
ATOM     10  C   UNL     1       0.428   0.630  -1.783  1.00  0.00     0.016 A 
ATOM     11  C   UNL     1      -3.876   1.923   0.095  1.00  0.00     0.176 C 
ENDBRANCH   1   2
BRANCH   1  12
ATOM     12  C   UNL     1       2.621  -1.420  -2.358  1.00  0.00     0.102 C 
ATOM     13  O   UNL     1       3.255  -1.919  -3.325  1.00  0.00    -0.313 OA
BRANCH  12  14
ATOM     14  C   UNL     1       3.352  -0.633  -1.345  1.00  0.00     0.066 A 
ATOM     15  C   UNL     1       4.603  -0.068  -1.527  1.00  0.00     0.069 A 
ATOM     16  N   UNL     1       2.911  -0.400  -0.091  1.00  0.00    -0.357 N 
ATOM     17  C   UNL     1       4.911   0.541  -0.330  1.00  0.00     0.141 A 
ATOM     18  C   UNL     1       3.860   0.322   0.533  1.00  0.00     0.122 A 
ATOM     19  H   UNL     1       2.020  -0.734   0.338  1.00  0.00     0.166 HD
ATOM     20  F   UNL     1       6.049   1.221  -0.048  1.00  0.00    -0.205 F 
ENDBRANCH  12  14
ENDBRANCH   1  12
TORSDOF 3


