MODEL 1
REMARK VINA RESULT:      -9.4      0.000      0.000
REMARK SMILES C[C@H]1CCc2ccc(-c3cccnc3F)nc2[C@@H]1F
REMARK SMILES IDX 1 1 2 2 3 3 4 4 5 5 6 6 7 7 8 8 16 9 17 10 18 11 19 12 9 13
REMARK SMILES IDX 10 14 14 15 11 16 13 17 12 18 15 19
REMARK H PARENT
ROOT
ATOM      1  C   UNL     1      44.359 131.418  22.722  1.00  0.00     0.011 C 
ATOM      2  C   UNL     1      43.800 131.260  21.303  1.00  0.00     0.027 C 
ATOM      3  C   UNL     1      42.792 132.379  20.994  1.00  0.00     0.011 C 
ATOM      4  C   UNL     1      42.128 132.141  19.634  1.00  0.00     0.038 C 
ATOM      5  C   UNL     1      43.131 131.834  18.549  1.00  0.00    -0.023 A 
ATOM      6  C   UNL     1      42.739 131.925  17.208  1.00  0.00     0.008 A 
ATOM      7  C   UNL     1      43.629 131.585  16.189  1.00  0.00     0.029 A 
ATOM      8  C   UNL     1      44.921 131.144  16.516  1.00  0.00     0.075 A 
ATOM      9  N   UNL     1      45.274 131.044  17.827  1.00  0.00    -0.249 NA
ATOM     10  C   UNL     1      44.425 131.353  18.845  1.00  0.00     0.079 A 
ATOM     11  C   UNL     1      44.937 131.274  20.262  1.00  0.00     0.218 C 
ATOM     12  F   UNL     1      45.708 130.132  20.406  1.00  0.00    -0.240 F 
ENDROOT
BRANCH   8  13
ATOM     13  C   UNL     1      45.905 130.781  15.464  1.00  0.00     0.055 A 
ATOM     14  C   UNL     1      46.547 131.774  14.699  1.00  0.00     0.017 A 
ATOM     15  C   UNL     1      46.241 129.434  15.220  1.00  0.00     0.222 A 
ATOM     16  C   UNL     1      47.479 131.417  13.724  1.00  0.00     0.021 A 
ATOM     17  N   UNL     1      47.152 129.118  14.262  1.00  0.00    -0.228 NA
ATOM     18  C   UNL     1      47.771 130.070  13.516  1.00  0.00     0.114 A 
ATOM     19  F   UNL     1      45.645 128.431  15.914  1.00  0.00    -0.184 F 
ENDBRANCH   8  13
TORSDOF 1
ENDMDL
MODEL 2
REMARK VINA RESULT:      -9.0      1.269      1.563
REMARK SMILES C[C@H]1CCc2ccc(-c3cccnc3F)nc2[C@@H]1F
REMARK SMILES IDX 1 1 2 2 3 3 4 4 5 5 6 6 7 7 8 8 16 9 17 10 18 11 19 12 9 13
REMARK SMILES IDX 10 14 14 15 11 16 13 17 12 18 15 19
REMARK H PARENT
ROOT
ATOM      1  C   UNL     1      44.469 131.522  22.698  1.00  0.00     0.011 C 
ATOM      2  C   UNL     1      43.932 131.296  21.280  1.00  0.00     0.027 C 
ATOM      3  C   UNL     1      42.882 132.361  20.925  1.00  0.00     0.011 C 
ATOM      4  C   UNL     1      42.243 132.051  19.567  1.00  0.00     0.038 C 
ATOM      5  C   UNL     1      43.269 131.751  18.502  1.00  0.00    -0.023 A 
ATOM      6  C   UNL     1      42.888 131.783  17.155  1.00  0.00     0.008 A 
ATOM      7  C   UNL     1      43.802 131.446  16.156  1.00  0.00     0.029 A 
ATOM      8  C   UNL     1      45.107 131.070  16.509  1.00  0.00     0.075 A 
ATOM      9  N   UNL     1      45.450 131.028  17.826  1.00  0.00    -0.249 NA
ATOM     10  C   UNL     1      44.578 131.334  18.825  1.00  0.00     0.079 A 
ATOM     11  C   UNL     1      45.078 131.322  20.249  1.00  0.00     0.218 C 
ATOM     12  F   UNL     1      45.893 130.219  20.438  1.00  0.00    -0.240 F 
ENDROOT
BRANCH   8  13
ATOM     13  C   UNL     1      46.117 130.714  15.479  1.00  0.00     0.055 A 
ATOM     14  C   UNL     1      46.486 129.373  15.261  1.00  0.00     0.017 A 
ATOM     15  C   UNL     1      46.713 131.707  14.677  1.00  0.00     0.222 A 
ATOM     16  C   UNL     1      47.426 129.054  14.281  1.00  0.00     0.021 A 
ATOM     17  N   UNL     1      47.627 131.364  13.730  1.00  0.00    -0.228 NA
ATOM     18  C   UNL     1      47.993 130.073  13.518  1.00  0.00     0.114 A 
ATOM     19  F   UNL     1      46.410 133.018  14.849  1.00  0.00    -0.184 F 
ENDBRANCH   8  13
TORSDOF 1
ENDMDL
MODEL 3
REMARK VINA RESULT:      -8.1      1.036      1.292
REMARK SMILES C[C@H]1CCc2ccc(-c3cccnc3F)nc2[C@@H]1F
REMARK SMILES IDX 1 1 2 2 3 3 4 4 5 5 6 6 7 7 8 8 16 9 17 10 18 11 19 12 9 13
REMARK SMILES IDX 10 14 14 15 11 16 13 17 12 18 15 19
REMARK H PARENT
ROOT
ATOM      1  C   UNL     1      44.362 130.919  23.920  1.00  0.00     0.011 C 
ATOM      2  C   UNL     1      43.716 130.958  22.530  1.00  0.00     0.027 C 
ATOM      3  C   UNL     1      42.743 132.143  22.422  1.00  0.00     0.011 C 
ATOM      4  C   UNL     1      41.992 132.099  21.087  1.00  0.00     0.038 C 
ATOM      5  C   UNL     1      42.916 131.890  19.913  1.00  0.00    -0.023 A 
ATOM      6  C   UNL     1      42.453 132.161  18.620  1.00  0.00     0.008 A 
ATOM      7  C   UNL     1      43.267 131.916  17.513  1.00  0.00     0.029 A 
ATOM      8  C   UNL     1      44.554 131.390  17.704  1.00  0.00     0.075 A 
ATOM      9  N   UNL     1      44.977 131.116  18.969  1.00  0.00    -0.249 NA
ATOM     10  C   UNL     1      44.202 131.328  20.067  1.00  0.00     0.079 A 
ATOM     11  C   UNL     1      44.791 131.057  21.429  1.00  0.00     0.218 C 
ATOM     12  F   UNL     1      45.517 129.878  21.387  1.00  0.00    -0.240 F 
ENDROOT
BRANCH   8  13
ATOM     13  C   UNL     1      45.459 131.122  16.556  1.00  0.00     0.055 A 
ATOM     14  C   UNL     1      45.771 132.134  15.629  1.00  0.00     0.017 A 
ATOM     15  C   UNL     1      46.048 129.854  16.379  1.00  0.00     0.222 A 
ATOM     16  C   UNL     1      46.634 131.870  14.564  1.00  0.00     0.021 A 
ATOM     17  N   UNL     1      46.883 129.627  15.331  1.00  0.00    -0.228 NA
ATOM     18  C   UNL     1      47.185 130.598  14.429  1.00  0.00     0.114 A 
ATOM     19  F   UNL     1      45.774 128.833  17.231  1.00  0.00    -0.184 F 
ENDBRANCH   8  13
TORSDOF 1
ENDMDL
MODEL 4
REMARK VINA RESULT:      -8.0      1.434      1.667
REMARK SMILES C[C@H]1CCc2ccc(-c3cccnc3F)nc2[C@@H]1F
REMARK SMILES IDX 1 1 2 2 3 3 4 4 5 5 6 6 7 7 8 8 16 9 17 10 18 11 19 12 9 13
REMARK SMILES IDX 10 14 14 15 11 16 13 17 12 18 15 19
REMARK H PARENT
ROOT
ATOM      1  C   UNL     1      44.555 131.146  23.578  1.00  0.00     0.011 C 
ATOM      2  C   UNL     1      43.846 131.107  22.219  1.00  0.00     0.027 C 
ATOM      3  C   UNL     1      42.883 132.297  22.079  1.00  0.00     0.011 C 
ATOM      4  C   UNL     1      42.071 132.179  20.786  1.00  0.00     0.038 C 
ATOM      5  C   UNL     1      42.937 131.883  19.586  1.00  0.00    -0.023 A 
ATOM      6  C   UNL     1      42.417 132.078  18.301  1.00  0.00     0.008 A 
ATOM      7  C   UNL     1      43.176 131.751  17.177  1.00  0.00     0.029 A 
ATOM      8  C   UNL     1      44.465 131.219  17.342  1.00  0.00     0.075 A 
ATOM      9  N   UNL     1      44.942 131.020  18.601  1.00  0.00    -0.249 NA
ATOM     10  C   UNL     1      44.222 131.313  19.718  1.00  0.00     0.079 A 
ATOM     11  C   UNL     1      44.869 131.120  21.066  1.00  0.00     0.218 C 
ATOM     12  F   UNL     1      45.579 129.930  21.067  1.00  0.00    -0.240 F 
ENDROOT
BRANCH   8  13
ATOM     13  C   UNL     1      45.313 130.866  16.174  1.00  0.00     0.055 A 
ATOM     14  C   UNL     1      46.462 130.068  16.329  1.00  0.00     0.017 A 
ATOM     15  C   UNL     1      44.975 131.300  14.876  1.00  0.00     0.222 A 
ATOM     16  C   UNL     1      47.241 129.734  15.220  1.00  0.00     0.021 A 
ATOM     17  N   UNL     1      45.755 130.960  13.816  1.00  0.00    -0.228 NA
ATOM     18  C   UNL     1      46.869 130.195  13.959  1.00  0.00     0.114 A 
ATOM     19  F   UNL     1      43.888 132.084  14.664  1.00  0.00    -0.184 F 
ENDBRANCH   8  13
TORSDOF 1
ENDMDL
MODEL 5
REMARK VINA RESULT:      -7.1      2.080      3.029
REMARK SMILES C[C@H]1CCc2ccc(-c3cccnc3F)nc2[C@@H]1F
REMARK SMILES IDX 1 1 2 2 3 3 4 4 5 5 6 6 7 7 8 8 16 9 17 10 18 11 19 12 9 13
REMARK SMILES IDX 10 14 14 15 11 16 13 17 12 18 15 19
REMARK H PARENT
ROOT
ATOM      1  C   UNL     1      40.737 133.163  21.674  1.00  0.00     0.011 C 
ATOM      2  C   UNL     1      42.199 132.793  21.395  1.00  0.00     0.027 C 
ATOM      3  C   UNL     1      42.691 131.744  22.405  1.00  0.00     0.011 C 
ATOM      4  C   UNL     1      44.188 131.481  22.217  1.00  0.00     0.038 C 
ATOM      5  C   UNL     1      44.554 131.235  20.774  1.00  0.00    -0.023 A 
ATOM      6  C   UNL     1      45.790 130.653  20.469  1.00  0.00     0.008 A 
ATOM      7  C   UNL     1      46.177 130.474  19.141  1.00  0.00     0.029 A 
ATOM      8  C   UNL     1      45.321 130.886  18.109  1.00  0.00     0.075 A 
ATOM      9  N   UNL     1      44.131 131.467  18.428  1.00  0.00    -0.249 NA
ATOM     10  C   UNL     1      43.732 131.671  19.712  1.00  0.00     0.079 A 
ATOM     11  C   UNL     1      42.364 132.260  19.959  1.00  0.00     0.218 C 
ATOM     12  F   UNL     1      42.140 133.287  19.057  1.00  0.00    -0.240 F 
ENDROOT
BRANCH   8  13
ATOM     13  C   UNL     1      45.686 130.706  16.680  1.00  0.00     0.055 A 
ATOM     14  C   UNL     1      45.764 129.422  16.109  1.00  0.00     0.017 A 
ATOM     15  C   UNL     1      45.942 131.818  15.853  1.00  0.00     0.222 A 
ATOM     16  C   UNL     1      46.096 129.271  14.762  1.00  0.00     0.021 A 
ATOM     17  N   UNL     1      46.264 131.639  14.544  1.00  0.00    -0.228 NA
ATOM     18  C   UNL     1      46.346 130.402  13.987  1.00  0.00     0.114 A 
ATOM     19  F   UNL     1      45.897 133.081  16.348  1.00  0.00    -0.184 F 
ENDBRANCH   8  13
TORSDOF 1
ENDMDL
MODEL 6
REMARK VINA RESULT:      -6.8      2.022      2.989
REMARK SMILES C[C@H]1CCc2ccc(-c3cccnc3F)nc2[C@@H]1F
REMARK SMILES IDX 1 1 2 2 3 3 4 4 5 5 6 6 7 7 8 8 16 9 17 10 18 11 19 12 9 13
REMARK SMILES IDX 10 14 14 15 11 16 13 17 12 18 15 19
REMARK H PARENT
ROOT
ATOM      1  C   UNL     1      41.222 132.740  22.595  1.00  0.00     0.011 C 
ATOM      2  C   UNL     1      42.610 132.357  22.068  1.00  0.00     0.027 C 
ATOM      3  C   UNL     1      43.150 131.127  22.817  1.00  0.00     0.011 C 
ATOM      4  C   UNL     1      44.592 130.832  22.391  1.00  0.00     0.038 C 
ATOM      5  C   UNL     1      44.760 130.822  20.891  1.00  0.00    -0.023 A 
ATOM      6  C   UNL     1      45.907 130.245  20.334  1.00  0.00     0.008 A 
ATOM      7  C   UNL     1      46.115 130.280  18.954  1.00  0.00     0.029 A 
ATOM      8  C   UNL     1      45.168 130.902  18.127  1.00  0.00     0.075 A 
ATOM      9  N   UNL     1      44.068 131.474  18.692  1.00  0.00    -0.249 NA
ATOM     10  C   UNL     1      43.845 131.471  20.035  1.00  0.00     0.079 A 
ATOM     11  C   UNL     1      42.561 132.071  20.554  1.00  0.00     0.218 C 
ATOM     12  F   UNL     1      42.298 133.248  19.872  1.00  0.00    -0.240 F 
ENDROOT
BRANCH   8  13
ATOM     13  C   UNL     1      45.342 130.955  16.653  1.00  0.00     0.055 A 
ATOM     14  C   UNL     1      46.529 130.500  16.047  1.00  0.00     0.017 A 
ATOM     15  C   UNL     1      44.314 131.438  15.819  1.00  0.00     0.222 A 
ATOM     16  C   UNL     1      46.671 130.544  14.660  1.00  0.00     0.021 A 
ATOM     17  N   UNL     1      44.483 131.470  14.470  1.00  0.00    -0.228 NA
ATOM     18  C   UNL     1      45.628 131.038  13.879  1.00  0.00     0.114 A 
ATOM     19  F   UNL     1      43.152 131.904  16.343  1.00  0.00    -0.184 F 
ENDBRANCH   8  13
TORSDOF 1
ENDMDL
MODEL 7
REMARK VINA RESULT:      -6.8      1.595      2.499
REMARK SMILES C[C@H]1CCc2ccc(-c3cccnc3F)nc2[C@@H]1F
REMARK SMILES IDX 1 1 2 2 3 3 4 4 5 5 6 6 7 7 8 8 16 9 17 10 18 11 19 12 9 13
REMARK SMILES IDX 10 14 14 15 11 16 13 17 12 18 15 19
REMARK H PARENT
ROOT
ATOM      1  C   UNL     1      40.659 133.161  21.181  1.00  0.00     0.011 C 
ATOM      2  C   UNL     1      42.134 132.817  20.943  1.00  0.00     0.027 C 
ATOM      3  C   UNL     1      42.608 131.755  21.949  1.00  0.00     0.011 C 
ATOM      4  C   UNL     1      44.114 131.516  21.805  1.00  0.00     0.038 C 
ATOM      5  C   UNL     1      44.529 131.302  20.370  1.00  0.00    -0.023 A 
ATOM      6  C   UNL     1      45.783 130.743  20.095  1.00  0.00     0.008 A 
ATOM      7  C   UNL     1      46.215 130.595  18.777  1.00  0.00     0.029 A 
ATOM      8  C   UNL     1      45.387 131.014  17.725  1.00  0.00     0.075 A 
ATOM      9  N   UNL     1      44.179 131.573  18.016  1.00  0.00    -0.249 NA
ATOM     10  C   UNL     1      43.736 131.747  19.291  1.00  0.00     0.079 A 
ATOM     11  C   UNL     1      42.353 132.313  19.503  1.00  0.00     0.218 C 
ATOM     12  F   UNL     1      42.143 133.354  18.614  1.00  0.00    -0.240 F 
ENDROOT
BRANCH   8  13
ATOM     13  C   UNL     1      45.801 130.866  16.306  1.00  0.00     0.055 A 
ATOM     14  C   UNL     1      46.283 131.968  15.574  1.00  0.00     0.017 A 
ATOM     15  C   UNL     1      45.743 129.614  15.662  1.00  0.00     0.222 A 
ATOM     16  C   UNL     1      46.681 131.810  14.246  1.00  0.00     0.021 A 
ATOM     17  N   UNL     1      46.136 129.492  14.366  1.00  0.00    -0.228 NA
ATOM     18  C   UNL     1      46.598 130.552  13.652  1.00  0.00     0.114 A 
ATOM     19  F   UNL     1      45.273 128.518  16.309  1.00  0.00    -0.184 F 
ENDBRANCH   8  13
TORSDOF 1
ENDMDL
MODEL 8
REMARK VINA RESULT:      -6.7      1.491      2.269
REMARK SMILES C[C@H]1CCc2ccc(-c3cccnc3F)nc2[C@@H]1F
REMARK SMILES IDX 1 1 2 2 3 3 4 4 5 5 6 6 7 7 8 8 16 9 17 10 18 11 19 12 9 13
REMARK SMILES IDX 10 14 14 15 11 16 13 17 12 18 15 19
REMARK H PARENT
ROOT
ATOM      1  C   UNL     1      44.720 128.975  24.330  1.00  0.00     0.011 C 
ATOM      2  C   UNL     1      44.027 129.606  23.118  1.00  0.00     0.027 C 
ATOM      3  C   UNL     1      43.419 130.968  23.493  1.00  0.00     0.011 C 
ATOM      4  C   UNL     1      42.605 131.531  22.324  1.00  0.00     0.038 C 
ATOM      5  C   UNL     1      43.359 131.480  21.018  1.00  0.00    -0.023 A 
ATOM      6  C   UNL     1      42.911 132.248  19.937  1.00  0.00     0.008 A 
ATOM      7  C   UNL     1      43.554 132.167  18.701  1.00  0.00     0.029 A 
ATOM      8  C   UNL     1      44.652 131.307  18.546  1.00  0.00     0.075 A 
ATOM      9  N   UNL     1      45.058 130.555  19.606  1.00  0.00    -0.249 NA
ATOM     10  C   UNL     1      44.443 130.598  20.819  1.00  0.00     0.079 A 
ATOM     11  C   UNL     1      45.016 129.776  21.948  1.00  0.00     0.218 C 
ATOM     12  F   UNL     1      45.379 128.529  21.467  1.00  0.00    -0.240 F 
ENDROOT
BRANCH   8  13
ATOM     13  C   UNL     1      45.373 131.197  17.252  1.00  0.00     0.055 A 
ATOM     14  C   UNL     1      45.502 132.308  16.398  1.00  0.00     0.017 A 
ATOM     15  C   UNL     1      45.968 129.982  16.855  1.00  0.00     0.222 A 
ATOM     16  C   UNL     1      46.194 132.192  15.192  1.00  0.00     0.021 A 
ATOM     17  N   UNL     1      46.635 129.900  15.674  1.00  0.00    -0.228 NA
ATOM     18  C   UNL     1      46.759 130.967  14.842  1.00  0.00     0.114 A 
ATOM     19  F   UNL     1      45.865 128.871  17.628  1.00  0.00    -0.184 F 
ENDBRANCH   8  13
TORSDOF 1
ENDMDL
MODEL 9
REMARK VINA RESULT:      -6.7      1.561      6.138
REMARK SMILES C[C@H]1CCc2ccc(-c3cccnc3F)nc2[C@@H]1F
REMARK SMILES IDX 1 1 2 2 3 3 4 4 5 5 6 6 7 7 8 8 16 9 17 10 18 11 19 12 9 13
REMARK SMILES IDX 10 14 14 15 11 16 13 17 12 18 15 19
REMARK H PARENT
ROOT
ATOM      1  C   UNL     1      47.549 129.376  14.148  1.00  0.00     0.011 C 
ATOM      2  C   UNL     1      46.572 130.354  14.812  1.00  0.00     0.027 C 
ATOM      3  C   UNL     1      45.250 130.409  14.029  1.00  0.00     0.011 C 
ATOM      4  C   UNL     1      44.330 131.488  14.607  1.00  0.00     0.038 C 
ATOM      5  C   UNL     1      44.208 131.400  16.109  1.00  0.00    -0.023 A 
ATOM      6  C   UNL     1      43.164 132.075  16.753  1.00  0.00     0.008 A 
ATOM      7  C   UNL     1      43.069 132.060  18.145  1.00  0.00     0.029 A 
ATOM      8  C   UNL     1      44.029 131.366  18.898  1.00  0.00     0.075 A 
ATOM      9  N   UNL     1      45.046 130.733  18.251  1.00  0.00    -0.249 NA
ATOM     10  C   UNL     1      45.177 130.742  16.897  1.00  0.00     0.079 A 
ATOM     11  C   UNL     1      46.301 129.950  16.275  1.00  0.00     0.218 C 
ATOM     12  F   UNL     1      47.454 130.128  17.022  1.00  0.00    -0.240 F 
ENDROOT
BRANCH   8  13
ATOM     13  C   UNL     1      43.961 131.314  20.381  1.00  0.00     0.055 A 
ATOM     14  C   UNL     1      42.801 131.721  21.068  1.00  0.00     0.017 A 
ATOM     15  C   UNL     1      45.048 130.834  21.139  1.00  0.00     0.222 A 
ATOM     16  C   UNL     1      42.749 131.654  22.460  1.00  0.00     0.021 A 
ATOM     17  N   UNL     1      44.967 130.782  22.495  1.00  0.00    -0.228 NA
ATOM     18  C   UNL     1      43.853 131.178  23.165  1.00  0.00     0.114 A 
ATOM     19  F   UNL     1      46.199 130.442  20.537  1.00  0.00    -0.184 F 
ENDBRANCH   8  13
TORSDOF 1
ENDMDL


