REMARK SMILES C=C1[C@@H](F)C[C@H](Nc2cccc(N)c2[O-])[C@H]2CC(c3ncncc3F)=N[C@@H]12
REMARK SMILES IDX 7 1 6 3 2 4 3 5 27 6 5 7 26 8 16 9 18 10 17 11 1 12 4 13
REMARK SMILES IDX 19 14 20 15 24 16 21 17 23 18 22 19 25 20 8 21 9 22 14 23
REMARK SMILES IDX 10 24 12 25 11 26 15 27 13 28
REMARK H PARENT 7 2 13 29 13 30
ROOT
ATOM      1  N   UNL     1      -0.771  -1.972   0.926  1.00  0.00    -0.382 N 
ATOM      2  H   UNL     1      -1.618  -1.961   1.537  1.00  0.00     0.160 HD
ENDROOT
BRANCH   1   3
ATOM      3  C   UNL     1      -0.922  -1.485  -0.454  1.00  0.00     0.088 C 
ATOM      4  C   UNL     1      -1.841  -1.055  -3.164  1.00  0.00    -0.019 C 
ATOM      5  C   UNL     1      -0.877  -2.186  -2.872  1.00  0.00     0.196 C 
ATOM      6  C   UNL     1      -2.529  -0.258  -2.066  1.00  0.00     0.139 C 
ATOM      7  C   UNL     1      -0.947  -2.670  -1.424  1.00  0.00     0.067 C 
ATOM      8  N   UNL     1      -2.144   1.141  -2.132  1.00  0.00    -0.279 NA
ATOM      9  C   UNL     1      -2.237  -0.682  -0.606  1.00  0.00     0.046 C 
ATOM     10  C   UNL     1      -1.963   1.640  -0.958  1.00  0.00     0.065 C 
ATOM     11  C   UNL     1      -2.157   0.658   0.143  1.00  0.00     0.066 C 
ATOM     12  C   UNL     1      -2.087  -0.737  -4.445  1.00  0.00     0.013 C 
ATOM     13  F   UNL     1       0.411  -1.768  -3.160  1.00  0.00    -0.243 F 
BRANCH  10  14
ATOM     14  C   UNL     1      -1.597   3.055  -0.734  1.00  0.00     0.123 A 
ATOM     15  N   UNL     1      -1.454   3.504   0.543  1.00  0.00    -0.232 NA
ATOM     16  C   UNL     1      -1.393   3.953  -1.798  1.00  0.00     0.168 A 
ATOM     17  C   UNL     1      -1.119   4.793   0.809  1.00  0.00     0.222 A 
ATOM     18  C   UNL     1      -1.049   5.272  -1.501  1.00  0.00     0.154 A 
ATOM     19  N   UNL     1      -0.919   5.668  -0.209  1.00  0.00    -0.242 NA
ATOM     20  F   UNL     1      -1.518   3.569  -3.093  1.00  0.00    -0.203 F 
ENDBRANCH  10  14
ENDBRANCH   1   3
BRANCH   1  21
ATOM     21  C   UNL     1       0.472  -2.437   1.500  1.00  0.00     0.028 A 
ATOM     22  C   UNL     1       1.680  -2.409   0.771  1.00  0.00     0.025 A 
ATOM     23  C   UNL     1       0.490  -2.926   2.824  1.00  0.00    -0.061 A 
ATOM     24  C   UNL     1       2.868  -2.858   1.349  1.00  0.00     0.004 A 
ATOM     25  C   UNL     1       1.690  -3.377   3.402  1.00  0.00     0.025 A 
ATOM     26  C   UNL     1       2.875  -3.340   2.657  1.00  0.00     0.025 A 
ATOM     27  O   UNL     1      -0.687  -2.965   3.567  1.00  0.00    -0.870 OA
BRANCH  25  28
ATOM     28  N   UNL     1       1.714  -3.875   4.745  1.00  0.00    -0.399 N 
ATOM     29  H   UNL     1       0.848  -3.915   5.326  1.00  0.00     0.156 HD
ATOM     30  H   UNL     1       2.606  -4.210   5.173  1.00  0.00     0.156 HD
ENDBRANCH  25  28
ENDBRANCH   1  21
TORSDOF 4


