REMARK SMILES C=C[C@@H]1CCC[C@@H](c2ccc(C(C)=O)cc2)C1=C
REMARK SMILES IDX 3 1 4 2 5 3 6 4 7 5 17 6 18 7 2 8 1 9 8 10 9 11 16 12 10 13
REMARK SMILES IDX 15 14 11 15 12 16 13 17 14 18
REMARK H PARENT
ROOT
ATOM      1  C   UNL     1      -1.597  -0.017   2.474  1.00  0.00     0.037 C 
ATOM      2  C   UNL     1      -2.406  -1.325   2.391  1.00  0.00     0.012 C 
ATOM      3  C   UNL     1      -1.569  -2.477   1.832  1.00  0.00     0.002 C 
ATOM      4  C   UNL     1      -1.104  -2.144   0.415  1.00  0.00     0.013 C 
ATOM      5  C   UNL     1      -0.241  -0.865   0.375  1.00  0.00     0.045 C 
ATOM      6  C   UNL     1      -0.878   0.283   1.166  1.00  0.00    -0.063 C 
ATOM      7  C   UNL     1      -0.578   1.568   0.890  1.00  0.00     0.009 C 
ENDROOT
BRANCH   1   8
ATOM      8  C   UNL     1      -0.600  -0.067   3.611  1.00  0.00    -0.027 C 
ATOM      9  C   UNL     1      -0.984   0.058   4.885  1.00  0.00     0.004 C 
ENDBRANCH   1   8
BRANCH   5  10
ATOM     10  C   UNL     1       0.052  -0.513  -1.075  1.00  0.00    -0.041 A 
ATOM     11  C   UNL     1      -0.969  -0.053  -1.925  1.00  0.00     0.005 A 
ATOM     12  C   UNL     1       1.347  -0.669  -1.592  1.00  0.00     0.005 A 
ATOM     13  C   UNL     1      -0.697   0.257  -3.260  1.00  0.00     0.012 A 
ATOM     14  C   UNL     1       1.620  -0.360  -2.928  1.00  0.00     0.012 A 
ATOM     15  C   UNL     1       0.603   0.109  -3.780  1.00  0.00     0.017 A 
BRANCH  15  16
ATOM     16  C   UNL     1       0.912   0.434  -5.199  1.00  0.00     0.159 C 
ATOM     17  C   UNL     1      -0.139   0.937  -6.143  1.00  0.00     0.093 C 
ATOM     18  O   UNL     1       2.087   0.289  -5.633  1.00  0.00    -0.295 OA
ENDBRANCH  15  16
ENDBRANCH   5  10
TORSDOF 3


