REMARK SMILES Cc1ccc(-c2ccc([O-])cc2)c2c[n-]nc12
REMARK SMILES IDX 1 1 2 2 3 3 4 4 5 5 13 6 14 7 15 8 16 9 17 10 6 11 7 12
REMARK SMILES IDX 12 13 8 14 11 15 9 16 10 17
REMARK H PARENT
ROOT
ATOM      1  C   UNL     1       2.466   3.628  -0.915  1.00  0.00     0.046 C 
ATOM      2  C   UNL     1       1.657   2.372  -0.784  1.00  0.00    -0.027 A 
ATOM      3  C   UNL     1       2.199   1.212  -0.191  1.00  0.00     0.006 A 
ATOM      4  C   UNL     1       1.414   0.049  -0.033  1.00  0.00     0.010 A 
ATOM      5  C   UNL     1       0.066   0.021  -0.460  1.00  0.00    -0.011 A 
ATOM      6  C   UNL     1      -0.443   1.198  -1.026  1.00  0.00    -0.014 A 
ATOM      7  C   UNL     1      -1.694   1.551  -1.485  1.00  0.00    -0.113 A 
ATOM      8  N   UNL     1      -1.648   2.840  -1.895  1.00  0.00    -0.581 NA
ATOM      9  N   UNL     1      -0.421   3.316  -1.708  1.00  0.00    -0.367 NA
ATOM     10  C   UNL     1       0.317   2.325  -1.177  1.00  0.00     0.050 A 
ENDROOT
BRANCH   5  11
ATOM     11  C   UNL     1      -0.755  -1.202  -0.302  1.00  0.00    -0.018 A 
ATOM     12  C   UNL     1      -0.764  -1.895   0.922  1.00  0.00     0.008 A 
ATOM     13  C   UNL     1      -1.513  -1.700  -1.376  1.00  0.00     0.008 A 
ATOM     14  C   UNL     1      -1.531  -3.055   1.071  1.00  0.00    -0.008 A 
ATOM     15  C   UNL     1      -2.278  -2.860  -1.223  1.00  0.00    -0.008 A 
ATOM     16  C   UNL     1      -2.289  -3.537  -0.000  1.00  0.00    -0.109 A 
ATOM     17  O   UNL     1      -3.050  -4.689   0.150  1.00  0.00    -0.872 OA
ENDBRANCH   5  11
TORSDOF 1


