REMARK SMILES OC(CCc1c(F)c(-c2c[n-]c3nccc-3c2)c(F)c2[nH]ccc12)=C1CCC1
REMARK SMILES IDX 3 1 2 2 1 3 25 5 26 6 28 7 27 8 4 9 5 10 6 11 24 12 8 13
REMARK SMILES IDX 23 14 20 15 18 16 22 17 21 18 7 19 19 20 9 22 10 23 17 24
REMARK SMILES IDX 11 25 16 26 12 27 15 28 13 29 14 30
REMARK H PARENT 1 4 21 21
ROOT
ATOM      1  C   UNL     1       2.583   2.874   0.475  1.00  0.00     0.079 C 
ENDROOT
BRANCH   1   2
ATOM      2  C   UNL     1       2.295   1.994   1.663  1.00  0.00     0.092 C 
BRANCH   2   3
ATOM      3  O   UNL     1       1.889   2.564   2.867  1.00  0.00    -0.512 OA
ATOM      4  H   UNL     1       1.792   3.567   2.966  1.00  0.00     0.293 HD
ENDBRANCH   2   3
BRANCH   2   5
ATOM      5  C   UNL     1       2.382   0.668   1.573  1.00  0.00    -0.033 C 
ATOM      6  C   UNL     1       2.752  -0.371   0.531  1.00  0.00     0.035 C 
ATOM      7  C   UNL     1       2.129  -0.518   2.482  1.00  0.00     0.035 C 
ATOM      8  C   UNL     1       2.491  -1.527   1.440  1.00  0.00     0.009 C 
ENDBRANCH   2   5
ENDBRANCH   1   2
BRANCH   1   9
ATOM      9  C   UNL     1       1.290   3.325  -0.218  1.00  0.00     0.047 C 
BRANCH   9  10
ATOM     10  C   UNL     1       0.576   2.164  -0.870  1.00  0.00    -0.002 A 
ATOM     11  C   UNL     1      -0.430   1.445  -0.180  1.00  0.00     0.137 A 
ATOM     12  C   UNL     1       0.955   1.690  -2.132  1.00  0.00     0.009 A 
ATOM     13  C   UNL     1      -1.015   0.283  -0.752  1.00  0.00     0.055 A 
ATOM     14  C   UNL     1       1.912   2.141  -3.022  1.00  0.00     0.028 A 
ATOM     15  C   UNL     1       0.381   0.580  -2.692  1.00  0.00     0.083 A 
ATOM     16  C   UNL     1      -0.603  -0.151  -2.032  1.00  0.00     0.157 A 
ATOM     17  C   UNL     1       1.859   1.264  -4.098  1.00  0.00     0.083 A 
ATOM     18  N   UNL     1       0.923   0.312  -3.892  1.00  0.00    -0.359 N 
ATOM     19  F   UNL     1      -0.796   1.836   1.069  1.00  0.00    -0.206 F 
ATOM     20  F   UNL     1      -1.150  -1.246  -2.619  1.00  0.00    -0.204 F 
ATOM     21  H   UNL     1       0.683  -0.477  -4.533  1.00  0.00     0.166 HD
BRANCH  13  22
ATOM     22  C   UNL     1      -2.024  -0.490   0.005  1.00  0.00    -0.016 A 
ATOM     23  C   UNL     1      -1.839  -1.887   0.219  1.00  0.00    -0.013 A 
ATOM     24  C   UNL     1      -3.165   0.158   0.530  1.00  0.00     0.016 A 
ATOM     25  N   UNL     1      -2.749  -2.627   0.923  1.00  0.00    -0.442 NA
ATOM     26  C   UNL     1      -4.068  -0.618   1.238  1.00  0.00    -0.026 A 
ATOM     27  C   UNL     1      -3.843  -2.010   1.424  1.00  0.00    -0.052 A 
ATOM     28  C   UNL     1      -5.253  -0.341   1.869  1.00  0.00     0.003 A 
ATOM     29  N   UNL     1      -4.828  -2.582   2.133  1.00  0.00    -0.442 NA
ATOM     30  C   UNL     1      -5.683  -1.559   2.401  1.00  0.00    -0.022 A 
ENDBRANCH  13  22
ENDBRANCH   9  10
ENDBRANCH   1   9
TORSDOF 6


