REMARK SMILES Cc1ccc(-c2ccc(N)c(C=O)c2)c2c[nH]nc12
REMARK SMILES IDX 6 1 7 2 8 3 9 4 11 5 14 6 5 7 2 8 3 9 19 10 4 11 18 12 15 13
REMARK SMILES IDX 17 14 16 15 1 16 12 18 13 19 10 20
REMARK H PARENT 17 17 10 21 10 22
ROOT
ATOM      1  C   UNL     1       0.436  -0.225  -1.100  1.00  0.00    -0.017 A 
ATOM      2  C   UNL     1       1.372  -1.241  -1.331  1.00  0.00     0.011 A 
ATOM      3  C   UNL     1       1.082  -2.281  -2.214  1.00  0.00     0.027 A 
ATOM      4  C   UNL     1      -0.147  -2.329  -2.888  1.00  0.00     0.042 A 
ATOM      5  C   UNL     1      -1.117  -1.323  -2.638  1.00  0.00     0.038 A 
ATOM      6  C   UNL     1      -0.799  -0.269  -1.765  1.00  0.00     0.022 A 
ENDROOT
BRANCH   1   7
ATOM      7  C   UNL     1       0.756   0.887  -0.176  1.00  0.00    -0.007 A 
ATOM      8  C   UNL     1       1.371   3.046   1.595  1.00  0.00    -0.023 A 
ATOM      9  C   UNL     1       2.290   2.643   0.603  1.00  0.00     0.006 A 
ATOM     10  C   UNL     1       0.173   2.333   1.686  1.00  0.00     0.096 A 
ATOM     11  C   UNL     1       1.986   1.578  -0.274  1.00  0.00     0.010 A 
ATOM     12  N   UNL     1      -0.818   2.500   2.581  1.00  0.00    -0.175 NA
ATOM     13  C   UNL     1      -0.124   1.301   0.834  1.00  0.00     0.028 A 
ATOM     14  N   UNL     1      -1.737   1.583   2.307  1.00  0.00    -0.284 N 
ATOM     15  C   UNL     1      -1.350   0.829   1.254  1.00  0.00     0.114 A 
ATOM     16  C   UNL     1       1.703   4.144   2.561  1.00  0.00     0.047 C 
ATOM     17  H   UNL     1      -2.624   1.465   2.845  1.00  0.00     0.189 HD
ENDBRANCH   1   7
BRANCH   5  18
ATOM     18  C   UNL     1      -2.474  -1.337  -3.226  1.00  0.00     0.262 C 
ATOM     19  O   UNL     1      -3.028  -2.408  -3.588  1.00  0.00    -0.298 OA
ENDBRANCH   5  18
BRANCH   4  20
ATOM     20  N   UNL     1      -0.356  -3.366  -3.856  1.00  0.00    -0.398 N 
ATOM     21  H   UNL     1       0.307  -4.171  -3.916  1.00  0.00     0.156 HD
ATOM     22  H   UNL     1      -1.059  -3.277  -4.620  1.00  0.00     0.156 HD
ENDBRANCH   4  20
TORSDOF 3


