MODEL 1
REMARK VINA RESULT:      -5.5      0.000      0.000
REMARK SMILES CSc1ccc(/N=C(\S)Oc2ccc(-c3ccc(C)c4[nH]ncc34)cc2)cc1
REMARK SMILES IDX 8 1 9 2 7 4 6 5 5 6 27 7 4 8 28 9 3 10 2 11 1 12 10 13 11 14
REMARK SMILES IDX 12 15 26 16 13 17 25 18 14 19 15 20 16 21 24 22 17 23 20 24
REMARK SMILES IDX 23 25 18 26 21 27 22 28 19 29
REMARK H PARENT 9 3 21 30
ROOT
ATOM      1  C   UNL     1      43.390 130.649  23.362  1.00  0.00     0.253 C 
ENDROOT
BRANCH   1   2
ATOM      2  S   UNL     1      44.773 130.053  24.342  1.00  0.00    -0.084 SA
ATOM      3  H   UNL     1      45.101 129.073  23.387  1.00  0.00     0.113 HD
ENDBRANCH   1   2
BRANCH   1   4
ATOM      4  N   UNL     1      42.208 130.101  23.427  1.00  0.00    -0.208 NA
BRANCH   4   5
ATOM      5  C   UNL     1      41.914 128.738  23.761  1.00  0.00     0.068 A 
ATOM      6  C   UNL     1      40.690 128.377  24.351  1.00  0.00     0.029 A 
ATOM      7  C   UNL     1      42.821 127.737  23.393  1.00  0.00     0.029 A 
ATOM      8  C   UNL     1      40.408 127.033  24.619  1.00  0.00     0.017 A 
ATOM      9  C   UNL     1      42.540 126.394  23.663  1.00  0.00     0.017 A 
ATOM     10  C   UNL     1      41.333 126.040  24.278  1.00  0.00     0.007 A 
BRANCH  10  11
ATOM     11  S   UNL     1      40.972 124.318  24.625  1.00  0.00    -0.130 SA
ATOM     12  C   UNL     1      41.444 123.757  22.959  1.00  0.00     0.091 C 
ENDBRANCH  10  11
ENDBRANCH   4   5
ENDBRANCH   1   4
BRANCH   1  13
ATOM     13  O   UNL     1      43.644 131.676  22.444  1.00  0.00    -0.434 OA
BRANCH  13  14
ATOM     14  C   UNL     1      44.121 131.498  21.136  1.00  0.00     0.130 A 
ATOM     15  C   UNL     1      43.204 131.522  20.081  1.00  0.00     0.048 A 
ATOM     16  C   UNL     1      45.480 131.256  20.860  1.00  0.00     0.048 A 
ATOM     17  C   UNL     1      43.631 131.339  18.763  1.00  0.00     0.012 A 
ATOM     18  C   UNL     1      45.909 131.071  19.542  1.00  0.00     0.012 A 
ATOM     19  C   UNL     1      44.989 131.106  18.482  1.00  0.00    -0.017 A 
BRANCH  19  20
ATOM     20  C   UNL     1      45.440 130.922  17.084  1.00  0.00    -0.007 A 
ATOM     21  C   UNL     1      46.711 130.374  16.800  1.00  0.00     0.010 A 
ATOM     22  C   UNL     1      44.644 131.280  15.986  1.00  0.00     0.028 A 
ATOM     23  C   UNL     1      47.140 130.189  15.467  1.00  0.00     0.006 A 
ATOM     24  C   UNL     1      45.062 131.103  14.695  1.00  0.00     0.069 A 
ATOM     25  C   UNL     1      43.403 131.880  15.884  1.00  0.00     0.144 A 
ATOM     26  C   UNL     1      46.309 130.552  14.385  1.00  0.00    -0.025 A 
ATOM     27  N   UNL     1      44.118 131.560  13.854  1.00  0.00    -0.278 N 
ATOM     28  N   UNL     1      43.108 132.036  14.572  1.00  0.00    -0.183 NA
ATOM     29  C   UNL     1      46.756 130.378  12.963  1.00  0.00     0.046 C 
ATOM     30  H   UNL     1      44.153 131.565  12.811  1.00  0.00     0.190 HD
ENDBRANCH  19  20
ENDBRANCH  13  14
ENDBRANCH   1  13
TORSDOF 7
ENDMDL
MODEL 2
REMARK VINA RESULT:      -5.5      5.999      8.254
REMARK SMILES CSc1ccc(/N=C(\S)Oc2ccc(-c3ccc(C)c4[nH]ncc34)cc2)cc1
REMARK SMILES IDX 8 1 9 2 7 4 6 5 5 6 27 7 4 8 28 9 3 10 2 11 1 12 10 13 11 14
REMARK SMILES IDX 12 15 26 16 13 17 25 18 14 19 15 20 16 21 24 22 17 23 20 24
REMARK SMILES IDX 23 25 18 26 21 27 22 28 19 29
REMARK H PARENT 9 3 21 30
ROOT
ATOM      1  C   UNL     1      43.562 126.645  24.458  1.00  0.00     0.253 C 
ENDROOT
BRANCH   1   2
ATOM      2  S   UNL     1      41.886 126.290  23.917  1.00  0.00    -0.084 SA
ATOM      3  H   UNL     1      41.338 126.725  25.138  1.00  0.00     0.113 HD
ENDBRANCH   1   2
BRANCH   1   4
ATOM      4  N   UNL     1      43.996 127.865  24.611  1.00  0.00    -0.208 NA
BRANCH   4   5
ATOM      5  C   UNL     1      43.926 128.926  23.649  1.00  0.00     0.068 A 
ATOM      6  C   UNL     1      44.834 129.004  22.578  1.00  0.00     0.029 A 
ATOM      7  C   UNL     1      42.867 129.839  23.719  1.00  0.00     0.029 A 
ATOM      8  C   UNL     1      44.712 130.021  21.625  1.00  0.00     0.017 A 
ATOM      9  C   UNL     1      42.746 130.856  22.767  1.00  0.00     0.017 A 
ATOM     10  C   UNL     1      43.669 130.949  21.719  1.00  0.00     0.007 A 
BRANCH  10  11
ATOM     11  S   UNL     1      43.515 132.254  20.498  1.00  0.00    -0.130 SA
ATOM     12  C   UNL     1      45.313 132.435  20.285  1.00  0.00     0.091 C 
ENDBRANCH  10  11
ENDBRANCH   4   5
ENDBRANCH   1   4
BRANCH   1  13
ATOM     13  O   UNL     1      44.431 125.559  24.624  1.00  0.00    -0.434 OA
BRANCH  13  14
ATOM     14  C   UNL     1      45.601 125.332  23.884  1.00  0.00     0.130 A 
ATOM     15  C   UNL     1      46.608 124.543  24.449  1.00  0.00     0.048 A 
ATOM     16  C   UNL     1      45.809 125.905  22.615  1.00  0.00     0.048 A 
ATOM     17  C   UNL     1      47.795 124.298  23.753  1.00  0.00     0.012 A 
ATOM     18  C   UNL     1      46.996 125.663  21.918  1.00  0.00     0.012 A 
ATOM     19  C   UNL     1      48.001 124.861  22.482  1.00  0.00    -0.017 A 
BRANCH  19  20
ATOM     20  C   UNL     1      49.256 124.592  21.743  1.00  0.00    -0.007 A 
ATOM     21  C   UNL     1      49.314 123.577  20.761  1.00  0.00     0.010 A 
ATOM     22  C   UNL     1      50.434 125.315  21.977  1.00  0.00     0.028 A 
ATOM     23  C   UNL     1      50.507 123.325  20.049  1.00  0.00     0.006 A 
ATOM     24  C   UNL     1      51.591 125.067  21.288  1.00  0.00     0.069 A 
ATOM     25  C   UNL     1      50.758 126.313  22.877  1.00  0.00     0.144 A 
ATOM     26  C   UNL     1      51.673 124.079  20.303  1.00  0.00    -0.025 A 
ATOM     27  N   UNL     1      52.560 125.882  21.739  1.00  0.00    -0.278 N 
ATOM     28  N   UNL     1      52.060 126.640  22.707  1.00  0.00    -0.183 NA
ATOM     29  C   UNL     1      52.953 123.812  19.568  1.00  0.00     0.046 C 
ATOM     30  H   UNL     1      53.551 125.923  21.410  1.00  0.00     0.190 HD
ENDBRANCH  19  20
ENDBRANCH  13  14
ENDBRANCH   1  13
TORSDOF 7
ENDMDL
MODEL 3
REMARK VINA RESULT:      -3.3      5.239      8.673
REMARK SMILES CSc1ccc(/N=C(\S)Oc2ccc(-c3ccc(C)c4[nH]ncc34)cc2)cc1
REMARK SMILES IDX 8 1 9 2 7 4 6 5 5 6 27 7 4 8 28 9 3 10 2 11 1 12 10 13 11 14
REMARK SMILES IDX 12 15 26 16 13 17 25 18 14 19 15 20 16 21 24 22 17 23 20 24
REMARK SMILES IDX 23 25 18 26 21 27 22 28 19 29
REMARK H PARENT 9 3 21 30
ROOT
ATOM      1  C   UNL     1      43.360 131.649  19.258  1.00  0.00     0.253 C 
ENDROOT
BRANCH   1   2
ATOM      2  S   UNL     1      42.271 133.049  19.549  1.00  0.00    -0.084 SA
ATOM      3  H   UNL     1      41.135 132.322  19.150  1.00  0.00     0.113 HD
ENDBRANCH   1   2
BRANCH   1   4
ATOM      4  N   UNL     1      43.356 130.993  18.131  1.00  0.00    -0.208 NA
BRANCH   4   5
ATOM      5  C   UNL     1      44.344 131.064  17.095  1.00  0.00     0.068 A 
ATOM      6  C   UNL     1      45.617 130.487  17.256  1.00  0.00     0.029 A 
ATOM      7  C   UNL     1      43.997 131.627  15.861  1.00  0.00     0.029 A 
ATOM      8  C   UNL     1      46.545 130.527  16.211  1.00  0.00     0.017 A 
ATOM      9  C   UNL     1      44.926 131.668  14.817  1.00  0.00     0.017 A 
ATOM     10  C   UNL     1      46.202 131.119  14.990  1.00  0.00     0.007 A 
BRANCH  10  11
ATOM     11  S   UNL     1      47.393 131.173  13.650  1.00  0.00    -0.130 SA
ATOM     12  C   UNL     1      47.949 129.460  13.913  1.00  0.00     0.091 C 
ENDBRANCH  10  11
ENDBRANCH   4   5
ENDBRANCH   1   4
BRANCH   1  13
ATOM     13  O   UNL     1      44.159 131.220  20.325  1.00  0.00    -0.434 OA
BRANCH  13  14
ATOM     14  C   UNL     1      45.256 131.918  20.851  1.00  0.00     0.130 A 
ATOM     15  C   UNL     1      46.488 131.819  20.195  1.00  0.00     0.048 A 
ATOM     16  C   UNL     1      45.167 132.676  22.033  1.00  0.00     0.048 A 
ATOM     17  C   UNL     1      47.612 132.488  20.688  1.00  0.00     0.012 A 
ATOM     18  C   UNL     1      46.290 133.345  22.529  1.00  0.00     0.012 A 
ATOM     19  C   UNL     1      47.524 133.254  21.863  1.00  0.00    -0.017 A 
BRANCH  19  20
ATOM     20  C   UNL     1      48.714 133.970  22.377  1.00  0.00    -0.007 A 
ATOM     21  C   UNL     1      49.531 133.392  23.375  1.00  0.00     0.010 A 
ATOM     22  C   UNL     1      49.085 135.239  21.911  1.00  0.00     0.028 A 
ATOM     23  C   UNL     1      50.672 134.069  23.860  1.00  0.00     0.006 A 
ATOM     24  C   UNL     1      50.189 135.895  22.384  1.00  0.00     0.069 A 
ATOM     25  C   UNL     1      48.508 136.111  21.006  1.00  0.00     0.144 A 
ATOM     26  C   UNL     1      51.022 135.342  23.362  1.00  0.00    -0.025 A 
ATOM     27  N   UNL     1      50.283 137.096  21.788  1.00  0.00    -0.278 N 
ATOM     28  N   UNL     1      49.262 137.234  20.950  1.00  0.00    -0.183 NA
ATOM     29  C   UNL     1      52.220 136.082  23.878  1.00  0.00     0.046 C 
ATOM     30  H   UNL     1      51.016 137.823  21.947  1.00  0.00     0.190 HD
ENDBRANCH  19  20
ENDBRANCH  13  14
ENDBRANCH   1  13
TORSDOF 7
ENDMDL


