REMARK SMILES NNc1ccc2cc(-c3ncnc4c3COC4)[nH]c2c1F
REMARK SMILES IDX 2 1 1 3 3 6 4 7 20 8 5 9 19 10 6 11 18 12 7 13 8 14 21 15
REMARK SMILES IDX 9 17 10 18 14 19 11 20 13 21 15 22 12 23 17 24 16 25
REMARK H PARENT 2 2 1 4 1 5 18 16
ROOT
ATOM      1  N   UNL     1      -0.586  -4.423   1.389  1.00  0.00    -0.321 N 
ATOM      2  H   UNL     1      -1.619  -4.283   1.329  1.00  0.00     0.181 HD
ENDROOT
BRANCH   1   3
ATOM      3  N   UNL     1      -0.118  -5.472   2.198  1.00  0.00    -0.250 NA
ATOM      4  H   UNL     1       0.509  -5.062   2.928  1.00  0.00     0.143 HD
ATOM      5  H   UNL     1       0.442  -6.119   1.597  1.00  0.00     0.143 HD
ENDBRANCH   1   3
BRANCH   1   6
ATOM      6  C   UNL     1       0.292  -3.550   0.652  1.00  0.00     0.087 A 
ATOM      7  C   UNL     1       1.705  -3.707   0.705  1.00  0.00     0.031 A 
ATOM      8  C   UNL     1      -0.260  -2.516  -0.141  1.00  0.00     0.171 A 
ATOM      9  C   UNL     1       2.553  -2.851  -0.020  1.00  0.00     0.013 A 
ATOM     10  C   UNL     1       0.611  -1.683  -0.843  1.00  0.00     0.084 A 
ATOM     11  C   UNL     1       1.966  -1.848  -0.784  1.00  0.00     0.003 A 
ATOM     12  N   UNL     1       0.287  -0.658  -1.651  1.00  0.00    -0.351 N 
ATOM     13  C   UNL     1       2.536  -0.890  -1.591  1.00  0.00     0.038 A 
ATOM     14  C   UNL     1       1.464  -0.162  -2.109  1.00  0.00     0.066 A 
ATOM     15  F   UNL     1      -1.602  -2.330  -0.224  1.00  0.00    -0.202 F 
ATOM     16  H   UNL     1      -0.680  -0.359  -1.894  1.00  0.00     0.167 HD
BRANCH  14  17
ATOM     17  C   UNL     1       1.613   0.965  -3.059  1.00  0.00     0.096 A 
ATOM     18  N   UNL     1       2.776   1.077  -3.767  1.00  0.00    -0.234 NA
ATOM     19  C   UNL     1       0.647   1.969  -3.241  1.00  0.00     0.030 A 
ATOM     20  C   UNL     1       2.999   2.119  -4.620  1.00  0.00     0.222 A 
ATOM     21  C   UNL     1       0.902   2.996  -4.072  1.00  0.00     0.076 A 
ATOM     22  C   UNL     1      -0.665   2.223  -2.605  1.00  0.00     0.200 C 
ATOM     23  N   UNL     1       2.062   3.096  -4.767  1.00  0.00    -0.239 NA
ATOM     24  C   UNL     1      -0.192   3.973  -4.021  1.00  0.00     0.217 C 
ATOM     25  O   UNL     1      -1.105   3.506  -3.038  1.00  0.00    -0.370 OA
ENDBRANCH  14  17
ENDBRANCH   1   6
TORSDOF 3


