MODEL 1
REMARK VINA RESULT:      -6.7      0.000      0.000
REMARK SMILES Cc1ccc([C@@H]2CC[C@@H]3CC=N[C@]3(C=O)C2)c(F)c1F
REMARK SMILES IDX 6 1 7 2 8 3 9 4 10 5 11 6 12 7 13 8 16 9 5 10 2 11 3 12
REMARK SMILES IDX 19 13 4 14 17 15 1 16 20 17 18 18 14 19 15 20
REMARK H PARENT
ROOT
ATOM      1  C   UNL     1      44.404 130.874  17.013  1.00  0.00     0.025 C 
ATOM      2  C   UNL     1      44.588 129.371  16.652  1.00  0.00     0.009 C 
ATOM      3  C   UNL     1      45.872 129.100  15.861  1.00  0.00     0.007 C 
ATOM      4  C   UNL     1      45.892 129.929  14.560  1.00  0.00     0.029 C 
ATOM      5  C   UNL     1      47.277 129.908  13.893  1.00  0.00     0.054 C 
ATOM      6  C   UNL     1      47.635 131.343  13.814  1.00  0.00     0.079 C 
ATOM      7  N   UNL     1      46.743 132.128  14.281  1.00  0.00    -0.283 NA
ATOM      8  C   UNL     1      45.579 131.444  14.785  1.00  0.00     0.119 C 
ATOM      9  C   UNL     1      45.397 131.809  16.280  1.00  0.00     0.047 C 
ENDROOT
BRANCH   1  10
ATOM     10  C   UNL     1      44.475 131.111  18.515  1.00  0.00    -0.006 A 
ATOM     11  C   UNL     1      44.637 131.577  21.295  1.00  0.00    -0.012 A 
ATOM     12  C   UNL     1      45.725 131.025  20.605  1.00  0.00     0.007 A 
ATOM     13  C   UNL     1      43.475 131.923  20.586  1.00  0.00     0.162 A 
ATOM     14  C   UNL     1      45.645 130.793  19.231  1.00  0.00     0.007 A 
ATOM     15  C   UNL     1      43.393 131.691  19.207  1.00  0.00     0.162 A 
ATOM     16  C   UNL     1      44.734 131.853  22.768  1.00  0.00     0.047 C 
ATOM     17  F   UNL     1      42.423 132.489  21.230  1.00  0.00    -0.203 F 
ATOM     18  F   UNL     1      42.257 132.042  18.552  1.00  0.00    -0.203 F 
ENDBRANCH   1  10
BRANCH   8  19
ATOM     19  C   UNL     1      44.378 131.887  13.977  1.00  0.00     0.254 C 
ATOM     20  O   UNL     1      43.378 131.190  13.902  1.00  0.00    -0.301 OA
ENDBRANCH   8  19
TORSDOF 2
ENDMDL
MODEL 2
REMARK VINA RESULT:      -6.3      3.076      6.481
REMARK SMILES Cc1ccc([C@@H]2CC[C@@H]3CC=N[C@]3(C=O)C2)c(F)c1F
REMARK SMILES IDX 6 1 7 2 8 3 9 4 10 5 11 6 12 7 13 8 16 9 5 10 2 11 3 12
REMARK SMILES IDX 19 13 4 14 17 15 1 16 20 17 18 18 14 19 15 20
REMARK H PARENT
ROOT
ATOM      1  C   UNL     1      44.260 131.981  19.470  1.00  0.00     0.025 C 
ATOM      2  C   UNL     1      45.471 132.341  20.380  1.00  0.00     0.009 C 
ATOM      3  C   UNL     1      45.571 131.447  21.620  1.00  0.00     0.007 C 
ATOM      4  C   UNL     1      44.279 131.536  22.457  1.00  0.00     0.029 C 
ATOM      5  C   UNL     1      44.225 130.445  23.540  1.00  0.00     0.054 C 
ATOM      6  C   UNL     1      42.969 129.723  23.229  1.00  0.00     0.079 C 
ATOM      7  N   UNL     1      42.333 130.194  22.227  1.00  0.00    -0.283 NA
ATOM      8  C   UNL     1      42.978 131.328  21.615  1.00  0.00     0.119 C 
ATOM      9  C   UNL     1      43.267 130.993  20.130  1.00  0.00     0.047 C 
ENDROOT
BRANCH   1  10
ATOM     10  C   UNL     1      44.705 131.449  18.115  1.00  0.00    -0.006 A 
ATOM     11  C   UNL     1      45.527 130.423  15.617  1.00  0.00    -0.012 A 
ATOM     12  C   UNL     1      46.301 130.198  16.763  1.00  0.00     0.007 A 
ATOM     13  C   UNL     1      44.324 131.138  15.727  1.00  0.00     0.162 A 
ATOM     14  C   UNL     1      45.896 130.706  17.999  1.00  0.00     0.007 A 
ATOM     15  C   UNL     1      43.915 131.649  16.965  1.00  0.00     0.162 A 
ATOM     16  C   UNL     1      45.949 129.851  14.293  1.00  0.00     0.047 C 
ATOM     17  F   UNL     1      43.543 131.338  14.634  1.00  0.00    -0.203 F 
ATOM     18  F   UNL     1      42.744 132.331  17.036  1.00  0.00    -0.203 F 
ENDBRANCH   1  10
BRANCH   8  19
ATOM     19  C   UNL     1      42.051 132.520  21.723  1.00  0.00     0.254 C 
ATOM     20  O   UNL     1      41.578 133.042  20.725  1.00  0.00    -0.301 OA
ENDBRANCH   8  19
TORSDOF 2
ENDMDL
MODEL 3
REMARK VINA RESULT:      -6.3      4.086      7.188
REMARK SMILES Cc1ccc([C@@H]2CC[C@@H]3CC=N[C@]3(C=O)C2)c(F)c1F
REMARK SMILES IDX 6 1 7 2 8 3 9 4 10 5 11 6 12 7 13 8 16 9 5 10 2 11 3 12
REMARK SMILES IDX 19 13 4 14 17 15 1 16 20 17 18 18 14 19 15 20
REMARK H PARENT
ROOT
ATOM      1  C   UNL     1      44.576 131.261  20.743  1.00  0.00     0.025 C 
ATOM      2  C   UNL     1      45.600 130.161  21.150  1.00  0.00     0.009 C 
ATOM      3  C   UNL     1      44.963 129.021  21.951  1.00  0.00     0.007 C 
ATOM      4  C   UNL     1      44.287 129.566  23.226  1.00  0.00     0.029 C 
ATOM      5  C   UNL     1      43.397 128.505  23.896  1.00  0.00     0.054 C 
ATOM      6  C   UNL     1      42.066 129.157  23.932  1.00  0.00     0.079 C 
ATOM      7  N   UNL     1      42.050 130.334  23.439  1.00  0.00    -0.283 NA
ATOM      8  C   UNL     1      43.334 130.774  22.954  1.00  0.00     0.119 C 
ATOM      9  C   UNL     1      43.206 131.117  21.449  1.00  0.00     0.047 C 
ENDROOT
BRANCH   1  10
ATOM     10  C   UNL     1      44.383 131.327  19.235  1.00  0.00    -0.006 A 
ATOM     11  C   UNL     1      44.021 131.493  16.440  1.00  0.00    -0.012 A 
ATOM     12  C   UNL     1      42.982 131.849  17.310  1.00  0.00     0.007 A 
ATOM     13  C   UNL     1      45.253 131.080  16.970  1.00  0.00     0.162 A 
ATOM     14  C   UNL     1      43.160 131.766  18.692  1.00  0.00     0.007 A 
ATOM     15  C   UNL     1      45.434 130.996  18.356  1.00  0.00     0.162 A 
ATOM     16  C   UNL     1      43.838 131.609  14.953  1.00  0.00     0.047 C 
ATOM     17  F   UNL     1      46.283 130.762  16.144  1.00  0.00    -0.203 F 
ATOM     18  F   UNL     1      46.641 130.599  18.835  1.00  0.00    -0.203 F 
ENDBRANCH   1  10
BRANCH   8  19
ATOM     19  C   UNL     1      43.750 131.996  23.747  1.00  0.00     0.254 C 
ATOM     20  O   UNL     1      43.032 132.451  24.625  1.00  0.00    -0.301 OA
ENDBRANCH   8  19
TORSDOF 2
ENDMDL
MODEL 4
REMARK VINA RESULT:      -6.3      3.845      7.025
REMARK SMILES Cc1ccc([C@@H]2CC[C@@H]3CC=N[C@]3(C=O)C2)c(F)c1F
REMARK SMILES IDX 6 1 7 2 8 3 9 4 10 5 11 6 12 7 13 8 16 9 5 10 2 11 3 12
REMARK SMILES IDX 19 13 4 14 17 15 1 16 20 17 18 18 14 19 15 20
REMARK H PARENT
ROOT
ATOM      1  C   UNL     1      44.847 131.048  21.003  1.00  0.00     0.025 C 
ATOM      2  C   UNL     1      45.667 129.773  21.359  1.00  0.00     0.009 C 
ATOM      3  C   UNL     1      44.851 128.740  22.144  1.00  0.00     0.007 C 
ATOM      4  C   UNL     1      44.303 129.359  23.446  1.00  0.00     0.029 C 
ATOM      5  C   UNL     1      43.250 128.454  24.107  1.00  0.00     0.054 C 
ATOM      6  C   UNL     1      42.057 129.329  24.188  1.00  0.00     0.079 C 
ATOM      7  N   UNL     1      42.242 130.504  23.727  1.00  0.00    -0.283 NA
ATOM      8  C   UNL     1      43.575 130.725  23.227  1.00  0.00     0.119 C 
ATOM      9  C   UNL     1      43.485 131.128  21.733  1.00  0.00     0.047 C 
ENDROOT
BRANCH   1  10
ATOM     10  C   UNL     1      44.645 131.192  19.501  1.00  0.00    -0.006 A 
ATOM     11  C   UNL     1      44.271 131.416  16.711  1.00  0.00    -0.012 A 
ATOM     12  C   UNL     1      45.444 130.847  17.225  1.00  0.00     0.007 A 
ATOM     13  C   UNL     1      43.271 131.848  17.597  1.00  0.00     0.162 A 
ATOM     14  C   UNL     1      45.630 130.736  18.604  1.00  0.00     0.007 A 
ATOM     15  C   UNL     1      43.455 131.739  18.981  1.00  0.00     0.162 A 
ATOM     16  C   UNL     1      44.059 131.508  15.227  1.00  0.00     0.047 C 
ATOM     17  F   UNL     1      42.113 132.373  17.119  1.00  0.00    -0.203 F 
ATOM     18  F   UNL     1      42.465 132.161  19.807  1.00  0.00    -0.203 F 
ENDBRANCH   1  10
BRANCH   8  19
ATOM     19  C   UNL     1      44.214 131.830  24.041  1.00  0.00     0.254 C 
ATOM     20  O   UNL     1      43.530 132.658  24.623  1.00  0.00    -0.301 OA
ENDBRANCH   8  19
TORSDOF 2
ENDMDL
MODEL 5
REMARK VINA RESULT:      -5.4      3.415      6.725
REMARK SMILES Cc1ccc([C@@H]2CC[C@@H]3CC=N[C@]3(C=O)C2)c(F)c1F
REMARK SMILES IDX 6 1 7 2 8 3 9 4 10 5 11 6 12 7 13 8 16 9 5 10 2 11 3 12
REMARK SMILES IDX 19 13 4 14 17 15 1 16 20 17 18 18 14 19 15 20
REMARK H PARENT
ROOT
ATOM      1  C   UNL     1      44.079 131.996  19.619  1.00  0.00     0.025 C 
ATOM      2  C   UNL     1      45.330 132.373  20.466  1.00  0.00     0.009 C 
ATOM      3  C   UNL     1      45.531 131.453  21.674  1.00  0.00     0.007 C 
ATOM      4  C   UNL     1      44.288 131.477  22.587  1.00  0.00     0.029 C 
ATOM      5  C   UNL     1      44.333 130.358  23.641  1.00  0.00     0.054 C 
ATOM      6  C   UNL     1      43.084 129.604  23.384  1.00  0.00     0.079 C 
ATOM      7  N   UNL     1      42.376 130.078  22.434  1.00  0.00    -0.283 NA
ATOM      8  C   UNL     1      42.948 131.247  21.816  1.00  0.00     0.119 C 
ATOM      9  C   UNL     1      43.159 130.960  20.308  1.00  0.00     0.047 C 
ENDROOT
BRANCH   1  10
ATOM     10  C   UNL     1      44.460 131.513  18.227  1.00  0.00    -0.006 A 
ATOM     11  C   UNL     1      45.174 130.658  15.632  1.00  0.00    -0.012 A 
ATOM     12  C   UNL     1      44.055 131.480  15.824  1.00  0.00     0.007 A 
ATOM     13  C   UNL     1      45.954 130.287  16.739  1.00  0.00     0.162 A 
ATOM     14  C   UNL     1      43.701 131.902  17.106  1.00  0.00     0.007 A 
ATOM     15  C   UNL     1      45.600 130.709  18.027  1.00  0.00     0.162 A 
ATOM     16  C   UNL     1      45.570 130.227  14.249  1.00  0.00     0.047 C 
ATOM     17  F   UNL     1      47.060 129.518  16.571  1.00  0.00    -0.203 F 
ATOM     18  F   UNL     1      46.380 130.336  19.074  1.00  0.00    -0.203 F 
ENDBRANCH   1  10
BRANCH   8  19
ATOM     19  C   UNL     1      41.991 132.406  22.010  1.00  0.00     0.254 C 
ATOM     20  O   UNL     1      41.572 133.042  21.055  1.00  0.00    -0.301 OA
ENDBRANCH   8  19
TORSDOF 2
ENDMDL
MODEL 6
REMARK VINA RESULT:      -5.2      1.411      1.778
REMARK SMILES Cc1ccc([C@@H]2CC[C@@H]3CC=N[C@]3(C=O)C2)c(F)c1F
REMARK SMILES IDX 6 1 7 2 8 3 9 4 10 5 11 6 12 7 13 8 16 9 5 10 2 11 3 12
REMARK SMILES IDX 19 13 4 14 17 15 1 16 20 17 18 18 14 19 15 20
REMARK H PARENT
ROOT
ATOM      1  C   UNL     1      44.173 130.970  16.868  1.00  0.00     0.025 C 
ATOM      2  C   UNL     1      44.352 129.450  16.578  1.00  0.00     0.009 C 
ATOM      3  C   UNL     1      45.677 129.129  15.878  1.00  0.00     0.007 C 
ATOM      4  C   UNL     1      45.789 129.904  14.549  1.00  0.00     0.029 C 
ATOM      5  C   UNL     1      47.212 129.836  13.969  1.00  0.00     0.054 C 
ATOM      6  C   UNL     1      47.598 131.262  13.855  1.00  0.00     0.079 C 
ATOM      7  N   UNL     1      46.693 132.078  14.236  1.00  0.00    -0.283 NA
ATOM      8  C   UNL     1      45.490 131.432  14.694  1.00  0.00     0.119 C 
ATOM      9  C   UNL     1      45.224 131.859  16.160  1.00  0.00     0.047 C 
ENDROOT
BRANCH   1  10
ATOM     10  C   UNL     1      44.157 131.265  18.361  1.00  0.00    -0.006 A 
ATOM     11  C   UNL     1      44.097 131.784  21.135  1.00  0.00    -0.012 A 
ATOM     12  C   UNL     1      42.960 132.012  20.348  1.00  0.00     0.007 A 
ATOM     13  C   UNL     1      45.258 131.269  20.537  1.00  0.00     0.162 A 
ATOM     14  C   UNL     1      42.989 131.756  18.976  1.00  0.00     0.007 A 
ATOM     15  C   UNL     1      45.290 131.012  19.160  1.00  0.00     0.162 A 
ATOM     16  C   UNL     1      44.057 132.033  22.616  1.00  0.00     0.047 C 
ATOM     17  F   UNL     1      46.360 131.011  21.287  1.00  0.00    -0.203 F 
ATOM     18  F   UNL     1      46.427 130.509  18.615  1.00  0.00    -0.203 F 
ENDBRANCH   1  10
BRANCH   8  19
ATOM     19  C   UNL     1      44.347 131.859  13.798  1.00  0.00     0.254 C 
ATOM     20  O   UNL     1      43.267 131.290  13.840  1.00  0.00    -0.301 OA
ENDBRANCH   8  19
TORSDOF 2
ENDMDL
MODEL 7
REMARK VINA RESULT:      -5.0      3.059      6.360
REMARK SMILES Cc1ccc([C@@H]2CC[C@@H]3CC=N[C@]3(C=O)C2)c(F)c1F
REMARK SMILES IDX 6 1 7 2 8 3 9 4 10 5 11 6 12 7 13 8 16 9 5 10 2 11 3 12
REMARK SMILES IDX 19 13 4 14 17 15 1 16 20 17 18 18 14 19 15 20
REMARK H PARENT
ROOT
ATOM      1  C   UNL     1      44.759 132.011  18.593  1.00  0.00     0.025 C 
ATOM      2  C   UNL     1      45.804 132.593  19.590  1.00  0.00     0.009 C 
ATOM      3  C   UNL     1      45.760 131.915  20.963  1.00  0.00     0.007 C 
ATOM      4  C   UNL     1      44.355 132.044  21.586  1.00  0.00     0.029 C 
ATOM      5  C   UNL     1      44.192 131.136  22.817  1.00  0.00     0.054 C 
ATOM      6  C   UNL     1      43.030 130.289  22.458  1.00  0.00     0.079 C 
ATOM      7  N   UNL     1      42.529 130.550  21.314  1.00  0.00    -0.283 NA
ATOM      8  C   UNL     1      43.205 131.616  20.618  1.00  0.00     0.119 C 
ATOM      9  C   UNL     1      43.726 131.073  19.264  1.00  0.00     0.047 C 
ENDROOT
BRANCH   1  10
ATOM     10  C   UNL     1      45.424 131.305  17.421  1.00  0.00    -0.006 A 
ATOM     11  C   UNL     1      46.621 129.975  15.237  1.00  0.00    -0.012 A 
ATOM     12  C   UNL     1      46.127 129.244  16.326  1.00  0.00     0.007 A 
ATOM     13  C   UNL     1      46.490 131.372  15.228  1.00  0.00     0.162 A 
ATOM     14  C   UNL     1      45.536 129.901  17.406  1.00  0.00     0.007 A 
ATOM     15  C   UNL     1      45.898 132.034  16.312  1.00  0.00     0.162 A 
ATOM     16  C   UNL     1      47.232 129.265  14.062  1.00  0.00     0.047 C 
ATOM     17  F   UNL     1      46.933 132.096  14.169  1.00  0.00    -0.203 F 
ATOM     18  F   UNL     1      45.783 133.386  16.268  1.00  0.00    -0.203 F 
ENDBRANCH   1  10
BRANCH   8  19
ATOM     19  C   UNL     1      42.218 132.743  20.397  1.00  0.00     0.254 C 
ATOM     20  O   UNL     1      41.560 132.811  19.370  1.00  0.00    -0.301 OA
ENDBRANCH   8  19
TORSDOF 2
ENDMDL
MODEL 8
REMARK VINA RESULT:      -4.9      4.523      6.264
REMARK SMILES Cc1ccc([C@@H]2CC[C@@H]3CC=N[C@]3(C=O)C2)c(F)c1F
REMARK SMILES IDX 6 1 7 2 8 3 9 4 10 5 11 6 12 7 13 8 16 9 5 10 2 11 3 12
REMARK SMILES IDX 19 13 4 14 17 15 1 16 20 17 18 18 14 19 15 20
REMARK H PARENT
ROOT
ATOM      1  C   UNL     1      44.522 129.880  22.358  1.00  0.00     0.025 C 
ATOM      2  C   UNL     1      43.412 130.971  22.339  1.00  0.00     0.009 C 
ATOM      3  C   UNL     1      42.986 131.363  20.921  1.00  0.00     0.007 C 
ATOM      4  C   UNL     1      44.197 131.874  20.113  1.00  0.00     0.029 C 
ATOM      5  C   UNL     1      43.871 131.999  18.615  1.00  0.00     0.054 C 
ATOM      6  C   UNL     1      44.886 131.128  17.976  1.00  0.00     0.079 C 
ATOM      7  N   UNL     1      45.688 130.574  18.799  1.00  0.00    -0.283 NA
ATOM      8  C   UNL     1      45.432 130.918  20.175  1.00  0.00     0.119 C 
ATOM      9  C   UNL     1      45.149 129.616  20.968  1.00  0.00     0.047 C 
ENDROOT
BRANCH   1  10
ATOM     10  C   UNL     1      44.026 128.575  22.965  1.00  0.00    -0.006 A 
ATOM     11  C   UNL     1      43.073 126.156  24.065  1.00  0.00    -0.012 A 
ATOM     12  C   UNL     1      42.337 127.339  24.213  1.00  0.00     0.007 A 
ATOM     13  C   UNL     1      44.275 126.178  23.340  1.00  0.00     0.162 A 
ATOM     14  C   UNL     1      42.808 128.536  23.670  1.00  0.00     0.007 A 
ATOM     15  C   UNL     1      44.750 127.378  22.795  1.00  0.00     0.162 A 
ATOM     16  C   UNL     1      42.551 124.863  24.624  1.00  0.00     0.047 C 
ATOM     17  F   UNL     1      44.986 125.036  23.157  1.00  0.00    -0.203 F 
ATOM     18  F   UNL     1      45.913 127.362  22.095  1.00  0.00    -0.203 F 
ENDBRANCH   1  10
BRANCH   8  19
ATOM     19  C   UNL     1      46.653 131.624  20.726  1.00  0.00     0.254 C 
ATOM     20  O   UNL     1      46.564 132.735  21.227  1.00  0.00    -0.301 OA
ENDBRANCH   8  19
TORSDOF 2
ENDMDL
MODEL 9
REMARK VINA RESULT:      -4.8      6.059      8.180
REMARK SMILES Cc1ccc([C@@H]2CC[C@@H]3CC=N[C@]3(C=O)C2)c(F)c1F
REMARK SMILES IDX 6 1 7 2 8 3 9 4 10 5 11 6 12 7 13 8 16 9 5 10 2 11 3 12
REMARK SMILES IDX 19 13 4 14 17 15 1 16 20 17 18 18 14 19 15 20
REMARK H PARENT
ROOT
ATOM      1  C   UNL     1      44.506 127.310  23.299  1.00  0.00     0.025 C 
ATOM      2  C   UNL     1      45.322 127.328  24.624  1.00  0.00     0.009 C 
ATOM      3  C   UNL     1      46.482 126.327  24.624  1.00  0.00     0.007 C 
ATOM      4  C   UNL     1      45.960 124.895  24.383  1.00  0.00     0.029 C 
ATOM      5  C   UNL     1      47.107 123.913  24.088  1.00  0.00     0.054 C 
ATOM      6  C   UNL     1      46.744 123.361  22.762  1.00  0.00     0.079 C 
ATOM      7  N   UNL     1      45.653 123.822  22.287  1.00  0.00    -0.283 NA
ATOM      8  C   UNL     1      45.009 124.781  23.148  1.00  0.00     0.119 C 
ATOM      9  C   UNL     1      44.856 126.117  22.377  1.00  0.00     0.047 C 
ENDROOT
BRANCH   1  10
ATOM     10  C   UNL     1      44.635 128.619  22.533  1.00  0.00    -0.006 A 
ATOM     11  C   UNL     1      44.862 131.027  21.077  1.00  0.00    -0.012 A 
ATOM     12  C   UNL     1      45.643 129.915  20.732  1.00  0.00     0.007 A 
ATOM     13  C   UNL     1      43.946 130.924  22.136  1.00  0.00     0.162 A 
ATOM     14  C   UNL     1      45.532 128.724  21.452  1.00  0.00     0.007 A 
ATOM     15  C   UNL     1      43.833 129.730  22.860  1.00  0.00     0.162 A 
ATOM     16  C   UNL     1      44.962 132.299  20.284  1.00  0.00     0.047 C 
ATOM     17  F   UNL     1      43.157 131.979  22.465  1.00  0.00    -0.203 F 
ATOM     18  F   UNL     1      42.933 129.664  23.873  1.00  0.00    -0.203 F 
ENDBRANCH   1  10
BRANCH   8  19
ATOM     19  C   UNL     1      43.652 124.234  23.543  1.00  0.00     0.254 C 
ATOM     20  O   UNL     1      43.153 124.509  24.623  1.00  0.00    -0.301 OA
ENDBRANCH   8  19
TORSDOF 2
ENDMDL


