REMARK SMILES C#CCOCn1nc2cc(-c3cnc(F)cc3C)ccc2c1C
REMARK SMILES IDX 4 1 3 2 2 3 1 4 5 5 6 6 7 7 22 8 8 9 21 10 9 11 20 12 10 13
REMARK SMILES IDX 19 14 23 15 11 16 12 17 17 18 13 19 16 20 14 21 18 22 15 23
REMARK H PARENT
ROOT
ATOM      1  O   UNL     1      -3.560  -2.924  -2.937  1.00  0.00    -0.347 OA
ENDROOT
BRANCH   1   2
ATOM      2  C   UNL     1      -2.760  -2.700  -4.077  1.00  0.00     0.251 C 
BRANCH   2   3
ATOM      3  C   UNL     1      -2.600  -3.963  -4.798  1.00  0.00    -0.078 C 
ATOM      4  C   UNL     1      -2.467  -5.004  -5.391  1.00  0.00     0.006 C 
ENDBRANCH   2   3
ENDBRANCH   1   2
BRANCH   1   5
ATOM      5  C   UNL     1      -3.675  -1.735  -2.180  1.00  0.00     0.306 C 
BRANCH   5   6
ATOM      6  N   UNL     1      -2.479  -1.532  -1.363  1.00  0.00    -0.243 N 
ATOM      7  N   UNL     1      -1.593  -0.570  -1.598  1.00  0.00    -0.170 NA
ATOM      8  C   UNL     1      -2.094  -2.275  -0.293  1.00  0.00     0.046 A 
ATOM      9  C   UNL     1      -0.638  -0.690  -0.659  1.00  0.00     0.093 A 
ATOM     10  C   UNL     1      -0.917  -1.734   0.181  1.00  0.00     0.023 A 
ATOM     11  C   UNL     1       0.489   0.108  -0.488  1.00  0.00     0.039 A 
ATOM     12  C   UNL     1      -0.099  -2.052   1.262  1.00  0.00     0.013 A 
ATOM     13  C   UNL     1       1.358  -0.192   0.586  1.00  0.00    -0.014 A 
ATOM     14  C   UNL     1       1.051  -1.266   1.463  1.00  0.00     0.009 A 
ATOM     15  C   UNL     1      -2.878  -3.396   0.319  1.00  0.00     0.067 C 
BRANCH  13  16
ATOM     16  C   UNL     1       2.566   0.631   0.821  1.00  0.00     0.003 A 
ATOM     17  C   UNL     1       2.709   1.291   2.052  1.00  0.00     0.123 A 
ATOM     18  C   UNL     1       3.587   0.772  -0.150  1.00  0.00    -0.037 A 
ATOM     19  N   UNL     1       3.791   2.076   2.291  1.00  0.00    -0.228 NA
ATOM     20  C   UNL     1       4.681   1.604   0.129  1.00  0.00     0.064 A 
ATOM     21  C   UNL     1       4.767   2.248   1.364  1.00  0.00     0.213 A 
ATOM     22  C   UNL     1       3.528   0.066  -1.479  1.00  0.00     0.045 C 
ATOM     23  F   UNL     1       5.828   3.045   1.642  1.00  0.00    -0.185 F 
ENDBRANCH  13  16
ENDBRANCH   5   6
ENDBRANCH   1   5
TORSDOF 5


