REMARK SMILES Oc1ccc([NH2+]c2cc3[nH]ccc3cc2F)c(F)c1
REMARK SMILES IDX 2 1 3 2 4 3 5 4 17 5 18 6 19 7 1 8 6 10 7 13 8 14 15 15 9 16
REMARK SMILES IDX 14 17 10 18 13 19 11 20 12 21 16 22
REMARK H PARENT 1 9 6 11 6 12 10 23
ROOT
ATOM      1  C   UNL     1      -2.124   2.789   0.124  1.00  0.00     0.118 A 
ATOM      2  C   UNL     1      -0.863   2.701   0.717  1.00  0.00     0.052 A 
ATOM      3  C   UNL     1      -0.362   1.462   1.125  1.00  0.00     0.075 A 
ATOM      4  C   UNL     1      -1.120   0.289   0.945  1.00  0.00     0.171 A 
ATOM      5  C   UNL     1      -2.393   0.386   0.346  1.00  0.00     0.187 A 
ATOM      6  F   UNL     1      -3.159  -0.718   0.165  1.00  0.00    -0.200 F 
ATOM      7  C   UNL     1      -2.888   1.629  -0.060  1.00  0.00     0.091 A 
ENDROOT
BRANCH   1   8
ATOM      8  O   UNL     1      -2.611   4.031  -0.279  1.00  0.00    -0.508 OA
ATOM      9  H   UNL     1      -3.522   4.128  -0.711  1.00  0.00     0.293 HD
ENDBRANCH   1   8
BRANCH   4  10
ATOM     10  N   UNL     1      -0.582  -0.990   1.343  1.00  0.00    -0.276 N 
ATOM     11  H   UNL     1      -1.352  -1.637   1.632  1.00  0.00     0.358 HD
ATOM     12  H   UNL     1       0.032  -0.872   2.183  1.00  0.00     0.358 HD
BRANCH  10  13
ATOM     13  C   UNL     1       0.186  -1.559   0.261  1.00  0.00     0.172 A 
ATOM     14  C   UNL     1       1.529  -1.155   0.061  1.00  0.00     0.098 A 
ATOM     15  C   UNL     1      -0.397  -2.507  -0.628  1.00  0.00     0.184 A 
ATOM     16  C   UNL     1       2.232  -1.703  -1.008  1.00  0.00     0.052 A 
ATOM     17  C   UNL     1       0.347  -3.039  -1.698  1.00  0.00     0.056 A 
ATOM     18  N   UNL     1       3.502  -1.451  -1.365  1.00  0.00    -0.361 N 
ATOM     19  C   UNL     1       1.661  -2.611  -1.856  1.00  0.00     0.003 A 
ATOM     20  C   UNL     1       3.738  -2.213  -2.457  1.00  0.00     0.083 A 
ATOM     21  C   UNL     1       2.609  -2.953  -2.796  1.00  0.00     0.028 A 
ATOM     22  F   UNL     1      -1.675  -2.925  -0.452  1.00  0.00    -0.200 F 
ATOM     23  H   UNL     1       4.173  -0.801  -0.897  1.00  0.00     0.166 HD
ENDBRANCH  10  13
ENDBRANCH   4  10
TORSDOF 3


