REMARK SMILES N#Cc1c(F)cc(F)cc1-c1ccc(C([NH-])=O)cc1
REMARK SMILES IDX 11 1 12 2 13 3 14 4 18 5 19 6 10 7 3 8 4 9 6 10 9 11 7 12
REMARK SMILES IDX 5 13 8 14 2 15 1 16 15 17 17 18 16 19
REMARK H PARENT 16 20
ROOT
ATOM      1  C   UNL     1       0.243  -0.055  -0.270  1.00  0.00    -0.017 A 
ATOM      2  C   UNL     1       1.216   0.846  -0.728  1.00  0.00     0.009 A 
ATOM      3  C   UNL     1       1.222   1.264  -2.062  1.00  0.00     0.011 A 
ATOM      4  C   UNL     1       0.254   0.790  -2.965  1.00  0.00    -0.001 A 
ATOM      5  C   UNL     1      -0.707  -0.130  -2.507  1.00  0.00     0.011 A 
ATOM      6  C   UNL     1      -0.710  -0.548  -1.173  1.00  0.00     0.009 A 
ENDROOT
BRANCH   1   7
ATOM      7  C   UNL     1       0.242  -0.513   1.141  1.00  0.00     0.005 A 
ATOM      8  C   UNL     1       0.197   0.398   2.225  1.00  0.00     0.096 A 
ATOM      9  C   UNL     1       0.211  -0.087   3.543  1.00  0.00     0.144 A 
ATOM     10  C   UNL     1       0.265  -1.461   3.788  1.00  0.00     0.080 A 
ATOM     11  C   UNL     1       0.285  -1.893   1.407  1.00  0.00     0.049 A 
ATOM     12  C   UNL     1       0.298  -2.362   2.723  1.00  0.00     0.126 A 
ATOM     13  F   UNL     1       0.164   0.771   4.594  1.00  0.00    -0.205 F 
ATOM     14  F   UNL     1       0.347  -3.696   2.965  1.00  0.00    -0.207 F 
BRANCH   8  15
ATOM     15  C   UNL     1       0.088   1.822   2.008  1.00  0.00     0.103 C 
ATOM     16  N   UNL     1       0.000   2.962   1.834  1.00  0.00    -0.192 NA
ENDBRANCH   8  15
ENDBRANCH   1   7
BRANCH   4  17
ATOM     17  C   UNL     1       0.276   1.243  -4.378  1.00  0.00     0.080 C 
ATOM     18  O   UNL     1       1.338   1.712  -4.867  1.00  0.00    -0.315 OA
BRANCH  17  19
ATOM     19  N   UNL     1      -0.886   1.179  -5.206  1.00  0.00    -0.664 NA
ATOM     20  H   UNL     1      -1.824   0.893  -4.851  1.00  0.00    -0.121 HD
ENDBRANCH  17  19
ENDBRANCH   4  17
TORSDOF 4


