MODEL 1
REMARK VINA RESULT:      -6.7      0.000      0.000
REMARK SMILES C=C[C@H](OCC)C(=O)Nc1cc(F)c[nH]/c1=N\c1cnc2[nH]ccc2c1
REMARK SMILES IDX 7 1 8 2 9 3 3 5 2 6 1 7 4 8 5 9 6 10 10 11 11 12 16 13 12 14
REMARK SMILES IDX 15 15 14 16 13 17 17 19 18 20 19 21 26 22 20 23 25 24 21 25
REMARK SMILES IDX 24 26 22 27 23 28
REMARK H PARENT 9 4 15 18 22 29
ROOT
ATOM      1  C   UNL     1      45.385 127.354  22.866  1.00  0.00     0.257 C 
ATOM      2  O   UNL     1      45.026 127.502  24.065  1.00  0.00    -0.271 OA
ATOM      3  N   UNL     1      45.261 128.441  21.933  1.00  0.00    -0.320 N 
ATOM      4  H   UNL     1      45.783 128.380  21.030  1.00  0.00     0.170 HD
ENDROOT
BRANCH   1   5
ATOM      5  C   UNL     1      46.018 126.050  22.450  1.00  0.00     0.229 C 
BRANCH   5   6
ATOM      6  C   UNL     1      45.092 124.907  22.776  1.00  0.00     0.007 C 
ATOM      7  C   UNL     1      43.820 124.874  22.365  1.00  0.00     0.007 C 
ENDBRANCH   5   6
BRANCH   5   8
ATOM      8  O   UNL     1      47.259 125.849  23.106  1.00  0.00    -0.365 OA
BRANCH   8   9
ATOM      9  C   UNL     1      48.174 125.193  22.251  1.00  0.00     0.158 C 
ATOM     10  C   UNL     1      49.592 125.512  22.700  1.00  0.00     0.035 C 
ENDBRANCH   8   9
ENDBRANCH   5   8
ENDBRANCH   1   5
BRANCH   3  11
ATOM     11  C   UNL     1      44.524 129.647  22.208  1.00  0.00     0.087 A 
ATOM     12  C   UNL     1      43.650 129.716  23.304  1.00  0.00     0.070 A 
ATOM     13  C   UNL     1      44.635 130.764  21.352  1.00  0.00     0.154 A 
ATOM     14  C   UNL     1      42.921 130.878  23.545  1.00  0.00     0.141 A 
ATOM     15  N   UNL     1      43.882 131.882  21.603  1.00  0.00    -0.342 N 
ATOM     16  C   UNL     1      43.049 131.958  22.675  1.00  0.00     0.123 A 
ATOM     17  F   UNL     1      42.074 130.947  24.602  1.00  0.00    -0.205 F 
ATOM     18  H   UNL     1      43.895 132.701  20.957  1.00  0.00     0.168 HD
BRANCH  13  19
ATOM     19  N   UNL     1      45.438 130.694  20.326  1.00  0.00    -0.227 NA
BRANCH  19  20
ATOM     20  C   UNL     1      45.127 130.970  18.952  1.00  0.00     0.085 A 
ATOM     21  C   UNL     1      43.890 131.580  18.633  1.00  0.00     0.142 A 
ATOM     22  C   UNL     1      45.976 130.538  17.908  1.00  0.00     0.042 A 
ATOM     23  N   UNL     1      43.536 131.801  17.330  1.00  0.00    -0.236 NA
ATOM     24  C   UNL     1      45.568 130.791  16.604  1.00  0.00     0.021 A 
ATOM     25  C   UNL     1      44.380 131.410  16.344  1.00  0.00     0.137 A 
ATOM     26  C   UNL     1      46.155 130.510  15.391  1.00  0.00     0.030 A 
ATOM     27  N   UNL     1      44.174 131.543  15.026  1.00  0.00    -0.346 N 
ATOM     28  C   UNL     1      45.262 130.993  14.435  1.00  0.00     0.085 A 
ATOM     29  H   UNL     1      43.348 131.973  14.552  1.00  0.00     0.167 HD
ENDBRANCH  19  20
ENDBRANCH  13  19
ENDBRANCH   3  11
TORSDOF 7
ENDMDL
MODEL 2
REMARK VINA RESULT:      -6.3      1.015      2.007
REMARK SMILES C=C[C@H](OCC)C(=O)Nc1cc(F)c[nH]/c1=N\c1cnc2[nH]ccc2c1
REMARK SMILES IDX 7 1 8 2 9 3 3 5 2 6 1 7 4 8 5 9 6 10 10 11 11 12 16 13 12 14
REMARK SMILES IDX 15 15 14 16 13 17 17 19 18 20 19 21 26 22 20 23 25 24 21 25
REMARK SMILES IDX 24 26 22 27 23 28
REMARK H PARENT 9 4 15 18 22 29
ROOT
ATOM      1  C   UNL     1      44.630 127.447  22.892  1.00  0.00     0.257 C 
ATOM      2  O   UNL     1      43.565 127.502  23.567  1.00  0.00    -0.271 OA
ATOM      3  N   UNL     1      45.161 128.634  22.279  1.00  0.00    -0.320 N 
ATOM      4  H   UNL     1      46.150 128.617  21.945  1.00  0.00     0.170 HD
ENDROOT
BRANCH   1   5
ATOM      5  C   UNL     1      45.374 126.138  22.809  1.00  0.00     0.229 C 
BRANCH   5   6
ATOM      6  C   UNL     1      46.710 126.352  22.147  1.00  0.00     0.007 C 
ATOM      7  C   UNL     1      47.701 125.458  22.223  1.00  0.00     0.007 C 
ENDBRANCH   5   6
BRANCH   5   8
ATOM      8  O   UNL     1      44.636 125.173  22.076  1.00  0.00    -0.365 OA
BRANCH   8   9
ATOM      9  C   UNL     1      44.358 124.044  22.879  1.00  0.00     0.158 C 
ATOM     10  C   UNL     1      43.005 123.472  22.482  1.00  0.00     0.035 C 
ENDBRANCH   8   9
ENDBRANCH   5   8
ENDBRANCH   1   5
BRANCH   3  11
ATOM     11  C   UNL     1      44.433 129.871  22.175  1.00  0.00     0.087 A 
ATOM     12  C   UNL     1      43.586 130.292  23.213  1.00  0.00     0.070 A 
ATOM     13  C   UNL     1      44.524 130.659  21.008  1.00  0.00     0.154 A 
ATOM     14  C   UNL     1      42.864 131.477  23.090  1.00  0.00     0.141 A 
ATOM     15  N   UNL     1      43.779 131.806  20.909  1.00  0.00    -0.342 N 
ATOM     16  C   UNL     1      42.972 132.225  21.921  1.00  0.00     0.123 A 
ATOM     17  F   UNL     1      42.044 131.884  24.090  1.00  0.00    -0.205 F 
ATOM     18  H   UNL     1      43.777 132.379  20.036  1.00  0.00     0.168 HD
BRANCH  13  19
ATOM     19  N   UNL     1      45.302 130.261  20.038  1.00  0.00    -0.227 NA
BRANCH  19  20
ATOM     20  C   UNL     1      45.287 130.697  18.670  1.00  0.00     0.085 A 
ATOM     21  C   UNL     1      44.281 131.596  18.243  1.00  0.00     0.142 A 
ATOM     22  C   UNL     1      46.180 130.154  17.719  1.00  0.00     0.042 A 
ATOM     23  N   UNL     1      44.200 131.983  16.934  1.00  0.00    -0.236 NA
ATOM     24  C   UNL     1      46.054 130.585  16.404  1.00  0.00     0.021 A 
ATOM     25  C   UNL     1      45.088 131.477  16.043  1.00  0.00     0.137 A 
ATOM     26  C   UNL     1      46.756 130.261  15.265  1.00  0.00     0.030 A 
ATOM     27  N   UNL     1      45.134 131.747  14.730  1.00  0.00    -0.346 N 
ATOM     28  C   UNL     1      46.158 131.003  14.247  1.00  0.00     0.085 A 
ATOM     29  H   UNL     1      44.510 132.387  14.191  1.00  0.00     0.167 HD
ENDBRANCH  19  20
ENDBRANCH  13  19
ENDBRANCH   3  11
TORSDOF 7
ENDMDL
MODEL 3
REMARK VINA RESULT:      -6.0      3.081      4.828
REMARK SMILES C=C[C@H](OCC)C(=O)Nc1cc(F)c[nH]/c1=N\c1cnc2[nH]ccc2c1
REMARK SMILES IDX 7 1 8 2 9 3 3 5 2 6 1 7 4 8 5 9 6 10 10 11 11 12 16 13 12 14
REMARK SMILES IDX 15 15 14 16 13 17 17 19 18 20 19 21 26 22 20 23 25 24 21 25
REMARK SMILES IDX 24 26 22 27 23 28
REMARK H PARENT 9 4 15 18 22 29
ROOT
ATOM      1  C   UNL     1      46.597 125.066  22.927  1.00  0.00     0.257 C 
ATOM      2  O   UNL     1      46.424 124.305  23.917  1.00  0.00    -0.271 OA
ATOM      3  N   UNL     1      45.491 125.801  22.377  1.00  0.00    -0.320 N 
ATOM      4  H   UNL     1      45.698 126.597  21.733  1.00  0.00     0.170 HD
ENDROOT
BRANCH   1   5
ATOM      5  C   UNL     1      47.992 125.252  22.385  1.00  0.00     0.229 C 
BRANCH   5   6
ATOM      6  C   UNL     1      48.494 123.951  21.813  1.00  0.00     0.007 C 
ATOM      7  C   UNL     1      48.139 123.515  20.600  1.00  0.00     0.007 C 
ENDBRANCH   5   6
BRANCH   5   8
ATOM      8  O   UNL     1      48.882 125.693  23.397  1.00  0.00    -0.365 OA
BRANCH   8   9
ATOM      9  C   UNL     1      50.125 125.029  23.291  1.00  0.00     0.158 C 
ATOM     10  C   UNL     1      51.206 126.047  22.960  1.00  0.00     0.035 C 
ENDBRANCH   8   9
ENDBRANCH   5   8
ENDBRANCH   1   5
BRANCH   3  11
ATOM     11  C   UNL     1      44.117 125.555  22.728  1.00  0.00     0.087 A 
ATOM     12  C   UNL     1      43.490 124.355  22.363  1.00  0.00     0.070 A 
ATOM     13  C   UNL     1      43.365 126.538  23.407  1.00  0.00     0.154 A 
ATOM     14  C   UNL     1      42.151 124.138  22.684  1.00  0.00     0.141 A 
ATOM     15  N   UNL     1      42.043 126.304  23.684  1.00  0.00    -0.342 N 
ATOM     16  C   UNL     1      41.438 125.133  23.347  1.00  0.00     0.123 A 
ATOM     17  F   UNL     1      41.542 122.980  22.329  1.00  0.00    -0.205 F 
ATOM     18  H   UNL     1      41.444 127.033  24.131  1.00  0.00     0.168 HD
BRANCH  13  19
ATOM     19  N   UNL     1      43.946 127.661  23.736  1.00  0.00    -0.227 NA
BRANCH  19  20
ATOM     20  C   UNL     1      43.982 128.880  22.980  1.00  0.00     0.085 A 
ATOM     21  C   UNL     1      42.909 129.795  23.094  1.00  0.00     0.142 A 
ATOM     22  C   UNL     1      45.006 129.128  22.038  1.00  0.00     0.042 A 
ATOM     23  N   UNL     1      42.882 130.937  22.342  1.00  0.00    -0.236 NA
ATOM     24  C   UNL     1      44.930 130.305  21.303  1.00  0.00     0.021 A 
ATOM     25  C   UNL     1      43.891 131.173  21.468  1.00  0.00     0.137 A 
ATOM     26  C   UNL     1      45.752 130.832  20.333  1.00  0.00     0.030 A 
ATOM     27  N   UNL     1      44.004 132.234  20.656  1.00  0.00    -0.346 N 
ATOM     28  C   UNL     1      45.146 132.030  19.957  1.00  0.00     0.085 A 
ATOM     29  H   UNL     1      43.349 133.043  20.572  1.00  0.00     0.167 HD
ENDBRANCH  19  20
ENDBRANCH  13  19
ENDBRANCH   3  11
TORSDOF 7
ENDMDL
MODEL 4
REMARK VINA RESULT:      -5.4      2.680      7.294
REMARK SMILES C=C[C@H](OCC)C(=O)Nc1cc(F)c[nH]/c1=N\c1cnc2[nH]ccc2c1
REMARK SMILES IDX 7 1 8 2 9 3 3 5 2 6 1 7 4 8 5 9 6 10 10 11 11 12 16 13 12 14
REMARK SMILES IDX 15 15 14 16 13 17 17 19 18 20 19 21 26 22 20 23 25 24 21 25
REMARK SMILES IDX 24 26 22 27 23 28
REMARK H PARENT 9 4 15 18 22 29
ROOT
ATOM      1  C   UNL     1      45.103 131.132  19.460  1.00  0.00     0.257 C 
ATOM      2  O   UNL     1      44.455 132.169  19.770  1.00  0.00    -0.271 OA
ATOM      3  N   UNL     1      45.181 130.027  20.377  1.00  0.00    -0.320 N 
ATOM      4  H   UNL     1      45.502 129.103  20.010  1.00  0.00     0.170 HD
ENDROOT
BRANCH   1   5
ATOM      5  C   UNL     1      45.721 131.041  18.088  1.00  0.00     0.229 C 
BRANCH   5   6
ATOM      6  C   UNL     1      44.979 131.940  17.134  1.00  0.00     0.007 C 
ATOM      7  C   UNL     1      45.555 132.471  16.050  1.00  0.00     0.007 C 
ENDBRANCH   5   6
BRANCH   5   8
ATOM      8  O   UNL     1      45.691 129.711  17.598  1.00  0.00    -0.365 OA
BRANCH   8   9
ATOM      9  C   UNL     1      46.382 129.617  16.369  1.00  0.00     0.158 C 
ATOM     10  C   UNL     1      45.465 128.993  15.328  1.00  0.00     0.035 C 
ENDBRANCH   8   9
ENDBRANCH   5   8
ENDBRANCH   1   5
BRANCH   3  11
ATOM     11  C   UNL     1      44.762 130.101  21.752  1.00  0.00     0.087 A 
ATOM     12  C   UNL     1      44.290 131.308  22.291  1.00  0.00     0.070 A 
ATOM     13  C   UNL     1      44.863 128.972  22.592  1.00  0.00     0.154 A 
ATOM     14  C   UNL     1      43.914 131.376  23.631  1.00  0.00     0.141 A 
ATOM     15  N   UNL     1      44.510 129.080  23.912  1.00  0.00    -0.342 N 
ATOM     16  C   UNL     1      44.035 130.244  24.432  1.00  0.00     0.123 A 
ATOM     17  F   UNL     1      43.460 132.540  24.155  1.00  0.00    -0.205 F 
ATOM     18  H   UNL     1      44.629 128.282  24.574  1.00  0.00     0.168 HD
BRANCH  13  19
ATOM     19  N   UNL     1      45.315 127.853  22.093  1.00  0.00    -0.227 NA
BRANCH  19  20
ATOM     20  C   UNL     1      45.024 126.519  22.534  1.00  0.00     0.085 A 
ATOM     21  C   UNL     1      46.076 125.576  22.625  1.00  0.00     0.142 A 
ATOM     22  C   UNL     1      43.695 126.097  22.763  1.00  0.00     0.042 A 
ATOM     23  N   UNL     1      45.824 124.281  22.983  1.00  0.00    -0.236 NA
ATOM     24  C   UNL     1      43.497 124.770  23.126  1.00  0.00     0.021 A 
ATOM     25  C   UNL     1      44.545 123.904  23.232  1.00  0.00     0.137 A 
ATOM     26  C   UNL     1      42.353 124.062  23.418  1.00  0.00     0.030 A 
ATOM     27  N   UNL     1      44.135 122.675  23.579  1.00  0.00    -0.346 N 
ATOM     28  C   UNL     1      42.788 122.768  23.696  1.00  0.00     0.085 A 
ATOM     29  H   UNL     1      44.724 121.825  23.723  1.00  0.00     0.167 HD
ENDBRANCH  19  20
ENDBRANCH  13  19
ENDBRANCH   3  11
TORSDOF 7
ENDMDL
MODEL 5
REMARK VINA RESULT:      -5.1      1.230      2.276
REMARK SMILES C=C[C@H](OCC)C(=O)Nc1cc(F)c[nH]/c1=N\c1cnc2[nH]ccc2c1
REMARK SMILES IDX 7 1 8 2 9 3 3 5 2 6 1 7 4 8 5 9 6 10 10 11 11 12 16 13 12 14
REMARK SMILES IDX 15 15 14 16 13 17 17 19 18 20 19 21 26 22 20 23 25 24 21 25
REMARK SMILES IDX 24 26 22 27 23 28
REMARK H PARENT 9 4 15 18 22 29
ROOT
ATOM      1  C   UNL     1      44.756 127.693  23.161  1.00  0.00     0.257 C 
ATOM      2  O   UNL     1      43.998 127.962  24.132  1.00  0.00    -0.271 OA
ATOM      3  N   UNL     1      45.065 128.700  22.183  1.00  0.00    -0.320 N 
ATOM      4  H   UNL     1      45.873 128.534  21.542  1.00  0.00     0.170 HD
ENDROOT
BRANCH   1   5
ATOM      5  C   UNL     1      45.393 126.327  23.090  1.00  0.00     0.229 C 
BRANCH   5   6
ATOM      6  C   UNL     1      46.840 126.460  22.693  1.00  0.00     0.007 C 
ATOM      7  C   UNL     1      47.568 125.422  22.269  1.00  0.00     0.007 C 
ENDBRANCH   5   6
BRANCH   5   8
ATOM      8  O   UNL     1      44.724 125.497  22.154  1.00  0.00    -0.365 OA
BRANCH   8   9
ATOM      9  C   UNL     1      43.670 124.793  22.778  1.00  0.00     0.158 C 
ATOM     10  C   UNL     1      43.794 123.313  22.447  1.00  0.00     0.035 C 
ENDBRANCH   8   9
ENDBRANCH   5   8
ENDBRANCH   1   5
BRANCH   3  11
ATOM     11  C   UNL     1      44.375 129.959  22.091  1.00  0.00     0.087 A 
ATOM     12  C   UNL     1      43.389 130.304  23.028  1.00  0.00     0.070 A 
ATOM     13  C   UNL     1      44.649 130.849  21.030  1.00  0.00     0.154 A 
ATOM     14  C   UNL     1      42.707 131.514  22.914  1.00  0.00     0.141 A 
ATOM     15  N   UNL     1      43.941 132.020  20.932  1.00  0.00    -0.342 N 
ATOM     16  C   UNL     1      42.998 132.364  21.850  1.00  0.00     0.123 A 
ATOM     17  F   UNL     1      41.752 131.848  23.815  1.00  0.00    -0.205 F 
ATOM     18  H   UNL     1      44.077 132.670  20.128  1.00  0.00     0.168 HD
BRANCH  13  19
ATOM     19  N   UNL     1      45.558 130.522  20.152  1.00  0.00    -0.227 NA
BRANCH  19  20
ATOM     20  C   UNL     1      45.428 130.508  18.723  1.00  0.00     0.085 A 
ATOM     21  C   UNL     1      46.387 129.812  17.949  1.00  0.00     0.142 A 
ATOM     22  C   UNL     1      44.433 131.271  18.071  1.00  0.00     0.042 A 
ATOM     23  N   UNL     1      46.327 129.829  16.582  1.00  0.00    -0.236 NA
ATOM     24  C   UNL     1      44.417 131.249  16.681  1.00  0.00     0.021 A 
ATOM     25  C   UNL     1      45.344 130.540  15.976  1.00  0.00     0.137 A 
ATOM     26  C   UNL     1      43.593 131.865  15.766  1.00  0.00     0.030 A 
ATOM     27  N   UNL     1      45.158 130.665  14.654  1.00  0.00    -0.346 N 
ATOM     28  C   UNL     1      44.082 131.478  14.520  1.00  0.00     0.085 A 
ATOM     29  H   UNL     1      45.723 130.236  13.889  1.00  0.00     0.167 HD
ENDBRANCH  19  20
ENDBRANCH  13  19
ENDBRANCH   3  11
TORSDOF 7
ENDMDL
MODEL 6
REMARK VINA RESULT:      -4.9      2.115      3.311
REMARK SMILES C=C[C@H](OCC)C(=O)Nc1cc(F)c[nH]/c1=N\c1cnc2[nH]ccc2c1
REMARK SMILES IDX 7 1 8 2 9 3 3 5 2 6 1 7 4 8 5 9 6 10 10 11 11 12 16 13 12 14
REMARK SMILES IDX 15 15 14 16 13 17 17 19 18 20 19 21 26 22 20 23 25 24 21 25
REMARK SMILES IDX 24 26 22 27 23 28
REMARK H PARENT 9 4 15 18 22 29
ROOT
ATOM      1  C   UNL     1      43.673 129.502  22.714  1.00  0.00     0.257 C 
ATOM      2  O   UNL     1      42.417 129.397  22.769  1.00  0.00    -0.271 OA
ATOM      3  N   UNL     1      44.278 130.586  21.989  1.00  0.00    -0.320 N 
ATOM      4  H   UNL     1      45.287 130.793  22.162  1.00  0.00     0.170 HD
ENDROOT
BRANCH   1   5
ATOM      5  C   UNL     1      44.521 128.523  23.487  1.00  0.00     0.229 C 
BRANCH   5   6
ATOM      6  C   UNL     1      44.903 127.368  22.598  1.00  0.00     0.007 C 
ATOM      7  C   UNL     1      46.107 127.268  22.026  1.00  0.00     0.007 C 
ENDBRANCH   5   6
BRANCH   5   8
ATOM      8  O   UNL     1      43.831 128.031  24.624  1.00  0.00    -0.365 OA
BRANCH   8   9
ATOM      9  C   UNL     1      42.718 127.254  24.233  1.00  0.00     0.158 C 
ATOM     10  C   UNL     1      43.004 125.789  24.530  1.00  0.00     0.035 C 
ENDBRANCH   8   9
ENDBRANCH   5   8
ENDBRANCH   1   5
BRANCH   3  11
ATOM     11  C   UNL     1      43.551 131.454  21.101  1.00  0.00     0.087 A 
ATOM     12  C   UNL     1      42.425 132.159  21.553  1.00  0.00     0.070 A 
ATOM     13  C   UNL     1      43.933 131.576  19.748  1.00  0.00     0.154 A 
ATOM     14  C   UNL     1      41.711 132.975  20.678  1.00  0.00     0.141 A 
ATOM     15  N   UNL     1      43.193 132.367  18.907  1.00  0.00    -0.342 N 
ATOM     16  C   UNL     1      42.112 133.064  19.348  1.00  0.00     0.123 A 
ATOM     17  F   UNL     1      40.621 133.654  21.111  1.00  0.00    -0.205 F 
ATOM     18  H   UNL     1      43.413 132.430  17.889  1.00  0.00     0.168 HD
BRANCH  13  19
ATOM     19  N   UNL     1      44.974 130.910  19.325  1.00  0.00    -0.227 NA
BRANCH  19  20
ATOM     20  C   UNL     1      45.372 130.683  17.965  1.00  0.00     0.085 A 
ATOM     21  C   UNL     1      46.051 129.486  17.634  1.00  0.00     0.142 A 
ATOM     22  C   UNL     1      45.208 131.681  16.977  1.00  0.00     0.042 A 
ATOM     23  N   UNL     1      46.498 129.265  16.361  1.00  0.00    -0.236 NA
ATOM     24  C   UNL     1      45.679 131.402  15.700  1.00  0.00     0.021 A 
ATOM     25  C   UNL     1      46.300 130.220  15.419  1.00  0.00     0.137 A 
ATOM     26  C   UNL     1      45.668 132.142  14.539  1.00  0.00     0.030 A 
ATOM     27  N   UNL     1      46.687 130.161  14.137  1.00  0.00    -0.346 N 
ATOM     28  C   UNL     1      46.301 131.339  13.591  1.00  0.00     0.085 A 
ATOM     29  H   UNL     1      47.187 129.378  13.660  1.00  0.00     0.167 HD
ENDBRANCH  19  20
ENDBRANCH  13  19
ENDBRANCH   3  11
TORSDOF 7
ENDMDL
MODEL 7
REMARK VINA RESULT:      -4.7      4.510      5.480
REMARK SMILES C=C[C@H](OCC)C(=O)Nc1cc(F)c[nH]/c1=N\c1cnc2[nH]ccc2c1
REMARK SMILES IDX 7 1 8 2 9 3 3 5 2 6 1 7 4 8 5 9 6 10 10 11 11 12 16 13 12 14
REMARK SMILES IDX 15 15 14 16 13 17 17 19 18 20 19 21 26 22 20 23 25 24 21 25
REMARK SMILES IDX 24 26 22 27 23 28
REMARK H PARENT 9 4 15 18 22 29
ROOT
ATOM      1  C   UNL     1      46.500 133.276  21.318  1.00  0.00     0.257 C 
ATOM      2  O   UNL     1      46.177 134.375  20.791  1.00  0.00    -0.271 OA
ATOM      3  N   UNL     1      45.754 132.083  21.021  1.00  0.00    -0.320 N 
ATOM      4  H   UNL     1      46.180 131.161  21.264  1.00  0.00     0.170 HD
ENDROOT
BRANCH   1   5
ATOM      5  C   UNL     1      47.725 133.220  22.197  1.00  0.00     0.229 C 
BRANCH   5   6
ATOM      6  C   UNL     1      47.430 133.873  23.523  1.00  0.00     0.007 C 
ATOM      7  C   UNL     1      46.274 133.696  24.170  1.00  0.00     0.007 C 
ENDBRANCH   5   6
BRANCH   5   8
ATOM      8  O   UNL     1      48.825 133.875  21.587  1.00  0.00    -0.365 OA
BRANCH   8   9
ATOM      9  C   UNL     1      49.080 135.113  22.217  1.00  0.00     0.158 C 
ATOM     10  C   UNL     1      49.267 136.185  21.154  1.00  0.00     0.035 C 
ENDBRANCH   8   9
ENDBRANCH   5   8
ENDBRANCH   1   5
BRANCH   3  11
ATOM     11  C   UNL     1      44.491 132.085  20.332  1.00  0.00     0.087 A 
ATOM     12  C   UNL     1      43.366 132.699  20.903  1.00  0.00     0.070 A 
ATOM     13  C   UNL     1      44.352 131.428  19.091  1.00  0.00     0.154 A 
ATOM     14  C   UNL     1      42.141 132.671  20.241  1.00  0.00     0.141 A 
ATOM     15  N   UNL     1      43.126 131.396  18.478  1.00  0.00    -0.342 N 
ATOM     16  C   UNL     1      42.039 132.007  19.021  1.00  0.00     0.123 A 
ATOM     17  F   UNL     1      41.052 133.262  20.792  1.00  0.00    -0.205 F 
ATOM     18  H   UNL     1      42.976 130.868  17.590  1.00  0.00     0.168 HD
BRANCH  13  19
ATOM     19  N   UNL     1      45.396 130.846  18.566  1.00  0.00    -0.227 NA
BRANCH  19  20
ATOM     20  C   UNL     1      45.901 130.995  17.230  1.00  0.00     0.085 A 
ATOM     21  C   UNL     1      45.648 132.196  16.526  1.00  0.00     0.142 A 
ATOM     22  C   UNL     1      46.538 129.923  16.565  1.00  0.00     0.042 A 
ATOM     23  N   UNL     1      46.061 132.347  15.231  1.00  0.00    -0.236 NA
ATOM     24  C   UNL     1      46.939 130.133  15.251  1.00  0.00     0.021 A 
ATOM     25  C   UNL     1      46.701 131.319  14.621  1.00  0.00     0.137 A 
ATOM     26  C   UNL     1      47.577 129.313  14.347  1.00  0.00     0.030 A 
ATOM     27  N   UNL     1      47.155 131.306  13.359  1.00  0.00    -0.346 N 
ATOM     28  C   UNL     1      47.695 130.075  13.186  1.00  0.00     0.085 A 
ATOM     29  H   UNL     1      47.099 132.075  12.656  1.00  0.00     0.167 HD
ENDBRANCH  19  20
ENDBRANCH  13  19
ENDBRANCH   3  11
TORSDOF 7
ENDMDL
MODEL 8
REMARK VINA RESULT:      -4.5      3.824      5.518
REMARK SMILES C=C[C@H](OCC)C(=O)Nc1cc(F)c[nH]/c1=N\c1cnc2[nH]ccc2c1
REMARK SMILES IDX 7 1 8 2 9 3 3 5 2 6 1 7 4 8 5 9 6 10 10 11 11 12 16 13 12 14
REMARK SMILES IDX 15 15 14 16 13 17 17 19 18 20 19 21 26 22 20 23 25 24 21 25
REMARK SMILES IDX 24 26 22 27 23 28
REMARK H PARENT 9 4 15 18 22 29
ROOT
ATOM      1  C   UNL     1      46.963 133.546  22.295  1.00  0.00     0.257 C 
ATOM      2  O   UNL     1      46.369 133.947  23.333  1.00  0.00    -0.271 OA
ATOM      3  N   UNL     1      46.346 132.570  21.438  1.00  0.00    -0.320 N 
ATOM      4  H   UNL     1      46.734 132.442  20.477  1.00  0.00     0.170 HD
ENDROOT
BRANCH   1   5
ATOM      5  C   UNL     1      48.289 134.165  21.929  1.00  0.00     0.229 C 
BRANCH   5   6
ATOM      6  C   UNL     1      49.337 133.753  22.929  1.00  0.00     0.007 C 
ATOM      7  C   UNL     1      49.443 134.320  24.135  1.00  0.00     0.007 C 
ENDBRANCH   5   6
BRANCH   5   8
ATOM      8  O   UNL     1      48.203 135.581  21.897  1.00  0.00    -0.365 OA
BRANCH   8   9
ATOM      9  C   UNL     1      49.432 136.144  21.485  1.00  0.00     0.158 C 
ATOM     10  C   UNL     1      49.211 136.941  20.208  1.00  0.00     0.035 C 
ENDBRANCH   8   9
ENDBRANCH   5   8
ENDBRANCH   1   5
BRANCH   3  11
ATOM     11  C   UNL     1      45.173 131.820  21.801  1.00  0.00     0.087 A 
ATOM     12  C   UNL     1      45.124 131.110  23.011  1.00  0.00     0.070 A 
ATOM     13  C   UNL     1      44.069 131.750  20.924  1.00  0.00     0.154 A 
ATOM     14  C   UNL     1      43.994 130.364  23.339  1.00  0.00     0.141 A 
ATOM     15  N   UNL     1      42.984 130.985  21.266  1.00  0.00    -0.342 N 
ATOM     16  C   UNL     1      42.927 130.311  22.446  1.00  0.00     0.123 A 
ATOM     17  F   UNL     1      43.945 129.676  24.506  1.00  0.00    -0.205 F 
ATOM     18  H   UNL     1      42.178 130.864  20.614  1.00  0.00     0.168 HD
BRANCH  13  19
ATOM     19  N   UNL     1      44.121 132.400  19.793  1.00  0.00    -0.227 NA
BRANCH  19  20
ATOM     20  C   UNL     1      44.349 131.860  18.483  1.00  0.00     0.085 A 
ATOM     21  C   UNL     1      43.326 131.953  17.509  1.00  0.00     0.142 A 
ATOM     22  C   UNL     1      45.523 131.132  18.186  1.00  0.00     0.042 A 
ATOM     23  N   UNL     1      43.487 131.394  16.272  1.00  0.00    -0.236 NA
ATOM     24  C   UNL     1      45.635 130.589  16.912  1.00  0.00     0.021 A 
ATOM     25  C   UNL     1      44.636 130.730  15.994  1.00  0.00     0.137 A 
ATOM     26  C   UNL     1      46.632 129.848  16.318  1.00  0.00     0.030 A 
ATOM     27  N   UNL     1      44.940 130.120  14.839  1.00  0.00    -0.346 N 
ATOM     28  C   UNL     1      46.166 129.577  15.032  1.00  0.00     0.085 A 
ATOM     29  H   UNL     1      44.355 130.067  13.976  1.00  0.00     0.167 HD
ENDBRANCH  19  20
ENDBRANCH  13  19
ENDBRANCH   3  11
TORSDOF 7
ENDMDL
MODEL 9
REMARK VINA RESULT:      -4.3      4.202      5.761
REMARK SMILES C=C[C@H](OCC)C(=O)Nc1cc(F)c[nH]/c1=N\c1cnc2[nH]ccc2c1
REMARK SMILES IDX 7 1 8 2 9 3 3 5 2 6 1 7 4 8 5 9 6 10 10 11 11 12 16 13 12 14
REMARK SMILES IDX 15 15 14 16 13 17 17 19 18 20 19 21 26 22 20 23 25 24 21 25
REMARK SMILES IDX 24 26 22 27 23 28
REMARK H PARENT 9 4 15 18 22 29
ROOT
ATOM      1  C   UNL     1      47.451 134.139  21.987  1.00  0.00     0.257 C 
ATOM      2  O   UNL     1      46.579 135.011  22.249  1.00  0.00    -0.271 OA
ATOM      3  N   UNL     1      47.063 132.777  21.743  1.00  0.00    -0.320 N 
ATOM      4  H   UNL     1      47.756 132.139  21.292  1.00  0.00     0.170 HD
ENDROOT
BRANCH   1   5
ATOM      5  C   UNL     1      48.892 134.566  21.855  1.00  0.00     0.229 C 
BRANCH   5   6
ATOM      6  C   UNL     1      49.558 134.536  23.206  1.00  0.00     0.007 C 
ATOM      7  C   UNL     1      49.654 133.420  23.936  1.00  0.00     0.007 C 
ENDBRANCH   5   6
BRANCH   5   8
ATOM      8  O   UNL     1      48.994 135.871  21.311  1.00  0.00    -0.365 OA
BRANCH   8   9
ATOM      9  C   UNL     1      50.199 136.487  21.717  1.00  0.00     0.158 C 
ATOM     10  C   UNL     1      50.140 137.969  21.378  1.00  0.00     0.035 C 
ENDBRANCH   8   9
ENDBRANCH   5   8
ENDBRANCH   1   5
BRANCH   3  11
ATOM     11  C   UNL     1      45.745 132.264  22.009  1.00  0.00     0.087 A 
ATOM     12  C   UNL     1      45.084 132.577  23.207  1.00  0.00     0.070 A 
ATOM     13  C   UNL     1      45.113 131.401  21.088  1.00  0.00     0.154 A 
ATOM     14  C   UNL     1      43.820 132.053  23.467  1.00  0.00     0.141 A 
ATOM     15  N   UNL     1      43.880 130.882  21.387  1.00  0.00    -0.342 N 
ATOM     16  C   UNL     1      43.231 131.199  22.539  1.00  0.00     0.123 A 
ATOM     17  F   UNL     1      43.181 132.352  24.625  1.00  0.00    -0.205 F 
ATOM     18  H   UNL     1      43.413 130.195  20.756  1.00  0.00     0.168 HD
BRANCH  13  19
ATOM     19  N   UNL     1      45.733 131.100  19.979  1.00  0.00    -0.227 NA
BRANCH  19  20
ATOM     20  C   UNL     1      45.249 131.258  18.637  1.00  0.00     0.085 A 
ATOM     21  C   UNL     1      43.924 131.709  18.429  1.00  0.00     0.142 A 
ATOM     22  C   UNL     1      46.027 130.858  17.527  1.00  0.00     0.042 A 
ATOM     23  N   UNL     1      43.412 131.811  17.165  1.00  0.00    -0.236 NA
ATOM     24  C   UNL     1      45.457 130.986  16.266  1.00  0.00     0.021 A 
ATOM     25  C   UNL     1      44.186 131.455  16.110  1.00  0.00     0.137 A 
ATOM     26  C   UNL     1      45.941 130.697  15.010  1.00  0.00     0.030 A 
ATOM     27  N   UNL     1      43.828 131.486  14.818  1.00  0.00    -0.346 N 
ATOM     28  C   UNL     1      44.903 131.022  14.138  1.00  0.00     0.085 A 
ATOM     29  H   UNL     1      42.913 131.793  14.420  1.00  0.00     0.167 HD
ENDBRANCH  19  20
ENDBRANCH  13  19
ENDBRANCH   3  11
TORSDOF 7
ENDMDL


