MODEL 1
REMARK VINA RESULT:     -10.1      0.000      0.000
REMARK SMILES [NH3+]/C=C(\O)c1ccc(-c2c[nH+]c3cc[nH+]n3c2)c2c[n-]nc12
REMARK SMILES IDX 3 1 4 2 2 4 1 5 5 9 6 10 22 11 7 12 21 13 18 14 8 15 20 16
REMARK SMILES IDX 19 17 9 18 17 19 10 20 16 21 11 22 12 23 15 24 13 25 14 26
REMARK H PARENT 4 3 1 6 1 7 1 8 11 27 15 28
ROOT
ATOM      1  C   UNL     1      43.425 131.080  22.242  1.00  0.00     0.178 C 
ENDROOT
BRANCH   1   2
ATOM      2  O   UNL     1      42.188 130.473  22.466  1.00  0.00    -0.503 OA
ATOM      3  H   UNL     1      41.615 130.713  23.266  1.00  0.00     0.293 HD
ENDBRANCH   1   2
BRANCH   1   4
ATOM      4  C   UNL     1      44.063 131.663  23.268  1.00  0.00     0.265 C 
BRANCH   4   5
ATOM      5  N   UNL     1      43.677 131.410  24.625  1.00  0.00    -0.328 N 
ATOM      6  H   UNL     1      42.679 131.097  24.655  1.00  0.00     0.350 HD
ATOM      7  H   UNL     1      43.775 132.290  25.179  1.00  0.00     0.350 HD
ATOM      8  H   UNL     1      44.299 130.676  25.035  1.00  0.00     0.350 HD
ENDBRANCH   4   5
ENDBRANCH   1   4
BRANCH   1   9
ATOM      9  C   UNL     1      44.000 131.089  20.875  1.00  0.00     0.046 A 
ATOM     10  C   UNL     1      45.325 130.652  20.656  1.00  0.00     0.015 A 
ATOM     11  C   UNL     1      43.284 131.535  19.754  1.00  0.00     0.059 A 
ATOM     12  C   UNL     1      45.885 130.655  19.360  1.00  0.00     0.010 A 
ATOM     13  N   UNL     1      42.025 132.006  19.710  1.00  0.00    -0.367 NA
ATOM     14  C   UNL     1      43.832 131.547  18.501  1.00  0.00    -0.014 A 
ATOM     15  C   UNL     1      45.141 131.114  18.250  1.00  0.00    -0.003 A 
ATOM     16  N   UNL     1      41.753 132.301  18.443  1.00  0.00    -0.581 NA
ATOM     17  C   UNL     1      42.835 132.025  17.680  1.00  0.00    -0.113 A 
BRANCH  15  18
ATOM     18  C   UNL     1      45.739 131.134  16.897  1.00  0.00     0.067 A 
ATOM     19  C   UNL     1      46.437 130.014  16.403  1.00  0.00     0.290 A 
ATOM     20  C   UNL     1      45.656 132.285  16.075  1.00  0.00     0.210 A 
ATOM     21  N   UNL     1      46.973 130.095  15.162  1.00  0.00     0.008 N 
ATOM     22  N   UNL     1      46.221 132.296  14.831  1.00  0.00    -0.242 N 
ATOM     23  C   UNL     1      46.871 131.188  14.400  1.00  0.00     0.346 A 
ATOM     24  N   UNL     1      47.653 129.168  14.513  1.00  0.00    -0.055 N 
ATOM     25  C   UNL     1      47.511 130.982  13.196  1.00  0.00     0.180 A 
ATOM     26  C   UNL     1      47.996 129.679  13.307  1.00  0.00     0.364 A 
ATOM     27  H   UNL     1      46.158 133.148  14.229  1.00  0.00     0.312 HD
ATOM     28  H   UNL     1      47.879 128.217  14.877  1.00  0.00     0.514 HD
ENDBRANCH  15  18
ENDBRANCH   1   9
TORSDOF 5
ENDMDL
MODEL 2
REMARK VINA RESULT:      -9.9      1.016      1.052
REMARK SMILES [NH3+]/C=C(\O)c1ccc(-c2c[nH+]c3cc[nH+]n3c2)c2c[n-]nc12
REMARK SMILES IDX 3 1 4 2 2 4 1 5 5 9 6 10 22 11 7 12 21 13 18 14 8 15 20 16
REMARK SMILES IDX 19 17 9 18 17 19 10 20 16 21 11 22 12 23 15 24 13 25 14 26
REMARK H PARENT 4 3 1 6 1 7 1 8 11 27 15 28
ROOT
ATOM      1  C   UNL     1      43.997 131.195  22.850  1.00  0.00     0.178 C 
ENDROOT
BRANCH   1   2
ATOM      2  O   UNL     1      44.844 131.774  23.797  1.00  0.00    -0.503 OA
ATOM      3  H   UNL     1      45.557 131.234  24.273  1.00  0.00     0.293 HD
ENDBRANCH   1   2
BRANCH   1   4
ATOM      4  C   UNL     1      42.840 130.650  23.254  1.00  0.00     0.265 C 
BRANCH   4   5
ATOM      5  N   UNL     1      41.720 131.466  23.619  1.00  0.00    -0.328 N 
ATOM      6  H   UNL     1      41.997 132.122  24.385  1.00  0.00     0.350 HD
ATOM      7  H   UNL     1      40.945 130.853  23.959  1.00  0.00     0.350 HD
ATOM      8  H   UNL     1      41.390 132.003  22.784  1.00  0.00     0.350 HD
ENDBRANCH   4   5
ENDBRANCH   1   4
BRANCH   1   9
ATOM      9  C   UNL     1      44.400 131.174  21.423  1.00  0.00     0.046 A 
ATOM     10  C   UNL     1      45.667 130.677  21.047  1.00  0.00     0.015 A 
ATOM     11  C   UNL     1      43.572 131.648  20.395  1.00  0.00     0.059 A 
ATOM     12  C   UNL     1      46.063 130.650  19.693  1.00  0.00     0.010 A 
ATOM     13  N   UNL     1      42.338 132.175  20.501  1.00  0.00    -0.367 NA
ATOM     14  C   UNL     1      43.962 131.632  19.083  1.00  0.00    -0.014 A 
ATOM     15  C   UNL     1      45.210 131.139  18.678  1.00  0.00    -0.003 A 
ATOM     16  N   UNL     1      41.926 132.477  19.274  1.00  0.00    -0.581 NA
ATOM     17  C   UNL     1      42.893 132.151  18.387  1.00  0.00    -0.113 A 
BRANCH  15  18
ATOM     18  C   UNL     1      45.637 131.127  17.261  1.00  0.00     0.067 A 
ATOM     19  C   UNL     1      46.407 130.063  16.753  1.00  0.00     0.290 A 
ATOM     20  C   UNL     1      45.314 132.196  16.389  1.00  0.00     0.210 A 
ATOM     21  N   UNL     1      46.779 130.114  15.451  1.00  0.00     0.008 N 
ATOM     22  N   UNL     1      45.723 132.180  15.085  1.00  0.00    -0.242 N 
ATOM     23  C   UNL     1      46.452 131.127  14.644  1.00  0.00     0.346 A 
ATOM     24  N   UNL     1      47.489 129.227  14.778  1.00  0.00    -0.055 N 
ATOM     25  C   UNL     1      46.967 130.908  13.383  1.00  0.00     0.180 A 
ATOM     26  C   UNL     1      47.622 129.683  13.511  1.00  0.00     0.364 A 
ATOM     27  H   UNL     1      45.483 132.971  14.446  1.00  0.00     0.312 HD
ATOM     28  H   UNL     1      47.875 128.339  15.168  1.00  0.00     0.514 HD
ENDBRANCH  15  18
ENDBRANCH   1   9
TORSDOF 5
ENDMDL
MODEL 3
REMARK VINA RESULT:      -8.7      0.849      1.449
REMARK SMILES [NH3+]/C=C(\O)c1ccc(-c2c[nH+]c3cc[nH+]n3c2)c2c[n-]nc12
REMARK SMILES IDX 3 1 4 2 2 4 1 5 5 9 6 10 22 11 7 12 21 13 18 14 8 15 20 16
REMARK SMILES IDX 19 17 9 18 17 19 10 20 16 21 11 22 12 23 15 24 13 25 14 26
REMARK H PARENT 4 3 1 6 1 7 1 8 11 27 15 28
ROOT
ATOM      1  C   UNL     1      43.151 131.772  22.114  1.00  0.00     0.178 C 
ENDROOT
BRANCH   1   2
ATOM      2  O   UNL     1      41.957 132.493  22.162  1.00  0.00    -0.503 OA
ATOM      3  H   UNL     1      41.356 132.581  21.351  1.00  0.00     0.293 HD
ENDBRANCH   1   2
BRANCH   1   4
ATOM      4  C   UNL     1      43.727 131.384  23.261  1.00  0.00     0.265 C 
BRANCH   4   5
ATOM      5  N   UNL     1      42.943 131.060  24.416  1.00  0.00    -0.328 N 
ATOM      6  H   UNL     1      41.937 131.276  24.230  1.00  0.00     0.350 HD
ATOM      7  H   UNL     1      43.271 131.632  25.226  1.00  0.00     0.350 HD
ATOM      8  H   UNL     1      43.058 130.045  24.645  1.00  0.00     0.350 HD
ENDBRANCH   4   5
ENDBRANCH   1   4
BRANCH   1   9
ATOM      9  C   UNL     1      43.772 131.468  20.802  1.00  0.00     0.046 A 
ATOM     10  C   UNL     1      45.049 130.869  20.739  1.00  0.00     0.015 A 
ATOM     11  C   UNL     1      43.147 131.765  19.581  1.00  0.00     0.059 A 
ATOM     12  C   UNL     1      45.651 130.573  19.496  1.00  0.00     0.010 A 
ATOM     13  N   UNL     1      41.948 132.341  19.383  1.00  0.00    -0.367 NA
ATOM     14  C   UNL     1      43.737 131.488  18.378  1.00  0.00    -0.014 A 
ATOM     15  C   UNL     1      45.000 130.888  18.283  1.00  0.00    -0.003 A 
ATOM     16  N   UNL     1      41.754 132.419  18.071  1.00  0.00    -0.581 NA
ATOM     17  C   UNL     1      42.826 131.900  17.431  1.00  0.00    -0.113 A 
BRANCH  15  18
ATOM     18  C   UNL     1      45.644 130.595  16.983  1.00  0.00     0.067 A 
ATOM     19  C   UNL     1      46.126 131.639  16.169  1.00  0.00     0.290 A 
ATOM     20  C   UNL     1      45.764 129.266  16.507  1.00  0.00     0.210 A 
ATOM     21  N   UNL     1      46.695 131.310  14.984  1.00  0.00     0.008 N 
ATOM     22  N   UNL     1      46.350 129.007  15.299  1.00  0.00    -0.242 N 
ATOM     23  C   UNL     1      46.808 130.048  14.561  1.00  0.00     0.346 A 
ATOM     24  N   UNL     1      47.212 132.124  14.082  1.00  0.00    -0.055 N 
ATOM     25  C   UNL     1      47.423 130.019  13.327  1.00  0.00     0.180 A 
ATOM     26  C   UNL     1      47.666 131.366  13.057  1.00  0.00     0.364 A 
ATOM     27  H   UNL     1      46.436 128.026  14.952  1.00  0.00     0.312 HD
ATOM     28  H   UNL     1      47.255 133.164  14.159  1.00  0.00     0.514 HD
ENDBRANCH  15  18
ENDBRANCH   1   9
TORSDOF 5
ENDMDL
MODEL 4
REMARK VINA RESULT:      -8.4      1.084      1.672
REMARK SMILES [NH3+]/C=C(\O)c1ccc(-c2c[nH+]c3cc[nH+]n3c2)c2c[n-]nc12
REMARK SMILES IDX 3 1 4 2 2 4 1 5 5 9 6 10 22 11 7 12 21 13 18 14 8 15 20 16
REMARK SMILES IDX 19 17 9 18 17 19 10 20 16 21 11 22 12 23 15 24 13 25 14 26
REMARK H PARENT 4 3 1 6 1 7 1 8 11 27 15 28
ROOT
ATOM      1  C   UNL     1      43.396 131.621  23.038  1.00  0.00     0.178 C 
ENDROOT
BRANCH   1   2
ATOM      2  O   UNL     1      42.023 131.786  23.232  1.00  0.00    -0.503 OA
ATOM      3  H   UNL     1      41.408 132.057  22.475  1.00  0.00     0.293 HD
ENDBRANCH   1   2
BRANCH   1   4
ATOM      4  C   UNL     1      44.221 131.719  24.090  1.00  0.00     0.265 C 
BRANCH   4   5
ATOM      5  N   UNL     1      45.309 132.652  24.099  1.00  0.00    -0.328 N 
ATOM      6  H   UNL     1      45.089 133.456  23.467  1.00  0.00     0.350 HD
ATOM      7  H   UNL     1      46.173 132.175  23.757  1.00  0.00     0.350 HD
ATOM      8  H   UNL     1      45.470 132.993  25.075  1.00  0.00     0.350 HD
ENDBRANCH   4   5
ENDBRANCH   1   4
BRANCH   1   9
ATOM      9  C   UNL     1      43.917 131.365  21.674  1.00  0.00     0.046 A 
ATOM     10  C   UNL     1      45.145 130.691  21.495  1.00  0.00     0.015 A 
ATOM     11  C   UNL     1      43.244 131.778  20.515  1.00  0.00     0.059 A 
ATOM     12  C   UNL     1      45.653 130.440  20.202  1.00  0.00     0.010 A 
ATOM     13  N   UNL     1      42.076 132.441  20.427  1.00  0.00    -0.367 NA
ATOM     14  C   UNL     1      43.743 131.543  19.263  1.00  0.00    -0.014 A 
ATOM     15  C   UNL     1      44.955 130.872  19.053  1.00  0.00    -0.003 A 
ATOM     16  N   UNL     1      41.811 132.615  19.136  1.00  0.00    -0.581 NA
ATOM     17  C   UNL     1      42.808 132.072  18.401  1.00  0.00    -0.113 A 
BRANCH  15  18
ATOM     18  C   UNL     1      45.501 130.624  17.699  1.00  0.00     0.067 A 
ATOM     19  C   UNL     1      45.776 131.696  16.828  1.00  0.00     0.290 A 
ATOM     20  C   UNL     1      45.733 129.306  17.232  1.00  0.00     0.210 A 
ATOM     21  N   UNL     1      46.263 131.407  15.598  1.00  0.00     0.008 N 
ATOM     22  N   UNL     1      46.226 129.088  15.977  1.00  0.00    -0.242 N 
ATOM     23  C   UNL     1      46.484 130.156  15.183  1.00  0.00     0.346 A 
ATOM     24  N   UNL     1      46.591 132.252  14.638  1.00  0.00    -0.055 N 
ATOM     25  C   UNL     1      46.976 130.169  13.895  1.00  0.00     0.180 A 
ATOM     26  C   UNL     1      47.030 131.527  13.584  1.00  0.00     0.364 A 
ATOM     27  H   UNL     1      46.394 128.115  15.636  1.00  0.00     0.312 HD
ATOM     28  H   UNL     1      46.517 133.292  14.697  1.00  0.00     0.514 HD
ENDBRANCH  15  18
ENDBRANCH   1   9
TORSDOF 5
ENDMDL
MODEL 5
REMARK VINA RESULT:      -8.1      1.225      1.739
REMARK SMILES [NH3+]/C=C(\O)c1ccc(-c2c[nH+]c3cc[nH+]n3c2)c2c[n-]nc12
REMARK SMILES IDX 3 1 4 2 2 4 1 5 5 9 6 10 22 11 7 12 21 13 18 14 8 15 20 16
REMARK SMILES IDX 19 17 9 18 17 19 10 20 16 21 11 22 12 23 15 24 13 25 14 26
REMARK H PARENT 4 3 1 6 1 7 1 8 11 27 15 28
ROOT
ATOM      1  C   UNL     1      43.755 131.589  22.827  1.00  0.00     0.178 C 
ENDROOT
BRANCH   1   2
ATOM      2  O   UNL     1      44.636 132.150  23.753  1.00  0.00    -0.503 OA
ATOM      3  H   UNL     1      45.581 132.411  23.498  1.00  0.00     0.293 HD
ENDBRANCH   1   2
BRANCH   1   4
ATOM      4  C   UNL     1      42.508 131.285  23.213  1.00  0.00     0.265 C 
BRANCH   4   5
ATOM      5  N   UNL     1      41.538 132.309  23.471  1.00  0.00    -0.328 N 
ATOM      6  H   UNL     1      41.560 132.566  24.485  1.00  0.00     0.350 HD
ATOM      7  H   UNL     1      40.587 131.949  23.231  1.00  0.00     0.350 HD
ATOM      8  H   UNL     1      41.747 133.146  22.880  1.00  0.00     0.350 HD
ENDBRANCH   4   5
ENDBRANCH   1   4
BRANCH   1   9
ATOM      9  C   UNL     1      44.219 131.319  21.445  1.00  0.00     0.046 A 
ATOM     10  C   UNL     1      45.455 130.673  21.221  1.00  0.00     0.015 A 
ATOM     11  C   UNL     1      43.483 131.693  20.311  1.00  0.00     0.059 A 
ATOM     12  C   UNL     1      45.909 130.409  19.911  1.00  0.00     0.010 A 
ATOM     13  N   UNL     1      42.296 132.325  20.266  1.00  0.00    -0.367 NA
ATOM     14  C   UNL     1      43.930 131.446  19.042  1.00  0.00    -0.014 A 
ATOM     15  C   UNL     1      45.148 130.802  18.787  1.00  0.00    -0.003 A 
ATOM     16  N   UNL     1      41.968 132.467  18.986  1.00  0.00    -0.581 NA
ATOM     17  C   UNL     1      42.942 131.935  18.215  1.00  0.00    -0.113 A 
BRANCH  15  18
ATOM     18  C   UNL     1      45.637 130.541  17.415  1.00  0.00     0.067 A 
ATOM     19  C   UNL     1      46.022 131.605  16.576  1.00  0.00     0.290 A 
ATOM     20  C   UNL     1      45.701 129.224  16.897  1.00  0.00     0.210 A 
ATOM     21  N   UNL     1      46.450 131.306  15.326  1.00  0.00     0.008 N 
ATOM     22  N   UNL     1      46.144 128.995  15.624  1.00  0.00    -0.242 N 
ATOM     23  C   UNL     1      46.513 130.054  14.863  1.00  0.00     0.346 A 
ATOM     24  N   UNL     1      46.860 132.141  14.390  1.00  0.00    -0.055 N 
ATOM     25  C   UNL     1      46.981 130.056  13.566  1.00  0.00     0.180 A 
ATOM     26  C   UNL     1      47.192 131.409  13.301  1.00  0.00     0.364 A 
ATOM     27  H   UNL     1      46.188 128.022  15.247  1.00  0.00     0.312 HD
ATOM     28  H   UNL     1      46.911 133.180  14.486  1.00  0.00     0.514 HD
ENDBRANCH  15  18
ENDBRANCH   1   9
TORSDOF 5
ENDMDL
MODEL 6
REMARK VINA RESULT:      -8.1      1.821      2.844
REMARK SMILES [NH3+]/C=C(\O)c1ccc(-c2c[nH+]c3cc[nH+]n3c2)c2c[n-]nc12
REMARK SMILES IDX 3 1 4 2 2 4 1 5 5 9 6 10 22 11 7 12 21 13 18 14 8 15 20 16
REMARK SMILES IDX 19 17 9 18 17 19 10 20 16 21 11 22 12 23 15 24 13 25 14 26
REMARK H PARENT 4 3 1 6 1 7 1 8 11 27 15 28
ROOT
ATOM      1  C   UNL     1      42.049 132.500  20.917  1.00  0.00     0.178 C 
ENDROOT
BRANCH   1   2
ATOM      2  O   UNL     1      42.159 131.876  22.160  1.00  0.00    -0.503 OA
ATOM      3  H   UNL     1      42.560 132.350  22.960  1.00  0.00     0.293 HD
ENDBRANCH   1   2
BRANCH   1   4
ATOM      4  C   UNL     1      41.139 133.470  20.750  1.00  0.00     0.265 C 
BRANCH   4   5
ATOM      5  N   UNL     1      40.173 133.767  21.766  1.00  0.00    -0.328 N 
ATOM      6  H   UNL     1      40.659 134.119  22.622  1.00  0.00     0.350 HD
ATOM      7  H   UNL     1      39.648 132.896  22.006  1.00  0.00     0.350 HD
ATOM      8  H   UNL     1      39.500 134.486  21.411  1.00  0.00     0.350 HD
ENDBRANCH   4   5
ENDBRANCH   1   4
BRANCH   1   9
ATOM      9  C   UNL     1      42.923 132.067  19.800  1.00  0.00     0.046 A 
ATOM     10  C   UNL     1      42.448 132.097  18.470  1.00  0.00     0.015 A 
ATOM     11  C   UNL     1      44.232 131.602  19.997  1.00  0.00     0.059 A 
ATOM     12  C   UNL     1      43.270 131.688  17.397  1.00  0.00     0.010 A 
ATOM     13  N   UNL     1      44.897 131.470  21.159  1.00  0.00    -0.367 NA
ATOM     14  C   UNL     1      45.022 131.196  18.957  1.00  0.00    -0.014 A 
ATOM     15  C   UNL     1      44.582 131.219  17.627  1.00  0.00    -0.003 A 
ATOM     16  N   UNL     1      46.109 131.004  20.875  1.00  0.00    -0.581 NA
ATOM     17  C   UNL     1      46.218 130.833  19.538  1.00  0.00    -0.113 A 
BRANCH  15  18
ATOM     18  C   UNL     1      45.433 130.773  16.501  1.00  0.00     0.067 A 
ATOM     19  C   UNL     1      46.005 131.709  15.618  1.00  0.00     0.290 A 
ATOM     20  C   UNL     1      45.669 129.396  16.261  1.00  0.00     0.210 A 
ATOM     21  N   UNL     1      46.764 131.241  14.599  1.00  0.00     0.008 N 
ATOM     22  N   UNL     1      46.447 128.995  15.211  1.00  0.00    -0.242 N 
ATOM     23  C   UNL     1      46.983 129.938  14.399  1.00  0.00     0.346 A 
ATOM     24  N   UNL     1      47.392 131.939  13.671  1.00  0.00    -0.055 N 
ATOM     25  C   UNL     1      47.786 129.761  13.292  1.00  0.00     0.180 A 
ATOM     26  C   UNL     1      48.026 131.064  12.856  1.00  0.00     0.364 A 
ATOM     27  H   UNL     1      46.617 127.979  15.038  1.00  0.00     0.312 HD
ATOM     28  H   UNL     1      47.389 132.980  13.591  1.00  0.00     0.514 HD
ENDBRANCH  15  18
ENDBRANCH   1   9
TORSDOF 5
ENDMDL
MODEL 7
REMARK VINA RESULT:      -8.0      1.749      2.616
REMARK SMILES [NH3+]/C=C(\O)c1ccc(-c2c[nH+]c3cc[nH+]n3c2)c2c[n-]nc12
REMARK SMILES IDX 3 1 4 2 2 4 1 5 5 9 6 10 22 11 7 12 21 13 18 14 8 15 20 16
REMARK SMILES IDX 19 17 9 18 17 19 10 20 16 21 11 22 12 23 15 24 13 25 14 26
REMARK H PARENT 4 3 1 6 1 7 1 8 11 27 15 28
ROOT
ATOM      1  C   UNL     1      42.117 132.492  21.349  1.00  0.00     0.178 C 
ENDROOT
BRANCH   1   2
ATOM      2  O   UNL     1      40.905 133.149  21.131  1.00  0.00    -0.503 OA
ATOM      3  H   UNL     1      40.021 132.743  21.414  1.00  0.00     0.293 HD
ENDBRANCH   1   2
BRANCH   1   4
ATOM      4  C   UNL     1      42.526 132.278  22.608  1.00  0.00     0.265 C 
BRANCH   4   5
ATOM      5  N   UNL     1      41.775 131.452  23.506  1.00  0.00    -0.328 N 
ATOM      6  H   UNL     1      41.081 130.885  22.966  1.00  0.00     0.350 HD
ATOM      7  H   UNL     1      41.264 132.059  24.185  1.00  0.00     0.350 HD
ATOM      8  H   UNL     1      42.425 130.823  24.031  1.00  0.00     0.350 HD
ENDBRANCH   4   5
ENDBRANCH   1   4
BRANCH   1   9
ATOM      9  C   UNL     1      42.937 132.063  20.191  1.00  0.00     0.046 A 
ATOM     10  C   UNL     1      42.420 132.151  18.880  1.00  0.00     0.015 A 
ATOM     11  C   UNL     1      44.233 131.545  20.330  1.00  0.00     0.059 A 
ATOM     12  C   UNL     1      43.190 131.747  17.768  1.00  0.00     0.010 A 
ATOM     13  N   UNL     1      44.932 131.354  21.464  1.00  0.00    -0.367 NA
ATOM     14  C   UNL     1      44.974 131.144  19.252  1.00  0.00    -0.014 A 
ATOM     15  C   UNL     1      44.491 131.225  17.938  1.00  0.00    -0.003 A 
ATOM     16  N   UNL     1      46.116 130.854  21.125  1.00  0.00    -0.581 NA
ATOM     17  C   UNL     1      46.173 130.721  19.780  1.00  0.00    -0.113 A 
BRANCH  15  18
ATOM     18  C   UNL     1      45.287 130.784  16.771  1.00  0.00     0.067 A 
ATOM     19  C   UNL     1      45.854 131.726  15.891  1.00  0.00     0.290 A 
ATOM     20  C   UNL     1      45.475 129.408  16.489  1.00  0.00     0.210 A 
ATOM     21  N   UNL     1      46.562 131.263  14.833  1.00  0.00     0.008 N 
ATOM     22  N   UNL     1      46.202 129.012  15.402  1.00  0.00    -0.242 N 
ATOM     23  C   UNL     1      46.735 129.960  14.594  1.00  0.00     0.346 A 
ATOM     24  N   UNL     1      47.176 131.967  13.900  1.00  0.00    -0.055 N 
ATOM     25  C   UNL     1      47.492 129.789  13.454  1.00  0.00     0.180 A 
ATOM     26  C   UNL     1      47.754 131.095  13.041  1.00  0.00     0.364 A 
ATOM     27  H   UNL     1      46.337 127.996  15.197  1.00  0.00     0.312 HD
ATOM     28  H   UNL     1      47.200 133.009  13.846  1.00  0.00     0.514 HD
ENDBRANCH  15  18
ENDBRANCH   1   9
TORSDOF 5
ENDMDL
MODEL 8
REMARK VINA RESULT:      -8.0      1.619      2.237
REMARK SMILES [NH3+]/C=C(\O)c1ccc(-c2c[nH+]c3cc[nH+]n3c2)c2c[n-]nc12
REMARK SMILES IDX 3 1 4 2 2 4 1 5 5 9 6 10 22 11 7 12 21 13 18 14 8 15 20 16
REMARK SMILES IDX 19 17 9 18 17 19 10 20 16 21 11 22 12 23 15 24 13 25 14 26
REMARK H PARENT 4 3 1 6 1 7 1 8 11 27 15 28
ROOT
ATOM      1  C   UNL     1      42.173 132.149  21.515  1.00  0.00     0.178 C 
ENDROOT
BRANCH   1   2
ATOM      2  O   UNL     1      41.138 133.085  21.544  1.00  0.00    -0.503 OA
ATOM      3  H   UNL     1      40.365 133.003  22.193  1.00  0.00     0.293 HD
ENDBRANCH   1   2
BRANCH   1   4
ATOM      4  C   UNL     1      42.487 131.486  22.637  1.00  0.00     0.265 C 
BRANCH   4   5
ATOM      5  N   UNL     1      43.204 132.122  23.702  1.00  0.00    -0.328 N 
ATOM      6  H   UNL     1      43.741 131.406  24.243  1.00  0.00     0.350 HD
ATOM      7  H   UNL     1      42.525 132.593  24.341  1.00  0.00     0.350 HD
ATOM      8  H   UNL     1      43.856 132.839  23.306  1.00  0.00     0.350 HD
ENDBRANCH   4   5
ENDBRANCH   1   4
BRANCH   1   9
ATOM      9  C   UNL     1      42.919 131.921  20.254  1.00  0.00     0.046 A 
ATOM     10  C   UNL     1      42.278 132.082  19.006  1.00  0.00     0.015 A 
ATOM     11  C   UNL     1      44.266 131.528  20.230  1.00  0.00     0.059 A 
ATOM     12  C   UNL     1      42.976 131.869  17.798  1.00  0.00     0.010 A 
ATOM     13  N   UNL     1      45.080 131.300  21.276  1.00  0.00    -0.367 NA
ATOM     14  C   UNL     1      44.938 131.311  19.058  1.00  0.00    -0.014 A 
ATOM     15  C   UNL     1      44.331 131.469  17.805  1.00  0.00    -0.003 A 
ATOM     16  N   UNL     1      46.270 130.959  20.790  1.00  0.00    -0.581 NA
ATOM     17  C   UNL     1      46.215 130.963  19.439  1.00  0.00    -0.113 A 
BRANCH  15  18
ATOM     18  C   UNL     1      45.053 131.227  16.536  1.00  0.00     0.067 A 
ATOM     19  C   UNL     1      46.158 130.353  16.494  1.00  0.00     0.290 A 
ATOM     20  C   UNL     1      44.678 131.888  15.340  1.00  0.00     0.210 A 
ATOM     21  N   UNL     1      46.787 130.181  15.307  1.00  0.00     0.008 N 
ATOM     22  N   UNL     1      45.359 131.666  14.177  1.00  0.00    -0.242 N 
ATOM     23  C   UNL     1      46.407 130.806  14.190  1.00  0.00     0.346 A 
ATOM     24  N   UNL     1      47.827 129.410  15.048  1.00  0.00    -0.055 N 
ATOM     25  C   UNL     1      47.229 130.440  13.144  1.00  0.00     0.180 A 
ATOM     26  C   UNL     1      48.122 129.546  13.734  1.00  0.00     0.364 A 
ATOM     27  H   UNL     1      45.079 132.156  13.298  1.00  0.00     0.312 HD
ATOM     28  H   UNL     1      48.324 128.810  15.743  1.00  0.00     0.514 HD
ENDBRANCH  15  18
ENDBRANCH   1   9
TORSDOF 5
ENDMDL
MODEL 9
REMARK VINA RESULT:      -7.3      1.245      1.946
REMARK SMILES [NH3+]/C=C(\O)c1ccc(-c2c[nH+]c3cc[nH+]n3c2)c2c[n-]nc12
REMARK SMILES IDX 3 1 4 2 2 4 1 5 5 9 6 10 22 11 7 12 21 13 18 14 8 15 20 16
REMARK SMILES IDX 19 17 9 18 17 19 10 20 16 21 11 22 12 23 15 24 13 25 14 26
REMARK H PARENT 4 3 1 6 1 7 1 8 11 27 15 28
ROOT
ATOM      1  C   UNL     1      43.252 131.327  23.383  1.00  0.00     0.178 C 
ENDROOT
BRANCH   1   2
ATOM      2  O   UNL     1      42.465 132.438  23.687  1.00  0.00    -0.503 OA
ATOM      3  H   UNL     1      42.142 132.620  24.630  1.00  0.00     0.293 HD
ENDBRANCH   1   2
BRANCH   1   4
ATOM      4  C   UNL     1      43.508 130.425  24.342  1.00  0.00     0.265 C 
BRANCH   4   5
ATOM      5  N   UNL     1      42.702 129.250  24.494  1.00  0.00    -0.328 N 
ATOM      6  H   UNL     1      42.950 128.766  25.387  1.00  0.00     0.350 HD
ATOM      7  H   UNL     1      42.884 128.603  23.694  1.00  0.00     0.350 HD
ATOM      8  H   UNL     1      41.691 129.516  24.495  1.00  0.00     0.350 HD
ENDBRANCH   4   5
ENDBRANCH   1   4
BRANCH   1   9
ATOM      9  C   UNL     1      43.807 131.174  22.017  1.00  0.00     0.046 A 
ATOM     10  C   UNL     1      44.993 130.435  21.807  1.00  0.00     0.015 A 
ATOM     11  C   UNL     1      43.210 131.750  20.886  1.00  0.00     0.059 A 
ATOM     12  C   UNL     1      45.532 130.281  20.512  1.00  0.00     0.010 A 
ATOM     13  N   UNL     1      42.094 132.500  20.831  1.00  0.00    -0.367 NA
ATOM     14  C   UNL     1      43.740 131.609  19.633  1.00  0.00    -0.014 A 
ATOM     15  C   UNL     1      44.911 130.878  19.392  1.00  0.00    -0.003 A 
ATOM     16  N   UNL     1      41.892 132.824  19.558  1.00  0.00    -0.581 NA
ATOM     17  C   UNL     1      42.877 132.289  18.802  1.00  0.00    -0.113 A 
BRANCH  15  18
ATOM     18  C   UNL     1      45.491 130.730  18.039  1.00  0.00     0.067 A 
ATOM     19  C   UNL     1      45.289 131.722  17.059  1.00  0.00     0.290 A 
ATOM     20  C   UNL     1      46.235 129.578  17.681  1.00  0.00     0.210 A 
ATOM     21  N   UNL     1      45.835 131.526  15.835  1.00  0.00     0.008 N 
ATOM     22  N   UNL     1      46.757 129.447  16.425  1.00  0.00    -0.242 N 
ATOM     23  C   UNL     1      46.543 130.437  15.524  1.00  0.00     0.346 A 
ATOM     24  N   UNL     1      45.773 132.324  14.785  1.00  0.00    -0.055 N 
ATOM     25  C   UNL     1      46.968 130.511  14.214  1.00  0.00     0.180 A 
ATOM     26  C   UNL     1      46.456 131.733  13.778  1.00  0.00     0.364 A 
ATOM     27  H   UNL     1      47.304 128.596  16.166  1.00  0.00     0.312 HD
ATOM     28  H   UNL     1      45.280 133.244  14.752  1.00  0.00     0.514 HD
ENDBRANCH  15  18
ENDBRANCH   1   9
TORSDOF 5
ENDMDL


