REMARK SMILES Cc1cc([NH2+]N)c(O)c(O)c1F
REMARK SMILES IDX 1 1 2 2 3 3 4 4 7 5 9 6 11 7 12 8 5 9 6 12 10 15 8 17
REMARK H PARENT 5 10 5 11 6 13 6 14 10 16 8 18
ROOT
ATOM      1  C   UNL     1       0.069   0.297   4.336  1.00  0.00     0.048 C 
ATOM      2  C   UNL     1       0.239   0.650   2.885  1.00  0.00    -0.005 A 
ATOM      3  C   UNL     1       1.383   0.243   2.189  1.00  0.00     0.080 A 
ATOM      4  C   UNL     1       1.561   0.583   0.838  1.00  0.00     0.195 A 
ATOM      5  C   UNL     1       0.593   1.374   0.184  1.00  0.00     0.224 A 
ATOM      6  C   UNL     1      -0.560   1.795   0.890  1.00  0.00     0.200 A 
ATOM      7  C   UNL     1      -0.723   1.433   2.233  1.00  0.00     0.172 A 
ATOM      8  F   UNL     1      -1.827   1.851   2.905  1.00  0.00    -0.202 F 
ENDROOT
BRANCH   4   9
ATOM      9  N   UNL     1       2.763   0.164   0.150  1.00  0.00    -0.236 N 
ATOM     10  H   UNL     1       2.576  -0.006  -0.866  1.00  0.00     0.376 HD
ATOM     11  H   UNL     1       3.131  -0.727   0.557  1.00  0.00     0.376 HD
BRANCH   9  12
ATOM     12  N   UNL     1       3.763   1.154   0.266  1.00  0.00    -0.178 NA
ATOM     13  H   UNL     1       3.413   2.049  -0.150  1.00  0.00     0.183 HD
ATOM     14  H   UNL     1       3.965   1.321   1.281  1.00  0.00     0.183 HD
ENDBRANCH   9  12
ENDBRANCH   4   9
BRANCH   6  15
ATOM     15  O   UNL     1      -1.562   2.572   0.302  1.00  0.00    -0.502 OA
ATOM     16  H   UNL     1      -1.554   2.878  -0.660  1.00  0.00     0.293 HD
ENDBRANCH   6  15
BRANCH   5  17
ATOM     17  O   UNL     1       0.812   1.724  -1.152  1.00  0.00    -0.500 OA
ATOM     18  H   UNL     1       0.189   2.298  -1.701  1.00  0.00     0.294 HD
ENDBRANCH   5  17
TORSDOF 4


