REMARK SMILES CC(=O)c1ccc(-c2ccc(OC(=O)[C@@H]3C[C@H]3C=O)cc2)c2c[n-]nc12
REMARK SMILES IDX 12 1 11 2 8 3 9 4 21 5 10 6 20 7 7 8 4 9 5 10 26 11 6 12
REMARK SMILES IDX 25 13 22 14 24 15 23 16 2 17 1 18 3 19 13 20 14 21 15 22
REMARK SMILES IDX 16 23 17 24 18 25 19 26
REMARK H PARENT
ROOT
ATOM      1  O   UNL     1      -1.397  -0.970  -2.618  1.00  0.00    -0.426 OA
ENDROOT
BRANCH   1   2
ATOM      2  C   UNL     1      -0.426  -0.947  -1.606  1.00  0.00     0.130 A 
ATOM      3  C   UNL     1       1.595  -0.884   0.359  1.00  0.00    -0.018 A 
ATOM      4  C   UNL     1       0.242  -0.816   0.729  1.00  0.00     0.012 A 
ATOM      5  C   UNL     1       1.927  -0.956  -1.004  1.00  0.00     0.012 A 
ATOM      6  C   UNL     1      -0.761  -0.846  -0.244  1.00  0.00     0.048 A 
ATOM      7  C   UNL     1       0.923  -0.984  -1.976  1.00  0.00     0.048 A 
BRANCH   3   8
ATOM      8  C   UNL     1       2.655  -0.843   1.392  1.00  0.00    -0.011 A 
ATOM      9  C   UNL     1       4.714  -0.751   3.387  1.00  0.00     0.042 A 
ATOM     10  C   UNL     1       3.644   0.177   3.396  1.00  0.00     0.014 A 
ATOM     11  C   UNL     1       4.704  -1.710   2.361  1.00  0.00     0.058 A 
ATOM     12  C   UNL     1       2.630   0.128   2.416  1.00  0.00     0.010 A 
ATOM     13  N   UNL     1       5.579  -2.712   2.156  1.00  0.00    -0.367 NA
ATOM     14  C   UNL     1       3.721  -1.751   1.410  1.00  0.00    -0.014 A 
ATOM     15  N   UNL     1       5.167  -3.395   1.094  1.00  0.00    -0.581 NA
ATOM     16  C   UNL     1       4.032  -2.835   0.619  1.00  0.00    -0.113 A 
BRANCH   9  17
ATOM     17  C   UNL     1       5.788  -0.716   4.417  1.00  0.00     0.161 C 
ATOM     18  C   UNL     1       5.781   0.290   5.529  1.00  0.00     0.093 C 
ATOM     19  O   UNL     1       6.738  -1.544   4.367  1.00  0.00    -0.294 OA
ENDBRANCH   9  17
ENDBRANCH   3   8
ENDBRANCH   1   2
BRANCH   1  20
ATOM     20  C   UNL     1      -2.702  -1.459  -2.476  1.00  0.00     0.315 C 
ATOM     21  O   UNL     1      -3.005  -2.238  -1.532  1.00  0.00    -0.251 OA
BRANCH  20  22
ATOM     22  C   UNL     1      -3.722  -1.140  -3.521  1.00  0.00     0.110 C 
ATOM     23  C   UNL     1      -3.898   0.351  -3.785  1.00  0.00     0.028 C 
ATOM     24  C   UNL     1      -4.956  -0.412  -3.000  1.00  0.00     0.068 C 
BRANCH  24  25
ATOM     25  C   UNL     1      -6.206  -0.716  -3.766  1.00  0.00     0.228 C 
ATOM     26  O   UNL     1      -6.760  -1.794  -3.628  1.00  0.00    -0.303 OA
ENDBRANCH  24  25
ENDBRANCH  20  22
ENDBRANCH   1  20
TORSDOF 6


