MODEL 1
REMARK VINA RESULT:      -6.4      0.000      0.000
REMARK SMILES C[C@@]1(N)CCC[C@@H]1C(=O)[N-]c1cc(F)c(F)cc1[NH2+]c1ccc(F)cc1
REMARK SMILES IDX 10 1 8 2 9 3 7 4 2 5 4 6 5 7 6 8 1 9 3 10 11 13 12 14 18 15
REMARK SMILES IDX 13 16 17 17 15 18 14 19 16 20 19 21 20 24 21 25 26 26 22 27
REMARK SMILES IDX 25 28 23 29 24 30
REMARK H PARENT 3 11 3 12 19 22 19 23
ROOT
ATOM      1  N   UNL     1      45.720 131.050  18.769  1.00  0.00    -0.622 NA
ENDROOT
BRANCH   1   2
ATOM      2  C   UNL     1      45.988 130.671  17.412  1.00  0.00     0.060 C 
ATOM      3  O   UNL     1      46.639 129.622  17.157  1.00  0.00    -0.320 OA
BRANCH   2   4
ATOM      4  C   UNL     1      45.419 131.485  16.272  1.00  0.00     0.057 C 
ATOM      5  C   UNL     1      44.715 130.627  15.193  1.00  0.00     0.021 C 
ATOM      6  C   UNL     1      45.837 130.256  14.209  1.00  0.00     0.022 C 
ATOM      7  C   UNL     1      46.899 131.349  14.317  1.00  0.00     0.003 C 
ATOM      8  C   UNL     1      46.542 132.211  15.528  1.00  0.00     0.012 C 
ATOM      9  C   UNL     1      43.627 131.456  14.468  1.00  0.00     0.028 C 
BRANCH   5  10
ATOM     10  N   UNL     1      44.114 129.415  15.768  1.00  0.00    -0.325 NA
ATOM     11  H   UNL     1      43.303 129.118  15.177  1.00  0.00     0.119 HD
ATOM     12  H   UNL     1      43.739 129.636  16.720  1.00  0.00     0.119 HD
ENDBRANCH   5  10
ENDBRANCH   2   4
ENDBRANCH   1   2
BRANCH   1  13
ATOM     13  C   UNL     1      44.470 131.503  19.312  1.00  0.00    -0.068 A 
ATOM     14  C   UNL     1      43.419 131.917  18.474  1.00  0.00     0.032 A 
ATOM     15  C   UNL     1      44.264 131.460  20.714  1.00  0.00     0.123 A 
ATOM     16  C   UNL     1      42.200 132.332  19.016  1.00  0.00     0.158 A 
ATOM     17  C   UNL     1      43.030 131.883  21.241  1.00  0.00     0.109 A 
ATOM     18  C   UNL     1      42.008 132.322  20.397  1.00  0.00     0.164 A 
ATOM     19  F   UNL     1      41.198 132.734  18.195  1.00  0.00    -0.204 F 
ATOM     20  F   UNL     1      40.825 132.726  20.922  1.00  0.00    -0.204 F 
BRANCH  15  21
ATOM     21  N   UNL     1      45.310 131.026  21.613  1.00  0.00    -0.283 N 
ATOM     22  H   UNL     1      46.159 130.757  21.060  1.00  0.00     0.358 HD
ATOM     23  H   UNL     1      45.611 131.801  22.246  1.00  0.00     0.358 HD
BRANCH  21  24
ATOM     24  C   UNL     1      44.853 129.899  22.390  1.00  0.00     0.134 A 
ATOM     25  C   UNL     1      45.118 128.585  21.964  1.00  0.00     0.071 A 
ATOM     26  C   UNL     1      44.110 130.100  23.568  1.00  0.00     0.071 A 
ATOM     27  C   UNL     1      44.656 127.495  22.709  1.00  0.00     0.045 A 
ATOM     28  C   UNL     1      43.651 129.007  24.308  1.00  0.00     0.045 A 
ATOM     29  C   UNL     1      43.925 127.705  23.880  1.00  0.00     0.123 A 
ATOM     30  F   UNL     1      43.479 126.646  24.600  1.00  0.00    -0.207 F 
ENDBRANCH  21  24
ENDBRANCH  15  21
ENDBRANCH   1  13
TORSDOF 6
ENDMDL
MODEL 2
REMARK VINA RESULT:      -6.4      2.461      6.895
REMARK SMILES C[C@@]1(N)CCC[C@@H]1C(=O)[N-]c1cc(F)c(F)cc1[NH2+]c1ccc(F)cc1
REMARK SMILES IDX 10 1 8 2 9 3 7 4 2 5 4 6 5 7 6 8 1 9 3 10 11 13 12 14 18 15
REMARK SMILES IDX 13 16 17 17 15 18 14 19 16 20 19 21 20 24 21 25 26 26 22 27
REMARK SMILES IDX 25 28 23 29 24 30
REMARK H PARENT 3 11 3 12 19 22 19 23
ROOT
ATOM      1  N   UNL     1      44.796 130.922  21.791  1.00  0.00    -0.622 NA
ENDROOT
BRANCH   1   2
ATOM      2  C   UNL     1      44.674 131.061  23.213  1.00  0.00     0.060 C 
ATOM      3  O   UNL     1      44.803 132.189  23.761  1.00  0.00    -0.320 OA
BRANCH   2   4
ATOM      4  C   UNL     1      44.307 129.863  24.062  1.00  0.00     0.057 C 
ATOM      5  C   UNL     1      44.271 128.534  23.269  1.00  0.00     0.021 C 
ATOM      6  C   UNL     1      42.831 128.447  22.737  1.00  0.00     0.022 C 
ATOM      7  C   UNL     1      41.957 129.257  23.693  1.00  0.00     0.003 C 
ATOM      8  C   UNL     1      42.893 130.026  24.624  1.00  0.00     0.012 C 
ATOM      9  C   UNL     1      44.563 127.338  24.207  1.00  0.00     0.028 C 
BRANCH   5  10
ATOM     10  N   UNL     1      45.231 128.538  22.156  1.00  0.00    -0.325 NA
ATOM     11  H   UNL     1      45.845 129.382  22.232  1.00  0.00     0.119 HD
ATOM     12  H   UNL     1      44.709 128.614  21.252  1.00  0.00     0.119 HD
ENDBRANCH   5  10
ENDBRANCH   2   4
ENDBRANCH   1   2
BRANCH   1  13
ATOM     13  C   UNL     1      43.895 131.422  20.790  1.00  0.00    -0.068 A 
ATOM     14  C   UNL     1      42.740 132.143  21.145  1.00  0.00     0.032 A 
ATOM     15  C   UNL     1      44.215 131.254  19.420  1.00  0.00     0.123 A 
ATOM     16  C   UNL     1      41.886 132.643  20.160  1.00  0.00     0.158 A 
ATOM     17  C   UNL     1      43.341 131.766  18.443  1.00  0.00     0.109 A 
ATOM     18  C   UNL     1      42.182 132.449  18.812  1.00  0.00     0.164 A 
ATOM     19  F   UNL     1      40.772 133.331  20.518  1.00  0.00    -0.204 F 
ATOM     20  F   UNL     1      41.351 132.936  17.856  1.00  0.00    -0.204 F 
BRANCH  15  21
ATOM     21  N   UNL     1      45.400 130.536  19.009  1.00  0.00    -0.283 N 
ATOM     22  H   UNL     1      46.236 130.920  19.511  1.00  0.00     0.358 HD
ATOM     23  H   UNL     1      45.342 129.526  19.273  1.00  0.00     0.358 HD
BRANCH  21  24
ATOM     24  C   UNL     1      45.583 130.666  17.583  1.00  0.00     0.134 A 
ATOM     25  C   UNL     1      45.858 129.535  16.793  1.00  0.00     0.071 A 
ATOM     26  C   UNL     1      45.520 131.929  16.969  1.00  0.00     0.071 A 
ATOM     27  C   UNL     1      46.055 129.666  15.415  1.00  0.00     0.045 A 
ATOM     28  C   UNL     1      45.717 132.055  15.591  1.00  0.00     0.045 A 
ATOM     29  C   UNL     1      45.984 130.925  14.814  1.00  0.00     0.123 A 
ATOM     30  F   UNL     1      46.174 131.049  13.477  1.00  0.00    -0.207 F 
ENDBRANCH  21  24
ENDBRANCH  15  21
ENDBRANCH   1  13
TORSDOF 6
ENDMDL
MODEL 3
REMARK VINA RESULT:      -6.0      1.533      2.054
REMARK SMILES C[C@@]1(N)CCC[C@@H]1C(=O)[N-]c1cc(F)c(F)cc1[NH2+]c1ccc(F)cc1
REMARK SMILES IDX 10 1 8 2 9 3 7 4 2 5 4 6 5 7 6 8 1 9 3 10 11 13 12 14 18 15
REMARK SMILES IDX 13 16 17 17 15 18 14 19 16 20 19 21 20 24 21 25 26 26 22 27
REMARK SMILES IDX 25 28 23 29 24 30
REMARK H PARENT 3 11 3 12 19 22 19 23
ROOT
ATOM      1  N   UNL     1      44.975 130.598  18.678  1.00  0.00    -0.622 NA
ENDROOT
BRANCH   1   2
ATOM      2  C   UNL     1      45.531 131.336  17.581  1.00  0.00     0.060 C 
ATOM      3  O   UNL     1      45.427 132.592  17.535  1.00  0.00    -0.320 OA
BRANCH   2   4
ATOM      4  C   UNL     1      46.321 130.619  16.509  1.00  0.00     0.057 C 
ATOM      5  C   UNL     1      46.138 131.227  15.097  1.00  0.00     0.021 C 
ATOM      6  C   UNL     1      44.917 130.491  14.521  1.00  0.00     0.022 C 
ATOM      7  C   UNL     1      44.846 129.136  15.223  1.00  0.00     0.003 C 
ATOM      8  C   UNL     1      45.844 129.170  16.380  1.00  0.00     0.012 C 
ATOM      9  C   UNL     1      47.385 130.950  14.223  1.00  0.00     0.028 C 
BRANCH   5  10
ATOM     10  N   UNL     1      45.885 132.674  15.156  1.00  0.00    -0.325 NA
ATOM     11  H   UNL     1      46.798 133.184  15.166  1.00  0.00     0.119 HD
ATOM     12  H   UNL     1      45.393 132.901  16.052  1.00  0.00     0.119 HD
ENDBRANCH   5  10
ENDBRANCH   2   4
ENDBRANCH   1   2
BRANCH   1  13
ATOM     13  C   UNL     1      44.264 131.128  19.808  1.00  0.00    -0.068 A 
ATOM     14  C   UNL     1      43.154 131.975  19.638  1.00  0.00     0.032 A 
ATOM     15  C   UNL     1      44.640 130.729  21.115  1.00  0.00     0.123 A 
ATOM     16  C   UNL     1      42.458 132.463  20.747  1.00  0.00     0.158 A 
ATOM     17  C   UNL     1      43.927 131.233  22.219  1.00  0.00     0.109 A 
ATOM     18  C   UNL     1      42.848 132.098  22.035  1.00  0.00     0.164 A 
ATOM     19  F   UNL     1      41.393 133.283  20.568  1.00  0.00    -0.204 F 
ATOM     20  F   UNL     1      42.172 132.573  23.111  1.00  0.00    -0.204 F 
BRANCH  15  21
ATOM     21  N   UNL     1      45.765 129.847  21.336  1.00  0.00    -0.283 N 
ATOM     22  H   UNL     1      46.223 129.626  20.420  1.00  0.00     0.358 HD
ATOM     23  H   UNL     1      46.498 130.307  21.923  1.00  0.00     0.358 HD
BRANCH  21  24
ATOM     24  C   UNL     1      45.316 128.629  21.968  1.00  0.00     0.134 A 
ATOM     25  C   UNL     1      45.828 127.384  21.560  1.00  0.00     0.071 A 
ATOM     26  C   UNL     1      44.338 128.668  22.977  1.00  0.00     0.071 A 
ATOM     27  C   UNL     1      45.377 126.204  22.159  1.00  0.00     0.045 A 
ATOM     28  C   UNL     1      43.891 127.486  23.573  1.00  0.00     0.045 A 
ATOM     29  C   UNL     1      44.410 126.254  23.166  1.00  0.00     0.123 A 
ATOM     30  F   UNL     1      43.975 125.109  23.745  1.00  0.00    -0.207 F 
ENDBRANCH  21  24
ENDBRANCH  15  21
ENDBRANCH   1  13
TORSDOF 6
ENDMDL
MODEL 4
REMARK VINA RESULT:      -5.6      2.489      7.048
REMARK SMILES C[C@@]1(N)CCC[C@@H]1C(=O)[N-]c1cc(F)c(F)cc1[NH2+]c1ccc(F)cc1
REMARK SMILES IDX 10 1 8 2 9 3 7 4 2 5 4 6 5 7 6 8 1 9 3 10 11 13 12 14 18 15
REMARK SMILES IDX 13 16 17 17 15 18 14 19 16 20 19 21 20 24 21 25 26 26 22 27
REMARK SMILES IDX 25 28 23 29 24 30
REMARK H PARENT 3 11 3 12 19 22 19 23
ROOT
ATOM      1  N   UNL     1      45.425 130.769  20.192  1.00  0.00    -0.622 NA
ENDROOT
BRANCH   1   2
ATOM      2  C   UNL     1      45.719 131.562  21.350  1.00  0.00     0.060 C 
ATOM      3  O   UNL     1      46.415 132.608  21.250  1.00  0.00    -0.320 OA
BRANCH   2   4
ATOM      4  C   UNL     1      45.126 131.192  22.691  1.00  0.00     0.057 C 
ATOM      5  C   UNL     1      44.457 129.796  22.705  1.00  0.00     0.021 C 
ATOM      6  C   UNL     1      43.006 130.065  22.273  1.00  0.00     0.022 C 
ATOM      7  C   UNL     1      42.692 131.510  22.655  1.00  0.00     0.003 C 
ATOM      8  C   UNL     1      44.009 132.169  23.064  1.00  0.00     0.012 C 
ATOM      9  C   UNL     1      44.483 129.199  24.133  1.00  0.00     0.028 C 
BRANCH   5  10
ATOM     10  N   UNL     1      45.110 128.869  21.768  1.00  0.00    -0.325 NA
ATOM     11  H   UNL     1      44.622 128.914  20.844  1.00  0.00     0.119 HD
ATOM     12  H   UNL     1      45.009 127.891  22.126  1.00  0.00     0.119 HD
ENDBRANCH   5  10
ENDBRANCH   2   4
ENDBRANCH   1   2
BRANCH   1  13
ATOM     13  C   UNL     1      44.571 131.123  19.092  1.00  0.00    -0.068 A 
ATOM     14  C   UNL     1      43.340 131.770  19.305  1.00  0.00     0.032 A 
ATOM     15  C   UNL     1      45.011 130.886  17.766  1.00  0.00     0.123 A 
ATOM     16  C   UNL     1      42.532 132.129  18.224  1.00  0.00     0.158 A 
ATOM     17  C   UNL     1      44.182 131.255  16.690  1.00  0.00     0.109 A 
ATOM     18  C   UNL     1      42.948 131.866  16.919  1.00  0.00     0.164 A 
ATOM     19  F   UNL     1      41.344 132.747  18.445  1.00  0.00    -0.204 F 
ATOM     20  F   UNL     1      42.162 132.216  15.871  1.00  0.00    -0.204 F 
BRANCH  15  21
ATOM     21  N   UNL     1      46.277 130.240  17.499  1.00  0.00    -0.283 N 
ATOM     22  H   UNL     1      47.021 130.660  18.105  1.00  0.00     0.358 HD
ATOM     23  H   UNL     1      46.243 129.224  17.744  1.00  0.00     0.358 HD
BRANCH  21  24
ATOM     24  C   UNL     1      46.627 130.402  16.108  1.00  0.00     0.134 A 
ATOM     25  C   UNL     1      47.181 129.332  15.382  1.00  0.00     0.071 A 
ATOM     26  C   UNL     1      46.449 131.642  15.469  1.00  0.00     0.071 A 
ATOM     27  C   UNL     1      47.539 129.498  14.041  1.00  0.00     0.045 A 
ATOM     28  C   UNL     1      46.808 131.803  14.127  1.00  0.00     0.045 A 
ATOM     29  C   UNL     1      47.352 130.732  13.413  1.00  0.00     0.123 A 
ATOM     30  F   UNL     1      47.699 130.890  12.112  1.00  0.00    -0.207 F 
ENDBRANCH  21  24
ENDBRANCH  15  21
ENDBRANCH   1  13
TORSDOF 6
ENDMDL
MODEL 5
REMARK VINA RESULT:      -5.6      2.562      7.327
REMARK SMILES C[C@@]1(N)CCC[C@@H]1C(=O)[N-]c1cc(F)c(F)cc1[NH2+]c1ccc(F)cc1
REMARK SMILES IDX 10 1 8 2 9 3 7 4 2 5 4 6 5 7 6 8 1 9 3 10 11 13 12 14 18 15
REMARK SMILES IDX 13 16 17 17 15 18 14 19 16 20 19 21 20 24 21 25 26 26 22 27
REMARK SMILES IDX 25 28 23 29 24 30
REMARK H PARENT 3 11 3 12 19 22 19 23
ROOT
ATOM      1  N   UNL     1      45.630 130.524  19.841  1.00  0.00    -0.622 NA
ENDROOT
BRANCH   1   2
ATOM      2  C   UNL     1      45.336 130.538  21.245  1.00  0.00     0.060 C 
ATOM      3  O   UNL     1      45.897 131.369  22.009  1.00  0.00    -0.320 OA
BRANCH   2   4
ATOM      4  C   UNL     1      44.286 129.606  21.808  1.00  0.00     0.057 C 
ATOM      5  C   UNL     1      43.436 130.243  22.934  1.00  0.00     0.021 C 
ATOM      6  C   UNL     1      44.222 129.941  24.221  1.00  0.00     0.022 C 
ATOM      7  C   UNL     1      45.041 128.680  23.952  1.00  0.00     0.003 C 
ATOM      8  C   UNL     1      44.951 128.388  22.455  1.00  0.00     0.012 C 
ATOM      9  C   UNL     1      42.039 129.579  22.997  1.00  0.00     0.028 C 
BRANCH   5  10
ATOM     10  N   UNL     1      43.289 131.694  22.750  1.00  0.00    -0.325 NA
ATOM     11  H   UNL     1      43.740 131.976  21.849  1.00  0.00     0.119 HD
ATOM     12  H   UNL     1      43.795 132.191  23.520  1.00  0.00     0.119 HD
ENDBRANCH   5  10
ENDBRANCH   2   4
ENDBRANCH   1   2
BRANCH   1  13
ATOM     13  C   UNL     1      44.759 130.915  18.768  1.00  0.00    -0.068 A 
ATOM     14  C   UNL     1      43.576 131.636  19.017  1.00  0.00     0.032 A 
ATOM     15  C   UNL     1      45.134 130.636  17.430  1.00  0.00     0.123 A 
ATOM     16  C   UNL     1      42.751 132.029  17.961  1.00  0.00     0.158 A 
ATOM     17  C   UNL     1      44.288 131.041  16.381  1.00  0.00     0.109 A 
ATOM     18  C   UNL     1      43.102 131.726  16.646  1.00  0.00     0.164 A 
ATOM     19  F   UNL     1      41.611 132.719  18.216  1.00  0.00    -0.204 F 
ATOM     20  F   UNL     1      42.299 132.109  15.622  1.00  0.00    -0.204 F 
BRANCH  15  21
ATOM     21  N   UNL     1      46.348 129.912  17.127  1.00  0.00    -0.283 N 
ATOM     22  H   UNL     1      47.102 130.193  17.799  1.00  0.00     0.358 HD
ATOM     23  H   UNL     1      46.217 128.883  17.252  1.00  0.00     0.358 HD
BRANCH  21  24
ATOM     24  C   UNL     1      46.766 130.199  15.775  1.00  0.00     0.134 A 
ATOM     25  C   UNL     1      47.485 129.244  15.034  1.00  0.00     0.071 A 
ATOM     26  C   UNL     1      46.486 131.448  15.193  1.00  0.00     0.071 A 
ATOM     27  C   UNL     1      47.906 129.532  13.731  1.00  0.00     0.045 A 
ATOM     28  C   UNL     1      46.909 131.731  13.891  1.00  0.00     0.045 A 
ATOM     29  C   UNL     1      47.617 130.773  13.160  1.00  0.00     0.123 A 
ATOM     30  F   UNL     1      48.026 131.049  11.897  1.00  0.00    -0.207 F 
ENDBRANCH  21  24
ENDBRANCH  15  21
ENDBRANCH   1  13
TORSDOF 6
ENDMDL
MODEL 6
REMARK VINA RESULT:      -5.6      2.429      7.023
REMARK SMILES C[C@@]1(N)CCC[C@@H]1C(=O)[N-]c1cc(F)c(F)cc1[NH2+]c1ccc(F)cc1
REMARK SMILES IDX 10 1 8 2 9 3 7 4 2 5 4 6 5 7 6 8 1 9 3 10 11 13 12 14 18 15
REMARK SMILES IDX 13 16 17 17 15 18 14 19 16 20 19 21 20 24 21 25 26 26 22 27
REMARK SMILES IDX 25 28 23 29 24 30
REMARK H PARENT 3 11 3 12 19 22 19 23
ROOT
ATOM      1  N   UNL     1      45.212 130.913  20.871  1.00  0.00    -0.622 NA
ENDROOT
BRANCH   1   2
ATOM      2  C   UNL     1      45.461 131.587  22.113  1.00  0.00     0.060 C 
ATOM      3  O   UNL     1      46.113 132.665  22.138  1.00  0.00    -0.320 OA
BRANCH   2   4
ATOM      4  C   UNL     1      44.869 131.049  23.397  1.00  0.00     0.057 C 
ATOM      5  C   UNL     1      44.295 129.618  23.260  1.00  0.00     0.021 C 
ATOM      6  C   UNL     1      42.838 129.832  22.819  1.00  0.00     0.022 C 
ATOM      7  C   UNL     1      42.420 131.210  23.330  1.00  0.00     0.003 C 
ATOM      8  C   UNL     1      43.682 131.910  23.834  1.00  0.00     0.012 C 
ATOM      9  C   UNL     1      44.335 128.887  24.624  1.00  0.00     0.028 C 
BRANCH   5  10
ATOM     10  N   UNL     1      45.027 128.832  22.255  1.00  0.00    -0.325 NA
ATOM     11  H   UNL     1      45.065 127.832  22.559  1.00  0.00     0.119 HD
ATOM     12  H   UNL     1      46.013 129.178  22.200  1.00  0.00     0.119 HD
ENDBRANCH   5  10
ENDBRANCH   2   4
ENDBRANCH   1   2
BRANCH   1  13
ATOM     13  C   UNL     1      44.284 131.299  19.846  1.00  0.00    -0.068 A 
ATOM     14  C   UNL     1      43.104 132.000  20.157  1.00  0.00     0.032 A 
ATOM     15  C   UNL     1      44.598 131.037  18.489  1.00  0.00     0.123 A 
ATOM     16  C   UNL     1      42.223 132.389  19.147  1.00  0.00     0.158 A 
ATOM     17  C   UNL     1      43.696 131.437  17.485  1.00  0.00     0.109 A 
ATOM     18  C   UNL     1      42.515 132.102  17.813  1.00  0.00     0.164 A 
ATOM     19  F   UNL     1      41.087 133.060  19.462  1.00  0.00    -0.204 F 
ATOM     20  F   UNL     1      41.658 132.481  16.833  1.00  0.00    -0.204 F 
BRANCH  15  21
ATOM     21  N   UNL     1      45.807 130.334  18.121  1.00  0.00    -0.283 N 
ATOM     22  H   UNL     1      46.605 130.676  18.708  1.00  0.00     0.358 HD
ATOM     23  H   UNL     1      45.724 129.310  18.313  1.00  0.00     0.358 HD
BRANCH  21  24
ATOM     24  C   UNL     1      46.097 130.554  16.724  1.00  0.00     0.134 A 
ATOM     25  C   UNL     1      45.872 131.814  16.139  1.00  0.00     0.071 A 
ATOM     26  C   UNL     1      46.577 129.504  15.921  1.00  0.00     0.071 A 
ATOM     27  C   UNL     1      46.135 132.020  14.781  1.00  0.00     0.045 A 
ATOM     28  C   UNL     1      46.838 129.715  14.564  1.00  0.00     0.045 A 
ATOM     29  C   UNL     1      46.618 130.971  13.994  1.00  0.00     0.123 A 
ATOM     30  F   UNL     1      46.872 131.174  12.678  1.00  0.00    -0.207 F 
ENDBRANCH  21  24
ENDBRANCH  15  21
ENDBRANCH   1  13
TORSDOF 6
ENDMDL
MODEL 7
REMARK VINA RESULT:      -5.6      2.551      7.339
REMARK SMILES C[C@@]1(N)CCC[C@@H]1C(=O)[N-]c1cc(F)c(F)cc1[NH2+]c1ccc(F)cc1
REMARK SMILES IDX 10 1 8 2 9 3 7 4 2 5 4 6 5 7 6 8 1 9 3 10 11 13 12 14 18 15
REMARK SMILES IDX 13 16 17 17 15 18 14 19 16 20 19 21 20 24 21 25 26 26 22 27
REMARK SMILES IDX 25 28 23 29 24 30
REMARK H PARENT 3 11 3 12 19 22 19 23
ROOT
ATOM      1  N   UNL     1      45.825 130.522  19.707  1.00  0.00    -0.622 NA
ENDROOT
BRANCH   1   2
ATOM      2  C   UNL     1      45.450 130.001  20.989  1.00  0.00     0.060 C 
ATOM      3  O   UNL     1      45.522 128.765  21.225  1.00  0.00    -0.320 OA
BRANCH   2   4
ATOM      4  C   UNL     1      45.041 130.944  22.099  1.00  0.00     0.057 C 
ATOM      5  C   UNL     1      44.321 130.238  23.274  1.00  0.00     0.021 C 
ATOM      6  C   UNL     1      42.836 130.255  22.876  1.00  0.00     0.022 C 
ATOM      7  C   UNL     1      42.643 131.447  21.940  1.00  0.00     0.003 C 
ATOM      8  C   UNL     1      44.033 131.971  21.578  1.00  0.00     0.012 C 
ATOM      9  C   UNL     1      44.527 131.030  24.588  1.00  0.00     0.028 C 
BRANCH   5  10
ATOM     10  N   UNL     1      44.791 128.856  23.449  1.00  0.00    -0.325 NA
ATOM     11  H   UNL     1      45.777 128.781  23.105  1.00  0.00     0.119 HD
ATOM     12  H   UNL     1      44.207 128.218  22.859  1.00  0.00     0.119 HD
ENDBRANCH   5  10
ENDBRANCH   2   4
ENDBRANCH   1   2
BRANCH   1  13
ATOM     13  C   UNL     1      44.948 130.917  18.640  1.00  0.00    -0.068 A 
ATOM     14  C   UNL     1      43.776 131.652  18.895  1.00  0.00     0.032 A 
ATOM     15  C   UNL     1      45.308 130.627  17.300  1.00  0.00     0.123 A 
ATOM     16  C   UNL     1      42.945 132.049  17.845  1.00  0.00     0.158 A 
ATOM     17  C   UNL     1      44.457 131.035  16.256  1.00  0.00     0.109 A 
ATOM     18  C   UNL     1      43.281 131.735  16.529  1.00  0.00     0.164 A 
ATOM     19  F   UNL     1      41.815 132.753  18.107  1.00  0.00    -0.204 F 
ATOM     20  F   UNL     1      42.473 132.121  15.510  1.00  0.00    -0.204 F 
BRANCH  15  21
ATOM     21  N   UNL     1      46.511 129.888  16.990  1.00  0.00    -0.283 N 
ATOM     22  H   UNL     1      47.273 130.162  17.655  1.00  0.00     0.358 HD
ATOM     23  H   UNL     1      46.369 128.860  17.119  1.00  0.00     0.358 HD
BRANCH  21  24
ATOM     24  C   UNL     1      46.921 130.165  15.634  1.00  0.00     0.134 A 
ATOM     25  C   UNL     1      46.680 131.427  15.060  1.00  0.00     0.071 A 
ATOM     26  C   UNL     1      47.539 129.168  14.858  1.00  0.00     0.071 A 
ATOM     27  C   UNL     1      47.060 131.686  13.739  1.00  0.00     0.045 A 
ATOM     28  C   UNL     1      47.917 129.433  13.538  1.00  0.00     0.045 A 
ATOM     29  C   UNL     1      47.679 130.691  12.979  1.00  0.00     0.123 A 
ATOM     30  F   UNL     1      48.046 130.946  11.699  1.00  0.00    -0.207 F 
ENDBRANCH  21  24
ENDBRANCH  15  21
ENDBRANCH   1  13
TORSDOF 6
ENDMDL
MODEL 8
REMARK VINA RESULT:      -5.4      2.310      7.066
REMARK SMILES C[C@@]1(N)CCC[C@@H]1C(=O)[N-]c1cc(F)c(F)cc1[NH2+]c1ccc(F)cc1
REMARK SMILES IDX 10 1 8 2 9 3 7 4 2 5 4 6 5 7 6 8 1 9 3 10 11 13 12 14 18 15
REMARK SMILES IDX 13 16 17 17 15 18 14 19 16 20 19 21 20 24 21 25 26 26 22 27
REMARK SMILES IDX 25 28 23 29 24 30
REMARK H PARENT 3 11 3 12 19 22 19 23
ROOT
ATOM      1  N   UNL     1      45.071 130.032  21.428  1.00  0.00    -0.622 NA
ENDROOT
BRANCH   1   2
ATOM      2  C   UNL     1      44.701 129.244  22.568  1.00  0.00     0.060 C 
ATOM      3  O   UNL     1      44.595 129.774  23.706  1.00  0.00    -0.320 OA
BRANCH   2   4
ATOM      4  C   UNL     1      44.354 127.781  22.397  1.00  0.00     0.057 C 
ATOM      5  C   UNL     1      43.455 127.225  23.528  1.00  0.00     0.021 C 
ATOM      6  C   UNL     1      44.447 126.740  24.598  1.00  0.00     0.022 C 
ATOM      7  C   UNL     1      45.750 126.404  23.874  1.00  0.00     0.003 C 
ATOM      8  C   UNL     1      45.623 126.927  22.444  1.00  0.00     0.012 C 
ATOM      9  C   UNL     1      42.610 126.035  23.011  1.00  0.00     0.028 C 
BRANCH   5  10
ATOM     10  N   UNL     1      42.569 128.261  24.079  1.00  0.00    -0.325 NA
ATOM     11  H   UNL     1      42.267 127.980  25.041  1.00  0.00     0.119 HD
ATOM     12  H   UNL     1      41.707 128.324  23.489  1.00  0.00     0.119 HD
ENDBRANCH   5  10
ENDBRANCH   2   4
ENDBRANCH   1   2
BRANCH   1  13
ATOM     13  C   UNL     1      44.205 130.834  20.610  1.00  0.00    -0.068 A 
ATOM     14  C   UNL     1      43.125 131.542  21.169  1.00  0.00     0.032 A 
ATOM     15  C   UNL     1      44.488 130.977  19.229  1.00  0.00     0.123 A 
ATOM     16  C   UNL     1      42.306 132.338  20.365  1.00  0.00     0.158 A 
ATOM     17  C   UNL     1      43.650 131.782  18.435  1.00  0.00     0.109 A 
ATOM     18  C   UNL     1      42.564 132.452  18.999  1.00  0.00     0.164 A 
ATOM     19  F   UNL     1      41.265 133.010  20.917  1.00  0.00    -0.204 F 
ATOM     20  F   UNL     1      41.767 133.225  18.219  1.00  0.00    -0.204 F 
BRANCH  15  21
ATOM     21  N   UNL     1      45.597 130.282  18.614  1.00  0.00    -0.283 N 
ATOM     22  H   UNL     1      46.498 130.632  19.017  1.00  0.00     0.358 HD
ATOM     23  H   UNL     1      45.565 129.258  18.824  1.00  0.00     0.358 HD
BRANCH  21  24
ATOM     24  C   UNL     1      45.581 130.497  17.187  1.00  0.00     0.134 A 
ATOM     25  C   UNL     1      46.687 130.130  16.398  1.00  0.00     0.071 A 
ATOM     26  C   UNL     1      44.473 131.105  16.571  1.00  0.00     0.071 A 
ATOM     27  C   UNL     1      46.677 130.358  15.019  1.00  0.00     0.045 A 
ATOM     28  C   UNL     1      44.468 131.331  15.191  1.00  0.00     0.045 A 
ATOM     29  C   UNL     1      45.569 130.957  14.415  1.00  0.00     0.123 A 
ATOM     30  F   UNL     1      45.562 131.177  13.077  1.00  0.00    -0.207 F 
ENDBRANCH  21  24
ENDBRANCH  15  21
ENDBRANCH   1  13
TORSDOF 6
ENDMDL
MODEL 9
REMARK VINA RESULT:      -5.3      2.121      7.067
REMARK SMILES C[C@@]1(N)CCC[C@@H]1C(=O)[N-]c1cc(F)c(F)cc1[NH2+]c1ccc(F)cc1
REMARK SMILES IDX 10 1 8 2 9 3 7 4 2 5 4 6 5 7 6 8 1 9 3 10 11 13 12 14 18 15
REMARK SMILES IDX 13 16 17 17 15 18 14 19 16 20 19 21 20 24 21 25 26 26 22 27
REMARK SMILES IDX 25 28 23 29 24 30
REMARK H PARENT 3 11 3 12 19 22 19 23
ROOT
ATOM      1  N   UNL     1      45.454 130.209  21.036  1.00  0.00    -0.622 NA
ENDROOT
BRANCH   1   2
ATOM      2  C   UNL     1      45.351 128.857  21.501  1.00  0.00     0.060 C 
ATOM      3  O   UNL     1      46.295 128.042  21.318  1.00  0.00    -0.320 OA
BRANCH   2   4
ATOM      4  C   UNL     1      44.137 128.419  22.291  1.00  0.00     0.057 C 
ATOM      5  C   UNL     1      44.038 129.083  23.687  1.00  0.00     0.021 C 
ATOM      6  C   UNL     1      44.830 128.144  24.612  1.00  0.00     0.022 C 
ATOM      7  C   UNL     1      44.783 126.755  23.977  1.00  0.00     0.003 C 
ATOM      8  C   UNL     1      44.202 126.916  22.572  1.00  0.00     0.012 C 
ATOM      9  C   UNL     1      42.561 129.158  24.145  1.00  0.00     0.028 C 
BRANCH   5  10
ATOM     10  N   UNL     1      44.629 130.429  23.693  1.00  0.00    -0.325 NA
ATOM     11  H   UNL     1      45.622 130.371  23.370  1.00  0.00     0.119 HD
ATOM     12  H   UNL     1      44.642 130.794  24.674  1.00  0.00     0.119 HD
ENDBRANCH   5  10
ENDBRANCH   2   4
ENDBRANCH   1   2
BRANCH   1  13
ATOM     13  C   UNL     1      44.555 130.893  20.150  1.00  0.00    -0.068 A 
ATOM     14  C   UNL     1      43.478 131.650  20.646  1.00  0.00     0.032 A 
ATOM     15  C   UNL     1      44.801 130.868  18.754  1.00  0.00     0.123 A 
ATOM     16  C   UNL     1      42.626 132.329  19.773  1.00  0.00     0.158 A 
ATOM     17  C   UNL     1      43.929 131.558  17.890  1.00  0.00     0.109 A 
ATOM     18  C   UNL     1      42.847 132.278  18.397  1.00  0.00     0.164 A 
ATOM     19  F   UNL     1      41.588 133.051  20.266  1.00  0.00    -0.204 F 
ATOM     20  F   UNL     1      42.018 132.937  17.550  1.00  0.00    -0.204 F 
BRANCH  15  21
ATOM     21  N   UNL     1      45.905 130.117  18.200  1.00  0.00    -0.283 N 
ATOM     22  H   UNL     1      46.789 130.373  18.700  1.00  0.00     0.358 HD
ATOM     23  H   UNL     1      45.776 129.090  18.346  1.00  0.00     0.358 HD
BRANCH  21  24
ATOM     24  C   UNL     1      46.036 130.405  16.792  1.00  0.00     0.134 A 
ATOM     25  C   UNL     1      46.881 129.625  15.980  1.00  0.00     0.071 A 
ATOM     26  C   UNL     1      45.346 131.488  16.218  1.00  0.00     0.071 A 
ATOM     27  C   UNL     1      47.023 129.919  14.620  1.00  0.00     0.045 A 
ATOM     28  C   UNL     1      45.491 131.777  14.858  1.00  0.00     0.045 A 
ATOM     29  C   UNL     1      46.328 130.993  14.059  1.00  0.00     0.123 A 
ATOM     30  F   UNL     1      46.466 131.274  12.740  1.00  0.00    -0.207 F 
ENDBRANCH  21  24
ENDBRANCH  15  21
ENDBRANCH   1  13
TORSDOF 6
ENDMDL


