REMARK SMILES O=C(CCc1c(F)cccc1F)c1ccc(Nc2ccc3cc[nH]c3c2O)cc1
REMARK SMILES IDX 13 1 14 2 15 3 16 4 28 5 29 6 2 7 1 8 3 9 4 10 5 11 6 12
REMARK SMILES IDX 11 13 8 14 10 15 9 16 7 17 12 18 17 19 18 21 19 22 26 23
REMARK SMILES IDX 20 24 25 25 21 26 24 27 22 28 23 29 27 31
REMARK H PARENT 17 20 24 30 27 32
ROOT
ATOM      1  C   UNL     1       0.162   0.632  -2.321  1.00  0.00     0.018 A 
ATOM      2  C   UNL     1       0.328   0.322  -0.957  1.00  0.00     0.014 A 
ATOM      3  C   UNL     1       1.198  -0.696  -0.557  1.00  0.00     0.027 A 
ATOM      4  C   UNL     1       1.930  -1.424  -1.510  1.00  0.00     0.039 A 
ATOM      5  C   UNL     1       1.758  -1.129  -2.869  1.00  0.00     0.027 A 
ATOM      6  C   UNL     1       0.887  -0.112  -3.271  1.00  0.00     0.014 A 
ENDROOT
BRANCH   1   7
ATOM      7  C   UNL     1      -0.761   1.711  -2.776  1.00  0.00     0.163 C 
ATOM      8  O   UNL     1      -0.977   1.862  -4.009  1.00  0.00    -0.294 OA
BRANCH   7   9
ATOM      9  C   UNL     1      -1.483   2.621  -1.818  1.00  0.00     0.086 C 
BRANCH   9  10
ATOM     10  C   UNL     1      -2.782   1.974  -1.327  1.00  0.00     0.050 C 
BRANCH  10  11
ATOM     11  C   UNL     1      -3.482   2.873  -0.338  1.00  0.00     0.024 A 
ATOM     12  C   UNL     1      -3.186   2.786   1.036  1.00  0.00     0.129 A 
ATOM     13  C   UNL     1      -4.394   3.848  -0.784  1.00  0.00     0.129 A 
ATOM     14  C   UNL     1      -3.813   3.643   1.946  1.00  0.00     0.040 A 
ATOM     15  C   UNL     1      -5.017   4.701   0.134  1.00  0.00     0.040 A 
ATOM     16  C   UNL     1      -4.729   4.596   1.496  1.00  0.00     0.006 A 
ATOM     17  F   UNL     1      -2.288   1.877   1.495  1.00  0.00    -0.207 F 
ATOM     18  F   UNL     1      -4.678   3.978  -2.105  1.00  0.00    -0.207 F 
ENDBRANCH  10  11
ENDBRANCH   9  10
ENDBRANCH   7   9
ENDBRANCH   1   7
BRANCH   4  19
ATOM     19  N   UNL     1       2.829  -2.482  -1.127  1.00  0.00    -0.352 N 
ATOM     20  H   UNL     1       3.080  -3.201  -1.842  1.00  0.00     0.167 HD
BRANCH  19  21
ATOM     21  C   UNL     1       3.256  -2.716   0.223  1.00  0.00     0.083 A 
ATOM     22  C   UNL     1       2.990  -3.975   0.815  1.00  0.00     0.031 A 
ATOM     23  C   UNL     1       3.955  -1.723   0.961  1.00  0.00     0.163 A 
ATOM     24  C   UNL     1       3.369  -4.242   2.141  1.00  0.00     0.013 A 
ATOM     25  C   UNL     1       4.306  -2.021   2.279  1.00  0.00     0.090 A 
ATOM     26  C   UNL     1       4.021  -3.234   2.845  1.00  0.00     0.003 A 
ATOM     27  N   UNL     1       4.954  -1.231   3.151  1.00  0.00    -0.358 N 
ATOM     28  C   UNL     1       4.507  -3.214   4.135  1.00  0.00     0.028 A 
ATOM     29  C   UNL     1       5.078  -1.955   4.287  1.00  0.00     0.083 A 
ATOM     30  H   UNL     1       5.298  -0.258   2.991  1.00  0.00     0.166 HD
BRANCH  23  31
ATOM     31  O   UNL     1       4.317  -0.494   0.409  1.00  0.00    -0.504 OA
ATOM     32  H   UNL     1       4.159  -0.266  -0.564  1.00  0.00     0.293 HD
ENDBRANCH  23  31
ENDBRANCH  19  21
ENDBRANCH   4  19
TORSDOF 7


