REMARK SMILES Cc1ccc([C@H]2O[C@@H]2C(=O)c2ccc(F)cc2)cc1F
REMARK SMILES IDX 6 1 7 2 8 3 5 4 2 5 3 6 19 7 4 8 18 9 1 10 20 11 9 12 10 13
REMARK SMILES IDX 11 14 12 15 17 16 13 17 16 18 14 19 15 20
REMARK H PARENT
ROOT
ATOM      1  C   UNL     1       0.300  -1.789   0.602  1.00  0.00     0.186 C 
ATOM      2  O   UNL     1       0.377  -2.635  -0.524  1.00  0.00    -0.356 OA
ATOM      3  C   UNL     1       1.136  -1.450  -0.577  1.00  0.00     0.224 C 
ENDROOT
BRANCH   1   4
ATOM      4  C   UNL     1      -1.033  -1.105   0.683  1.00  0.00    -0.013 A 
ATOM      5  C   UNL     1      -3.530   0.172   0.904  1.00  0.00    -0.015 A 
ATOM      6  C   UNL     1      -3.459  -1.210   0.669  1.00  0.00     0.007 A 
ATOM      7  C   UNL     1      -2.342   0.906   1.060  1.00  0.00     0.126 A 
ATOM      8  C   UNL     1      -2.219  -1.845   0.561  1.00  0.00     0.007 A 
ATOM      9  C   UNL     1      -1.102   0.269   0.952  1.00  0.00     0.046 A 
ATOM     10  C   UNL     1      -4.863   0.849   1.049  1.00  0.00     0.047 C 
ATOM     11  F   UNL     1      -2.384   2.237   1.324  1.00  0.00    -0.207 F 
ENDBRANCH   1   4
BRANCH   3  12
ATOM     12  C   UNL     1       2.603  -1.732  -0.430  1.00  0.00     0.194 C 
ATOM     13  O   UNL     1       3.071  -2.788  -0.936  1.00  0.00    -0.291 OA
BRANCH  12  14
ATOM     14  C   UNL     1       3.506  -0.788   0.274  1.00  0.00     0.021 A 
ATOM     15  C   UNL     1       4.816  -1.180   0.610  1.00  0.00     0.015 A 
ATOM     16  C   UNL     1       3.079   0.510   0.615  1.00  0.00     0.015 A 
ATOM     17  C   UNL     1       5.673  -0.299   1.277  1.00  0.00     0.040 A 
ATOM     18  C   UNL     1       3.940   1.388   1.282  1.00  0.00     0.040 A 
ATOM     19  C   UNL     1       5.235   0.984   1.614  1.00  0.00     0.123 A 
ATOM     20  F   UNL     1       6.067   1.837   2.260  1.00  0.00    -0.207 F 
ENDBRANCH  12  14
ENDBRANCH   3  12
TORSDOF 3


