REMARK SMILES Cc1ccc(Nc2ccc3cc[nH]c3c2O/C(O)=N/c2ccc(C#N)c(C#N)c2)cc1
REMARK SMILES IDX 17 1 18 2 19 4 20 5 21 6 29 7 22 8 26 9 23 10 27 11 28 12
REMARK SMILES IDX 24 13 25 14 16 15 15 16 7 17 14 18 8 19 13 20 10 21 9 22
REMARK SMILES IDX 12 23 11 24 6 26 5 28 4 29 30 30 3 31 31 32 2 33 1 34
REMARK H PARENT 18 3 13 25 6 27
ROOT
ATOM      1  C   UNL     1      -1.477   0.076  -0.138  1.00  0.00     0.392 C 
ENDROOT
BRANCH   1   2
ATOM      2  O   UNL     1      -2.522  -0.842  -0.106  1.00  0.00    -0.466 OA
ATOM      3  H   UNL     1      -3.371  -0.639   0.407  1.00  0.00     0.298 HD
ENDBRANCH   1   2
BRANCH   1   4
ATOM      4  N   UNL     1      -0.377  -0.185  -0.784  1.00  0.00    -0.179 NA
BRANCH   4   5
ATOM      5  C   UNL     1      -0.055  -1.426  -1.429  1.00  0.00     0.072 A 
ATOM      6  C   UNL     1       0.679  -1.396  -2.619  1.00  0.00     0.030 A 
ATOM      7  C   UNL     1      -0.366  -2.666  -0.841  1.00  0.00     0.049 A 
ATOM      8  C   UNL     1       1.056  -2.584  -3.249  1.00  0.00     0.023 A 
ATOM      9  C   UNL     1       0.013  -3.862  -1.465  1.00  0.00     0.072 A 
ATOM     10  C   UNL     1       0.723  -3.822  -2.682  1.00  0.00     0.070 A 
BRANCH   9  11
ATOM     11  C   UNL     1      -0.321  -5.116  -0.831  1.00  0.00     0.101 C 
ATOM     12  N   UNL     1      -0.588  -6.120  -0.322  1.00  0.00    -0.192 NA
ENDBRANCH   9  11
BRANCH  10  13
ATOM     13  C   UNL     1       1.130  -5.032  -3.355  1.00  0.00     0.101 C 
ATOM     14  N   UNL     1       1.457  -6.003  -3.895  1.00  0.00    -0.192 NA
ENDBRANCH  10  13
ENDBRANCH   4   5
ENDBRANCH   1   4
BRANCH   1  15
ATOM     15  O   UNL     1      -1.622   1.286   0.552  1.00  0.00    -0.407 OA
BRANCH  15  16
ATOM     16  C   UNL     1      -0.682   2.324   0.512  1.00  0.00     0.180 A 
ATOM     17  C   UNL     1      -0.079   2.793   1.706  1.00  0.00     0.084 A 
ATOM     18  C   UNL     1      -0.344   2.966  -0.687  1.00  0.00     0.091 A 
ATOM     19  C   UNL     1       0.799   3.902   1.665  1.00  0.00     0.031 A 
ATOM     20  N   UNL     1      -0.816   2.714  -1.921  1.00  0.00    -0.358 N 
ATOM     21  C   UNL     1       0.527   4.022  -0.713  1.00  0.00     0.003 A 
ATOM     22  C   UNL     1       1.116   4.523   0.445  1.00  0.00     0.013 A 
ATOM     23  C   UNL     1      -0.221   3.612  -2.738  1.00  0.00     0.083 A 
ATOM     24  C   UNL     1       0.626   4.448  -2.019  1.00  0.00     0.028 A 
ATOM     25  H   UNL     1      -1.513   1.989  -2.202  1.00  0.00     0.166 HD
BRANCH  17  26
ATOM     26  N   UNL     1      -0.346   2.156   2.965  1.00  0.00    -0.352 N 
ATOM     27  H   UNL     1      -0.539   2.760   3.796  1.00  0.00     0.167 HD
BRANCH  26  28
ATOM     28  C   UNL     1      -0.303   0.730   3.144  1.00  0.00     0.038 A 
ATOM     29  C   UNL     1      -1.134   0.123   4.095  1.00  0.00     0.026 A 
ATOM     30  C   UNL     1       0.576  -0.068   2.391  1.00  0.00     0.026 A 
ATOM     31  C   UNL     1      -1.131  -1.267   4.252  1.00  0.00     0.005 A 
ATOM     32  C   UNL     1       0.580  -1.456   2.547  1.00  0.00     0.005 A 
ATOM     33  C   UNL     1      -0.292  -2.066   3.459  1.00  0.00    -0.051 A 
ATOM     34  C   UNL     1      -0.276  -3.556   3.634  1.00  0.00     0.044 C 
ENDBRANCH  26  28
ENDBRANCH  17  26
ENDBRANCH  15  16
ENDBRANCH   1  15
TORSDOF 9


