REMARK SMILES Cc1c(F)cc(Nc2cccc(N)c2[O-])c2cc(-c3[nH+]c[nH+]cc3F)[nH]c12
REMARK SMILES IDX 7 1 6 3 2 4 3 5 27 6 5 7 26 8 16 9 18 10 17 11 1 12 4 13
REMARK SMILES IDX 19 15 20 16 24 17 21 18 23 19 22 20 25 22 8 24 9 25 14 26
REMARK SMILES IDX 10 27 12 28 11 29 15 30 13 31
REMARK H PARENT 7 2 26 14 20 21 22 23 13 32 13 33
ROOT
ATOM      1  N   UNL     1      -0.458  -1.529  -3.209  1.00  0.00    -0.355 N 
ATOM      2  H   UNL     1      -1.145  -1.997  -3.842  1.00  0.00     0.167 HD
ENDROOT
BRANCH   1   3
ATOM      3  C   UNL     1       0.545  -2.353  -2.592  1.00  0.00     0.051 A 
ATOM      4  C   UNL     1       2.528  -4.011  -1.388  1.00  0.00     0.009 A 
ATOM      5  C   UNL     1       2.121  -4.226  -2.725  1.00  0.00     0.130 A 
ATOM      6  C   UNL     1       1.898  -2.978  -0.679  1.00  0.00     0.054 A 
ATOM      7  C   UNL     1       1.134  -3.407  -3.314  1.00  0.00     0.066 A 
ATOM      8  N   UNL     1       2.093  -2.632   0.607  1.00  0.00    -0.349 N 
ATOM      9  C   UNL     1       0.941  -2.181  -1.258  1.00  0.00     0.024 A 
ATOM     10  C   UNL     1       1.238  -1.610   0.852  1.00  0.00     0.116 A 
ATOM     11  C   UNL     1       0.501  -1.303  -0.287  1.00  0.00     0.045 A 
ATOM     12  C   UNL     1       3.564  -4.878  -0.730  1.00  0.00     0.050 C 
ATOM     13  F   UNL     1       2.669  -5.224  -3.462  1.00  0.00    -0.207 F 
ATOM     14  H   UNL     1       2.782  -3.053   1.268  1.00  0.00     0.167 HD
BRANCH  10  15
ATOM     15  C   UNL     1       1.126  -0.904   2.150  1.00  0.00     0.274 A 
ATOM     16  N   UNL     1       0.794   0.420   2.176  1.00  0.00    -0.151 N 
ATOM     17  C   UNL     1       1.343  -1.576   3.364  1.00  0.00     0.260 A 
ATOM     18  C   UNL     1       0.685   1.095   3.351  1.00  0.00     0.629 A 
ATOM     19  C   UNL     1       1.224  -0.862   4.556  1.00  0.00     0.358 A 
ATOM     20  N   UNL     1       0.901   0.456   4.530  1.00  0.00    -0.159 N 
ATOM     21  H   UNL     1       0.635   0.946   1.287  1.00  0.00     0.460 HD
ATOM     22  F   UNL     1       1.616  -2.904   3.408  1.00  0.00    -0.193 F 
ATOM     23  H   UNL     1       0.814   0.984   5.427  1.00  0.00     0.459 HD
ENDBRANCH  10  15
ENDBRANCH   1   3
BRANCH   1  24
ATOM     24  C   UNL     1      -0.495  -0.095  -3.103  1.00  0.00     0.032 A 
ATOM     25  C   UNL     1       0.684   0.644  -2.895  1.00  0.00     0.025 A 
ATOM     26  C   UNL     1      -1.718   0.587  -3.246  1.00  0.00    -0.061 A 
ATOM     27  C   UNL     1       0.638   2.036  -2.803  1.00  0.00     0.004 A 
ATOM     28  C   UNL     1      -1.762   1.991  -3.156  1.00  0.00     0.025 A 
ATOM     29  C   UNL     1      -0.578   2.708  -2.930  1.00  0.00     0.025 A 
ATOM     30  O   UNL     1      -2.889  -0.132  -3.465  1.00  0.00    -0.870 OA
BRANCH  28  31
ATOM     31  N   UNL     1      -3.002   2.694  -3.290  1.00  0.00    -0.399 N 
ATOM     32  H   UNL     1      -3.899   2.187  -3.458  1.00  0.00     0.156 HD
ATOM     33  H   UNL     1      -3.033   3.736  -3.222  1.00  0.00     0.156 HD
ENDBRANCH  28  31
ENDBRANCH   1  24
TORSDOF 4


