MODEL 1
REMARK VINA RESULT:      -7.2      0.000      0.000
REMARK SMILES C#CC[NH2+][C@@H](C=C)C(=O)[N@@H+]1N[C@H](C)O[C@H]1c1ccc2cc(C)[nH]c2c1
REMARK SMILES IDX 5 1 4 2 3 5 2 6 1 7 6 8 7 9 8 10 9 11 10 12 11 13 15 14
REMARK SMILES IDX 12 15 14 16 13 19 16 20 17 21 25 22 18 23 24 24 19 25 23 26
REMARK SMILES IDX 20 27 21 28 22 30
REMARK H PARENT 4 3 4 4 10 17 11 18 23 29
ROOT
ATOM      1  C   UNL     1      44.499 130.086  21.509  1.00  0.00     0.339 C 
ENDROOT
BRANCH   1   2
ATOM      2  N   UNL     1      45.416 129.093  22.108  1.00  0.00    -0.319 N 
ATOM      3  H   UNL     1      46.306 129.079  21.554  1.00  0.00     0.348 HD
ATOM      4  H   UNL     1      45.644 129.366  23.096  1.00  0.00     0.348 HD
BRANCH   2   5
ATOM      5  C   UNL     1      44.839 127.739  22.092  1.00  0.00     0.353 C 
BRANCH   5   6
ATOM      6  C   UNL     1      45.902 126.726  22.156  1.00  0.00    -0.047 C 
ATOM      7  C   UNL     1      46.774 125.895  22.209  1.00  0.00     0.010 C 
ENDBRANCH   5   6
ENDBRANCH   2   5
ENDBRANCH   1   2
BRANCH   1   8
ATOM      8  C   UNL     1      43.922 131.004  22.567  1.00  0.00     0.044 C 
ATOM      9  C   UNL     1      43.325 130.532  23.665  1.00  0.00     0.011 C 
ENDBRANCH   1   8
BRANCH   1  10
ATOM     10  C   UNL     1      45.236 130.928  20.487  1.00  0.00     0.395 C 
ATOM     11  O   UNL     1      46.426 130.715  20.283  1.00  0.00    -0.221 OA
BRANCH  10  12
ATOM     12  N   UNL     1      44.549 131.965  19.745  1.00  0.00    -0.158 N 
ATOM     13  N   UNL     1      43.712 132.675  20.618  1.00  0.00    -0.130 NA
ATOM     14  C   UNL     1      43.640 131.414  18.734  1.00  0.00     0.384 C 
ATOM     15  C   UNL     1      42.551 133.046  19.810  1.00  0.00     0.240 C 
ATOM     16  O   UNL     1      42.544 132.282  18.627  1.00  0.00    -0.300 OA
ATOM     17  H   UNL     1      45.231 132.634  19.308  1.00  0.00     0.384 HD
ATOM     18  H   UNL     1      44.203 133.543  20.943  1.00  0.00     0.191 HD
ATOM     19  C   UNL     1      41.272 132.790  20.597  1.00  0.00     0.062 C 
BRANCH  14  20
ATOM     20  C   UNL     1      44.327 131.264  17.394  1.00  0.00     0.043 A 
ATOM     21  C   UNL     1      43.698 131.750  16.219  1.00  0.00     0.013 A 
ATOM     22  C   UNL     1      45.563 130.585  17.295  1.00  0.00     0.039 A 
ATOM     23  C   UNL     1      44.295 131.574  14.958  1.00  0.00     0.011 A 
ATOM     24  C   UNL     1      46.129 130.431  16.033  1.00  0.00     0.046 A 
ATOM     25  C   UNL     1      45.516 130.909  14.905  1.00  0.00    -0.000 A 
ATOM     26  N   UNL     1      47.279 129.809  15.725  1.00  0.00    -0.359 N 
ATOM     27  C   UNL     1      46.310 130.578  13.828  1.00  0.00     0.031 A 
ATOM     28  C   UNL     1      47.397 129.907  14.380  1.00  0.00     0.013 A 
ATOM     29  H   UNL     1      47.937 129.336  16.384  1.00  0.00     0.166 HD
ATOM     30  C   UNL     1      48.506 129.283  13.598  1.00  0.00     0.064 C 
ENDBRANCH  14  20
ENDBRANCH  10  12
ENDBRANCH   1  10
TORSDOF 7
ENDMDL
MODEL 2
REMARK VINA RESULT:      -7.0      0.813      1.169
REMARK SMILES C#CC[NH2+][C@@H](C=C)C(=O)[N@@H+]1N[C@H](C)O[C@H]1c1ccc2cc(C)[nH]c2c1
REMARK SMILES IDX 5 1 4 2 3 5 2 6 1 7 6 8 7 9 8 10 9 11 10 12 11 13 15 14
REMARK SMILES IDX 12 15 14 16 13 19 16 20 17 21 25 22 18 23 24 24 19 25 23 26
REMARK SMILES IDX 20 27 21 28 22 30
REMARK H PARENT 4 3 4 4 10 17 11 18 23 29
ROOT
ATOM      1  C   UNL     1      44.213 130.425  21.820  1.00  0.00     0.339 C 
ENDROOT
BRANCH   1   2
ATOM      2  N   UNL     1      45.157 129.553  22.549  1.00  0.00    -0.319 N 
ATOM      3  H   UNL     1      46.111 129.665  22.130  1.00  0.00     0.348 HD
ATOM      4  H   UNL     1      45.202 129.837  23.558  1.00  0.00     0.348 HD
BRANCH   2   5
ATOM      5  C   UNL     1      44.775 128.134  22.454  1.00  0.00     0.353 C 
BRANCH   5   6
ATOM      6  C   UNL     1      43.694 127.827  23.401  1.00  0.00    -0.047 C 
ATOM      7  C   UNL     1      42.808 127.576  24.179  1.00  0.00     0.010 C 
ENDBRANCH   5   6
ENDBRANCH   2   5
ENDBRANCH   1   2
BRANCH   1   8
ATOM      8  C   UNL     1      43.652 131.500  22.727  1.00  0.00     0.044 C 
ATOM      9  C   UNL     1      43.595 131.350  24.053  1.00  0.00     0.011 C 
ENDBRANCH   1   8
BRANCH   1  10
ATOM     10  C   UNL     1      44.910 131.090  20.651  1.00  0.00     0.395 C 
ATOM     11  O   UNL     1      46.055 130.755  20.369  1.00  0.00    -0.221 OA
BRANCH  10  12
ATOM     12  N   UNL     1      44.237 132.102  19.863  1.00  0.00    -0.158 N 
ATOM     13  N   UNL     1      43.371 132.829  20.693  1.00  0.00    -0.130 NA
ATOM     14  C   UNL     1      43.360 131.517  18.842  1.00  0.00     0.384 C 
ATOM     15  C   UNL     1      42.232 133.169  19.843  1.00  0.00     0.240 C 
ATOM     16  O   UNL     1      42.263 132.374  18.682  1.00  0.00    -0.300 OA
ATOM     17  H   UNL     1      44.927 132.763  19.427  1.00  0.00     0.384 HD
ATOM     18  H   UNL     1      43.848 133.709  21.008  1.00  0.00     0.191 HD
ATOM     19  C   UNL     1      40.933 132.925  20.601  1.00  0.00     0.062 C 
BRANCH  14  20
ATOM     20  C   UNL     1      44.085 131.337  17.527  1.00  0.00     0.043 A 
ATOM     21  C   UNL     1      43.491 131.797  16.323  1.00  0.00     0.013 A 
ATOM     22  C   UNL     1      45.322 130.654  17.479  1.00  0.00     0.039 A 
ATOM     23  C   UNL     1      44.124 131.592  15.084  1.00  0.00     0.011 A 
ATOM     24  C   UNL     1      45.924 130.470  16.237  1.00  0.00     0.046 A 
ATOM     25  C   UNL     1      45.345 130.924  15.081  1.00  0.00    -0.000 A 
ATOM     26  N   UNL     1      47.082 129.840  15.976  1.00  0.00    -0.359 N 
ATOM     27  C   UNL     1      46.169 130.567  14.035  1.00  0.00     0.031 A 
ATOM     28  C   UNL     1      47.238 129.908  14.633  1.00  0.00     0.013 A 
ATOM     29  H   UNL     1      47.719 129.381  16.665  1.00  0.00     0.166 HD
ATOM     30  C   UNL     1      48.368 129.265  13.898  1.00  0.00     0.064 C 
ENDBRANCH  14  20
ENDBRANCH  10  12
ENDBRANCH   1  10
TORSDOF 7
ENDMDL
MODEL 3
REMARK VINA RESULT:      -6.5      0.915      2.057
REMARK SMILES C#CC[NH2+][C@@H](C=C)C(=O)[N@@H+]1N[C@H](C)O[C@H]1c1ccc2cc(C)[nH]c2c1
REMARK SMILES IDX 5 1 4 2 3 5 2 6 1 7 6 8 7 9 8 10 9 11 10 12 11 13 15 14
REMARK SMILES IDX 12 15 14 16 13 19 16 20 17 21 25 22 18 23 24 24 19 25 23 26
REMARK SMILES IDX 20 27 21 28 22 30
REMARK H PARENT 4 3 4 4 10 17 11 18 23 29
ROOT
ATOM      1  C   UNL     1      45.146 130.579  21.758  1.00  0.00     0.339 C 
ENDROOT
BRANCH   1   2
ATOM      2  N   UNL     1      43.838 131.088  22.221  1.00  0.00    -0.319 N 
ATOM      3  H   UNL     1      43.759 132.101  21.960  1.00  0.00     0.348 HD
ATOM      4  H   UNL     1      43.061 130.563  21.750  1.00  0.00     0.348 HD
BRANCH   2   5
ATOM      5  C   UNL     1      43.693 130.974  23.681  1.00  0.00     0.353 C 
BRANCH   5   6
ATOM      6  C   UNL     1      42.644 130.003  24.021  1.00  0.00    -0.047 C 
ATOM      7  C   UNL     1      41.783 129.206  24.299  1.00  0.00     0.010 C 
ENDBRANCH   5   6
ENDBRANCH   2   5
ENDBRANCH   1   2
BRANCH   1   8
ATOM      8  C   UNL     1      45.047 129.129  21.331  1.00  0.00     0.044 C 
ATOM      9  C   UNL     1      45.150 128.125  22.206  1.00  0.00     0.011 C 
ENDBRANCH   1   8
BRANCH   1  10
ATOM     10  C   UNL     1      45.640 131.399  20.583  1.00  0.00     0.395 C 
ATOM     11  O   UNL     1      46.826 131.347  20.276  1.00  0.00    -0.221 OA
BRANCH  10  12
ATOM     12  N   UNL     1      44.729 132.226  19.820  1.00  0.00    -0.158 N 
ATOM     13  N   UNL     1      43.836 132.856  20.698  1.00  0.00    -0.130 NA
ATOM     14  C   UNL     1      43.872 131.433  18.932  1.00  0.00     0.384 C 
ATOM     15  C   UNL     1      42.577 132.941  19.958  1.00  0.00     0.240 C 
ATOM     16  O   UNL     1      42.632 132.082  18.845  1.00  0.00    -0.300 OA
ATOM     17  H   UNL     1      45.249 132.960  19.277  1.00  0.00     0.384 HD
ATOM     18  H   UNL     1      44.181 133.823  20.912  1.00  0.00     0.191 HD
ATOM     19  C   UNL     1      41.420 132.538  20.863  1.00  0.00     0.062 C 
BRANCH  14  20
ATOM     20  C   UNL     1      44.486 131.282  17.558  1.00  0.00     0.043 A 
ATOM     21  C   UNL     1      43.801 131.778  16.418  1.00  0.00     0.013 A 
ATOM     22  C   UNL     1      45.709 130.592  17.391  1.00  0.00     0.039 A 
ATOM     23  C   UNL     1      44.329 131.601  15.127  1.00  0.00     0.011 A 
ATOM     24  C   UNL     1      46.206 130.437  16.100  1.00  0.00     0.046 A 
ATOM     25  C   UNL     1      45.540 130.926  15.008  1.00  0.00    -0.000 A 
ATOM     26  N   UNL     1      47.334 129.807  15.730  1.00  0.00    -0.359 N 
ATOM     27  C   UNL     1      46.273 130.591  13.890  1.00  0.00     0.031 A 
ATOM     28  C   UNL     1      47.381 129.909  14.381  1.00  0.00     0.013 A 
ATOM     29  H   UNL     1      48.021 129.325  16.353  1.00  0.00     0.166 HD
ATOM     30  C   UNL     1      48.442 129.278  13.540  1.00  0.00     0.064 C 
ENDBRANCH  14  20
ENDBRANCH  10  12
ENDBRANCH   1  10
TORSDOF 7
ENDMDL
MODEL 4
REMARK VINA RESULT:      -5.6      1.108      1.417
REMARK SMILES C#CC[NH2+][C@@H](C=C)C(=O)[N@@H+]1N[C@H](C)O[C@H]1c1ccc2cc(C)[nH]c2c1
REMARK SMILES IDX 5 1 4 2 3 5 2 6 1 7 6 8 7 9 8 10 9 11 10 12 11 13 15 14
REMARK SMILES IDX 12 15 14 16 13 19 16 20 17 21 25 22 18 23 24 24 19 25 23 26
REMARK SMILES IDX 20 27 21 28 22 30
REMARK H PARENT 4 3 4 4 10 17 11 18 23 29
ROOT
ATOM      1  C   UNL     1      44.395 130.266  21.457  1.00  0.00     0.339 C 
ENDROOT
BRANCH   1   2
ATOM      2  N   UNL     1      45.348 129.515  22.301  1.00  0.00    -0.319 N 
ATOM      3  H   UNL     1      46.305 129.594  21.880  1.00  0.00     0.348 HD
ATOM      4  H   UNL     1      45.375 129.926  23.266  1.00  0.00     0.348 HD
BRANCH   2   5
ATOM      5  C   UNL     1      44.997 128.088  22.384  1.00  0.00     0.353 C 
BRANCH   5   6
ATOM      6  C   UNL     1      43.753 127.907  23.145  1.00  0.00    -0.047 C 
ATOM      7  C   UNL     1      42.733 127.760  23.771  1.00  0.00     0.010 C 
ENDBRANCH   5   6
ENDBRANCH   2   5
ENDBRANCH   1   2
BRANCH   1   8
ATOM      8  C   UNL     1      43.793 131.429  22.217  1.00  0.00     0.044 C 
ATOM      9  C   UNL     1      42.828 131.259  23.124  1.00  0.00     0.011 C 
ENDBRANCH   1   8
BRANCH   1  10
ATOM     10  C   UNL     1      45.097 130.801  20.225  1.00  0.00     0.395 C 
ATOM     11  O   UNL     1      46.208 130.372  19.936  1.00  0.00    -0.221 OA
BRANCH  10  12
ATOM     12  N   UNL     1      44.465 131.799  19.387  1.00  0.00    -0.158 N 
ATOM     13  N   UNL     1      43.344 132.315  20.053  1.00  0.00    -0.130 NA
ATOM     14  C   UNL     1      43.923 131.223  18.151  1.00  0.00     0.384 C 
ATOM     15  C   UNL     1      42.375 132.599  18.995  1.00  0.00     0.240 C 
ATOM     16  O   UNL     1      42.771 131.946  17.813  1.00  0.00    -0.300 OA
ATOM     17  H   UNL     1      45.126 132.587  19.172  1.00  0.00     0.384 HD
ATOM     18  H   UNL     1      43.606 133.209  20.535  1.00  0.00     0.191 HD
ATOM     19  C   UNL     1      40.994 132.110  19.417  1.00  0.00     0.062 C 
BRANCH  14  20
ATOM     20  C   UNL     1      44.931 131.281  17.024  1.00  0.00     0.043 A 
ATOM     21  C   UNL     1      45.150 132.501  16.332  1.00  0.00     0.013 A 
ATOM     22  C   UNL     1      45.612 130.113  16.611  1.00  0.00     0.039 A 
ATOM     23  C   UNL     1      46.043 132.563  15.249  1.00  0.00     0.011 A 
ATOM     24  C   UNL     1      46.492 130.209  15.537  1.00  0.00     0.046 A 
ATOM     25  C   UNL     1      46.700 131.393  14.880  1.00  0.00    -0.000 A 
ATOM     26  N   UNL     1      47.218 129.222  14.986  1.00  0.00    -0.359 N 
ATOM     27  C   UNL     1      47.598 131.152  13.863  1.00  0.00     0.031 A 
ATOM     28  C   UNL     1      47.902 129.799  13.970  1.00  0.00     0.013 A 
ATOM     29  H   UNL     1      47.237 128.218  15.271  1.00  0.00     0.166 HD
ATOM     30  C   UNL     1      48.787 129.042  13.034  1.00  0.00     0.064 C 
ENDBRANCH  14  20
ENDBRANCH  10  12
ENDBRANCH   1  10
TORSDOF 7
ENDMDL
MODEL 5
REMARK VINA RESULT:      -5.5      2.153      3.628
REMARK SMILES C#CC[NH2+][C@@H](C=C)C(=O)[N@@H+]1N[C@H](C)O[C@H]1c1ccc2cc(C)[nH]c2c1
REMARK SMILES IDX 5 1 4 2 3 5 2 6 1 7 6 8 7 9 8 10 9 11 10 12 11 13 15 14
REMARK SMILES IDX 12 15 14 16 13 19 16 20 17 21 25 22 18 23 24 24 19 25 23 26
REMARK SMILES IDX 20 27 21 28 22 30
REMARK H PARENT 4 3 4 4 10 17 11 18 23 29
ROOT
ATOM      1  C   UNL     1      44.832 127.636  23.369  1.00  0.00     0.339 C 
ENDROOT
BRANCH   1   2
ATOM      2  N   UNL     1      43.472 127.114  23.119  1.00  0.00    -0.319 N 
ATOM      3  H   UNL     1      42.987 127.749  22.440  1.00  0.00     0.348 HD
ATOM      4  H   UNL     1      43.528 126.155  22.696  1.00  0.00     0.348 HD
BRANCH   2   5
ATOM      5  C   UNL     1      42.673 127.061  24.354  1.00  0.00     0.353 C 
BRANCH   5   6
ATOM      6  C   UNL     1      41.522 126.162  24.185  1.00  0.00    -0.047 C 
ATOM      7  C   UNL     1      40.578 125.426  24.045  1.00  0.00     0.010 C 
ENDBRANCH   5   6
ENDBRANCH   2   5
ENDBRANCH   1   2
BRANCH   1   8
ATOM      8  C   UNL     1      45.840 126.510  23.465  1.00  0.00     0.044 C 
ATOM      9  C   UNL     1      45.469 125.242  23.664  1.00  0.00     0.011 C 
ENDBRANCH   1   8
BRANCH   1  10
ATOM     10  C   UNL     1      45.249 128.566  22.247  1.00  0.00     0.395 C 
ATOM     11  O   UNL     1      45.802 128.098  21.258  1.00  0.00    -0.221 OA
BRANCH  10  12
ATOM     12  N   UNL     1      44.992 129.989  22.328  1.00  0.00    -0.158 N 
ATOM     13  N   UNL     1      44.730 130.332  23.662  1.00  0.00    -0.130 NA
ATOM     14  C   UNL     1      43.776 130.375  21.605  1.00  0.00     0.384 C 
ATOM     15  C   UNL     1      43.745 131.410  23.587  1.00  0.00     0.240 C 
ATOM     16  O   UNL     1      43.192 131.448  22.293  1.00  0.00    -0.300 OA
ATOM     17  H   UNL     1      45.818 130.543  21.990  1.00  0.00     0.384 HD
ATOM     18  H   UNL     1      45.608 130.691  24.109  1.00  0.00     0.191 HD
ATOM     19  C   UNL     1      42.643 131.174  24.613  1.00  0.00     0.062 C 
BRANCH  14  20
ATOM     20  C   UNL     1      44.082 130.768  20.177  1.00  0.00     0.043 A 
ATOM     21  C   UNL     1      43.225 131.671  19.493  1.00  0.00     0.013 A 
ATOM     22  C   UNL     1      45.179 130.194  19.495  1.00  0.00     0.039 A 
ATOM     23  C   UNL     1      43.462 132.008  18.149  1.00  0.00     0.011 A 
ATOM     24  C   UNL     1      45.387 130.552  18.165  1.00  0.00     0.046 A 
ATOM     25  C   UNL     1      44.558 131.429  17.517  1.00  0.00    -0.000 A 
ATOM     26  N   UNL     1      46.355 130.111  17.344  1.00  0.00    -0.359 N 
ATOM     27  C   UNL     1      45.016 131.553  16.223  1.00  0.00     0.031 A 
ATOM     28  C   UNL     1      46.136 130.730  16.160  1.00  0.00     0.013 A 
ATOM     29  H   UNL     1      47.108 129.423  17.568  1.00  0.00     0.166 HD
ATOM     30  C   UNL     1      46.943 130.473  14.930  1.00  0.00     0.064 C 
ENDBRANCH  14  20
ENDBRANCH  10  12
ENDBRANCH   1  10
TORSDOF 7
ENDMDL
MODEL 6
REMARK VINA RESULT:      -5.3      1.632      2.708
REMARK SMILES C#CC[NH2+][C@@H](C=C)C(=O)[N@@H+]1N[C@H](C)O[C@H]1c1ccc2cc(C)[nH]c2c1
REMARK SMILES IDX 5 1 4 2 3 5 2 6 1 7 6 8 7 9 8 10 9 11 10 12 11 13 15 14
REMARK SMILES IDX 12 15 14 16 13 19 16 20 17 21 25 22 18 23 24 24 19 25 23 26
REMARK SMILES IDX 20 27 21 28 22 30
REMARK H PARENT 4 3 4 4 10 17 11 18 23 29
ROOT
ATOM      1  C   UNL     1      45.507 130.857  21.516  1.00  0.00     0.339 C 
ENDROOT
BRANCH   1   2
ATOM      2  N   UNL     1      45.705 132.278  21.870  1.00  0.00    -0.319 N 
ATOM      3  H   UNL     1      44.819 132.801  21.669  1.00  0.00     0.348 HD
ATOM      4  H   UNL     1      45.918 132.366  22.894  1.00  0.00     0.348 HD
BRANCH   2   5
ATOM      5  C   UNL     1      46.791 132.889  21.087  1.00  0.00     0.353 C 
BRANCH   5   6
ATOM      6  C   UNL     1      47.573 133.811  21.923  1.00  0.00    -0.047 C 
ATOM      7  C   UNL     1      48.213 134.567  22.610  1.00  0.00     0.010 C 
ENDBRANCH   5   6
ENDBRANCH   2   5
ENDBRANCH   1   2
BRANCH   1   8
ATOM      8  C   UNL     1      44.379 130.246  22.321  1.00  0.00     0.044 C 
ATOM      9  C   UNL     1      43.122 130.686  22.226  1.00  0.00     0.011 C 
ENDBRANCH   1   8
BRANCH   1  10
ATOM     10  C   UNL     1      45.178 130.725  20.043  1.00  0.00     0.395 C 
ATOM     11  O   UNL     1      45.415 129.668  19.469  1.00  0.00    -0.221 OA
BRANCH  10  12
ATOM     12  N   UNL     1      44.579 131.825  19.315  1.00  0.00    -0.158 N 
ATOM     13  N   UNL     1      43.729 132.536  20.176  1.00  0.00    -0.130 NA
ATOM     14  C   UNL     1      43.701 131.363  18.234  1.00  0.00     0.384 C 
ATOM     15  C   UNL     1      42.632 132.997  19.326  1.00  0.00     0.240 C 
ATOM     16  O   UNL     1      42.654 132.287  18.111  1.00  0.00    -0.300 OA
ATOM     17  H   UNL     1      45.313 132.479  18.945  1.00  0.00     0.384 HD
ATOM     18  H   UNL     1      44.241 133.364  20.565  1.00  0.00     0.191 HD
ATOM     19  C   UNL     1      41.302 132.768  20.034  1.00  0.00     0.062 C 
BRANCH  14  20
ATOM     20  C   UNL     1      44.452 131.240  16.926  1.00  0.00     0.043 A 
ATOM     21  C   UNL     1      43.885 131.761  15.734  1.00  0.00     0.013 A 
ATOM     22  C   UNL     1      45.685 130.550  16.871  1.00  0.00     0.039 A 
ATOM     23  C   UNL     1      44.542 131.610  14.500  1.00  0.00     0.011 A 
ATOM     24  C   UNL     1      46.310 130.420  15.633  1.00  0.00     0.046 A 
ATOM     25  C   UNL     1      45.758 130.933  14.489  1.00  0.00    -0.000 A 
ATOM     26  N   UNL     1      47.469 129.795  15.367  1.00  0.00    -0.359 N 
ATOM     27  C   UNL     1      46.600 130.620  13.445  1.00  0.00     0.031 A 
ATOM     28  C   UNL     1      47.653 129.925  14.032  1.00  0.00     0.013 A 
ATOM     29  H   UNL     1      48.089 129.298  16.045  1.00  0.00     0.166 HD
ATOM     30  C   UNL     1      48.793 129.308  13.289  1.00  0.00     0.064 C 
ENDBRANCH  14  20
ENDBRANCH  10  12
ENDBRANCH   1  10
TORSDOF 7
ENDMDL
MODEL 7
REMARK VINA RESULT:      -5.1      1.556      2.172
REMARK SMILES C#CC[NH2+][C@@H](C=C)C(=O)[N@@H+]1N[C@H](C)O[C@H]1c1ccc2cc(C)[nH]c2c1
REMARK SMILES IDX 5 1 4 2 3 5 2 6 1 7 6 8 7 9 8 10 9 11 10 12 11 13 15 14
REMARK SMILES IDX 12 15 14 16 13 19 16 20 17 21 25 22 18 23 24 24 19 25 23 26
REMARK SMILES IDX 20 27 21 28 22 30
REMARK H PARENT 4 3 4 4 10 17 11 18 23 29
ROOT
ATOM      1  C   UNL     1      45.322 132.491  21.318  1.00  0.00     0.339 C 
ENDROOT
BRANCH   1   2
ATOM      2  N   UNL     1      45.370 131.467  22.382  1.00  0.00    -0.319 N 
ATOM      3  H   UNL     1      46.129 130.780  22.154  1.00  0.00     0.348 HD
ATOM      4  H   UNL     1      45.595 131.916  23.303  1.00  0.00     0.348 HD
BRANCH   2   5
ATOM      5  C   UNL     1      44.099 130.732  22.490  1.00  0.00     0.353 C 
BRANCH   5   6
ATOM      6  C   UNL     1      44.349 129.297  22.684  1.00  0.00    -0.047 C 
ATOM      7  C   UNL     1      44.553 128.119  22.844  1.00  0.00     0.010 C 
ENDBRANCH   5   6
ENDBRANCH   2   5
ENDBRANCH   1   2
BRANCH   1   8
ATOM      8  C   UNL     1      46.487 133.452  21.433  1.00  0.00     0.044 C 
ATOM      9  C   UNL     1      47.723 133.035  21.721  1.00  0.00     0.011 C 
ENDBRANCH   1   8
BRANCH   1  10
ATOM     10  C   UNL     1      45.369 131.832  19.954  1.00  0.00     0.395 C 
ATOM     11  O   UNL     1      46.181 130.936  19.752  1.00  0.00    -0.221 OA
BRANCH  10  12
ATOM     12  N   UNL     1      44.462 132.239  18.902  1.00  0.00    -0.158 N 
ATOM     13  N   UNL     1      43.205 132.514  19.460  1.00  0.00    -0.130 NA
ATOM     14  C   UNL     1      44.207 131.160  17.941  1.00  0.00     0.384 C 
ATOM     15  C   UNL     1      42.242 132.104  18.440  1.00  0.00     0.240 C 
ATOM     16  O   UNL     1      42.889 131.298  17.484  1.00  0.00    -0.300 OA
ATOM     17  H   UNL     1      44.812 133.099  18.411  1.00  0.00     0.384 HD
ATOM     18  H   UNL     1      43.117 133.545  19.630  1.00  0.00     0.191 HD
ATOM     19  C   UNL     1      41.105 131.323  19.088  1.00  0.00     0.062 C 
BRANCH  14  20
ATOM     20  C   UNL     1      45.175 131.213  16.779  1.00  0.00     0.043 A 
ATOM     21  C   UNL     1      45.312 132.408  16.026  1.00  0.00     0.013 A 
ATOM     22  C   UNL     1      45.899 130.060  16.397  1.00  0.00     0.039 A 
ATOM     23  C   UNL     1      46.167 132.462  14.911  1.00  0.00     0.011 A 
ATOM     24  C   UNL     1      46.739 130.147  15.290  1.00  0.00     0.046 A 
ATOM     25  C   UNL     1      46.868 131.308  14.574  1.00  0.00    -0.000 A 
ATOM     26  N   UNL     1      47.494 129.171  14.760  1.00  0.00    -0.359 N 
ATOM     27  C   UNL     1      47.744 131.062  13.539  1.00  0.00     0.031 A 
ATOM     28  C   UNL     1      48.117 129.731  13.696  1.00  0.00     0.013 A 
ATOM     29  H   UNL     1      47.572 128.183  15.090  1.00  0.00     0.166 HD
ATOM     30  C   UNL     1      49.008 128.974  12.766  1.00  0.00     0.064 C 
ENDBRANCH  14  20
ENDBRANCH  10  12
ENDBRANCH   1  10
TORSDOF 7
ENDMDL
MODEL 8
REMARK VINA RESULT:      -4.9      1.276      2.405
REMARK SMILES C#CC[NH2+][C@@H](C=C)C(=O)[N@@H+]1N[C@H](C)O[C@H]1c1ccc2cc(C)[nH]c2c1
REMARK SMILES IDX 5 1 4 2 3 5 2 6 1 7 6 8 7 9 8 10 9 11 10 12 11 13 15 14
REMARK SMILES IDX 12 15 14 16 13 19 16 20 17 21 25 22 18 23 24 24 19 25 23 26
REMARK SMILES IDX 20 27 21 28 22 30
REMARK H PARENT 4 3 4 4 10 17 11 18 23 29
ROOT
ATOM      1  C   UNL     1      44.982 131.229  21.267  1.00  0.00     0.339 C 
ENDROOT
BRANCH   1   2
ATOM      2  N   UNL     1      43.544 130.888  21.294  1.00  0.00    -0.319 N 
ATOM      3  H   UNL     1      42.988 131.762  21.128  1.00  0.00     0.348 HD
ATOM      4  H   UNL     1      43.323 130.204  20.530  1.00  0.00     0.348 HD
BRANCH   2   5
ATOM      5  C   UNL     1      43.141 130.324  22.592  1.00  0.00     0.353 C 
BRANCH   5   6
ATOM      6  C   UNL     1      42.928 131.395  23.575  1.00  0.00    -0.047 C 
ATOM      7  C   UNL     1      42.754 132.274  24.382  1.00  0.00     0.010 C 
ENDBRANCH   5   6
ENDBRANCH   2   5
ENDBRANCH   1   2
BRANCH   1   8
ATOM      8  C   UNL     1      45.825 130.014  20.942  1.00  0.00     0.044 C 
ATOM      9  C   UNL     1      45.306 128.784  20.893  1.00  0.00     0.011 C 
ENDBRANCH   1   8
BRANCH   1  10
ATOM     10  C   UNL     1      45.247 132.297  20.225  1.00  0.00     0.395 C 
ATOM     11  O   UNL     1      46.366 132.792  20.148  1.00  0.00    -0.221 OA
BRANCH  10  12
ATOM     12  N   UNL     1      44.203 132.724  19.317  1.00  0.00    -0.158 N 
ATOM     13  N   UNL     1      43.138 133.254  20.061  1.00  0.00    -0.130 NA
ATOM     14  C   UNL     1      43.612 131.600  18.582  1.00  0.00     0.384 C 
ATOM     15  C   UNL     1      41.937 132.892  19.310  1.00  0.00     0.240 C 
ATOM     16  O   UNL     1      42.258 131.894  18.371  1.00  0.00    -0.300 OA
ATOM     17  H   UNL     1      44.554 133.459  18.654  1.00  0.00     0.384 HD
ATOM     18  H   UNL     1      43.225 134.298  20.098  1.00  0.00     0.191 HD
ATOM     19  C   UNL     1      40.867 132.377  20.265  1.00  0.00     0.062 C 
BRANCH  14  20
ATOM     20  C   UNL     1      44.315 131.371  17.263  1.00  0.00     0.043 A 
ATOM     21  C   UNL     1      43.691 131.768  16.051  1.00  0.00     0.013 A 
ATOM     22  C   UNL     1      45.561 130.705  17.221  1.00  0.00     0.039 A 
ATOM     23  C   UNL     1      44.303 131.516  14.810  1.00  0.00     0.011 A 
ATOM     24  C   UNL     1      46.142 130.474  15.976  1.00  0.00     0.046 A 
ATOM     25  C   UNL     1      45.534 130.867  14.813  1.00  0.00    -0.000 A 
ATOM     26  N   UNL     1      47.304 129.850  15.722  1.00  0.00    -0.359 N 
ATOM     27  C   UNL     1      46.343 130.475  13.769  1.00  0.00     0.031 A 
ATOM     28  C   UNL     1      47.434 129.859  14.374  1.00  0.00     0.013 A 
ATOM     29  H   UNL     1      47.962 129.431  16.418  1.00  0.00     0.166 HD
ATOM     30  C   UNL     1      48.560 129.200  13.647  1.00  0.00     0.064 C 
ENDBRANCH  14  20
ENDBRANCH  10  12
ENDBRANCH   1  10
TORSDOF 7
ENDMDL
MODEL 9
REMARK VINA RESULT:      -4.6      2.101      3.138
REMARK SMILES C#CC[NH2+][C@@H](C=C)C(=O)[N@@H+]1N[C@H](C)O[C@H]1c1ccc2cc(C)[nH]c2c1
REMARK SMILES IDX 5 1 4 2 3 5 2 6 1 7 6 8 7 9 8 10 9 11 10 12 11 13 15 14
REMARK SMILES IDX 12 15 14 16 13 19 16 20 17 21 25 22 18 23 24 24 19 25 23 26
REMARK SMILES IDX 20 27 21 28 22 30
REMARK H PARENT 4 3 4 4 10 17 11 18 23 29
ROOT
ATOM      1  C   UNL     1      46.041 131.851  21.570  1.00  0.00     0.339 C 
ENDROOT
BRANCH   1   2
ATOM      2  N   UNL     1      46.345 133.291  21.438  1.00  0.00    -0.319 N 
ATOM      3  H   UNL     1      46.171 133.583  20.446  1.00  0.00     0.348 HD
ATOM      4  H   UNL     1      45.714 133.850  22.063  1.00  0.00     0.348 HD
BRANCH   2   5
ATOM      5  C   UNL     1      47.749 133.586  21.768  1.00  0.00     0.353 C 
BRANCH   5   6
ATOM      6  C   UNL     1      47.872 134.000  23.173  1.00  0.00    -0.047 C 
ATOM      7  C   UNL     1      47.973 134.339  24.325  1.00  0.00     0.010 C 
ENDBRANCH   5   6
ENDBRANCH   2   5
ENDBRANCH   1   2
BRANCH   1   8
ATOM      8  C   UNL     1      44.883 131.622  22.518  1.00  0.00     0.044 C 
ATOM      9  C   UNL     1      44.122 130.526  22.455  1.00  0.00     0.011 C 
ENDBRANCH   1   8
BRANCH   1  10
ATOM     10  C   UNL     1      45.686 131.265  20.218  1.00  0.00     0.395 C 
ATOM     11  O   UNL     1      46.060 130.132  19.942  1.00  0.00    -0.221 OA
BRANCH  10  12
ATOM     12  N   UNL     1      44.903 132.023  19.264  1.00  0.00    -0.158 N 
ATOM     13  N   UNL     1      43.997 132.838  19.958  1.00  0.00    -0.130 NA
ATOM     14  C   UNL     1      44.057 131.161  18.432  1.00  0.00     0.384 C 
ATOM     15  C   UNL     1      42.810 132.891  19.106  1.00  0.00     0.240 C 
ATOM     16  O   UNL     1      42.883 131.869  18.141  1.00  0.00    -0.300 OA
ATOM     17  H   UNL     1      45.518 132.630  18.667  1.00  0.00     0.384 HD
ATOM     18  H   UNL     1      44.399 133.802  20.056  1.00  0.00     0.191 HD
ATOM     19  C   UNL     1      41.558 132.710  19.956  1.00  0.00     0.062 C 
BRANCH  14  20
ATOM     20  C   UNL     1      44.761 130.761  17.154  1.00  0.00     0.043 A 
ATOM     21  C   UNL     1      44.740 129.408  16.728  1.00  0.00     0.013 A 
ATOM     22  C   UNL     1      45.497 131.715  16.413  1.00  0.00     0.039 A 
ATOM     23  C   UNL     1      45.431 129.005  15.572  1.00  0.00     0.011 A 
ATOM     24  C   UNL     1      46.168 131.284  15.271  1.00  0.00     0.046 A 
ATOM     25  C   UNL     1      46.135 129.976  14.866  1.00  0.00    -0.000 A 
ATOM     26  N   UNL     1      46.928 132.022  14.445  1.00  0.00    -0.359 N 
ATOM     27  C   UNL     1      46.909 129.873  13.730  1.00  0.00     0.031 A 
ATOM     28  C   UNL     1      47.373 131.164  13.497  1.00  0.00     0.013 A 
ATOM     29  H   UNL     1      47.142 133.042  14.526  1.00  0.00     0.166 HD
ATOM     30  C   UNL     1      48.318 131.552  12.407  1.00  0.00     0.064 C 
ENDBRANCH  14  20
ENDBRANCH  10  12
ENDBRANCH   1  10
TORSDOF 7
ENDMDL


