MODEL 1
REMARK VINA RESULT:      -8.4      0.000      0.000
REMARK SMILES N#Cc1[nH+]c2cnc(/N=C3\[CH]C=CC3)cc2cc1-c1ccc([O-])cc1
REMARK SMILES IDX 8 1 7 2 6 3 5 4 16 5 15 6 17 7 18 8 3 9 4 10 9 12 10 13
REMARK SMILES IDX 11 14 12 15 13 16 14 17 19 18 20 19 25 20 21 21 24 22 22 23
REMARK SMILES IDX 23 24 2 25 1 26
REMARK H PARENT 4 11
ROOT
ATOM      1  C   UNL     1      43.337 131.866  20.848  1.00  0.00     0.152 A 
ATOM      2  N   UNL     1      42.161 132.334  20.344  1.00  0.00    -0.230 NA
ATOM      3  C   UNL     1      41.924 132.412  19.009  1.00  0.00     0.193 A 
ATOM      4  C   UNL     1      42.905 131.999  18.097  1.00  0.00     0.230 A 
ATOM      5  C   UNL     1      44.127 131.508  18.589  1.00  0.00     0.052 A 
ATOM      6  C   UNL     1      44.342 131.439  19.972  1.00  0.00     0.064 A 
ATOM      7  C   UNL     1      45.109 131.093  17.684  1.00  0.00     0.031 A 
ATOM      8  C   UNL     1      44.872 131.162  16.302  1.00  0.00     0.066 A 
ATOM      9  C   UNL     1      43.632 131.674  15.851  1.00  0.00     0.290 A 
ATOM     10  N   UNL     1      42.688 132.072  16.752  1.00  0.00    -0.194 N 
ATOM     11  H   UNL     1      41.778 132.450  16.401  1.00  0.00     0.455 HD
ENDROOT
BRANCH   1  12
ATOM     12  N   UNL     1      43.567 131.780  22.264  1.00  0.00    -0.237 NA
BRANCH  12  13
ATOM     13  C   UNL     1      43.520 130.713  23.009  1.00  0.00     0.032 C 
ATOM     14  C   UNL     1      44.469 129.560  22.953  1.00  0.00     0.069 C 
ATOM     15  C   UNL     1      43.935 128.686  24.035  1.00  0.00    -0.020 C 
ATOM     16  C   UNL     1      42.861 129.202  24.625  1.00  0.00    -0.025 C 
ATOM     17  C   UNL     1      42.477 130.522  24.052  1.00  0.00     0.079 C 
ENDBRANCH  12  13
ENDBRANCH   1  12
BRANCH   8  18
ATOM     18  C   UNL     1      45.926 130.702  15.367  1.00  0.00    -0.011 A 
ATOM     19  C   UNL     1      46.369 129.368  15.386  1.00  0.00     0.008 A 
ATOM     20  C   UNL     1      46.518 131.608  14.468  1.00  0.00     0.008 A 
ATOM     21  C   UNL     1      47.373 128.944  14.511  1.00  0.00    -0.008 A 
ATOM     22  C   UNL     1      47.522 131.180  13.594  1.00  0.00    -0.008 A 
ATOM     23  C   UNL     1      47.949 129.849  13.614  1.00  0.00    -0.109 A 
ATOM     24  O   UNL     1      48.947 129.426  12.744  1.00  0.00    -0.872 OA
ENDBRANCH   8  18
BRANCH   9  25
ATOM     25  C   UNL     1      43.357 131.829  14.441  1.00  0.00     0.170 C 
ATOM     26  N   UNL     1      43.136 131.954  13.312  1.00  0.00    -0.186 NA
ENDBRANCH   9  25
TORSDOF 4
ENDMDL
MODEL 2
REMARK VINA RESULT:      -8.3      0.414      1.053
REMARK SMILES N#Cc1[nH+]c2cnc(/N=C3\[CH]C=CC3)cc2cc1-c1ccc([O-])cc1
REMARK SMILES IDX 8 1 7 2 6 3 5 4 16 5 15 6 17 7 18 8 3 9 4 10 9 12 10 13
REMARK SMILES IDX 11 14 12 15 13 16 14 17 19 18 20 19 25 20 21 21 24 22 22 23
REMARK SMILES IDX 23 24 2 25 1 26
REMARK H PARENT 4 11
ROOT
ATOM      1  C   UNL     1      43.232 131.917  21.036  1.00  0.00     0.152 A 
ATOM      2  N   UNL     1      42.049 132.362  20.528  1.00  0.00    -0.230 NA
ATOM      3  C   UNL     1      41.808 132.418  19.192  1.00  0.00     0.193 A 
ATOM      4  C   UNL     1      42.793 132.005  18.284  1.00  0.00     0.230 A 
ATOM      5  C   UNL     1      44.022 131.537  18.781  1.00  0.00     0.052 A 
ATOM      6  C   UNL     1      44.241 131.491  20.164  1.00  0.00     0.064 A 
ATOM      7  C   UNL     1      45.007 131.123  17.879  1.00  0.00     0.031 A 
ATOM      8  C   UNL     1      44.767 131.170  16.497  1.00  0.00     0.066 A 
ATOM      9  C   UNL     1      43.520 131.658  16.041  1.00  0.00     0.290 A 
ATOM     10  N   UNL     1      42.572 132.057  16.938  1.00  0.00    -0.194 N 
ATOM     11  H   UNL     1      41.656 132.417  16.584  1.00  0.00     0.455 HD
ENDROOT
BRANCH   1  12
ATOM     12  N   UNL     1      43.466 131.854  22.452  1.00  0.00    -0.237 NA
BRANCH  12  13
ATOM     13  C   UNL     1      43.521 130.788  23.198  1.00  0.00     0.032 C 
ATOM     14  C   UNL     1      44.716 130.308  23.956  1.00  0.00     0.069 C 
ATOM     15  C   UNL     1      44.172 129.092  24.624  1.00  0.00    -0.020 C 
ATOM     16  C   UNL     1      42.897 128.869  24.319  1.00  0.00    -0.025 C 
ATOM     17  C   UNL     1      42.346 129.897  23.394  1.00  0.00     0.079 C 
ENDBRANCH  12  13
ENDBRANCH   1  12
BRANCH   8  18
ATOM     18  C   UNL     1      45.826 130.711  15.566  1.00  0.00    -0.011 A 
ATOM     19  C   UNL     1      46.454 131.616  14.693  1.00  0.00     0.008 A 
ATOM     20  C   UNL     1      46.192 129.354  15.526  1.00  0.00     0.008 A 
ATOM     21  C   UNL     1      47.442 131.175  13.809  1.00  0.00    -0.008 A 
ATOM     22  C   UNL     1      47.181 128.916  14.639  1.00  0.00    -0.008 A 
ATOM     23  C   UNL     1      47.807 129.825  13.783  1.00  0.00    -0.109 A 
ATOM     24  O   UNL     1      48.790 129.388  12.903  1.00  0.00    -0.872 OA
ENDBRANCH   8  18
BRANCH   9  25
ATOM     25  C   UNL     1      43.240 131.790  14.630  1.00  0.00     0.170 C 
ATOM     26  N   UNL     1      43.017 131.895  13.500  1.00  0.00    -0.186 NA
ENDBRANCH   9  25
TORSDOF 4
ENDMDL
MODEL 3
REMARK VINA RESULT:      -5.5      1.778      2.443
REMARK SMILES N#Cc1[nH+]c2cnc(/N=C3\[CH]C=CC3)cc2cc1-c1ccc([O-])cc1
REMARK SMILES IDX 8 1 7 2 6 3 5 4 16 5 15 6 17 7 18 8 3 9 4 10 9 12 10 13
REMARK SMILES IDX 11 14 12 15 13 16 14 17 19 18 20 19 25 20 21 21 24 22 22 23
REMARK SMILES IDX 23 24 2 25 1 26
REMARK H PARENT 4 11
ROOT
ATOM      1  C   UNL     1      43.987 131.860  21.142  1.00  0.00     0.152 A 
ATOM      2  N   UNL     1      42.728 132.200  20.748  1.00  0.00    -0.230 NA
ATOM      3  C   UNL     1      42.352 132.203  19.442  1.00  0.00     0.193 A 
ATOM      4  C   UNL     1      43.272 131.843  18.447  1.00  0.00     0.230 A 
ATOM      5  C   UNL     1      44.577 131.483  18.826  1.00  0.00     0.052 A 
ATOM      6  C   UNL     1      44.934 131.490  20.181  1.00  0.00     0.064 A 
ATOM      7  C   UNL     1      45.498 131.122  17.837  1.00  0.00     0.031 A 
ATOM      8  C   UNL     1      45.118 131.114  16.486  1.00  0.00     0.066 A 
ATOM      9  C   UNL     1      43.798 131.494  16.149  1.00  0.00     0.290 A 
ATOM     10  N   UNL     1      42.915 131.843  17.130  1.00  0.00    -0.194 N 
ATOM     11  H   UNL     1      41.943 132.123  16.863  1.00  0.00     0.455 HD
ENDROOT
BRANCH   1  12
ATOM     12  N   UNL     1      44.364 131.852  22.528  1.00  0.00    -0.237 NA
BRANCH  12  13
ATOM     13  C   UNL     1      45.277 132.580  23.103  1.00  0.00     0.032 C 
ATOM     14  C   UNL     1      45.317 132.958  24.549  1.00  0.00     0.069 C 
ATOM     15  C   UNL     1      46.578 133.750  24.611  1.00  0.00    -0.020 C 
ATOM     16  C   UNL     1      47.180 133.846  23.429  1.00  0.00    -0.025 C 
ATOM     17  C   UNL     1      46.438 133.131  22.354  1.00  0.00     0.079 C 
ENDBRANCH  12  13
ENDBRANCH   1  12
BRANCH   8  18
ATOM     18  C   UNL     1      46.113 130.713  15.461  1.00  0.00    -0.011 A 
ATOM     19  C   UNL     1      46.574 131.639  14.510  1.00  0.00     0.008 A 
ATOM     20  C   UNL     1      46.582 129.389  15.413  1.00  0.00     0.008 A 
ATOM     21  C   UNL     1      47.501 131.251  13.539  1.00  0.00    -0.008 A 
ATOM     22  C   UNL     1      47.510 129.005  14.439  1.00  0.00    -0.008 A 
ATOM     23  C   UNL     1      47.971 129.935  13.504  1.00  0.00    -0.109 A 
ATOM     24  O   UNL     1      48.893 129.551  12.537  1.00  0.00    -0.872 OA
ENDBRANCH   8  18
BRANCH   9  25
ATOM     25  C   UNL     1      43.370 131.567  14.771  1.00  0.00     0.170 C 
ATOM     26  N   UNL     1      43.027 131.626  13.668  1.00  0.00    -0.186 NA
ENDBRANCH   9  25
TORSDOF 4
ENDMDL
MODEL 4
REMARK VINA RESULT:      -5.5      2.017      2.378
REMARK SMILES N#Cc1[nH+]c2cnc(/N=C3\[CH]C=CC3)cc2cc1-c1ccc([O-])cc1
REMARK SMILES IDX 8 1 7 2 6 3 5 4 16 5 15 6 17 7 18 8 3 9 4 10 9 12 10 13
REMARK SMILES IDX 11 14 12 15 13 16 14 17 19 18 20 19 25 20 21 21 24 22 22 23
REMARK SMILES IDX 23 24 2 25 1 26
REMARK H PARENT 4 11
ROOT
ATOM      1  C   UNL     1      44.462 131.938  21.138  1.00  0.00     0.152 A 
ATOM      2  N   UNL     1      43.187 132.288  20.810  1.00  0.00    -0.230 NA
ATOM      3  C   UNL     1      42.739 132.280  19.527  1.00  0.00     0.193 A 
ATOM      4  C   UNL     1      43.598 131.898  18.487  1.00  0.00     0.230 A 
ATOM      5  C   UNL     1      44.919 131.528  18.797  1.00  0.00     0.052 A 
ATOM      6  C   UNL     1      45.350 131.546  20.130  1.00  0.00     0.064 A 
ATOM      7  C   UNL     1      45.779 131.145  17.764  1.00  0.00     0.031 A 
ATOM      8  C   UNL     1      45.325 131.125  16.436  1.00  0.00     0.066 A 
ATOM      9  C   UNL     1      43.992 131.516  16.168  1.00  0.00     0.290 A 
ATOM     10  N   UNL     1      43.169 131.886  17.192  1.00  0.00    -0.194 N 
ATOM     11  H   UNL     1      42.187 132.175  16.976  1.00  0.00     0.455 HD
ENDROOT
BRANCH   1  12
ATOM     12  N   UNL     1      44.915 131.941  22.501  1.00  0.00    -0.237 NA
BRANCH  12  13
ATOM     13  C   UNL     1      45.726 132.792  23.063  1.00  0.00     0.032 C 
ATOM     14  C   UNL     1      46.908 133.437  22.415  1.00  0.00     0.069 C 
ATOM     15  C   UNL     1      47.408 134.308  23.516  1.00  0.00    -0.020 C 
ATOM     16  C   UNL     1      46.679 134.201  24.623  1.00  0.00    -0.025 C 
ATOM     17  C   UNL     1      45.549 133.243  24.469  1.00  0.00     0.079 C 
ENDBRANCH  12  13
ENDBRANCH   1  12
BRANCH   8  18
ATOM     18  C   UNL     1      46.256 130.701  15.363  1.00  0.00    -0.011 A 
ATOM     19  C   UNL     1      46.749 129.385  15.321  1.00  0.00     0.008 A 
ATOM     20  C   UNL     1      46.681 131.624  14.390  1.00  0.00     0.008 A 
ATOM     21  C   UNL     1      47.637 128.996  14.315  1.00  0.00    -0.008 A 
ATOM     22  C   UNL     1      47.570 131.230  13.385  1.00  0.00    -0.008 A 
ATOM     23  C   UNL     1      48.047 129.917  13.345  1.00  0.00    -0.109 A 
ATOM     24  O   UNL     1      48.930 129.528  12.345  1.00  0.00    -0.872 OA
ENDBRANCH   8  18
BRANCH   9  25
ATOM     25  C   UNL     1      43.489 131.579  14.815  1.00  0.00     0.170 C 
ATOM     26  N   UNL     1      43.088 131.629  13.731  1.00  0.00    -0.186 NA
ENDBRANCH   9  25
TORSDOF 4
ENDMDL


