MODEL 1
REMARK VINA RESULT:      -5.8      0.000      0.000
REMARK SMILES Cc1ccc([NH2+]c2cc(F)c(C)cc2N=C=S)c(F)n1
REMARK SMILES IDX 7 1 8 2 9 3 10 4 11 5 12 6 13 7 14 8 6 9 5 12 3 13 2 14 4 15
REMARK SMILES IDX 20 16 18 17 1 18 19 19 15 20 16 21 17 22
REMARK H PARENT 6 10 6 11
ROOT
ATOM      1  C   UNL     1      44.603 130.552  22.101  1.00  0.00     0.164 A 
ATOM      2  C   UNL     1      43.622 131.393  22.658  1.00  0.00     0.110 A 
ATOM      3  C   UNL     1      42.615 130.878  23.476  1.00  0.00     0.132 A 
ATOM      4  F   UNL     1      41.680 131.719  23.986  1.00  0.00    -0.206 F 
ATOM      5  C   UNL     1      42.573 129.507  23.764  1.00  0.00    -0.013 A 
ATOM      6  C   UNL     1      41.473 128.949  24.621  1.00  0.00     0.047 C 
ATOM      7  C   UNL     1      43.531 128.654  23.198  1.00  0.00     0.042 A 
ATOM      8  C   UNL     1      44.552 129.163  22.368  1.00  0.00     0.135 A 
ENDROOT
BRANCH   1   9
ATOM      9  N   UNL     1      45.651 131.118  21.281  1.00  0.00    -0.276 N 
ATOM     10  H   UNL     1      46.536 130.571  21.387  1.00  0.00     0.358 HD
ATOM     11  H   UNL     1      45.870 132.090  21.602  1.00  0.00     0.358 HD
BRANCH   9  12
ATOM     12  C   UNL     1      45.254 131.118  19.892  1.00  0.00     0.190 A 
ATOM     13  C   UNL     1      45.589 130.389  17.600  1.00  0.00     0.030 A 
ATOM     14  C   UNL     1      44.496 131.165  17.206  1.00  0.00     0.041 A 
ATOM     15  C   UNL     1      45.967 130.366  18.943  1.00  0.00     0.075 A 
ATOM     16  N   UNL     1      43.803 131.876  18.136  1.00  0.00    -0.220 NA
ATOM     17  C   UNL     1      44.150 131.872  19.451  1.00  0.00     0.274 A 
ATOM     18  C   UNL     1      44.063 131.192  15.774  1.00  0.00     0.067 C 
ATOM     19  F   UNL     1      43.410 132.593  20.329  1.00  0.00    -0.178 F 
ENDBRANCH   9  12
ENDBRANCH   1   9
BRANCH   8  20
ATOM     20  N   UNL     1      45.535 128.295  21.776  1.00  0.00    -0.188 NA
BRANCH  20  21
ATOM     21  C   UNL     1      45.697 127.073  22.095  1.00  0.00     0.064 C 
ATOM     22  S   UNL     1      45.904 125.527  22.497  1.00  0.00    -0.006 S 
ENDBRANCH  20  21
ENDBRANCH   8  20
TORSDOF 4
ENDMDL
MODEL 2
REMARK VINA RESULT:      -5.6      2.638      5.887
REMARK SMILES Cc1ccc([NH2+]c2cc(F)c(C)cc2N=C=S)c(F)n1
REMARK SMILES IDX 7 1 8 2 9 3 10 4 11 5 12 6 13 7 14 8 6 9 5 12 3 13 2 14 4 15
REMARK SMILES IDX 20 16 18 17 1 18 19 19 15 20 16 21 17 22
REMARK H PARENT 6 10 6 11
ROOT
ATOM      1  C   UNL     1      44.753 130.499  21.298  1.00  0.00     0.164 A 
ATOM      2  C   UNL     1      45.693 130.155  20.309  1.00  0.00     0.110 A 
ATOM      3  C   UNL     1      45.547 130.600  18.995  1.00  0.00     0.132 A 
ATOM      4  F   UNL     1      46.468 130.238  18.066  1.00  0.00    -0.206 F 
ATOM      5  C   UNL     1      44.460 131.410  18.641  1.00  0.00    -0.013 A 
ATOM      6  C   UNL     1      44.288 131.865  17.219  1.00  0.00     0.047 C 
ATOM      7  C   UNL     1      43.503 131.741  19.611  1.00  0.00     0.042 A 
ATOM      8  C   UNL     1      43.639 131.296  20.943  1.00  0.00     0.135 A 
ENDROOT
BRANCH   1   9
ATOM      9  N   UNL     1      44.945 130.047  22.658  1.00  0.00    -0.276 N 
ATOM     10  H   UNL     1      44.355 130.605  23.318  1.00  0.00     0.358 HD
ATOM     11  H   UNL     1      45.937 130.208  22.951  1.00  0.00     0.358 HD
BRANCH   9  12
ATOM     12  C   UNL     1      44.600 128.649  22.775  1.00  0.00     0.190 A 
ATOM     13  C   UNL     1      45.058 126.314  22.289  1.00  0.00     0.030 A 
ATOM     14  C   UNL     1      43.893 125.956  22.975  1.00  0.00     0.041 A 
ATOM     15  C   UNL     1      45.410 127.660  22.190  1.00  0.00     0.075 A 
ATOM     16  N   UNL     1      43.127 126.921  23.552  1.00  0.00    -0.220 NA
ATOM     17  C   UNL     1      43.446 128.240  23.469  1.00  0.00     0.274 A 
ATOM     18  C   UNL     1      43.505 124.518  23.109  1.00  0.00     0.067 C 
ATOM     19  F   UNL     1      42.646 129.150  24.077  1.00  0.00    -0.178 F 
ENDBRANCH   9  12
ENDBRANCH   1   9
BRANCH   8  20
ATOM     20  N   UNL     1      42.659 131.625  21.943  1.00  0.00    -0.188 NA
BRANCH  20  21
ATOM     21  C   UNL     1      42.942 132.010  23.124  1.00  0.00     0.064 C 
ATOM     22  S   UNL     1      43.302 132.495  24.617  1.00  0.00    -0.006 S 
ENDBRANCH  20  21
ENDBRANCH   8  20
TORSDOF 4
ENDMDL
MODEL 3
REMARK VINA RESULT:      -5.5      2.746      4.022
REMARK SMILES Cc1ccc([NH2+]c2cc(F)c(C)cc2N=C=S)c(F)n1
REMARK SMILES IDX 7 1 8 2 9 3 10 4 11 5 12 6 13 7 14 8 6 9 5 12 3 13 2 14 4 15
REMARK SMILES IDX 20 16 18 17 1 18 19 19 15 20 16 21 17 22
REMARK H PARENT 6 10 6 11
ROOT
ATOM      1  C   UNL     1      44.110 127.474  23.396  1.00  0.00     0.164 A 
ATOM      2  C   UNL     1      42.757 127.354  23.767  1.00  0.00     0.110 A 
ATOM      3  C   UNL     1      42.076 126.146  23.613  1.00  0.00     0.132 A 
ATOM      4  F   UNL     1      40.769 126.072  23.972  1.00  0.00    -0.206 F 
ATOM      5  C   UNL     1      42.736 125.025  23.092  1.00  0.00    -0.013 A 
ATOM      6  C   UNL     1      41.994 123.733  22.900  1.00  0.00     0.047 C 
ATOM      7  C   UNL     1      44.077 125.137  22.697  1.00  0.00     0.042 A 
ATOM      8  C   UNL     1      44.776 126.353  22.847  1.00  0.00     0.135 A 
ENDROOT
BRANCH   1   9
ATOM      9  N   UNL     1      44.798 128.730  23.594  1.00  0.00    -0.276 N 
ATOM     10  H   UNL     1      45.821 128.623  23.398  1.00  0.00     0.358 HD
ATOM     11  H   UNL     1      44.724 129.025  24.595  1.00  0.00     0.358 HD
BRANCH   9  12
ATOM     12  C   UNL     1      44.249 129.744  22.723  1.00  0.00     0.190 A 
ATOM     13  C   UNL     1      42.612 131.481  22.275  1.00  0.00     0.030 A 
ATOM     14  C   UNL     1      43.177 131.670  21.011  1.00  0.00     0.041 A 
ATOM     15  C   UNL     1      43.149 130.518  23.130  1.00  0.00     0.075 A 
ATOM     16  N   UNL     1      44.252 130.927  20.635  1.00  0.00    -0.220 NA
ATOM     17  C   UNL     1      44.795 129.982  21.448  1.00  0.00     0.274 A 
ATOM     18  C   UNL     1      42.629 132.707  20.083  1.00  0.00     0.067 C 
ATOM     19  F   UNL     1      45.875 129.283  21.017  1.00  0.00    -0.178 F 
ENDBRANCH   9  12
ENDBRANCH   1   9
BRANCH   8  20
ATOM     20  N   UNL     1      46.149 126.480  22.438  1.00  0.00    -0.188 NA
BRANCH  20  21
ATOM     21  C   UNL     1      46.880 125.505  22.070  1.00  0.00     0.064 C 
ATOM     22  S   UNL     1      47.804 124.269  21.605  1.00  0.00    -0.006 S 
ENDBRANCH  20  21
ENDBRANCH   8  20
TORSDOF 4
ENDMDL
MODEL 4
REMARK VINA RESULT:      -5.5      1.773      2.366
REMARK SMILES Cc1ccc([NH2+]c2cc(F)c(C)cc2N=C=S)c(F)n1
REMARK SMILES IDX 7 1 8 2 9 3 10 4 11 5 12 6 13 7 14 8 6 9 5 12 3 13 2 14 4 15
REMARK SMILES IDX 20 16 18 17 1 18 19 19 15 20 16 21 17 22
REMARK H PARENT 6 10 6 11
ROOT
ATOM      1  C   UNL     1      45.027 130.565  20.512  1.00  0.00     0.164 A 
ATOM      2  C   UNL     1      44.126 131.647  20.518  1.00  0.00     0.110 A 
ATOM      3  C   UNL     1      43.193 131.798  21.544  1.00  0.00     0.132 A 
ATOM      4  F   UNL     1      42.334 132.847  21.511  1.00  0.00    -0.206 F 
ATOM      5  C   UNL     1      43.145 130.873  22.596  1.00  0.00    -0.013 A 
ATOM      6  C   UNL     1      42.122 131.020  23.686  1.00  0.00     0.047 C 
ATOM      7  C   UNL     1      44.021 129.778  22.591  1.00  0.00     0.042 A 
ATOM      8  C   UNL     1      44.968 129.614  21.558  1.00  0.00     0.135 A 
ENDROOT
BRANCH   1   9
ATOM      9  N   UNL     1      46.002 130.451  19.450  1.00  0.00    -0.276 N 
ATOM     10  H   UNL     1      46.405 129.486  19.425  1.00  0.00     0.358 HD
ATOM     11  H   UNL     1      46.806 131.096  19.632  1.00  0.00     0.358 HD
BRANCH   9  12
ATOM     12  C   UNL     1      45.390 130.747  18.175  1.00  0.00     0.190 A 
ATOM     13  C   UNL     1      43.597 131.740  16.874  1.00  0.00     0.030 A 
ATOM     14  C   UNL     1      44.203 131.272  15.704  1.00  0.00     0.041 A 
ATOM     15  C   UNL     1      44.192 131.477  18.108  1.00  0.00     0.075 A 
ATOM     16  N   UNL     1      45.372 130.580  15.781  1.00  0.00    -0.220 NA
ATOM     17  C   UNL     1      45.972 130.309  16.970  1.00  0.00     0.274 A 
ATOM     18  C   UNL     1      43.592 131.556  14.369  1.00  0.00     0.067 C 
ATOM     19  F   UNL     1      47.143 129.626  16.976  1.00  0.00    -0.178 F 
ENDBRANCH   9  12
ENDBRANCH   1   9
BRANCH   8  20
ATOM     20  N   UNL     1      45.866 128.490  21.540  1.00  0.00    -0.188 NA
BRANCH  20  21
ATOM     21  C   UNL     1      45.579 127.336  21.994  1.00  0.00     0.064 C 
ATOM     22  S   UNL     1      45.217 125.876  22.571  1.00  0.00    -0.006 S 
ENDBRANCH  20  21
ENDBRANCH   8  20
TORSDOF 4
ENDMDL
MODEL 5
REMARK VINA RESULT:      -5.4      2.537      3.711
REMARK SMILES Cc1ccc([NH2+]c2cc(F)c(C)cc2N=C=S)c(F)n1
REMARK SMILES IDX 7 1 8 2 9 3 10 4 11 5 12 6 13 7 14 8 6 9 5 12 3 13 2 14 4 15
REMARK SMILES IDX 20 16 18 17 1 18 19 19 15 20 16 21 17 22
REMARK H PARENT 6 10 6 11
ROOT
ATOM      1  C   UNL     1      44.461 131.064  19.297  1.00  0.00     0.164 A 
ATOM      2  C   UNL     1      43.562 131.611  18.362  1.00  0.00     0.110 A 
ATOM      3  C   UNL     1      42.432 132.315  18.779  1.00  0.00     0.132 A 
ATOM      4  F   UNL     1      41.583 132.819  17.849  1.00  0.00    -0.206 F 
ATOM      5  C   UNL     1      42.179 132.497  20.146  1.00  0.00    -0.013 A 
ATOM      6  C   UNL     1      40.948 133.231  20.595  1.00  0.00     0.047 C 
ATOM      7  C   UNL     1      43.054 131.938  21.089  1.00  0.00     0.042 A 
ATOM      8  C   UNL     1      44.199 131.224  20.679  1.00  0.00     0.135 A 
ENDROOT
BRANCH   1   9
ATOM      9  N   UNL     1      45.638 130.365  18.835  1.00  0.00    -0.276 N 
ATOM     10  H   UNL     1      45.573 129.346  19.063  1.00  0.00     0.358 HD
ATOM     11  H   UNL     1      46.486 130.720  19.336  1.00  0.00     0.358 HD
BRANCH   9  12
ATOM     12  C   UNL     1      45.787 130.525  17.406  1.00  0.00     0.190 A 
ATOM     13  C   UNL     1      46.119 129.571  15.198  1.00  0.00     0.030 A 
ATOM     14  C   UNL     1      46.115 130.860  14.655  1.00  0.00     0.041 A 
ATOM     15  C   UNL     1      45.955 129.406  16.573  1.00  0.00     0.075 A 
ATOM     16  N   UNL     1      45.935 131.934  15.469  1.00  0.00    -0.220 NA
ATOM     17  C   UNL     1      45.774 131.801  16.813  1.00  0.00     0.274 A 
ATOM     18  C   UNL     1      46.273 131.060  13.181  1.00  0.00     0.067 C 
ATOM     19  F   UNL     1      45.587 132.913  17.566  1.00  0.00    -0.178 F 
ENDBRANCH   9  12
ENDBRANCH   1   9
BRANCH   8  20
ATOM     20  N   UNL     1      45.098 130.640  21.638  1.00  0.00    -0.188 NA
BRANCH  20  21
ATOM     21  C   UNL     1      44.797 129.670  22.406  1.00  0.00     0.064 C 
ATOM     22  S   UNL     1      44.416 128.441  23.375  1.00  0.00    -0.006 S 
ENDBRANCH  20  21
ENDBRANCH   8  20
TORSDOF 4
ENDMDL
MODEL 6
REMARK VINA RESULT:      -5.3      3.216      4.792
REMARK SMILES Cc1ccc([NH2+]c2cc(F)c(C)cc2N=C=S)c(F)n1
REMARK SMILES IDX 7 1 8 2 9 3 10 4 11 5 12 6 13 7 14 8 6 9 5 12 3 13 2 14 4 15
REMARK SMILES IDX 20 16 18 17 1 18 19 19 15 20 16 21 17 22
REMARK H PARENT 6 10 6 11
ROOT
ATOM      1  C   UNL     1      44.387 127.600  23.584  1.00  0.00     0.164 A 
ATOM      2  C   UNL     1      45.526 126.966  23.052  1.00  0.00     0.110 A 
ATOM      3  C   UNL     1      45.464 125.652  22.586  1.00  0.00     0.132 A 
ATOM      4  F   UNL     1      46.585 125.070  22.090  1.00  0.00    -0.206 F 
ATOM      5  C   UNL     1      44.255 124.943  22.633  1.00  0.00    -0.013 A 
ATOM      6  C   UNL     1      44.196 123.519  22.158  1.00  0.00     0.047 C 
ATOM      7  C   UNL     1      43.119 125.555  23.182  1.00  0.00     0.042 A 
ATOM      8  C   UNL     1      43.170 126.882  23.657  1.00  0.00     0.135 A 
ENDROOT
BRANCH   1   9
ATOM      9  N   UNL     1      44.475 128.972  24.032  1.00  0.00    -0.276 N 
ATOM     10  H   UNL     1      45.452 129.197  24.333  1.00  0.00     0.358 HD
ATOM     11  H   UNL     1      43.873 129.111  24.876  1.00  0.00     0.358 HD
BRANCH   9  12
ATOM     12  C   UNL     1      44.083 129.871  22.971  1.00  0.00     0.190 A 
ATOM     13  C   UNL     1      44.467 130.849  20.782  1.00  0.00     0.030 A 
ATOM     14  C   UNL     1      43.330 131.644  20.952  1.00  0.00     0.041 A 
ATOM     15  C   UNL     1      44.842 129.962  21.792  1.00  0.00     0.075 A 
ATOM     16  N   UNL     1      42.594 131.535  22.090  1.00  0.00    -0.220 NA
ATOM     17  C   UNL     1      42.937 130.680  23.090  1.00  0.00     0.274 A 
ATOM     18  C   UNL     1      42.900 132.590  19.875  1.00  0.00     0.067 C 
ATOM     19  F   UNL     1      42.153 130.610  24.194  1.00  0.00    -0.178 F 
ENDBRANCH   9  12
ENDBRANCH   1   9
BRANCH   8  20
ATOM     20  N   UNL     1      42.012 127.516  24.228  1.00  0.00    -0.188 NA
BRANCH  20  21
ATOM     21  C   UNL     1      40.891 126.937  24.402  1.00  0.00     0.064 C 
ATOM     22  S   UNL     1      39.474 126.203  24.623  1.00  0.00    -0.006 S 
ENDBRANCH  20  21
ENDBRANCH   8  20
TORSDOF 4
ENDMDL
MODEL 7
REMARK VINA RESULT:      -5.2      3.317      6.526
REMARK SMILES Cc1ccc([NH2+]c2cc(F)c(C)cc2N=C=S)c(F)n1
REMARK SMILES IDX 7 1 8 2 9 3 10 4 11 5 12 6 13 7 14 8 6 9 5 12 3 13 2 14 4 15
REMARK SMILES IDX 20 16 18 17 1 18 19 19 15 20 16 21 17 22
REMARK H PARENT 6 10 6 11
ROOT
ATOM      1  C   UNL     1      45.431 130.728  17.359  1.00  0.00     0.164 A 
ATOM      2  C   UNL     1      44.192 131.375  17.525  1.00  0.00     0.110 A 
ATOM      3  C   UNL     1      43.404 131.710  16.423  1.00  0.00     0.132 A 
ATOM      4  F   UNL     1      42.220 132.343  16.622  1.00  0.00    -0.206 F 
ATOM      5  C   UNL     1      43.834 131.396  15.127  1.00  0.00    -0.013 A 
ATOM      6  C   UNL     1      42.999 131.782  13.939  1.00  0.00     0.047 C 
ATOM      7  C   UNL     1      45.077 130.772  14.945  1.00  0.00     0.042 A 
ATOM      8  C   UNL     1      45.883 130.430  16.051  1.00  0.00     0.135 A 
ENDROOT
BRANCH   1   9
ATOM      9  N   UNL     1      46.212 130.367  18.521  1.00  0.00    -0.276 N 
ATOM     10  H   UNL     1      47.127 130.874  18.520  1.00  0.00     0.358 HD
ATOM     11  H   UNL     1      46.446 129.347  18.492  1.00  0.00     0.358 HD
BRANCH   9  12
ATOM     12  C   UNL     1      45.489 130.689  19.730  1.00  0.00     0.190 A 
ATOM     13  C   UNL     1      44.134 132.226  21.033  1.00  0.00     0.030 A 
ATOM     14  C   UNL     1      44.133 131.310  22.089  1.00  0.00     0.041 A 
ATOM     15  C   UNL     1      44.812 131.914  19.854  1.00  0.00     0.075 A 
ATOM     16  N   UNL     1      44.778 130.120  21.950  1.00  0.00    -0.220 NA
ATOM     17  C   UNL     1      45.447 129.791  20.813  1.00  0.00     0.274 A 
ATOM     18  C   UNL     1      43.399 131.615  23.356  1.00  0.00     0.067 C 
ATOM     19  F   UNL     1      46.059 128.584  20.735  1.00  0.00    -0.178 F 
ENDBRANCH   9  12
ENDBRANCH   1   9
BRANCH   8  20
ATOM     20  N   UNL     1      47.162 129.796  15.875  1.00  0.00    -0.188 NA
BRANCH  20  21
ATOM     21  C   UNL     1      47.750 129.668  14.753  1.00  0.00     0.064 C 
ATOM     22  S   UNL     1      48.494 129.502  13.334  1.00  0.00    -0.006 S 
ENDBRANCH  20  21
ENDBRANCH   8  20
TORSDOF 4
ENDMDL
MODEL 8
REMARK VINA RESULT:      -5.2      2.865      6.040
REMARK SMILES Cc1ccc([NH2+]c2cc(F)c(C)cc2N=C=S)c(F)n1
REMARK SMILES IDX 7 1 8 2 9 3 10 4 11 5 12 6 13 7 14 8 6 9 5 12 3 13 2 14 4 15
REMARK SMILES IDX 20 16 18 17 1 18 19 19 15 20 16 21 17 22
REMARK H PARENT 6 10 6 11
ROOT
ATOM      1  C   UNL     1      44.749 130.539  21.284  1.00  0.00     0.164 A 
ATOM      2  C   UNL     1      45.677 130.155  20.297  1.00  0.00     0.110 A 
ATOM      3  C   UNL     1      45.531 130.572  18.974  1.00  0.00     0.132 A 
ATOM      4  F   UNL     1      46.440 130.174  18.048  1.00  0.00    -0.206 F 
ATOM      5  C   UNL     1      44.456 131.393  18.607  1.00  0.00    -0.013 A 
ATOM      6  C   UNL     1      44.283 131.818  17.177  1.00  0.00     0.047 C 
ATOM      7  C   UNL     1      43.511 131.764  19.575  1.00  0.00     0.042 A 
ATOM      8  C   UNL     1      43.648 131.347  20.916  1.00  0.00     0.135 A 
ENDROOT
BRANCH   1   9
ATOM      9  N   UNL     1      44.942 130.115  22.652  1.00  0.00    -0.276 N 
ATOM     10  H   UNL     1      44.504 130.797  23.313  1.00  0.00     0.358 HD
ATOM     11  H   UNL     1      45.963 130.104  22.883  1.00  0.00     0.358 HD
BRANCH   9  12
ATOM     12  C   UNL     1      44.360 128.809  22.859  1.00  0.00     0.190 A 
ATOM     13  C   UNL     1      42.574 127.405  23.717  1.00  0.00     0.030 A 
ATOM     14  C   UNL     1      43.273 126.274  23.285  1.00  0.00     0.041 A 
ATOM     15  C   UNL     1      43.119 128.671  23.502  1.00  0.00     0.075 A 
ATOM     16  N   UNL     1      44.465 126.420  22.649  1.00  0.00    -0.220 NA
ATOM     17  C   UNL     1      45.020 127.642  22.428  1.00  0.00     0.274 A 
ATOM     18  C   UNL     1      42.700 124.907  23.489  1.00  0.00     0.067 C 
ATOM     19  F   UNL     1      46.206 127.719  21.776  1.00  0.00    -0.178 F 
ENDBRANCH   9  12
ENDBRANCH   1   9
BRANCH   8  20
ATOM     20  N   UNL     1      42.680 131.716  21.915  1.00  0.00    -0.188 NA
BRANCH  20  21
ATOM     21  C   UNL     1      42.973 132.044  23.110  1.00  0.00     0.064 C 
ATOM     22  S   UNL     1      43.346 132.457  24.622  1.00  0.00    -0.006 S 
ENDBRANCH  20  21
ENDBRANCH   8  20
TORSDOF 4
ENDMDL
MODEL 9
REMARK VINA RESULT:      -4.9      2.700      4.120
REMARK SMILES Cc1ccc([NH2+]c2cc(F)c(C)cc2N=C=S)c(F)n1
REMARK SMILES IDX 7 1 8 2 9 3 10 4 11 5 12 6 13 7 14 8 6 9 5 12 3 13 2 14 4 15
REMARK SMILES IDX 20 16 18 17 1 18 19 19 15 20 16 21 17 22
REMARK H PARENT 6 10 6 11
ROOT
ATOM      1  C   UNL     1      44.509 131.016  19.033  1.00  0.00     0.164 A 
ATOM      2  C   UNL     1      43.601 131.603  18.132  1.00  0.00     0.110 A 
ATOM      3  C   UNL     1      42.508 132.339  18.592  1.00  0.00     0.132 A 
ATOM      4  F   UNL     1      41.648 132.882  17.694  1.00  0.00    -0.206 F 
ATOM      5  C   UNL     1      42.304 132.513  19.967  1.00  0.00    -0.013 A 
ATOM      6  C   UNL     1      41.113 133.282  20.463  1.00  0.00     0.047 C 
ATOM      7  C   UNL     1      43.188 131.915  20.876  1.00  0.00     0.042 A 
ATOM      8  C   UNL     1      44.295 131.167  20.423  1.00  0.00     0.135 A 
ENDROOT
BRANCH   1   9
ATOM      9  N   UNL     1      45.648 130.283  18.526  1.00  0.00    -0.276 N 
ATOM     10  H   UNL     1      45.524 129.256  18.685  1.00  0.00     0.358 HD
ATOM     11  H   UNL     1      46.511 130.555  19.051  1.00  0.00     0.358 HD
BRANCH   9  12
ATOM     12  C   UNL     1      45.813 130.530  17.112  1.00  0.00     0.190 A 
ATOM     13  C   UNL     1      46.262 132.052  15.273  1.00  0.00     0.030 A 
ATOM     14  C   UNL     1      46.088 130.996  14.374  1.00  0.00     0.041 A 
ATOM     15  C   UNL     1      46.125 131.817  16.642  1.00  0.00     0.075 A 
ATOM     16  N   UNL     1      45.804 129.751  14.842  1.00  0.00    -0.220 NA
ATOM     17  C   UNL     1      45.664 129.495  16.170  1.00  0.00     0.274 A 
ATOM     18  C   UNL     1      46.247 131.221  12.904  1.00  0.00     0.067 C 
ATOM     19  F   UNL     1      45.392 128.229  16.571  1.00  0.00    -0.178 F 
ENDBRANCH   9  12
ENDBRANCH   1   9
BRANCH   8  20
ATOM     20  N   UNL     1      45.204 130.543  21.348  1.00  0.00    -0.188 NA
BRANCH  20  21
ATOM     21  C   UNL     1      44.846 129.763  22.288  1.00  0.00     0.064 C 
ATOM     22  S   UNL     1      44.391 128.775  23.477  1.00  0.00    -0.006 S 
ENDBRANCH  20  21
ENDBRANCH   8  20
TORSDOF 4
ENDMDL


