REMARK SMILES [O-]/C(=N\[C@H]1Cc2ccccc2[C@H]1O)C1CCCC1
REMARK SMILES IDX 12 1 11 2 10 3 9 4 8 5 7 6 6 7 5 8 4 9 13 10 3 12 2 13 1 14
REMARK SMILES IDX 14 15 15 16 18 17 16 18 17 19
REMARK H PARENT 13 11
ROOT
ATOM      1  C   UNL     1      -1.306  -0.575   0.590  1.00  0.00     0.169 C 
ATOM      2  C   UNL     1      -1.697  -0.763  -0.828  1.00  0.00    -0.014 A 
ATOM      3  C   UNL     1      -2.648  -1.661  -1.322  1.00  0.00     0.007 A 
ATOM      4  C   UNL     1      -2.870  -1.715  -2.707  1.00  0.00     0.000 A 
ATOM      5  C   UNL     1      -2.142  -0.880  -3.573  1.00  0.00     0.000 A 
ATOM      6  C   UNL     1      -1.189   0.011  -3.056  1.00  0.00     0.004 A 
ATOM      7  C   UNL     1      -0.988   0.054  -1.674  1.00  0.00    -0.040 A 
ATOM      8  C   UNL     1      -0.023   0.907  -0.946  1.00  0.00     0.066 C 
ATOM      9  C   UNL     1      -0.366   0.661   0.542  1.00  0.00     0.142 C 
ENDROOT
BRANCH   1  10
ATOM     10  O   UNL     1      -0.640  -1.727   1.039  1.00  0.00    -0.386 OA
ATOM     11  H   UNL     1      -0.661  -1.695   2.031  1.00  0.00     0.211 HD
ENDBRANCH   1  10
BRANCH   9  12
ATOM     12  N   UNL     1       0.843   0.450   1.340  1.00  0.00    -0.298 NA
BRANCH  12  13
ATOM     13  C   UNL     1       1.701   1.384   1.626  1.00  0.00    -0.039 C 
ATOM     14  O   UNL     1       1.504   2.687   1.176  1.00  0.00    -0.862 OA
BRANCH  13  15
ATOM     15  C   UNL     1       2.924   1.068   2.445  1.00  0.00     0.022 C 
ATOM     16  C   UNL     1       3.822   0.026   1.790  1.00  0.00     0.009 C 
ATOM     17  C   UNL     1       2.590   0.492   3.816  1.00  0.00     0.009 C 
ATOM     18  C   UNL     1       4.590  -0.624   2.936  1.00  0.00     0.001 C 
ATOM     19  C   UNL     1       3.815  -0.320   4.219  1.00  0.00     0.001 C 
ENDBRANCH  13  15
ENDBRANCH  12  13
ENDBRANCH   9  12
TORSDOF 4


