REMARK SMILES Fc1ccc2nc(-c3cccnc3F)ccc2c1
REMARK SMILES IDX 1 1 2 2 3 3 4 4 5 5 6 6 7 7 15 8 16 9 17 10 18 11 8 12 9 13
REMARK SMILES IDX 13 14 10 15 12 16 11 17 14 18
REMARK H PARENT
ROOT
ATOM      1  F   UNL     1      -3.660  -0.532   3.457  1.00  0.00    -0.207 F 
ATOM      2  C   UNL     1      -2.888  -0.547   2.343  1.00  0.00     0.123 A 
ATOM      3  C   UNL     1      -3.424  -0.987   1.128  1.00  0.00     0.041 A 
ATOM      4  C   UNL     1      -2.632  -1.005  -0.025  1.00  0.00     0.032 A 
ATOM      5  C   UNL     1      -1.299  -0.582   0.035  1.00  0.00     0.071 A 
ATOM      6  N   UNL     1      -0.526  -0.598  -1.082  1.00  0.00    -0.248 NA
ATOM      7  C   UNL     1       0.779  -0.199  -1.090  1.00  0.00     0.076 A 
ATOM      8  C   UNL     1       1.346   0.251   0.124  1.00  0.00     0.030 A 
ATOM      9  C   UNL     1       0.576   0.278   1.289  1.00  0.00     0.013 A 
ATOM     10  C   UNL     1      -0.757  -0.138   1.258  1.00  0.00     0.003 A 
ATOM     11  C   UNL     1      -1.556  -0.123   2.411  1.00  0.00     0.049 A 
ENDROOT
BRANCH   7  12
ATOM     12  C   UNL     1       1.551  -0.254  -2.379  1.00  0.00     0.055 A 
ATOM     13  C   UNL     1       2.905   0.144  -2.461  1.00  0.00     0.017 A 
ATOM     14  C   UNL     1       0.939  -0.712  -3.573  1.00  0.00     0.222 A 
ATOM     15  C   UNL     1       3.595   0.082  -3.671  1.00  0.00     0.021 A 
ATOM     16  N   UNL     1       1.643  -0.759  -4.736  1.00  0.00    -0.228 NA
ATOM     17  C   UNL     1       2.942  -0.377  -4.810  1.00  0.00     0.114 A 
ATOM     18  F   UNL     1      -0.356  -1.116  -3.598  1.00  0.00    -0.184 F 
ENDBRANCH   7  12
TORSDOF 1


