REMARK SMILES O=C(c1cscn1)N1C[C@H]2CCCC[C@H]2N[C@H]1c1ccc2[nH]ccc2c1
REMARK SMILES IDX 8 1 9 2 10 3 11 4 12 5 13 6 14 7 15 8 16 9 17 10 2 12 1 13
REMARK SMILES IDX 3 14 4 15 7 16 5 17 6 18 18 19 19 20 26 21 20 22 25 23 21 24
REMARK SMILES IDX 24 25 22 26 23 27
REMARK H PARENT 16 11 22 28
ROOT
ATOM      1  N   UNL     1       1.125  -1.011   0.570  1.00  0.00    -0.317 N 
ATOM      2  C   UNL     1       1.682   0.156   1.273  1.00  0.00     0.127 C 
ATOM      3  C   UNL     1       0.637   0.833   2.200  1.00  0.00     0.026 C 
ATOM      4  C   UNL     1       0.742   2.372   2.070  1.00  0.00     0.007 C 
ATOM      5  C   UNL     1      -0.361   3.092   2.844  1.00  0.00     0.000 C 
ATOM      6  C   UNL     1      -1.734   2.640   2.352  1.00  0.00     0.002 C 
ATOM      7  C   UNL     1      -1.909   1.137   2.570  1.00  0.00     0.019 C 
ATOM      8  C   UNL     1      -0.795   0.301   1.910  1.00  0.00     0.060 C 
ATOM      9  N   UNL     1      -1.014   0.172   0.462  1.00  0.00    -0.290 NA
ATOM     10  C   UNL     1      -0.205  -0.944  -0.071  1.00  0.00     0.185 C 
ATOM     11  H   UNL     1      -0.752   1.070  -0.007  1.00  0.00     0.125 HD
ENDROOT
BRANCH   1  12
ATOM     12  C   UNL     1       1.894  -2.223   0.463  1.00  0.00     0.274 C 
ATOM     13  O   UNL     1       2.056  -2.760  -0.666  1.00  0.00    -0.267 OA
BRANCH  12  14
ATOM     14  C   UNL     1       2.458  -2.869   1.663  1.00  0.00     0.139 A 
ATOM     15  C   UNL     1       3.360  -3.930   1.606  1.00  0.00     0.100 A 
ATOM     16  N   UNL     1       2.101  -2.488   2.921  1.00  0.00    -0.240 NA
ATOM     17  S   UNL     1       3.718  -4.379   3.185  1.00  0.00    -0.130 S 
ATOM     18  C   UNL     1       2.715  -3.222   3.874  1.00  0.00     0.176 A 
ENDBRANCH  12  14
ENDBRANCH   1  12
BRANCH  10  19
ATOM     19  C   UNL     1      -0.086  -0.851  -1.581  1.00  0.00    -0.010 A 
ATOM     20  C   UNL     1      -0.723  -1.821  -2.401  1.00  0.00     0.009 A 
ATOM     21  C   UNL     1       0.648   0.196  -2.187  1.00  0.00     0.017 A 
ATOM     22  C   UNL     1      -0.624  -1.758  -3.803  1.00  0.00     0.027 A 
ATOM     23  C   UNL     1       0.725   0.227  -3.577  1.00  0.00    -0.000 A 
ATOM     24  C   UNL     1       0.113  -0.715  -4.357  1.00  0.00     0.045 A 
ATOM     25  C   UNL     1       1.361   1.111  -4.420  1.00  0.00     0.028 A 
ATOM     26  N   UNL     1       0.331  -0.471  -5.660  1.00  0.00    -0.361 N 
ATOM     27  C   UNL     1       1.094   0.645  -5.703  1.00  0.00     0.083 A 
ATOM     28  H   UNL     1      -0.016  -1.025  -6.474  1.00  0.00     0.166 HD
ENDBRANCH  10  19
TORSDOF 3


