REMARK SMILES Cc1cc[nH+]c(F)c1-c1cc2c(C)c(F)cc([NH2+]c3cccc(N)c3O)c2[nH]1
REMARK SMILES IDX 18 1 17 4 9 5 10 6 28 7 11 8 27 9 12 10 14 11 16 12 13 14
REMARK SMILES IDX 15 15 8 16 2 17 3 18 4 19 6 20 5 21 1 22 7 23 19 25 20 26
REMARK SMILES IDX 25 27 21 28 23 29 22 30 26 31 24 33
REMARK H PARENT 18 2 18 3 28 13 5 24 26 32 24 34 24 35
ROOT
ATOM      1  N   UNL     1      -2.417  -1.181  -1.318  1.00  0.00    -0.276 N 
ATOM      2  H   UNL     1      -1.912  -0.969  -2.208  1.00  0.00     0.358 HD
ATOM      3  H   UNL     1      -3.197  -1.834  -1.566  1.00  0.00     0.358 HD
ENDROOT
BRANCH   1   4
ATOM      4  C   UNL     1      -1.494  -1.822  -0.410  1.00  0.00     0.162 A 
ATOM      5  C   UNL     1       1.572  -0.092  -0.142  1.00  0.00     0.056 A 
ATOM      6  C   UNL     1       1.793  -1.121   0.770  1.00  0.00     0.038 A 
ATOM      7  N   UNL     1       0.346  -0.204  -0.703  1.00  0.00    -0.349 N 
ATOM      8  C   UNL     1       0.643  -1.886   0.739  1.00  0.00     0.012 A 
ATOM      9  C   UNL     1      -0.214  -1.300  -0.160  1.00  0.00     0.109 A 
ATOM     10  C   UNL     1       0.301  -3.041   1.451  1.00  0.00    -0.005 A 
ATOM     11  C   UNL     1      -0.982  -3.589   1.221  1.00  0.00     0.132 A 
ATOM     12  C   UNL     1      -1.865  -2.986   0.300  1.00  0.00     0.110 A 
ATOM     13  H   UNL     1      -0.067   0.430  -1.420  1.00  0.00     0.167 HD
ATOM     14  C   UNL     1       1.254  -3.650   2.440  1.00  0.00     0.048 C 
ATOM     15  F   UNL     1      -1.387  -4.700   1.887  1.00  0.00    -0.206 F 
BRANCH   5  16
ATOM     16  C   UNL     1       2.505   1.018  -0.434  1.00  0.00     0.105 A 
ATOM     17  C   UNL     1       3.868   0.797  -0.752  1.00  0.00    -0.026 A 
ATOM     18  C   UNL     1       4.701   1.901  -0.983  1.00  0.00     0.075 A 
ATOM     19  C   UNL     1       4.176   3.191  -0.934  1.00  0.00     0.309 A 
ATOM     20  C   UNL     1       2.023   2.341  -0.410  1.00  0.00     0.367 A 
ATOM     21  N   UNL     1       2.861   3.384  -0.656  1.00  0.00    -0.186 N 
ATOM     22  C   UNL     1       4.457  -0.586  -0.847  1.00  0.00     0.045 C 
ATOM     23  F   UNL     1       0.724   2.595  -0.105  1.00  0.00    -0.135 F 
ATOM     24  H   UNL     1       2.487   4.359  -0.623  1.00  0.00     0.456 HD
ENDBRANCH   5  16
ENDBRANCH   1   4
BRANCH   1  25
ATOM     25  C   UNL     1      -2.988   0.005  -0.714  1.00  0.00     0.179 A 
ATOM     26  C   UNL     1      -3.755  -0.115   0.461  1.00  0.00     0.072 A 
ATOM     27  C   UNL     1      -2.841   1.281  -1.314  1.00  0.00     0.201 A 
ATOM     28  C   UNL     1      -4.318   1.008   1.061  1.00  0.00     0.009 A 
ATOM     29  C   UNL     1      -3.385   2.425  -0.677  1.00  0.00     0.080 A 
ATOM     30  C   UNL     1      -4.128   2.270   0.502  1.00  0.00     0.030 A 
BRANCH  27  31
ATOM     31  O   UNL     1      -2.179   1.376  -2.542  1.00  0.00    -0.501 OA
ATOM     32  H   UNL     1      -2.127   2.221  -3.092  1.00  0.00     0.293 HD
ENDBRANCH  27  31
BRANCH  29  33
ATOM     33  N   UNL     1      -3.186   3.748  -1.193  1.00  0.00    -0.396 N 
ATOM     34  H   UNL     1      -3.688   4.559  -0.767  1.00  0.00     0.156 HD
ATOM     35  H   UNL     1      -2.470   3.969  -1.918  1.00  0.00     0.156 HD
ENDBRANCH  29  33
ENDBRANCH   1  25
TORSDOF 5


