MODEL 1
REMARK VINA RESULT:      -8.6      0.000      0.000
REMARK SMILES O/C(=C\Cc1c(F)ccc2[nH]c([NH2+]c3cn4ccccc4n3)cc12)c1ccccc1
REMARK SMILES IDX 3 1 2 2 1 3 25 5 26 6 30 7 27 8 29 9 28 10 4 11 5 12 6 13
REMARK SMILES IDX 24 14 8 15 10 16 23 17 9 18 11 19 12 20 7 21 13 23 14 26
REMARK SMILES IDX 22 27 15 28 21 29 16 30 20 31 17 32 19 33 18 34
REMARK H PARENT 1 4 11 22 13 24 13 25
ROOT
ATOM      1  C   UNL     1      45.275 129.208  17.003  1.00  0.00     0.024 C 
ENDROOT
BRANCH   1   2
ATOM      2  C   UNL     1      45.378 128.872  15.702  1.00  0.00     0.119 C 
BRANCH   2   3
ATOM      3  O   UNL     1      44.651 127.801  15.169  1.00  0.00    -0.508 OA
ATOM      4  H   UNL     1      44.501 127.666  14.177  1.00  0.00     0.293 HD
ENDBRANCH   2   3
BRANCH   2   5
ATOM      5  C   UNL     1      46.285 129.615  14.788  1.00  0.00     0.016 A 
ATOM      6  C   UNL     1      47.514 129.038  14.419  1.00  0.00     0.012 A 
ATOM      7  C   UNL     1      45.934 130.872  14.248  1.00  0.00     0.012 A 
ATOM      8  C   UNL     1      48.384 129.713  13.558  1.00  0.00     0.001 A 
ATOM      9  C   UNL     1      46.812 131.543  13.390  1.00  0.00     0.001 A 
ATOM     10  C   UNL     1      48.037 130.967  13.049  1.00  0.00     0.000 A 
ENDBRANCH   2   5
ENDBRANCH   1   2
BRANCH   1  11
ATOM     11  C   UNL     1      45.694 130.550  17.543  1.00  0.00     0.070 C 
BRANCH  11  12
ATOM     12  C   UNL     1      44.541 131.220  18.246  1.00  0.00     0.001 A 
ATOM     13  C   UNL     1      43.520 131.891  17.532  1.00  0.00     0.127 A 
ATOM     14  C   UNL     1      44.397 131.131  19.638  1.00  0.00     0.012 A 
ATOM     15  C   UNL     1      42.413 132.442  18.214  1.00  0.00     0.042 A 
ATOM     16  C   UNL     1      43.308 131.653  20.292  1.00  0.00     0.051 A 
ATOM     17  C   UNL     1      45.175 130.491  20.584  1.00  0.00     0.099 A 
ATOM     18  C   UNL     1      42.295 132.320  19.608  1.00  0.00     0.030 A 
ATOM     19  N   UNL     1      43.350 131.370  21.606  1.00  0.00    -0.310 N 
ATOM     20  C   UNL     1      44.490 130.663  21.784  1.00  0.00     0.209 A 
ATOM     21  F   UNL     1      43.580 131.998  16.181  1.00  0.00    -0.207 F 
ATOM     22  H   UNL     1      42.629 131.600  22.326  1.00  0.00     0.172 HD
BRANCH  20  23
ATOM     23  N   UNL     1      44.843 130.029  23.020  1.00  0.00    -0.249 N 
ATOM     24  H   UNL     1      45.803 129.619  22.941  1.00  0.00     0.361 HD
ATOM     25  H   UNL     1      44.836 130.727  23.798  1.00  0.00     0.361 HD
BRANCH  23  26
ATOM     26  C   UNL     1      43.898 128.984  23.290  1.00  0.00     0.249 A 
ATOM     27  N   UNL     1      42.569 129.204  23.452  1.00  0.00    -0.177 NA
ATOM     28  C   UNL     1      44.223 127.670  23.587  1.00  0.00     0.183 A 
ATOM     29  C   UNL     1      42.111 127.993  23.825  1.00  0.00     0.143 A 
ATOM     30  N   UNL     1      43.076 127.062  23.916  1.00  0.00    -0.301 N 
ATOM     31  C   UNL     1      40.788 127.681  24.127  1.00  0.00     0.048 A 
ATOM     32  C   UNL     1      42.850 125.781  24.303  1.00  0.00     0.093 A 
ATOM     33  C   UNL     1      40.504 126.364  24.527  1.00  0.00     0.005 A 
ATOM     34  C   UNL     1      41.535 125.408  24.618  1.00  0.00     0.018 A 
ENDBRANCH  23  26
ENDBRANCH  20  23
ENDBRANCH  11  12
ENDBRANCH   1  11
TORSDOF 7
ENDMDL
MODEL 2
REMARK VINA RESULT:      -8.5      1.088      1.785
REMARK SMILES O/C(=C\Cc1c(F)ccc2[nH]c([NH2+]c3cn4ccccc4n3)cc12)c1ccccc1
REMARK SMILES IDX 3 1 2 2 1 3 25 5 26 6 30 7 27 8 29 9 28 10 4 11 5 12 6 13
REMARK SMILES IDX 24 14 8 15 10 16 23 17 9 18 11 19 12 20 7 21 13 23 14 26
REMARK SMILES IDX 22 27 15 28 21 29 16 30 20 31 17 32 19 33 18 34
REMARK H PARENT 1 4 11 22 13 24 13 25
ROOT
ATOM      1  C   UNL     1      45.163 131.822  16.493  1.00  0.00     0.024 C 
ENDROOT
BRANCH   1   2
ATOM      2  C   UNL     1      45.038 131.243  15.282  1.00  0.00     0.119 C 
BRANCH   2   3
ATOM      3  O   UNL     1      43.797 131.166  14.640  1.00  0.00    -0.508 OA
ATOM      4  H   UNL     1      43.250 131.978  14.381  1.00  0.00     0.293 HD
ENDBRANCH   2   3
BRANCH   2   5
ATOM      5  C   UNL     1      46.212 130.647  14.593  1.00  0.00     0.016 A 
ATOM      6  C   UNL     1      46.912 131.410  13.642  1.00  0.00     0.012 A 
ATOM      7  C   UNL     1      46.670 129.344  14.891  1.00  0.00     0.012 A 
ATOM      8  C   UNL     1      48.023 130.876  12.980  1.00  0.00     0.001 A 
ATOM      9  C   UNL     1      47.779 128.815  14.222  1.00  0.00     0.001 A 
ATOM     10  C   UNL     1      48.452 129.577  13.265  1.00  0.00     0.000 A 
ENDBRANCH   2   5
ENDBRANCH   1   2
BRANCH   1  11
ATOM     11  C   UNL     1      45.052 131.058  17.787  1.00  0.00     0.070 C 
BRANCH  11  12
ATOM     12  C   UNL     1      43.919 131.597  18.623  1.00  0.00     0.001 A 
ATOM     13  C   UNL     1      42.734 132.104  18.037  1.00  0.00     0.127 A 
ATOM     14  C   UNL     1      43.966 131.538  20.023  1.00  0.00     0.012 A 
ATOM     15  C   UNL     1      41.659 132.530  18.848  1.00  0.00     0.042 A 
ATOM     16  C   UNL     1      42.910 131.936  20.805  1.00  0.00     0.051 A 
ATOM     17  C   UNL     1      44.937 131.039  20.870  1.00  0.00     0.099 A 
ATOM     18  C   UNL     1      41.738 132.442  20.248  1.00  0.00     0.030 A 
ATOM     19  N   UNL     1      43.156 131.707  22.106  1.00  0.00    -0.310 N 
ATOM     20  C   UNL     1      44.394 131.161  22.146  1.00  0.00     0.209 A 
ATOM     21  F   UNL     1      42.607 132.171  16.688  1.00  0.00    -0.207 F 
ATOM     22  H   UNL     1      42.509 131.866  22.911  1.00  0.00     0.172 HD
BRANCH  20  23
ATOM     23  N   UNL     1      44.984 130.622  23.337  1.00  0.00    -0.249 N 
ATOM     24  H   UNL     1      45.999 130.433  23.169  1.00  0.00     0.361 HD
ATOM     25  H   UNL     1      44.891 131.302  24.125  1.00  0.00     0.361 HD
BRANCH  23  26
ATOM     26  C   UNL     1      44.316 129.395  23.667  1.00  0.00     0.249 A 
ATOM     27  N   UNL     1      44.804 128.171  23.347  1.00  0.00    -0.177 NA
ATOM     28  C   UNL     1      43.035 129.299  24.188  1.00  0.00     0.183 A 
ATOM     29  C   UNL     1      43.800 127.348  23.710  1.00  0.00     0.143 A 
ATOM     30  N   UNL     1      42.734 127.994  24.213  1.00  0.00    -0.301 N 
ATOM     31  C   UNL     1      43.797 125.961  23.579  1.00  0.00     0.048 A 
ATOM     32  C   UNL     1      41.598 127.370  24.615  1.00  0.00     0.093 A 
ATOM     33  C   UNL     1      42.644 125.270  23.989  1.00  0.00     0.005 A 
ATOM     34  C   UNL     1      41.538 125.973  24.507  1.00  0.00     0.018 A 
ENDBRANCH  23  26
ENDBRANCH  20  23
ENDBRANCH  11  12
ENDBRANCH   1  11
TORSDOF 7
ENDMDL
MODEL 3
REMARK VINA RESULT:      -8.1      0.838      1.599
REMARK SMILES O/C(=C\Cc1c(F)ccc2[nH]c([NH2+]c3cn4ccccc4n3)cc12)c1ccccc1
REMARK SMILES IDX 3 1 2 2 1 3 25 5 26 6 30 7 27 8 29 9 28 10 4 11 5 12 6 13
REMARK SMILES IDX 24 14 8 15 10 16 23 17 9 18 11 19 12 20 7 21 13 23 14 26
REMARK SMILES IDX 22 27 15 28 21 29 16 30 20 31 17 32 19 33 18 34
REMARK H PARENT 1 4 11 22 13 24 13 25
ROOT
ATOM      1  C   UNL     1      44.703 129.608  16.726  1.00  0.00     0.024 C 
ENDROOT
BRANCH   1   2
ATOM      2  C   UNL     1      45.394 129.039  15.719  1.00  0.00     0.119 C 
BRANCH   2   3
ATOM      3  O   UNL     1      45.303 127.667  15.460  1.00  0.00    -0.508 OA
ATOM      4  H   UNL     1      44.991 127.284  14.576  1.00  0.00     0.293 HD
ENDBRANCH   2   3
BRANCH   2   5
ATOM      5  C   UNL     1      46.295 129.848  14.857  1.00  0.00     0.016 A 
ATOM      6  C   UNL     1      46.099 131.237  14.767  1.00  0.00     0.012 A 
ATOM      7  C   UNL     1      47.371 129.266  14.149  1.00  0.00     0.012 A 
ATOM      8  C   UNL     1      46.934 132.023  13.967  1.00  0.00     0.001 A 
ATOM      9  C   UNL     1      48.200 130.058  13.347  1.00  0.00     0.001 A 
ATOM     10  C   UNL     1      47.979 131.433  13.252  1.00  0.00     0.000 A 
ENDBRANCH   2   5
ENDBRANCH   1   2
BRANCH   1  11
ATOM     11  C   UNL     1      45.248 130.730  17.570  1.00  0.00     0.070 C 
BRANCH  11  12
ATOM     12  C   UNL     1      44.133 131.425  18.310  1.00  0.00     0.001 A 
ATOM     13  C   UNL     1      43.044 132.021  17.630  1.00  0.00     0.127 A 
ATOM     14  C   UNL     1      44.095 131.432  19.712  1.00  0.00     0.012 A 
ATOM     15  C   UNL     1      41.976 132.596  18.354  1.00  0.00     0.042 A 
ATOM     16  C   UNL     1      43.044 131.978  20.408  1.00  0.00     0.051 A 
ATOM     17  C   UNL     1      44.958 130.880  20.638  1.00  0.00     0.099 A 
ATOM     18  C   UNL     1      41.966 132.572  19.758  1.00  0.00     0.030 A 
ATOM     19  N   UNL     1      43.191 131.791  21.732  1.00  0.00    -0.310 N 
ATOM     20  C   UNL     1      44.360 131.123  21.871  1.00  0.00     0.209 A 
ATOM     21  F   UNL     1      43.001 132.032  16.274  1.00  0.00    -0.207 F 
ATOM     22  H   UNL     1      42.520 132.057  22.487  1.00  0.00     0.172 HD
BRANCH  20  23
ATOM     23  N   UNL     1      44.820 130.587  23.119  1.00  0.00    -0.249 N 
ATOM     24  H   UNL     1      45.867 130.569  23.127  1.00  0.00     0.361 HD
ATOM     25  H   UNL     1      44.486 131.181  23.912  1.00  0.00     0.361 HD
BRANCH  23  26
ATOM     26  C   UNL     1      44.318 129.251  23.262  1.00  0.00     0.249 A 
ATOM     27  N   UNL     1      44.973 128.155  22.806  1.00  0.00    -0.177 NA
ATOM     28  C   UNL     1      43.050 128.919  23.713  1.00  0.00     0.183 A 
ATOM     29  C   UNL     1      44.082 127.166  23.019  1.00  0.00     0.143 A 
ATOM     30  N   UNL     1      42.927 127.595  23.557  1.00  0.00    -0.301 N 
ATOM     31  C   UNL     1      44.269 125.821  22.710  1.00  0.00     0.048 A 
ATOM     32  C   UNL     1      41.877 126.779  23.829  1.00  0.00     0.093 A 
ATOM     33  C   UNL     1      43.211 124.937  22.980  1.00  0.00     0.005 A 
ATOM     34  C   UNL     1      42.009 125.413  23.539  1.00  0.00     0.018 A 
ENDBRANCH  23  26
ENDBRANCH  20  23
ENDBRANCH  11  12
ENDBRANCH   1  11
TORSDOF 7
ENDMDL
MODEL 4
REMARK VINA RESULT:      -7.9      1.173      1.691
REMARK SMILES O/C(=C\Cc1c(F)ccc2[nH]c([NH2+]c3cn4ccccc4n3)cc12)c1ccccc1
REMARK SMILES IDX 3 1 2 2 1 3 25 5 26 6 30 7 27 8 29 9 28 10 4 11 5 12 6 13
REMARK SMILES IDX 24 14 8 15 10 16 23 17 9 18 11 19 12 20 7 21 13 23 14 26
REMARK SMILES IDX 22 27 15 28 21 29 16 30 20 31 17 32 19 33 18 34
REMARK H PARENT 1 4 11 22 13 24 13 25
ROOT
ATOM      1  C   UNL     1      45.081 131.792  16.844  1.00  0.00     0.024 C 
ENDROOT
BRANCH   1   2
ATOM      2  C   UNL     1      44.941 131.199  15.642  1.00  0.00     0.119 C 
BRANCH   2   3
ATOM      3  O   UNL     1      43.676 130.954  15.097  1.00  0.00    -0.508 OA
ATOM      4  H   UNL     1      42.811 131.232  15.543  1.00  0.00     0.293 HD
ENDBRANCH   2   3
BRANCH   2   5
ATOM      5  C   UNL     1      46.127 130.766  14.859  1.00  0.00     0.016 A 
ATOM      6  C   UNL     1      46.917 129.705  15.337  1.00  0.00     0.012 A 
ATOM      7  C   UNL     1      46.467 131.366  13.626  1.00  0.00     0.012 A 
ATOM      8  C   UNL     1      48.037 129.275  14.618  1.00  0.00     0.001 A 
ATOM      9  C   UNL     1      47.591 130.931  12.915  1.00  0.00     0.001 A 
ATOM     10  C   UNL     1      48.378 129.891  13.412  1.00  0.00     0.000 A 
ENDBRANCH   2   5
ENDBRANCH   1   2
BRANCH   1  11
ATOM     11  C   UNL     1      45.142 131.025  18.139  1.00  0.00     0.070 C 
BRANCH  11  12
ATOM     12  C   UNL     1      44.072 131.502  19.088  1.00  0.00     0.001 A 
ATOM     13  C   UNL     1      42.934 132.212  18.634  1.00  0.00     0.127 A 
ATOM     14  C   UNL     1      44.127 131.185  20.452  1.00  0.00     0.012 A 
ATOM     15  C   UNL     1      41.912 132.578  19.537  1.00  0.00     0.042 A 
ATOM     16  C   UNL     1      43.119 131.528  21.321  1.00  0.00     0.051 A 
ATOM     17  C   UNL     1      45.054 130.454  21.170  1.00  0.00     0.099 A 
ATOM     18  C   UNL     1      41.995 132.230  20.895  1.00  0.00     0.030 A 
ATOM     19  N   UNL     1      43.355 131.044  22.553  1.00  0.00    -0.310 N 
ATOM     20  C   UNL     1      44.537 130.391  22.461  1.00  0.00     0.209 A 
ATOM     21  F   UNL     1      42.802 132.535  17.323  1.00  0.00    -0.207 F 
ATOM     22  H   UNL     1      42.733 131.112  23.389  1.00  0.00     0.172 HD
BRANCH  20  23
ATOM     23  N   UNL     1      45.085 129.593  23.519  1.00  0.00    -0.249 N 
ATOM     24  H   UNL     1      46.053 129.291  23.263  1.00  0.00     0.361 HD
ATOM     25  H   UNL     1      45.125 130.147  24.404  1.00  0.00     0.361 HD
BRANCH  23  26
ATOM     26  C   UNL     1      44.255 128.437  23.702  1.00  0.00     0.249 A 
ATOM     27  N   UNL     1      44.622 127.188  23.323  1.00  0.00    -0.177 NA
ATOM     28  C   UNL     1      42.933 128.460  24.118  1.00  0.00     0.183 A 
ATOM     29  C   UNL     1      43.503 126.469  23.545  1.00  0.00     0.143 A 
ATOM     30  N   UNL     1      42.482 127.204  24.017  1.00  0.00    -0.301 N 
ATOM     31  C   UNL     1      43.351 125.106  23.305  1.00  0.00     0.048 A 
ATOM     32  C   UNL     1      41.252 126.696  24.283  1.00  0.00     0.093 A 
ATOM     33  C   UNL     1      42.096 124.533  23.573  1.00  0.00     0.005 A 
ATOM     34  C   UNL     1      41.040 125.327  24.062  1.00  0.00     0.018 A 
ENDBRANCH  23  26
ENDBRANCH  20  23
ENDBRANCH  11  12
ENDBRANCH   1  11
TORSDOF 7
ENDMDL
MODEL 5
REMARK VINA RESULT:      -7.7      1.399      1.704
REMARK SMILES O/C(=C\Cc1c(F)ccc2[nH]c([NH2+]c3cn4ccccc4n3)cc12)c1ccccc1
REMARK SMILES IDX 3 1 2 2 1 3 25 5 26 6 30 7 27 8 29 9 28 10 4 11 5 12 6 13
REMARK SMILES IDX 24 14 8 15 10 16 23 17 9 18 11 19 12 20 7 21 13 23 14 26
REMARK SMILES IDX 22 27 15 28 21 29 16 30 20 31 17 32 19 33 18 34
REMARK H PARENT 1 4 11 22 13 24 13 25
ROOT
ATOM      1  C   UNL     1      45.941 131.221  17.714  1.00  0.00     0.024 C 
ENDROOT
BRANCH   1   2
ATOM      2  C   UNL     1      45.927 131.725  16.464  1.00  0.00     0.119 C 
BRANCH   2   3
ATOM      3  O   UNL     1      45.233 132.903  16.165  1.00  0.00    -0.508 OA
ATOM      4  H   UNL     1      45.283 133.369  15.268  1.00  0.00     0.293 HD
ENDBRANCH   2   3
BRANCH   2   5
ATOM      5  C   UNL     1      46.634 131.038  15.353  1.00  0.00     0.016 A 
ATOM      6  C   UNL     1      46.943 129.671  15.475  1.00  0.00     0.012 A 
ATOM      7  C   UNL     1      46.976 131.708  14.157  1.00  0.00     0.012 A 
ATOM      8  C   UNL     1      47.605 128.998  14.443  1.00  0.00     0.001 A 
ATOM      9  C   UNL     1      47.641 131.028  13.131  1.00  0.00     0.001 A 
ATOM     10  C   UNL     1      47.960 129.677  13.275  1.00  0.00     0.000 A 
ENDBRANCH   2   5
ENDBRANCH   1   2
BRANCH   1  11
ATOM     11  C   UNL     1      44.828 130.373  18.272  1.00  0.00     0.070 C 
BRANCH  11  12
ATOM     12  C   UNL     1      43.838 131.227  19.023  1.00  0.00     0.001 A 
ATOM     13  C   UNL     1      42.823 131.955  18.356  1.00  0.00     0.127 A 
ATOM     14  C   UNL     1      43.837 131.265  20.425  1.00  0.00     0.012 A 
ATOM     15  C   UNL     1      41.863 132.684  19.092  1.00  0.00     0.042 A 
ATOM     16  C   UNL     1      42.889 131.961  21.134  1.00  0.00     0.051 A 
ATOM     17  C   UNL     1      44.640 130.615  21.342  1.00  0.00     0.099 A 
ATOM     18  C   UNL     1      41.885 132.686  20.497  1.00  0.00     0.030 A 
ATOM     19  N   UNL     1      43.043 131.779  22.457  1.00  0.00    -0.310 N 
ATOM     20  C   UNL     1      44.113 130.960  22.584  1.00  0.00     0.209 A 
ATOM     21  F   UNL     1      42.747 131.947  17.002  1.00  0.00    -0.207 F 
ATOM     22  H   UNL     1      42.434 132.148  23.221  1.00  0.00     0.172 HD
BRANCH  20  23
ATOM     23  N   UNL     1      44.528 130.388  23.832  1.00  0.00    -0.249 N 
ATOM     24  H   UNL     1      45.568 130.461  23.921  1.00  0.00     0.361 HD
ATOM     25  H   UNL     1      44.082 130.899  24.628  1.00  0.00     0.361 HD
BRANCH  23  26
ATOM     26  C   UNL     1      44.141 129.007  23.858  1.00  0.00     0.249 A 
ATOM     27  N   UNL     1      42.875 128.592  24.110  1.00  0.00    -0.177 NA
ATOM     28  C   UNL     1      45.014 127.932  23.804  1.00  0.00     0.183 A 
ATOM     29  C   UNL     1      43.010 127.252  24.180  1.00  0.00     0.143 A 
ATOM     30  N   UNL     1      44.275 126.833  24.003  1.00  0.00    -0.301 N 
ATOM     31  C   UNL     1      41.986 126.342  24.433  1.00  0.00     0.048 A 
ATOM     32  C   UNL     1      44.650 125.530  24.062  1.00  0.00     0.093 A 
ATOM     33  C   UNL     1      42.325 124.981  24.496  1.00  0.00     0.005 A 
ATOM     34  C   UNL     1      43.660 124.569  24.313  1.00  0.00     0.018 A 
ENDBRANCH  23  26
ENDBRANCH  20  23
ENDBRANCH  11  12
ENDBRANCH   1  11
TORSDOF 7
ENDMDL
MODEL 6
REMARK VINA RESULT:      -7.6      3.685      4.980
REMARK SMILES O/C(=C\Cc1c(F)ccc2[nH]c([NH2+]c3cn4ccccc4n3)cc12)c1ccccc1
REMARK SMILES IDX 3 1 2 2 1 3 25 5 26 6 30 7 27 8 29 9 28 10 4 11 5 12 6 13
REMARK SMILES IDX 24 14 8 15 10 16 23 17 9 18 11 19 12 20 7 21 13 23 14 26
REMARK SMILES IDX 22 27 15 28 21 29 16 30 20 31 17 32 19 33 18 34
REMARK H PARENT 1 4 11 22 13 24 13 25
ROOT
ATOM      1  C   UNL     1      45.186 130.437  18.169  1.00  0.00     0.024 C 
ENDROOT
BRANCH   1   2
ATOM      2  C   UNL     1      45.344 131.275  17.126  1.00  0.00     0.119 C 
BRANCH   2   3
ATOM      3  O   UNL     1      44.778 132.554  17.130  1.00  0.00    -0.508 OA
ATOM      4  H   UNL     1      44.245 132.928  17.906  1.00  0.00     0.293 HD
ENDBRANCH   2   3
BRANCH   2   5
ATOM      5  C   UNL     1      46.112 130.863  15.922  1.00  0.00     0.016 A 
ATOM      6  C   UNL     1      46.428 131.824  14.945  1.00  0.00     0.012 A 
ATOM      7  C   UNL     1      46.567 129.537  15.744  1.00  0.00     0.012 A 
ATOM      8  C   UNL     1      47.152 131.465  13.803  1.00  0.00     0.001 A 
ATOM      9  C   UNL     1      47.287 129.185  14.598  1.00  0.00     0.001 A 
ATOM     10  C   UNL     1      47.575 130.145  13.627  1.00  0.00     0.000 A 
ENDBRANCH   2   5
ENDBRANCH   1   2
BRANCH   1  11
ATOM     11  C   UNL     1      46.106 130.421  19.361  1.00  0.00     0.070 C 
BRANCH  11  12
ATOM     12  C   UNL     1      45.315 130.509  20.642  1.00  0.00     0.001 A 
ATOM     13  C   UNL     1      44.586 131.672  20.990  1.00  0.00     0.127 A 
ATOM     14  C   UNL     1      45.206 129.405  21.498  1.00  0.00     0.012 A 
ATOM     15  C   UNL     1      43.792 131.696  22.158  1.00  0.00     0.042 A 
ATOM     16  C   UNL     1      44.417 129.430  22.622  1.00  0.00     0.051 A 
ATOM     17  C   UNL     1      45.730 128.131  21.394  1.00  0.00     0.099 A 
ATOM     18  C   UNL     1      43.696 130.565  22.984  1.00  0.00     0.030 A 
ATOM     19  N   UNL     1      44.406 128.232  23.233  1.00  0.00    -0.310 N 
ATOM     20  C   UNL     1      45.209 127.441  22.485  1.00  0.00     0.209 A 
ATOM     21  F   UNL     1      44.625 132.773  20.198  1.00  0.00    -0.207 F 
ATOM     22  H   UNL     1      43.853 127.957  24.076  1.00  0.00     0.172 HD
BRANCH  20  23
ATOM     23  N   UNL     1      45.353 126.030  22.700  1.00  0.00    -0.249 N 
ATOM     24  H   UNL     1      45.040 125.791  23.669  1.00  0.00     0.361 HD
ATOM     25  H   UNL     1      44.769 125.500  22.014  1.00  0.00     0.361 HD
BRANCH  23  26
ATOM     26  C   UNL     1      46.735 125.678  22.543  1.00  0.00     0.249 A 
ATOM     27  N   UNL     1      47.171 124.744  21.662  1.00  0.00    -0.177 NA
ATOM     28  C   UNL     1      47.766 126.103  23.367  1.00  0.00     0.183 A 
ATOM     29  C   UNL     1      48.482 124.642  21.962  1.00  0.00     0.143 A 
ATOM     30  N   UNL     1      48.861 125.440  22.975  1.00  0.00    -0.301 N 
ATOM     31  C   UNL     1      49.395 123.795  21.340  1.00  0.00     0.048 A 
ATOM     32  C   UNL     1      50.126 125.480  23.466  1.00  0.00     0.093 A 
ATOM     33  C   UNL     1      50.719 123.807  21.809  1.00  0.00     0.005 A 
ATOM     34  C   UNL     1      51.090 124.649  22.876  1.00  0.00     0.018 A 
ENDBRANCH  23  26
ENDBRANCH  20  23
ENDBRANCH  11  12
ENDBRANCH   1  11
TORSDOF 7
ENDMDL
MODEL 7
REMARK VINA RESULT:      -7.2      5.014      8.551
REMARK SMILES O/C(=C\Cc1c(F)ccc2[nH]c([NH2+]c3cn4ccccc4n3)cc12)c1ccccc1
REMARK SMILES IDX 3 1 2 2 1 3 25 5 26 6 30 7 27 8 29 9 28 10 4 11 5 12 6 13
REMARK SMILES IDX 24 14 8 15 10 16 23 17 9 18 11 19 12 20 7 21 13 23 14 26
REMARK SMILES IDX 22 27 15 28 21 29 16 30 20 31 17 32 19 33 18 34
REMARK H PARENT 1 4 11 22 13 24 13 25
ROOT
ATOM      1  C   UNL     1      47.129 134.012  21.913  1.00  0.00     0.024 C 
ENDROOT
BRANCH   1   2
ATOM      2  C   UNL     1      48.311 134.293  22.494  1.00  0.00     0.119 C 
BRANCH   2   3
ATOM      3  O   UNL     1      48.816 133.501  23.532  1.00  0.00    -0.508 OA
ATOM      4  H   UNL     1      49.298 133.877  24.339  1.00  0.00     0.293 HD
ENDBRANCH   2   3
BRANCH   2   5
ATOM      5  C   UNL     1      49.116 135.467  22.067  1.00  0.00     0.016 A 
ATOM      6  C   UNL     1      48.619 136.311  21.057  1.00  0.00     0.012 A 
ATOM      7  C   UNL     1      50.352 135.785  22.671  1.00  0.00     0.012 A 
ATOM      8  C   UNL     1      49.353 137.425  20.638  1.00  0.00     0.001 A 
ATOM      9  C   UNL     1      51.082 136.899  22.243  1.00  0.00     0.001 A 
ATOM     10  C   UNL     1      50.587 137.715  21.225  1.00  0.00     0.000 A 
ENDBRANCH   2   5
ENDBRANCH   1   2
BRANCH   1  11
ATOM     11  C   UNL     1      46.879 132.758  21.117  1.00  0.00     0.070 C 
BRANCH  11  12
ATOM     12  C   UNL     1      45.461 132.281  21.313  1.00  0.00     0.001 A 
ATOM     13  C   UNL     1      44.866 132.218  22.596  1.00  0.00     0.127 A 
ATOM     14  C   UNL     1      44.652 131.960  20.215  1.00  0.00     0.012 A 
ATOM     15  C   UNL     1      43.512 131.841  22.740  1.00  0.00     0.042 A 
ATOM     16  C   UNL     1      43.331 131.613  20.361  1.00  0.00     0.051 A 
ATOM     17  C   UNL     1      44.919 131.995  18.860  1.00  0.00     0.099 A 
ATOM     18  C   UNL     1      42.728 131.541  21.614  1.00  0.00     0.030 A 
ATOM     19  N   UNL     1      42.742 131.434  19.166  1.00  0.00    -0.310 N 
ATOM     20  C   UNL     1      43.712 131.665  18.250  1.00  0.00     0.209 A 
ATOM     21  F   UNL     1      45.581 132.536  23.704  1.00  0.00    -0.207 F 
ATOM     22  H   UNL     1      41.737 131.216  18.982  1.00  0.00     0.172 HD
BRANCH  20  23
ATOM     23  N   UNL     1      43.468 131.731  16.838  1.00  0.00    -0.249 N 
ATOM     24  H   UNL     1      42.691 131.076  16.587  1.00  0.00     0.361 HD
ATOM     25  H   UNL     1      43.193 132.702  16.566  1.00  0.00     0.361 HD
BRANCH  23  26
ATOM     26  C   UNL     1      44.663 131.346  16.145  1.00  0.00     0.249 A 
ATOM     27  N   UNL     1      45.284 132.136  15.235  1.00  0.00    -0.177 NA
ATOM     28  C   UNL     1      45.233 130.083  16.177  1.00  0.00     0.183 A 
ATOM     29  C   UNL     1      46.247 131.327  14.747  1.00  0.00     0.143 A 
ATOM     30  N   UNL     1      46.236 130.098  15.291  1.00  0.00    -0.301 N 
ATOM     31  C   UNL     1      47.171 131.664  13.761  1.00  0.00     0.048 A 
ATOM     32  C   UNL     1      47.094 129.110  14.930  1.00  0.00     0.093 A 
ATOM     33  C   UNL     1      48.085 130.675  13.360  1.00  0.00     0.005 A 
ATOM     34  C   UNL     1      48.049 129.392  13.942  1.00  0.00     0.018 A 
ENDBRANCH  23  26
ENDBRANCH  20  23
ENDBRANCH  11  12
ENDBRANCH   1  11
TORSDOF 7
ENDMDL
MODEL 8
REMARK VINA RESULT:      -6.6      3.111      4.111
REMARK SMILES O/C(=C\Cc1c(F)ccc2[nH]c([NH2+]c3cn4ccccc4n3)cc12)c1ccccc1
REMARK SMILES IDX 3 1 2 2 1 3 25 5 26 6 30 7 27 8 29 9 28 10 4 11 5 12 6 13
REMARK SMILES IDX 24 14 8 15 10 16 23 17 9 18 11 19 12 20 7 21 13 23 14 26
REMARK SMILES IDX 22 27 15 28 21 29 16 30 20 31 17 32 19 33 18 34
REMARK H PARENT 1 4 11 22 13 24 13 25
ROOT
ATOM      1  C   UNL     1      45.688 130.438  17.321  1.00  0.00     0.024 C 
ENDROOT
BRANCH   1   2
ATOM      2  C   UNL     1      45.633 129.720  16.182  1.00  0.00     0.119 C 
BRANCH   2   3
ATOM      3  O   UNL     1      44.756 128.638  16.049  1.00  0.00    -0.508 OA
ATOM      4  H   UNL     1      44.899 127.742  16.499  1.00  0.00     0.293 HD
ENDBRANCH   2   3
BRANCH   2   5
ATOM      5  C   UNL     1      46.517 130.039  15.031  1.00  0.00     0.016 A 
ATOM      6  C   UNL     1      47.519 129.125  14.659  1.00  0.00     0.012 A 
ATOM      7  C   UNL     1      46.360 131.221  14.274  1.00  0.00     0.012 A 
ATOM      8  C   UNL     1      48.363 129.397  13.578  1.00  0.00     0.001 A 
ATOM      9  C   UNL     1      47.211 131.488  13.196  1.00  0.00     0.001 A 
ATOM     10  C   UNL     1      48.214 130.581  12.851  1.00  0.00     0.000 A 
ENDBRANCH   2   5
ENDBRANCH   1   2
BRANCH   1  11
ATOM     11  C   UNL     1      46.145 129.864  18.636  1.00  0.00     0.070 C 
BRANCH  11  12
ATOM     12  C   UNL     1      45.330 130.429  19.772  1.00  0.00     0.001 A 
ATOM     13  C   UNL     1      44.631 131.654  19.651  1.00  0.00     0.127 A 
ATOM     14  C   UNL     1      45.168 129.714  20.967  1.00  0.00     0.012 A 
ATOM     15  C   UNL     1      43.813 132.119  20.705  1.00  0.00     0.042 A 
ATOM     16  C   UNL     1      44.356 130.163  21.980  1.00  0.00     0.051 A 
ATOM     17  C   UNL     1      45.654 128.479  21.349  1.00  0.00     0.099 A 
ATOM     18  C   UNL     1      43.663 131.367  21.882  1.00  0.00     0.030 A 
ATOM     19  N   UNL     1      44.294 129.271  22.983  1.00  0.00    -0.310 N 
ATOM     20  C   UNL     1      45.088 128.244  22.599  1.00  0.00     0.209 A 
ATOM     21  F   UNL     1      44.721 132.390  18.515  1.00  0.00    -0.207 F 
ATOM     22  H   UNL     1      43.715 129.333  23.850  1.00  0.00     0.172 HD
BRANCH  20  23
ATOM     23  N   UNL     1      45.183 127.006  23.316  1.00  0.00    -0.249 N 
ATOM     24  H   UNL     1      45.403 127.200  24.321  1.00  0.00     0.361 HD
ATOM     25  H   UNL     1      44.276 126.488  23.262  1.00  0.00     0.361 HD
BRANCH  23  26
ATOM     26  C   UNL     1      46.234 126.218  22.740  1.00  0.00     0.249 A 
ATOM     27  N   UNL     1      46.010 125.109  21.993  1.00  0.00    -0.177 NA
ATOM     28  C   UNL     1      47.586 126.374  23.003  1.00  0.00     0.183 A 
ATOM     29  C   UNL     1      47.254 124.626  21.798  1.00  0.00     0.143 A 
ATOM     30  N   UNL     1      48.210 125.361  22.391  1.00  0.00    -0.301 N 
ATOM     31  C   UNL     1      47.577 123.473  21.087  1.00  0.00     0.048 A 
ATOM     32  C   UNL     1      49.530 125.046  22.354  1.00  0.00     0.093 A 
ATOM     33  C   UNL     1      48.933 123.111  21.014  1.00  0.00     0.005 A 
ATOM     34  C   UNL     1      49.915 123.896  21.650  1.00  0.00     0.018 A 
ENDBRANCH  23  26
ENDBRANCH  20  23
ENDBRANCH  11  12
ENDBRANCH   1  11
TORSDOF 7
ENDMDL
MODEL 9
REMARK VINA RESULT:      -6.2      2.421      3.751
REMARK SMILES O/C(=C\Cc1c(F)ccc2[nH]c([NH2+]c3cn4ccccc4n3)cc12)c1ccccc1
REMARK SMILES IDX 3 1 2 2 1 3 25 5 26 6 30 7 27 8 29 9 28 10 4 11 5 12 6 13
REMARK SMILES IDX 24 14 8 15 10 16 23 17 9 18 11 19 12 20 7 21 13 23 14 26
REMARK SMILES IDX 22 27 15 28 21 29 16 30 20 31 17 32 19 33 18 34
REMARK H PARENT 1 4 11 22 13 24 13 25
ROOT
ATOM      1  C   UNL     1      44.437 131.245  19.153  1.00  0.00     0.024 C 
ENDROOT
BRANCH   1   2
ATOM      2  C   UNL     1      45.308 130.598  18.353  1.00  0.00     0.119 C 
BRANCH   2   3
ATOM      3  O   UNL     1      46.290 129.754  18.883  1.00  0.00    -0.508 OA
ATOM      4  H   UNL     1      46.778 129.053  18.340  1.00  0.00     0.293 HD
ENDBRANCH   2   3
BRANCH   2   5
ATOM      5  C   UNL     1      45.269 130.774  16.878  1.00  0.00     0.016 A 
ATOM      6  C   UNL     1      44.156 131.398  16.288  1.00  0.00     0.012 A 
ATOM      7  C   UNL     1      46.337 130.363  16.050  1.00  0.00     0.012 A 
ATOM      8  C   UNL     1      44.095 131.580  14.903  1.00  0.00     0.001 A 
ATOM      9  C   UNL     1      46.267 130.545  14.664  1.00  0.00     0.001 A 
ATOM     10  C   UNL     1      45.146 131.148  14.091  1.00  0.00     0.000 A 
ENDBRANCH   2   5
ENDBRANCH   1   2
BRANCH   1  11
ATOM     11  C   UNL     1      44.837 131.900  20.448  1.00  0.00     0.070 C 
BRANCH  11  12
ATOM     12  C   UNL     1      43.946 131.436  21.573  1.00  0.00     0.001 A 
ATOM     13  C   UNL     1      42.762 132.130  21.923  1.00  0.00     0.127 A 
ATOM     14  C   UNL     1      44.218 130.246  22.263  1.00  0.00     0.012 A 
ATOM     15  C   UNL     1      41.909 131.627  22.929  1.00  0.00     0.042 A 
ATOM     16  C   UNL     1      43.374 129.754  23.228  1.00  0.00     0.051 A 
ATOM     17  C   UNL     1      45.238 129.327  22.104  1.00  0.00     0.099 A 
ATOM     18  C   UNL     1      42.207 130.424  23.588  1.00  0.00     0.030 A 
ATOM     19  N   UNL     1      43.800 128.564  23.684  1.00  0.00    -0.310 N 
ATOM     20  C   UNL     1      44.938 128.305  23.000  1.00  0.00     0.209 A 
ATOM     21  F   UNL     1      42.422 133.277  21.283  1.00  0.00    -0.207 F 
ATOM     22  H   UNL     1      43.325 127.946  24.379  1.00  0.00     0.172 HD
BRANCH  20  23
ATOM     23  N   UNL     1      45.638 127.054  23.071  1.00  0.00    -0.249 N 
ATOM     24  H   UNL     1      46.359 127.015  22.314  1.00  0.00     0.361 HD
ATOM     25  H   UNL     1      46.112 126.960  23.998  1.00  0.00     0.361 HD
BRANCH  23  26
ATOM     26  C   UNL     1      44.695 125.988  22.892  1.00  0.00     0.249 A 
ATOM     27  N   UNL     1      45.045 124.747  22.470  1.00  0.00    -0.177 NA
ATOM     28  C   UNL     1      43.317 126.121  22.953  1.00  0.00     0.183 A 
ATOM     29  C   UNL     1      43.851 124.142  22.308  1.00  0.00     0.143 A 
ATOM     30  N   UNL     1      42.806 124.939  22.587  1.00  0.00    -0.301 N 
ATOM     31  C   UNL     1      43.655 122.834  21.871  1.00  0.00     0.048 A 
ATOM     32  C   UNL     1      41.511 124.551  22.464  1.00  0.00     0.093 A 
ATOM     33  C   UNL     1      42.331 122.384  21.735  1.00  0.00     0.005 A 
ATOM     34  C   UNL     1      41.252 123.242  22.030  1.00  0.00     0.018 A 
ENDBRANCH  23  26
ENDBRANCH  20  23
ENDBRANCH  11  12
ENDBRANCH   1  11
TORSDOF 7
ENDMDL


