MODEL 1
REMARK VINA RESULT:     -10.2      0.000      0.000
REMARK SMILES c1ccc2[nH]c([NH2+]c3cn4ccccc4n3)cc2c1
REMARK SMILES IDX 1 1 2 2 3 3 4 4 5 5 6 6 17 7 18 8 19 9 7 11 8 14 9 15 16 16
REMARK SMILES IDX 10 17 15 18 11 19 14 20 12 21 13 22
REMARK H PARENT 5 10 7 12 7 13
ROOT
ATOM      1  C   UNL     1      48.021 129.247  13.809  1.00  0.00     0.001 A 
ATOM      2  C   UNL     1      48.211 130.551  13.299  1.00  0.00     0.002 A 
ATOM      3  C   UNL     1      47.298 131.577  13.608  1.00  0.00     0.027 A 
ATOM      4  C   UNL     1      46.212 131.258  14.422  1.00  0.00     0.050 A 
ATOM      5  N   UNL     1      45.239 132.085  14.844  1.00  0.00    -0.310 N 
ATOM      6  C   UNL     1      44.428 131.317  15.609  1.00  0.00     0.209 A 
ATOM      7  C   UNL     1      44.889 130.005  15.691  1.00  0.00     0.099 A 
ATOM      8  C   UNL     1      46.029 129.991  14.917  1.00  0.00     0.006 A 
ATOM      9  C   UNL     1      46.918 128.957  14.632  1.00  0.00     0.010 A 
ATOM     10  H   UNL     1      45.141 133.103  14.640  1.00  0.00     0.172 HD
ENDROOT
BRANCH   6  11
ATOM     11  N   UNL     1      43.296 131.834  16.322  1.00  0.00    -0.249 N 
ATOM     12  H   UNL     1      42.445 131.264  16.107  1.00  0.00     0.361 HD
ATOM     13  H   UNL     1      43.121 132.823  16.033  1.00  0.00     0.361 HD
BRANCH  11  14
ATOM     14  C   UNL     1      43.570 131.788  17.729  1.00  0.00     0.249 A 
ATOM     15  C   UNL     1      42.616 131.850  18.732  1.00  0.00     0.183 A 
ATOM     16  N   UNL     1      44.807 131.578  18.244  1.00  0.00    -0.177 NA
ATOM     17  N   UNL     1      43.274 131.694  19.889  1.00  0.00    -0.301 N 
ATOM     18  C   UNL     1      44.571 131.535  19.572  1.00  0.00     0.143 A 
ATOM     19  C   UNL     1      42.804 131.672  21.161  1.00  0.00     0.093 A 
ATOM     20  C   UNL     1      45.529 131.338  20.565  1.00  0.00     0.048 A 
ATOM     21  C   UNL     1      43.724 131.479  22.203  1.00  0.00     0.018 A 
ATOM     22  C   UNL     1      45.090 131.312  21.899  1.00  0.00     0.005 A 
ENDBRANCH  11  14
ENDBRANCH   6  11
TORSDOF 2
ENDMDL
MODEL 2
REMARK VINA RESULT:     -10.1      0.629      1.334
REMARK SMILES c1ccc2[nH]c([NH2+]c3cn4ccccc4n3)cc2c1
REMARK SMILES IDX 1 1 2 2 3 3 4 4 5 5 6 6 17 7 18 8 19 9 7 11 8 14 9 15 16 16
REMARK SMILES IDX 10 17 15 18 11 19 14 20 12 21 13 22
REMARK H PARENT 5 10 7 12 7 13
ROOT
ATOM      1  C   UNL     1      48.051 130.323  13.054  1.00  0.00     0.001 A 
ATOM      2  C   UNL     1      48.032 129.173  13.875  1.00  0.00     0.002 A 
ATOM      3  C   UNL     1      47.059 129.034  14.883  1.00  0.00     0.027 A 
ATOM      4  C   UNL     1      46.132 130.064  15.040  1.00  0.00     0.050 A 
ATOM      5  N   UNL     1      45.123 130.125  15.925  1.00  0.00    -0.310 N 
ATOM      6  C   UNL     1      44.507 131.305  15.682  1.00  0.00     0.209 A 
ATOM      7  C   UNL     1      45.111 131.993  14.631  1.00  0.00     0.099 A 
ATOM      8  C   UNL     1      46.153 131.181  14.241  1.00  0.00     0.006 A 
ATOM      9  C   UNL     1      47.100 131.344  13.233  1.00  0.00     0.010 A 
ATOM     10  H   UNL     1      44.860 129.407  16.636  1.00  0.00     0.172 HD
ENDROOT
BRANCH   6  11
ATOM     11  N   UNL     1      43.319 131.730  16.364  1.00  0.00    -0.249 N 
ATOM     12  H   UNL     1      42.525 131.085  16.138  1.00  0.00     0.361 HD
ATOM     13  H   UNL     1      43.065 132.696  16.057  1.00  0.00     0.361 HD
BRANCH  11  14
ATOM     14  C   UNL     1      43.564 131.725  17.776  1.00  0.00     0.249 A 
ATOM     15  C   UNL     1      42.588 131.797  18.757  1.00  0.00     0.183 A 
ATOM     16  N   UNL     1      44.793 131.548  18.322  1.00  0.00    -0.177 NA
ATOM     17  N   UNL     1      43.224 131.682  19.931  1.00  0.00    -0.301 N 
ATOM     18  C   UNL     1      44.530 131.537  19.645  1.00  0.00     0.143 A 
ATOM     19  C   UNL     1      42.728 131.686  21.194  1.00  0.00     0.093 A 
ATOM     20  C   UNL     1      45.470 131.381  20.662  1.00  0.00     0.048 A 
ATOM     21  C   UNL     1      43.629 131.535  22.259  1.00  0.00     0.018 A 
ATOM     22  C   UNL     1      45.003 131.382  21.987  1.00  0.00     0.005 A 
ENDBRANCH  11  14
ENDBRANCH   6  11
TORSDOF 2
ENDMDL
MODEL 3
REMARK VINA RESULT:     -10.1      0.622      1.333
REMARK SMILES c1ccc2[nH]c([NH2+]c3cn4ccccc4n3)cc2c1
REMARK SMILES IDX 1 1 2 2 3 3 4 4 5 5 6 6 17 7 18 8 19 9 7 11 8 14 9 15 16 16
REMARK SMILES IDX 10 17 15 18 11 19 14 20 12 21 13 22
REMARK H PARENT 5 10 7 12 7 13
ROOT
ATOM      1  C   UNL     1      48.045 129.169  13.826  1.00  0.00     0.001 A 
ATOM      2  C   UNL     1      48.205 130.430  13.208  1.00  0.00     0.002 A 
ATOM      3  C   UNL     1      47.295 131.471  13.468  1.00  0.00     0.027 A 
ATOM      4  C   UNL     1      46.241 131.211  14.344  1.00  0.00     0.050 A 
ATOM      5  N   UNL     1      45.277 132.062  14.735  1.00  0.00    -0.310 N 
ATOM      6  C   UNL     1      44.501 131.352  15.587  1.00  0.00     0.209 A 
ATOM      7  C   UNL     1      44.976 130.053  15.754  1.00  0.00     0.099 A 
ATOM      8  C   UNL     1      46.088 129.985  14.943  1.00  0.00     0.006 A 
ATOM      9  C   UNL     1      46.975 128.937  14.709  1.00  0.00     0.010 A 
ATOM     10  H   UNL     1      45.161 133.061  14.455  1.00  0.00     0.172 HD
ENDROOT
BRANCH   6  11
ATOM     11  N   UNL     1      43.390 131.917  16.298  1.00  0.00    -0.249 N 
ATOM     12  H   UNL     1      42.501 131.449  16.005  1.00  0.00     0.361 HD
ATOM     13  H   UNL     1      43.320 132.937  16.085  1.00  0.00     0.361 HD
BRANCH  11  14
ATOM     14  C   UNL     1      43.596 131.735  17.705  1.00  0.00     0.249 A 
ATOM     15  C   UNL     1      44.824 131.527  18.314  1.00  0.00     0.183 A 
ATOM     16  N   UNL     1      42.607 131.844  18.626  1.00  0.00    -0.177 NA
ATOM     17  N   UNL     1      44.590 131.489  19.633  1.00  0.00    -0.301 N 
ATOM     18  C   UNL     1      43.268 131.678  19.791  1.00  0.00     0.143 A 
ATOM     19  C   UNL     1      45.452 131.314  20.665  1.00  0.00     0.093 A 
ATOM     20  C   UNL     1      42.698 131.702  21.063  1.00  0.00     0.048 A 
ATOM     21  C   UNL     1      44.933 131.328  21.969  1.00  0.00     0.018 A 
ATOM     22  C   UNL     1      43.552 131.522  22.163  1.00  0.00     0.005 A 
ENDBRANCH  11  14
ENDBRANCH   6  11
TORSDOF 2
ENDMDL
MODEL 4
REMARK VINA RESULT:      -9.5      0.796      6.563
REMARK SMILES c1ccc2[nH]c([NH2+]c3cn4ccccc4n3)cc2c1
REMARK SMILES IDX 1 1 2 2 3 3 4 4 5 5 6 6 17 7 18 8 19 9 7 11 8 14 9 15 16 16
REMARK SMILES IDX 10 17 15 18 11 19 14 20 12 21 13 22
REMARK H PARENT 5 10 7 12 7 13
ROOT
ATOM      1  C   UNL     1      44.623 131.295  22.125  1.00  0.00     0.001 A 
ATOM      2  C   UNL     1      43.302 131.783  22.248  1.00  0.00     0.002 A 
ATOM      3  C   UNL     1      42.543 132.083  21.101  1.00  0.00     0.027 A 
ATOM      4  C   UNL     1      43.140 131.887  19.856  1.00  0.00     0.050 A 
ATOM      5  N   UNL     1      42.593 132.097  18.647  1.00  0.00    -0.310 N 
ATOM      6  C   UNL     1      43.554 131.758  17.757  1.00  0.00     0.209 A 
ATOM      7  C   UNL     1      44.712 131.315  18.394  1.00  0.00     0.099 A 
ATOM      8  C   UNL     1      44.424 131.413  19.739  1.00  0.00     0.006 A 
ATOM      9  C   UNL     1      45.197 131.103  20.855  1.00  0.00     0.010 A 
ATOM     10  H   UNL     1      41.627 132.434  18.439  1.00  0.00     0.172 HD
ENDROOT
BRANCH   6  11
ATOM     11  N   UNL     1      43.352 131.763  16.337  1.00  0.00    -0.249 N 
ATOM     12  H   UNL     1      43.121 132.730  16.011  1.00  0.00     0.361 HD
ATOM     13  H   UNL     1      42.559 131.127  16.094  1.00  0.00     0.361 HD
BRANCH  11  14
ATOM     14  C   UNL     1      44.548 131.304  15.693  1.00  0.00     0.249 A 
ATOM     15  C   UNL     1      45.090 130.036  15.823  1.00  0.00     0.183 A 
ATOM     16  N   UNL     1      45.243 132.043  14.793  1.00  0.00    -0.177 NA
ATOM     17  N   UNL     1      46.149 129.992  15.003  1.00  0.00    -0.301 N 
ATOM     18  C   UNL     1      46.219 131.195  14.406  1.00  0.00     0.143 A 
ATOM     19  C   UNL     1      47.017 128.980  14.756  1.00  0.00     0.093 A 
ATOM     20  C   UNL     1      47.219 131.472  13.475  1.00  0.00     0.048 A 
ATOM     21  C   UNL     1      48.047 129.203  13.829  1.00  0.00     0.018 A 
ATOM     22  C   UNL     1      48.144 130.455  13.189  1.00  0.00     0.005 A 
ENDBRANCH  11  14
ENDBRANCH   6  11
TORSDOF 2
ENDMDL
MODEL 5
REMARK VINA RESULT:      -9.5      0.884      1.918
REMARK SMILES c1ccc2[nH]c([NH2+]c3cn4ccccc4n3)cc2c1
REMARK SMILES IDX 1 1 2 2 3 3 4 4 5 5 6 6 17 7 18 8 19 9 7 11 8 14 9 15 16 16
REMARK SMILES IDX 10 17 15 18 11 19 14 20 12 21 13 22
REMARK H PARENT 5 10 7 12 7 13
ROOT
ATOM      1  C   UNL     1      48.054 130.448  13.409  1.00  0.00     0.001 A 
ATOM      2  C   UNL     1      47.772 129.171  13.947  1.00  0.00     0.002 A 
ATOM      3  C   UNL     1      46.691 128.993  14.830  1.00  0.00     0.027 A 
ATOM      4  C   UNL     1      45.924 130.112  15.154  1.00  0.00     0.050 A 
ATOM      5  N   UNL     1      44.850 130.158  15.961  1.00  0.00    -0.310 N 
ATOM      6  C   UNL     1      44.453 131.452  15.950  1.00  0.00     0.209 A 
ATOM      7  C   UNL     1      45.261 132.231  15.125  1.00  0.00     0.099 A 
ATOM      8  C   UNL     1      46.199 131.351  14.631  1.00  0.00     0.006 A 
ATOM      9  C   UNL     1      47.259 131.557  13.751  1.00  0.00     0.010 A 
ATOM     10  H   UNL     1      44.407 129.363  16.473  1.00  0.00     0.172 HD
ENDROOT
BRANCH   6  11
ATOM     11  N   UNL     1      43.281 131.923  16.630  1.00  0.00    -0.249 N 
ATOM     12  H   UNL     1      42.441 131.386  16.311  1.00  0.00     0.361 HD
ATOM     13  H   UNL     1      43.135 132.935  16.416  1.00  0.00     0.361 HD
BRANCH  11  14
ATOM     14  C   UNL     1      43.460 131.753  18.042  1.00  0.00     0.249 A 
ATOM     15  C   UNL     1      44.655 131.423  18.663  1.00  0.00     0.183 A 
ATOM     16  N   UNL     1      42.487 131.996  18.954  1.00  0.00    -0.177 NA
ATOM     17  N   UNL     1      44.413 131.443  19.981  1.00  0.00    -0.301 N 
ATOM     18  C   UNL     1      43.121 131.785  20.126  1.00  0.00     0.143 A 
ATOM     19  C   UNL     1      45.247 131.198  21.022  1.00  0.00     0.093 A 
ATOM     20  C   UNL     1      42.553 131.904  21.394  1.00  0.00     0.048 A 
ATOM     21  C   UNL     1      44.729 131.301  22.322  1.00  0.00     0.018 A 
ATOM     22  C   UNL     1      43.377 131.656  22.504  1.00  0.00     0.005 A 
ENDBRANCH  11  14
ENDBRANCH   6  11
TORSDOF 2
ENDMDL
MODEL 6
REMARK VINA RESULT:      -9.4      0.619      6.542
REMARK SMILES c1ccc2[nH]c([NH2+]c3cn4ccccc4n3)cc2c1
REMARK SMILES IDX 1 1 2 2 3 3 4 4 5 5 6 6 17 7 18 8 19 9 7 11 8 14 9 15 16 16
REMARK SMILES IDX 10 17 15 18 11 19 14 20 12 21 13 22
REMARK H PARENT 5 10 7 12 7 13
ROOT
ATOM      1  C   UNL     1      43.536 131.692  22.290  1.00  0.00     0.001 A 
ATOM      2  C   UNL     1      44.904 131.437  22.046  1.00  0.00     0.002 A 
ATOM      3  C   UNL     1      45.388 131.342  20.728  1.00  0.00     0.027 A 
ATOM      4  C   UNL     1      44.474 131.503  19.686  1.00  0.00     0.050 A 
ATOM      5  N   UNL     1      44.726 131.462  18.367  1.00  0.00    -0.310 N 
ATOM      6  C   UNL     1      43.531 131.678  17.770  1.00  0.00     0.209 A 
ATOM      7  C   UNL     1      42.516 131.873  18.705  1.00  0.00     0.099 A 
ATOM      8  C   UNL     1      43.145 131.749  19.925  1.00  0.00     0.006 A 
ATOM      9  C   UNL     1      42.638 131.853  21.219  1.00  0.00     0.010 A 
ATOM     10  H   UNL     1      45.649 131.313  17.903  1.00  0.00     0.172 HD
ENDROOT
BRANCH   6  11
ATOM     11  N   UNL     1      43.368 131.792  16.349  1.00  0.00    -0.249 N 
ATOM     12  H   UNL     1      43.191 132.789  16.086  1.00  0.00     0.361 HD
ATOM     13  H   UNL     1      42.553 131.213  16.043  1.00  0.00     0.361 HD
BRANCH  11  14
ATOM     14  C   UNL     1      44.559 131.321  15.704  1.00  0.00     0.249 A 
ATOM     15  C   UNL     1      45.030 130.019  15.745  1.00  0.00     0.183 A 
ATOM     16  N   UNL     1      45.320 132.090  14.886  1.00  0.00    -0.177 NA
ATOM     17  N   UNL     1      46.111 129.983  14.954  1.00  0.00    -0.301 N 
ATOM     18  C   UNL     1      46.262 131.224  14.458  1.00  0.00     0.143 A 
ATOM     19  C   UNL     1      46.933 128.948  14.650  1.00  0.00     0.093 A 
ATOM     20  C   UNL     1      47.304 131.520  13.581  1.00  0.00     0.048 A 
ATOM     21  C   UNL     1      48.002 129.188  13.773  1.00  0.00     0.018 A 
ATOM     22  C   UNL     1      48.184 130.479  13.239  1.00  0.00     0.005 A 
ENDBRANCH  11  14
ENDBRANCH   6  11
TORSDOF 2
ENDMDL
MODEL 7
REMARK VINA RESULT:      -9.3      0.780      6.486
REMARK SMILES c1ccc2[nH]c([NH2+]c3cn4ccccc4n3)cc2c1
REMARK SMILES IDX 1 1 2 2 3 3 4 4 5 5 6 6 17 7 18 8 19 9 7 11 8 14 9 15 16 16
REMARK SMILES IDX 10 17 15 18 11 19 14 20 12 21 13 22
REMARK H PARENT 5 10 7 12 7 13
ROOT
ATOM      1  C   UNL     1      43.588 131.722  22.300  1.00  0.00     0.001 A 
ATOM      2  C   UNL     1      44.944 131.454  22.007  1.00  0.00     0.002 A 
ATOM      3  C   UNL     1      45.381 131.364  20.672  1.00  0.00     0.027 A 
ATOM      4  C   UNL     1      44.433 131.542  19.664  1.00  0.00     0.050 A 
ATOM      5  N   UNL     1      44.639 131.509  18.337  1.00  0.00    -0.310 N 
ATOM      6  C   UNL     1      43.427 131.743  17.783  1.00  0.00     0.209 A 
ATOM      7  C   UNL     1      42.447 131.941  18.754  1.00  0.00     0.099 A 
ATOM      8  C   UNL     1      43.116 131.801  19.951  1.00  0.00     0.006 A 
ATOM      9  C   UNL     1      42.656 131.901  21.262  1.00  0.00     0.010 A 
ATOM     10  H   UNL     1      45.544 131.354  17.840  1.00  0.00     0.172 HD
ENDROOT
BRANCH   6  11
ATOM     11  N   UNL     1      43.216 131.868  16.370  1.00  0.00    -0.249 N 
ATOM     12  H   UNL     1      43.108 132.877  16.111  1.00  0.00     0.361 HD
ATOM     13  H   UNL     1      42.347 131.356  16.098  1.00  0.00     0.361 HD
BRANCH  11  14
ATOM     14  C   UNL     1      44.339 131.306  15.678  1.00  0.00     0.249 A 
ATOM     15  C   UNL     1      45.109 131.965  14.734  1.00  0.00     0.183 A 
ATOM     16  N   UNL     1      44.843 130.075  15.946  1.00  0.00    -0.177 NA
ATOM     17  N   UNL     1      46.096 131.123  14.396  1.00  0.00    -0.301 N 
ATOM     18  C   UNL     1      45.914 130.010  15.128  1.00  0.00     0.143 A 
ATOM     19  C   UNL     1      47.116 131.286  13.518  1.00  0.00     0.093 A 
ATOM     20  C   UNL     1      46.791 128.932  15.016  1.00  0.00     0.048 A 
ATOM     21  C   UNL     1      48.029 130.232  13.363  1.00  0.00     0.018 A 
ATOM     22  C   UNL     1      47.862 129.053  14.116  1.00  0.00     0.005 A 
ENDBRANCH  11  14
ENDBRANCH   6  11
TORSDOF 2
ENDMDL
MODEL 8
REMARK VINA RESULT:      -8.9      0.888      6.504
REMARK SMILES c1ccc2[nH]c([NH2+]c3cn4ccccc4n3)cc2c1
REMARK SMILES IDX 1 1 2 2 3 3 4 4 5 5 6 6 17 7 18 8 19 9 7 11 8 14 9 15 16 16
REMARK SMILES IDX 10 17 15 18 11 19 14 20 12 21 13 22
REMARK H PARENT 5 10 7 12 7 13
ROOT
ATOM      1  C   UNL     1      45.032 131.528  21.958  1.00  0.00     0.001 A 
ATOM      2  C   UNL     1      43.639 131.568  22.191  1.00  0.00     0.002 A 
ATOM      3  C   UNL     1      42.738 131.658  21.114  1.00  0.00     0.027 A 
ATOM      4  C   UNL     1      43.269 131.711  19.825  1.00  0.00     0.050 A 
ATOM      5  N   UNL     1      42.591 131.787  18.667  1.00  0.00    -0.310 N 
ATOM      6  C   UNL     1      43.538 131.805  17.701  1.00  0.00     0.209 A 
ATOM      7  C   UNL     1      44.822 131.726  18.238  1.00  0.00     0.099 A 
ATOM      8  C   UNL     1      44.623 131.673  19.600  1.00  0.00     0.006 A 
ATOM      9  C   UNL     1      45.538 131.579  20.646  1.00  0.00     0.010 A 
ATOM     10  H   UNL     1      41.555 131.808  18.539  1.00  0.00     0.172 HD
ENDROOT
BRANCH   6  11
ATOM     11  N   UNL     1      43.236 131.803  16.299  1.00  0.00    -0.249 N 
ATOM     12  H   UNL     1      43.031 132.777  15.974  1.00  0.00     0.361 HD
ATOM     13  H   UNL     1      42.396 131.206  16.122  1.00  0.00     0.361 HD
BRANCH  11  14
ATOM     14  C   UNL     1      44.358 131.275  15.579  1.00  0.00     0.249 A 
ATOM     15  C   UNL     1      45.068 131.949  14.599  1.00  0.00     0.183 A 
ATOM     16  N   UNL     1      44.920 130.071  15.850  1.00  0.00    -0.177 NA
ATOM     17  N   UNL     1      46.077 131.142  14.242  1.00  0.00    -0.301 N 
ATOM     18  C   UNL     1      45.966 130.035  14.998  1.00  0.00     0.143 A 
ATOM     19  C   UNL     1      47.061 131.331  13.328  1.00  0.00     0.093 A 
ATOM     20  C   UNL     1      46.883 128.992  14.874  1.00  0.00     0.048 A 
ATOM     21  C   UNL     1      48.011 130.313  13.159  1.00  0.00     0.018 A 
ATOM     22  C   UNL     1      47.918 129.142  13.937  1.00  0.00     0.005 A 
ENDBRANCH  11  14
ENDBRANCH   6  11
TORSDOF 2
ENDMDL
MODEL 9
REMARK VINA RESULT:      -8.4      1.240      1.709
REMARK SMILES c1ccc2[nH]c([NH2+]c3cn4ccccc4n3)cc2c1
REMARK SMILES IDX 1 1 2 2 3 3 4 4 5 5 6 6 17 7 18 8 19 9 7 11 8 14 9 15 16 16
REMARK SMILES IDX 10 17 15 18 11 19 14 20 12 21 13 22
REMARK H PARENT 5 10 7 12 7 13
ROOT
ATOM      1  C   UNL     1      46.961 130.183  13.735  1.00  0.00     0.001 A 
ATOM      2  C   UNL     1      47.448 129.622  14.938  1.00  0.00     0.002 A 
ATOM      3  C   UNL     1      46.753 129.814  16.146  1.00  0.00     0.027 A 
ATOM      4  C   UNL     1      45.583 130.574  16.111  1.00  0.00     0.050 A 
ATOM      5  N   UNL     1      44.769 130.865  17.139  1.00  0.00    -0.310 N 
ATOM      6  C   UNL     1      43.776 131.614  16.606  1.00  0.00     0.209 A 
ATOM      7  C   UNL     1      43.945 131.789  15.233  1.00  0.00     0.099 A 
ATOM      8  C   UNL     1      45.113 131.118  14.942  1.00  0.00     0.006 A 
ATOM      9  C   UNL     1      45.776 130.941  13.730  1.00  0.00     0.010 A 
ATOM     10  H   UNL     1      44.872 130.564  18.134  1.00  0.00     0.172 HD
ENDROOT
BRANCH   6  11
ATOM     11  N   UNL     1      42.645 132.074  17.357  1.00  0.00    -0.249 N 
ATOM     12  H   UNL     1      41.804 131.491  17.135  1.00  0.00     0.361 HD
ATOM     13  H   UNL     1      42.439 133.068  17.108  1.00  0.00     0.361 HD
BRANCH  11  14
ATOM     14  C   UNL     1      42.945 131.984  18.756  1.00  0.00     0.249 A 
ATOM     15  C   UNL     1      42.063 132.276  19.784  1.00  0.00     0.183 A 
ATOM     16  N   UNL     1      44.117 131.502  19.240  1.00  0.00    -0.177 NA
ATOM     17  N   UNL     1      42.704 131.988  20.925  1.00  0.00    -0.301 N 
ATOM     18  C   UNL     1      43.919 131.532  20.574  1.00  0.00     0.143 A 
ATOM     19  C   UNL     1      42.282 132.090  22.210  1.00  0.00     0.093 A 
ATOM     20  C   UNL     1      44.838 131.132  21.544  1.00  0.00     0.048 A 
ATOM     21  C   UNL     1      43.166 131.704  23.229  1.00  0.00     0.018 A 
ATOM     22  C   UNL     1      44.447 131.224  22.890  1.00  0.00     0.005 A 
ENDBRANCH  11  14
ENDBRANCH   6  11
TORSDOF 2
ENDMDL


