REMARK SMILES CC/C(O)=N/c1cc(F)c[n-]/c1=N\c1cnc2[nH]ccc2c1
REMARK SMILES IDX 6 1 7 2 8 3 9 4 10 5 11 6 12 7 5 8 3 9 4 10 2 12 1 13 13 14
REMARK SMILES IDX 14 15 15 16 22 17 16 18 21 19 17 20 20 21 18 22 19 23
REMARK H PARENT 4 11 18 24
ROOT
ATOM      1  C   UNL     1      -0.348   1.283   1.355  1.00  0.00     0.069 A 
ATOM      2  C   UNL     1      -1.450   2.083   1.701  1.00  0.00     0.067 A 
ATOM      3  C   UNL     1      -2.665   1.925   1.035  1.00  0.00     0.121 A 
ATOM      4  F   UNL     1      -3.734   2.688   1.372  1.00  0.00    -0.207 F 
ATOM      5  C   UNL     1      -2.765   0.987   0.009  1.00  0.00     0.018 A 
ATOM      6  N   UNL     1      -1.682   0.243  -0.338  1.00  0.00    -0.438 NA
ATOM      7  C   UNL     1      -0.483   0.362   0.300  1.00  0.00    -0.032 A 
ENDROOT
BRANCH   1   8
ATOM      8  N   UNL     1       0.930   1.471   1.982  1.00  0.00    -0.218 NA
BRANCH   8   9
ATOM      9  C   UNL     1       1.158   1.566   3.262  1.00  0.00     0.185 C 
BRANCH   9  10
ATOM     10  O   UNL     1       0.162   1.341   4.215  1.00  0.00    -0.496 OA
ATOM     11  H   UNL     1      -0.756   0.984   3.983  1.00  0.00     0.294 HD
ENDBRANCH   9  10
BRANCH   9  12
ATOM     12  C   UNL     1       2.550   1.849   3.734  1.00  0.00     0.093 C 
ATOM     13  C   UNL     1       3.341   0.554   3.880  1.00  0.00     0.014 C 
ENDBRANCH   9  12
ENDBRANCH   8   9
ENDBRANCH   1   8
BRANCH   7  14
ATOM     14  N   UNL     1       0.549  -0.341  -0.073  1.00  0.00    -0.433 NA
BRANCH  14  15
ATOM     15  C   UNL     1       0.584  -1.361  -1.085  1.00  0.00    -0.022 A 
ATOM     16  C   UNL     1       1.760  -1.509  -1.861  1.00  0.00     0.117 A 
ATOM     17  C   UNL     1      -0.483  -2.273  -1.272  1.00  0.00     0.017 A 
ATOM     18  N   UNL     1       1.855  -2.488  -2.811  1.00  0.00    -0.238 NA
ATOM     19  C   UNL     1      -0.331  -3.246  -2.252  1.00  0.00     0.019 A 
ATOM     20  C   UNL     1       0.810  -3.331  -2.993  1.00  0.00     0.137 A 
ATOM     21  C   UNL     1      -1.165  -4.260  -2.670  1.00  0.00     0.029 A 
ATOM     22  N   UNL     1       0.754  -4.346  -3.867  1.00  0.00    -0.346 N 
ATOM     23  C   UNL     1      -0.458  -4.920  -3.674  1.00  0.00     0.085 A 
ATOM     24  H   UNL     1       1.489  -4.639  -4.548  1.00  0.00     0.167 HD
ENDBRANCH  14  15
ENDBRANCH   7  14
TORSDOF 6


