REMARK SMILES Cc1cc(-c2c[nH+]c3c(c2)C(=O)NC3)c(N)c2cc[nH]c12
REMARK SMILES IDX 1 1 2 2 3 3 4 4 15 5 17 6 18 7 19 8 20 9 21 10 5 12 6 13
REMARK SMILES IDX 10 14 7 15 9 16 8 17 11 18 14 19 13 20 12 22 16 24
REMARK H PARENT 20 11 7 21 13 23 16 25 16 26
ROOT
ATOM      1  C   UNL     1       2.780  -2.236  -1.705  1.00  0.00     0.046 C 
ATOM      2  C   UNL     1       2.093  -0.901  -1.688  1.00  0.00    -0.026 A 
ATOM      3  C   UNL     1       1.245  -0.530  -0.626  1.00  0.00     0.016 A 
ATOM      4  C   UNL     1       0.590   0.728  -0.614  1.00  0.00     0.012 A 
ATOM      5  C   UNL     1       0.804   1.646  -1.679  1.00  0.00     0.049 A 
ATOM      6  C   UNL     1       1.645   1.241  -2.724  1.00  0.00     0.023 A 
ATOM      7  C   UNL     1       2.041   1.897  -3.875  1.00  0.00     0.030 A 
ATOM      8  C   UNL     1       2.891   1.017  -4.531  1.00  0.00     0.083 A 
ATOM      9  N   UNL     1       3.025  -0.129  -3.829  1.00  0.00    -0.361 N 
ATOM     10  C   UNL     1       2.264   0.016  -2.729  1.00  0.00     0.050 A 
ATOM     11  H   UNL     1       3.609  -0.953  -4.095  1.00  0.00     0.166 HD
ENDROOT
BRANCH   4  12
ATOM     12  C   UNL     1      -0.324   1.036   0.507  1.00  0.00     0.049 A 
ATOM     13  C   UNL     1      -1.687   1.339   0.263  1.00  0.00     0.315 A 
ATOM     14  C   UNL     1       0.140   0.987   1.836  1.00  0.00     0.035 A 
ATOM     15  N   UNL     1      -2.539   1.602   1.299  1.00  0.00    -0.212 N 
ATOM     16  C   UNL     1      -0.768   1.262   2.851  1.00  0.00     0.109 A 
ATOM     17  C   UNL     1      -2.078   1.564   2.576  1.00  0.00     0.211 A 
ATOM     18  C   UNL     1      -0.618   1.300   4.283  1.00  0.00     0.258 C 
ATOM     19  C   UNL     1      -2.861   1.817   3.831  1.00  0.00     0.225 C 
ATOM     20  N   UNL     1      -1.863   1.631   4.888  1.00  0.00    -0.342 N 
ATOM     21  H   UNL     1      -3.541   1.827   1.108  1.00  0.00     0.453 HD
ATOM     22  O   UNL     1       0.442   1.076   4.923  1.00  0.00    -0.269 OA
ATOM     23  H   UNL     1      -2.035   1.725   5.913  1.00  0.00     0.164 HD
ENDBRANCH   4  12
BRANCH   5  24
ATOM     24  N   UNL     1       0.228   2.960  -1.675  1.00  0.00    -0.398 N 
ATOM     25  H   UNL     1       0.330   3.598  -2.495  1.00  0.00     0.156 HD
ATOM     26  H   UNL     1      -0.256   3.345  -0.834  1.00  0.00     0.156 HD
ENDBRANCH   5  24
TORSDOF 2


