MODEL 1
REMARK VINA RESULT:      -7.7      0.000      0.000
REMARK SMILES C=c1ccc(=C(O)C(N=[N+]=[N-])=c2ccc(=C)cc2)cc1
REMARK SMILES IDX 8 1 6 2 7 3 5 5 4 6 19 7 3 8 20 9 2 10 1 11 9 12 10 13 11 14
REMARK SMILES IDX 12 15 13 16 18 17 14 18 17 19 15 20 16 21
REMARK H PARENT 7 4
ROOT
ATOM      1  C   UNL     1      44.306 131.580  18.513  1.00  0.00     0.087 C 
ENDROOT
BRANCH   1   2
ATOM      2  C   UNL     1      44.919 131.782  19.848  1.00  0.00     0.132 C 
BRANCH   2   3
ATOM      3  O   UNL     1      45.607 132.990  20.016  1.00  0.00    -0.507 OA
ATOM      4  H   UNL     1      46.080 133.278  20.860  1.00  0.00     0.293 HD
ENDBRANCH   2   3
BRANCH   2   5
ATOM      5  C   UNL     1      44.818 130.842  20.832  1.00  0.00     0.017 A 
ATOM      6  C   UNL     1      44.001 131.065  21.968  1.00  0.00     0.012 A 
ATOM      7  C   UNL     1      45.515 129.611  20.763  1.00  0.00     0.012 A 
ATOM      8  C   UNL     1      43.898 130.113  22.986  1.00  0.00     0.008 A 
ATOM      9  C   UNL     1      45.407 128.661  21.782  1.00  0.00     0.008 A 
ATOM     10  C   UNL     1      44.600 128.904  22.902  1.00  0.00    -0.033 A 
ATOM     11  C   UNL     1      44.501 127.993  23.877  1.00  0.00     0.017 C 
ENDBRANCH   2   5
ENDBRANCH   1   2
BRANCH   1  12
ATOM     12  N   UNL     1      42.882 131.754  18.446  1.00  0.00    -0.056 NA
BRANCH  12  13
ATOM     13  N   UNL     1      42.271 132.419  19.283  1.00  0.00     0.006 N 
ATOM     14  N   UNL     1      41.657 133.082  20.118  1.00  0.00    -0.003 NA
ENDBRANCH  12  13
ENDBRANCH   1  12
BRANCH   1  15
ATOM     15  C   UNL     1      45.058 131.270  17.418  1.00  0.00    -0.012 A 
ATOM     16  C   UNL     1      45.685 130.006  17.293  1.00  0.00     0.009 A 
ATOM     17  C   UNL     1      45.280 132.212  16.386  1.00  0.00     0.009 A 
ATOM     18  C   UNL     1      46.459 129.689  16.174  1.00  0.00     0.008 A 
ATOM     19  C   UNL     1      46.055 131.892  15.268  1.00  0.00     0.008 A 
ATOM     20  C   UNL     1      46.647 130.627  15.150  1.00  0.00    -0.033 A 
ATOM     21  C   UNL     1      47.387 130.324  14.078  1.00  0.00     0.017 C 
ENDBRANCH   1  15
TORSDOF 6
ENDMDL
MODEL 2
REMARK VINA RESULT:      -7.6      0.155      1.092
REMARK SMILES C=c1ccc(=C(O)C(N=[N+]=[N-])=c2ccc(=C)cc2)cc1
REMARK SMILES IDX 8 1 6 2 7 3 5 5 4 6 19 7 3 8 20 9 2 10 1 11 9 12 10 13 11 14
REMARK SMILES IDX 12 15 13 16 18 17 14 18 17 19 15 20 16 21
REMARK H PARENT 7 4
ROOT
ATOM      1  C   UNL     1      44.323 131.517  18.666  1.00  0.00     0.087 C 
ENDROOT
BRANCH   1   2
ATOM      2  C   UNL     1      44.965 131.696  19.991  1.00  0.00     0.132 C 
BRANCH   2   3
ATOM      3  O   UNL     1      45.716 132.868  20.141  1.00  0.00    -0.507 OA
ATOM      4  H   UNL     1      46.679 132.909  20.440  1.00  0.00     0.293 HD
ENDBRANCH   2   3
BRANCH   2   5
ATOM      5  C   UNL     1      44.833 130.767  20.982  1.00  0.00     0.017 A 
ATOM      6  C   UNL     1      45.495 129.516  20.897  1.00  0.00     0.012 A 
ATOM      7  C   UNL     1      44.042 131.008  22.131  1.00  0.00     0.012 A 
ATOM      8  C   UNL     1      45.360 128.555  21.902  1.00  0.00     0.008 A 
ATOM      9  C   UNL     1      43.911 130.043  23.134  1.00  0.00     0.008 A 
ATOM     10  C   UNL     1      44.566 128.809  23.027  1.00  0.00    -0.033 A 
ATOM     11  C   UNL     1      44.437 127.888  23.989  1.00  0.00     0.017 C 
ENDBRANCH   2   5
ENDBRANCH   1   2
BRANCH   1  12
ATOM     12  N   UNL     1      42.896 131.676  18.637  1.00  0.00    -0.056 NA
BRANCH  12  13
ATOM     13  N   UNL     1      42.309 132.403  19.439  1.00  0.00     0.006 N 
ATOM     14  N   UNL     1      41.725 133.131  20.240  1.00  0.00    -0.003 NA
ENDBRANCH  12  13
ENDBRANCH   1  12
BRANCH   1  15
ATOM     15  C   UNL     1      45.052 131.240  17.547  1.00  0.00    -0.012 A 
ATOM     16  C   UNL     1      45.677 129.981  17.372  1.00  0.00     0.009 A 
ATOM     17  C   UNL     1      45.251 132.213  16.539  1.00  0.00     0.009 A 
ATOM     18  C   UNL     1      46.427 129.699  16.227  1.00  0.00     0.008 A 
ATOM     19  C   UNL     1      46.003 131.927  15.396  1.00  0.00     0.008 A 
ATOM     20  C   UNL     1      46.594 130.667  15.228  1.00  0.00    -0.033 A 
ATOM     21  C   UNL     1      47.311 130.397  14.132  1.00  0.00     0.017 C 
ENDBRANCH   1  15
TORSDOF 6
ENDMDL
MODEL 3
REMARK VINA RESULT:      -7.5      0.451      1.534
REMARK SMILES C=c1ccc(=C(O)C(N=[N+]=[N-])=c2ccc(=C)cc2)cc1
REMARK SMILES IDX 8 1 6 2 7 3 5 5 4 6 19 7 3 8 20 9 2 10 1 11 9 12 10 13 11 14
REMARK SMILES IDX 12 15 13 16 18 17 14 18 17 19 15 20 16 21
REMARK H PARENT 7 4
ROOT
ATOM      1  C   UNL     1      44.070 131.575  18.652  1.00  0.00     0.087 C 
ENDROOT
BRANCH   1   2
ATOM      2  C   UNL     1      44.781 131.746  19.942  1.00  0.00     0.132 C 
BRANCH   2   3
ATOM      3  O   UNL     1      45.544 132.914  20.057  1.00  0.00    -0.507 OA
ATOM      4  H   UNL     1      45.354 133.783  19.579  1.00  0.00     0.293 HD
ENDBRANCH   2   3
BRANCH   2   5
ATOM      5  C   UNL     1      44.696 130.814  20.935  1.00  0.00     0.017 A 
ATOM      6  C   UNL     1      45.440 129.609  20.865  1.00  0.00     0.012 A 
ATOM      7  C   UNL     1      43.875 131.006  22.072  1.00  0.00     0.012 A 
ATOM      8  C   UNL     1      45.354 128.645  21.873  1.00  0.00     0.008 A 
ATOM      9  C   UNL     1      43.793 130.039  23.078  1.00  0.00     0.008 A 
ATOM     10  C   UNL     1      44.530 128.850  22.986  1.00  0.00    -0.033 A 
ATOM     11  C   UNL     1      44.448 127.925  23.949  1.00  0.00     0.017 C 
ENDBRANCH   2   5
ENDBRANCH   1   2
BRANCH   1  12
ATOM     12  N   UNL     1      42.647 131.763  18.694  1.00  0.00    -0.056 NA
BRANCH  12  13
ATOM     13  N   UNL     1      42.116 132.512  19.515  1.00  0.00     0.006 N 
ATOM     14  N   UNL     1      41.586 133.258  20.337  1.00  0.00    -0.003 NA
ENDBRANCH  12  13
ENDBRANCH   1  12
BRANCH   1  15
ATOM     15  C   UNL     1      44.736 131.279  17.499  1.00  0.00    -0.012 A 
ATOM     16  C   UNL     1      44.331 131.826  16.257  1.00  0.00     0.009 A 
ATOM     17  C   UNL     1      45.829 130.380  17.491  1.00  0.00     0.009 A 
ATOM     18  C   UNL     1      45.011 131.520  15.075  1.00  0.00     0.008 A 
ATOM     19  C   UNL     1      46.506 130.075  16.306  1.00  0.00     0.008 A 
ATOM     20  C   UNL     1      46.106 130.645  15.090  1.00  0.00    -0.033 A 
ATOM     21  C   UNL     1      46.757 130.353  13.959  1.00  0.00     0.017 C 
ENDBRANCH   1  15
TORSDOF 6
ENDMDL
MODEL 4
REMARK VINA RESULT:      -6.8      0.920      1.849
REMARK SMILES C=c1ccc(=C(O)C(N=[N+]=[N-])=c2ccc(=C)cc2)cc1
REMARK SMILES IDX 8 1 6 2 7 3 5 5 4 6 19 7 3 8 20 9 2 10 1 11 9 12 10 13 11 14
REMARK SMILES IDX 12 15 13 16 18 17 14 18 17 19 15 20 16 21
REMARK H PARENT 7 4
ROOT
ATOM      1  C   UNL     1      44.806 131.588  19.390  1.00  0.00     0.087 C 
ENDROOT
BRANCH   1   2
ATOM      2  C   UNL     1      45.515 131.156  20.619  1.00  0.00     0.132 C 
BRANCH   2   3
ATOM      3  O   UNL     1      46.776 131.731  20.818  1.00  0.00    -0.507 OA
ATOM      4  H   UNL     1      47.139 132.045  21.706  1.00  0.00     0.293 HD
ENDBRANCH   2   3
BRANCH   2   5
ATOM      5  C   UNL     1      44.967 130.252  21.481  1.00  0.00     0.017 A 
ATOM      6  C   UNL     1      45.475 128.931  21.567  1.00  0.00     0.012 A 
ATOM      7  C   UNL     1      43.881 130.587  22.325  1.00  0.00     0.012 A 
ATOM      8  C   UNL     1      44.916 127.995  22.440  1.00  0.00     0.008 A 
ATOM      9  C   UNL     1      43.327 129.647  23.198  1.00  0.00     0.008 A 
ATOM     10  C   UNL     1      43.837 128.344  23.262  1.00  0.00    -0.033 A 
ATOM     11  C   UNL     1      43.302 127.446  24.097  1.00  0.00     0.017 C 
ENDBRANCH   2   5
ENDBRANCH   1   2
BRANCH   1  12
ATOM     12  N   UNL     1      43.617 132.366  19.595  1.00  0.00    -0.056 NA
BRANCH  12  13
ATOM     13  N   UNL     1      42.529 132.019  19.135  1.00  0.00     0.006 N 
ATOM     14  N   UNL     1      41.441 131.676  18.675  1.00  0.00    -0.003 NA
ENDBRANCH  12  13
ENDBRANCH   1  12
BRANCH   1  15
ATOM     15  C   UNL     1      45.274 131.278  18.146  1.00  0.00    -0.012 A 
ATOM     16  C   UNL     1      45.166 132.197  17.073  1.00  0.00     0.009 A 
ATOM     17  C   UNL     1      45.842 130.013  17.867  1.00  0.00     0.009 A 
ATOM     18  C   UNL     1      45.641 131.879  15.798  1.00  0.00     0.008 A 
ATOM     19  C   UNL     1      46.316 129.698  16.590  1.00  0.00     0.008 A 
ATOM     20  C   UNL     1      46.223 130.629  15.546  1.00  0.00    -0.033 A 
ATOM     21  C   UNL     1      46.679 130.325  14.326  1.00  0.00     0.017 C 
ENDBRANCH   1  15
TORSDOF 6
ENDMDL
MODEL 5
REMARK VINA RESULT:      -6.7      2.329      6.583
REMARK SMILES C=c1ccc(=C(O)C(N=[N+]=[N-])=c2ccc(=C)cc2)cc1
REMARK SMILES IDX 8 1 6 2 7 3 5 5 4 6 19 7 3 8 20 9 2 10 1 11 9 12 10 13 11 14
REMARK SMILES IDX 12 15 13 16 18 17 14 18 17 19 15 20 16 21
REMARK H PARENT 7 4
ROOT
ATOM      1  C   UNL     1      44.602 131.407  16.620  1.00  0.00     0.087 C 
ENDROOT
BRANCH   1   2
ATOM      2  C   UNL     1      45.752 132.005  15.899  1.00  0.00     0.132 C 
BRANCH   2   3
ATOM      3  O   UNL     1      45.933 133.380  16.093  1.00  0.00    -0.507 OA
ATOM      4  H   UNL     1      46.083 133.827  16.986  1.00  0.00     0.293 HD
ENDBRANCH   2   3
BRANCH   2   5
ATOM      5  C   UNL     1      46.562 131.255  15.097  1.00  0.00     0.017 A 
ATOM      6  C   UNL     1      47.077 131.785  13.888  1.00  0.00     0.012 A 
ATOM      7  C   UNL     1      46.925 129.928  15.434  1.00  0.00     0.012 A 
ATOM      8  C   UNL     1      47.901 131.023  13.055  1.00  0.00     0.008 A 
ATOM      9  C   UNL     1      47.751 129.171  14.598  1.00  0.00     0.008 A 
ATOM     10  C   UNL     1      48.243 129.710  13.402  1.00  0.00    -0.033 A 
ATOM     11  C   UNL     1      49.031 128.981  12.604  1.00  0.00     0.017 C 
ENDBRANCH   2   5
ENDBRANCH   1   2
BRANCH   1  12
ATOM     12  N   UNL     1      43.563 130.859  15.795  1.00  0.00    -0.056 NA
BRANCH  12  13
ATOM     13  N   UNL     1      43.301 131.327  14.687  1.00  0.00     0.006 N 
ATOM     14  N   UNL     1      43.038 131.793  13.579  1.00  0.00    -0.003 NA
ENDBRANCH  12  13
ENDBRANCH   1  12
BRANCH   1  15
ATOM     15  C   UNL     1      44.553 131.367  17.983  1.00  0.00    -0.012 A 
ATOM     16  C   UNL     1      43.438 131.877  18.693  1.00  0.00     0.009 A 
ATOM     17  C   UNL     1      45.631 130.856  18.744  1.00  0.00     0.009 A 
ATOM     18  C   UNL     1      43.389 131.840  20.089  1.00  0.00     0.008 A 
ATOM     19  C   UNL     1      45.579 130.820  20.140  1.00  0.00     0.008 A 
ATOM     20  C   UNL     1      44.457 131.307  20.824  1.00  0.00    -0.033 A 
ATOM     21  C   UNL     1      44.409 131.270  22.160  1.00  0.00     0.017 C 
ENDBRANCH   1  15
TORSDOF 6
ENDMDL
MODEL 6
REMARK VINA RESULT:      -6.6      2.760      3.776
REMARK SMILES C=c1ccc(=C(O)C(N=[N+]=[N-])=c2ccc(=C)cc2)cc1
REMARK SMILES IDX 8 1 6 2 7 3 5 5 4 6 19 7 3 8 20 9 2 10 1 11 9 12 10 13 11 14
REMARK SMILES IDX 12 15 13 16 18 17 14 18 17 19 15 20 16 21
REMARK H PARENT 7 4
ROOT
ATOM      1  C   UNL     1      45.060 131.214  16.156  1.00  0.00     0.087 C 
ENDROOT
BRANCH   1   2
ATOM      2  C   UNL     1      45.170 131.028  17.623  1.00  0.00     0.132 C 
BRANCH   2   3
ATOM      3  O   UNL     1      46.286 130.299  18.053  1.00  0.00    -0.507 OA
ATOM      4  H   UNL     1      46.630 129.453  17.623  1.00  0.00     0.293 HD
ENDBRANCH   2   3
BRANCH   2   5
ATOM      5  C   UNL     1      44.235 131.528  18.481  1.00  0.00     0.017 A 
ATOM      6  C   UNL     1      42.909 131.775  18.045  1.00  0.00     0.012 A 
ATOM      7  C   UNL     1      44.541 131.818  19.833  1.00  0.00     0.012 A 
ATOM      8  C   UNL     1      41.945 132.295  18.913  1.00  0.00     0.008 A 
ATOM      9  C   UNL     1      43.573 132.338  20.697  1.00  0.00     0.008 A 
ATOM     10  C   UNL     1      42.269 132.582  20.245  1.00  0.00    -0.033 A 
ATOM     11  C   UNL     1      41.346 133.082  21.076  1.00  0.00     0.017 C 
ENDBRANCH   2   5
ENDBRANCH   1   2
BRANCH   1  12
ATOM     12  N   UNL     1      43.886 131.905  15.700  1.00  0.00    -0.056 NA
BRANCH  12  13
ATOM     13  N   UNL     1      43.409 131.704  14.583  1.00  0.00     0.006 N 
ATOM     14  N   UNL     1      42.935 131.502  13.466  1.00  0.00    -0.003 NA
ENDBRANCH  12  13
ENDBRANCH   1  12
BRANCH   1  15
ATOM     15  C   UNL     1      46.027 130.772  15.302  1.00  0.00    -0.012 A 
ATOM     16  C   UNL     1      46.454 129.422  15.312  1.00  0.00     0.009 A 
ATOM     17  C   UNL     1      46.675 131.654  14.404  1.00  0.00     0.009 A 
ATOM     18  C   UNL     1      47.448 128.970  14.440  1.00  0.00     0.008 A 
ATOM     19  C   UNL     1      47.670 131.198  13.534  1.00  0.00     0.008 A 
ATOM     20  C   UNL     1      48.061 129.853  13.541  1.00  0.00    -0.033 A 
ATOM     21  C   UNL     1      49.012 129.420  12.706  1.00  0.00     0.017 C 
ENDBRANCH   1  15
TORSDOF 6
ENDMDL
MODEL 7
REMARK VINA RESULT:      -6.5      2.195      6.510
REMARK SMILES C=c1ccc(=C(O)C(N=[N+]=[N-])=c2ccc(=C)cc2)cc1
REMARK SMILES IDX 8 1 6 2 7 3 5 5 4 6 19 7 3 8 20 9 2 10 1 11 9 12 10 13 11 14
REMARK SMILES IDX 12 15 13 16 18 17 14 18 17 19 15 20 16 21
REMARK H PARENT 7 4
ROOT
ATOM      1  C   UNL     1      44.516 131.555  16.791  1.00  0.00     0.087 C 
ENDROOT
BRANCH   1   2
ATOM      2  C   UNL     1      45.669 132.127  16.055  1.00  0.00     0.132 C 
BRANCH   2   3
ATOM      3  O   UNL     1      45.888 133.496  16.251  1.00  0.00    -0.507 OA
ATOM      4  H   UNL     1      46.276 134.128  15.566  1.00  0.00     0.293 HD
ENDBRANCH   2   3
BRANCH   2   5
ATOM      5  C   UNL     1      46.449 131.361  15.238  1.00  0.00     0.017 A 
ATOM      6  C   UNL     1      46.772 130.026  15.588  1.00  0.00     0.012 A 
ATOM      7  C   UNL     1      46.962 131.856  14.015  1.00  0.00     0.012 A 
ATOM      8  C   UNL     1      47.576 129.234  14.763  1.00  0.00     0.008 A 
ATOM      9  C   UNL     1      47.765 131.060  13.193  1.00  0.00     0.008 A 
ATOM     10  C   UNL     1      48.081 129.745  13.560  1.00  0.00    -0.033 A 
ATOM     11  C   UNL     1      48.852 128.987  12.772  1.00  0.00     0.017 C 
ENDBRANCH   2   5
ENDBRANCH   1   2
BRANCH   1  12
ATOM     12  N   UNL     1      43.414 131.115  15.982  1.00  0.00    -0.056 NA
BRANCH  12  13
ATOM     13  N   UNL     1      43.321 131.422  14.793  1.00  0.00     0.006 N 
ATOM     14  N   UNL     1      43.224 131.728  13.605  1.00  0.00    -0.003 NA
ENDBRANCH  12  13
ENDBRANCH   1  12
BRANCH   1  15
ATOM     15  C   UNL     1      44.518 131.439  18.150  1.00  0.00    -0.012 A 
ATOM     16  C   UNL     1      43.434 131.913  18.929  1.00  0.00     0.009 A 
ATOM     17  C   UNL     1      45.622 130.884  18.839  1.00  0.00     0.009 A 
ATOM     18  C   UNL     1      43.438 131.798  20.321  1.00  0.00     0.008 A 
ATOM     19  C   UNL     1      45.623 130.771  20.233  1.00  0.00     0.008 A 
ATOM     20  C   UNL     1      44.530 131.222  20.985  1.00  0.00    -0.033 A 
ATOM     21  C   UNL     1      44.533 131.112  22.318  1.00  0.00     0.017 C 
ENDBRANCH   1  15
TORSDOF 6
ENDMDL
MODEL 8
REMARK VINA RESULT:      -6.5      0.983      1.559
REMARK SMILES C=c1ccc(=C(O)C(N=[N+]=[N-])=c2ccc(=C)cc2)cc1
REMARK SMILES IDX 8 1 6 2 7 3 5 5 4 6 19 7 3 8 20 9 2 10 1 11 9 12 10 13 11 14
REMARK SMILES IDX 12 15 13 16 18 17 14 18 17 19 15 20 16 21
REMARK H PARENT 7 4
ROOT
ATOM      1  C   UNL     1      44.632 131.693  19.221  1.00  0.00     0.087 C 
ENDROOT
BRANCH   1   2
ATOM      2  C   UNL     1      45.305 131.382  20.506  1.00  0.00     0.132 C 
BRANCH   2   3
ATOM      3  O   UNL     1      46.648 131.768  20.589  1.00  0.00    -0.507 OA
ATOM      4  H   UNL     1      47.384 131.450  19.974  1.00  0.00     0.293 HD
ENDBRANCH   2   3
BRANCH   2   5
ATOM      5  C   UNL     1      44.649 130.753  21.524  1.00  0.00     0.017 A 
ATOM      6  C   UNL     1      44.932 129.402  21.844  1.00  0.00     0.012 A 
ATOM      7  C   UNL     1      43.668 131.415  22.302  1.00  0.00     0.012 A 
ATOM      8  C   UNL     1      44.261 128.746  22.879  1.00  0.00     0.008 A 
ATOM      9  C   UNL     1      43.000 130.754  23.337  1.00  0.00     0.008 A 
ATOM     10  C   UNL     1      43.288 129.415  23.633  1.00  0.00    -0.033 A 
ATOM     11  C   UNL     1      42.645 128.786  24.623  1.00  0.00     0.017 C 
ENDBRANCH   2   5
ENDBRANCH   1   2
BRANCH   1  12
ATOM     12  N   UNL     1      43.378 132.386  19.324  1.00  0.00    -0.056 NA
BRANCH  12  13
ATOM     13  N   UNL     1      42.327 131.885  18.923  1.00  0.00     0.006 N 
ATOM     14  N   UNL     1      41.278 131.384  18.519  1.00  0.00    -0.003 NA
ENDBRANCH  12  13
ENDBRANCH   1  12
BRANCH   1  15
ATOM     15  C   UNL     1      45.187 131.358  18.021  1.00  0.00    -0.012 A 
ATOM     16  C   UNL     1      45.642 130.041  17.765  1.00  0.00     0.009 A 
ATOM     17  C   UNL     1      45.374 132.322  17.002  1.00  0.00     0.009 A 
ATOM     18  C   UNL     1      46.214 129.699  16.537  1.00  0.00     0.008 A 
ATOM     19  C   UNL     1      45.948 131.976  15.775  1.00  0.00     0.008 A 
ATOM     20  C   UNL     1      46.368 130.661  15.531  1.00  0.00    -0.033 A 
ATOM     21  C   UNL     1      46.916 130.333  14.356  1.00  0.00     0.017 C 
ENDBRANCH   1  15
TORSDOF 6
ENDMDL
MODEL 9
REMARK VINA RESULT:      -6.5      2.837      3.983
REMARK SMILES C=c1ccc(=C(O)C(N=[N+]=[N-])=c2ccc(=C)cc2)cc1
REMARK SMILES IDX 8 1 6 2 7 3 5 5 4 6 19 7 3 8 20 9 2 10 1 11 9 12 10 13 11 14
REMARK SMILES IDX 12 15 13 16 18 17 14 18 17 19 15 20 16 21
REMARK H PARENT 7 4
ROOT
ATOM      1  C   UNL     1      45.253 131.221  16.048  1.00  0.00     0.087 C 
ENDROOT
BRANCH   1   2
ATOM      2  C   UNL     1      45.296 130.945  17.505  1.00  0.00     0.132 C 
BRANCH   2   3
ATOM      3  O   UNL     1      46.348 130.122  17.928  1.00  0.00    -0.507 OA
ATOM      4  H   UNL     1      46.649 130.009  18.885  1.00  0.00     0.293 HD
ENDBRANCH   2   3
BRANCH   2   5
ATOM      5  C   UNL     1      44.363 131.455  18.359  1.00  0.00     0.017 A 
ATOM      6  C   UNL     1      43.025 131.656  17.936  1.00  0.00     0.012 A 
ATOM      7  C   UNL     1      44.683 131.802  19.694  1.00  0.00     0.012 A 
ATOM      8  C   UNL     1      42.063 132.186  18.800  1.00  0.00     0.008 A 
ATOM      9  C   UNL     1      43.717 132.331  20.555  1.00  0.00     0.008 A 
ATOM     10  C   UNL     1      42.401 132.530  20.115  1.00  0.00    -0.033 A 
ATOM     11  C   UNL     1      41.480 133.038  20.942  1.00  0.00     0.017 C 
ENDBRANCH   2   5
ENDBRANCH   1   2
BRANCH   1  12
ATOM     12  N   UNL     1      44.153 132.026  15.598  1.00  0.00    -0.056 NA
BRANCH  12  13
ATOM     13  N   UNL     1      43.515 131.742  14.583  1.00  0.00     0.006 N 
ATOM     14  N   UNL     1      42.876 131.459  13.571  1.00  0.00    -0.003 NA
ENDBRANCH  12  13
ENDBRANCH   1  12
BRANCH   1  15
ATOM     15  C   UNL     1      46.214 130.753  15.200  1.00  0.00    -0.012 A 
ATOM     16  C   UNL     1      46.794 131.591  14.216  1.00  0.00     0.009 A 
ATOM     17  C   UNL     1      46.636 129.404  15.240  1.00  0.00     0.009 A 
ATOM     18  C   UNL     1      47.775 131.111  13.344  1.00  0.00     0.008 A 
ATOM     19  C   UNL     1      47.618 128.927  14.366  1.00  0.00     0.008 A 
ATOM     20  C   UNL     1      48.198 129.777  13.414  1.00  0.00    -0.033 A 
ATOM     21  C   UNL     1      49.138 129.318  12.581  1.00  0.00     0.017 C 
ENDBRANCH   1  15
TORSDOF 6
ENDMDL


