REMARK SMILES c1ccc2[nH]c(Nc3cn4ccccc4n3)cc2c1
REMARK SMILES IDX 1 1 2 2 3 3 4 4 5 5 6 6 17 7 18 8 19 9 7 11 8 13 9 14 16 15
REMARK SMILES IDX 10 16 15 17 11 18 14 19 12 20 13 21
REMARK H PARENT 5 10 7 12
ROOT
ATOM      1  C   UNL     1      -1.042   3.362  -1.734  1.00  0.00     0.001 A 
ATOM      2  C   UNL     1       0.242   3.730  -2.197  1.00  0.00     0.002 A 
ATOM      3  C   UNL     1       1.330   2.850  -2.055  1.00  0.00     0.027 A 
ATOM      4  C   UNL     1       1.096   1.619  -1.444  1.00  0.00     0.047 A 
ATOM      5  N   UNL     1       1.984   0.636  -1.223  1.00  0.00    -0.341 N 
ATOM      6  C   UNL     1       1.289  -0.352  -0.613  1.00  0.00     0.109 A 
ATOM      7  C   UNL     1      -0.055  -0.004  -0.459  1.00  0.00     0.055 A 
ATOM      8  C   UNL     1      -0.149   1.263  -0.993  1.00  0.00     0.002 A 
ATOM      9  C   UNL     1      -1.248   2.111  -1.124  1.00  0.00     0.010 A 
ATOM     10  H   UNL     1       2.998   0.632  -1.474  1.00  0.00     0.168 HD
ENDROOT
BRANCH   6  11
ATOM     11  N   UNL     1       1.887  -1.607  -0.253  1.00  0.00    -0.325 N 
ATOM     12  H   UNL     1       2.819  -1.836  -0.666  1.00  0.00     0.170 HD
BRANCH  11  13
ATOM     13  C   UNL     1       1.319  -2.539   0.677  1.00  0.00     0.150 A 
ATOM     14  C   UNL     1       1.814  -3.811   0.911  1.00  0.00     0.139 A 
ATOM     15  N   UNL     1       0.269  -2.270   1.490  1.00  0.00    -0.211 NA
ATOM     16  N   UNL     1       1.049  -4.345   1.873  1.00  0.00    -0.305 N 
ATOM     17  C   UNL     1       0.140  -3.411   2.199  1.00  0.00     0.139 A 
ATOM     18  C   UNL     1       1.114  -5.567   2.460  1.00  0.00     0.093 A 
ATOM     19  C   UNL     1      -0.813  -3.655   3.186  1.00  0.00     0.048 A 
ATOM     20  C   UNL     1       0.178  -5.869   3.461  1.00  0.00     0.018 A 
ATOM     21  C   UNL     1      -0.787  -4.908   3.821  1.00  0.00     0.005 A 
ENDBRANCH  11  13
ENDBRANCH   6  11
TORSDOF 2


