REMARK SMILES CC(=O)c1ccc(/C(O)=N/[C@@H]2C=CCC2)c(F)c1OC(=O)C(C)(C)C
REMARK SMILES IDX 7 1 6 2 5 3 4 4 18 5 16 6 17 7 8 8 9 9 10 11 11 12 12 13
REMARK SMILES IDX 15 14 13 15 14 16 19 17 20 18 21 19 22 20 23 21 24 22 25 23
REMARK SMILES IDX 2 24 3 25 1 26
REMARK H PARENT 9 10
ROOT
ATOM      1  C   UNL     1      -0.747   2.109  -0.181  1.00  0.00     0.076 A 
ATOM      2  C   UNL     1      -0.315   3.237  -0.890  1.00  0.00     0.018 A 
ATOM      3  C   UNL     1       0.824   3.181  -1.694  1.00  0.00     0.017 A 
ATOM      4  C   UNL     1       1.573   1.995  -1.804  1.00  0.00     0.063 A 
ATOM      5  C   UNL     1       1.161   0.859  -1.070  1.00  0.00     0.178 A 
ATOM      6  C   UNL     1      -0.009   0.914  -0.285  1.00  0.00     0.179 A 
ATOM      7  F   UNL     1      -0.434  -0.205   0.357  1.00  0.00    -0.202 F 
ENDROOT
BRANCH   1   8
ATOM      8  C   UNL     1      -1.981   2.180   0.641  1.00  0.00     0.217 C 
BRANCH   8   9
ATOM      9  O   UNL     1      -2.343   3.371   1.277  1.00  0.00    -0.493 OA
ATOM     10  H   UNL     1      -1.747   4.189   1.272  1.00  0.00     0.295 HD
ENDBRANCH   8   9
BRANCH   8  11
ATOM     11  N   UNL     1      -2.732   1.127   0.769  1.00  0.00    -0.244 NA
BRANCH  11  12
ATOM     12  C   UNL     1      -3.966   1.094   1.550  1.00  0.00     0.132 C 
ATOM     13  C   UNL     1      -4.455  -0.306   1.647  1.00  0.00    -0.005 C 
ATOM     14  C   UNL     1      -5.108   1.845   0.841  1.00  0.00     0.036 C 
ATOM     15  C   UNL     1      -5.675  -0.451   1.160  1.00  0.00    -0.029 C 
ATOM     16  C   UNL     1      -6.231   0.824   0.639  1.00  0.00     0.029 C 
ENDBRANCH  11  12
ENDBRANCH   8  11
ENDBRANCH   1   8
BRANCH   5  17
ATOM     17  O   UNL     1       1.908  -0.325  -1.149  1.00  0.00    -0.422 OA
BRANCH  17  18
ATOM     18  C   UNL     1       2.276  -1.107  -0.045  1.00  0.00     0.316 C 
ATOM     19  O   UNL     1       2.146  -0.652   1.126  1.00  0.00    -0.251 OA
BRANCH  18  20
ATOM     20  C   UNL     1       2.818  -2.508  -0.252  1.00  0.00     0.060 C 
ATOM     21  C   UNL     1       4.048  -2.733   0.652  1.00  0.00     0.023 C 
ATOM     22  C   UNL     1       3.236  -2.715  -1.723  1.00  0.00     0.023 C 
ATOM     23  C   UNL     1       1.718  -3.522   0.111  1.00  0.00     0.023 C 
ENDBRANCH  18  20
ENDBRANCH  17  18
ENDBRANCH   5  17
BRANCH   4  24
ATOM     24  C   UNL     1       2.781   1.954  -2.676  1.00  0.00     0.163 C 
ATOM     25  O   UNL     1       3.229   0.849  -3.086  1.00  0.00    -0.294 OA
ATOM     26  C   UNL     1       3.472   3.207  -3.125  1.00  0.00     0.093 C 
ENDBRANCH   4  24
TORSDOF 8


