MODEL 1
REMARK VINA RESULT:      -2.1      0.000      0.000
REMARK SMILES COCCN/C(S)=[N+]1\CC[C@H](C)[C@@H](F)[C@@H]1c1ccc(C(C)=O)cc1
REMARK SMILES IDX 6 1 5 2 7 4 8 6 9 7 15 8 10 9 13 10 11 11 14 12 12 13 16 14
REMARK SMILES IDX 17 15 24 16 18 17 23 18 19 19 20 20 22 21 21 22 4 23 3 24
REMARK SMILES IDX 2 25 1 26
REMARK H PARENT 5 3 7 5
ROOT
ATOM      1  C   UNL     1      43.956 129.254  22.989  1.00  0.00     0.303 C 
ATOM      2  N   UNL     1      45.028 128.408  22.528  1.00  0.00    -0.267 N 
ATOM      3  H   UNL     1      45.675 128.732  21.775  1.00  0.00     0.305 HD
ENDROOT
BRANCH   1   4
ATOM      4  S   UNL     1      42.370 128.448  23.332  1.00  0.00    -0.056 SA
ATOM      5  H   UNL     1      42.559 128.557  24.722  1.00  0.00     0.116 HD
ENDBRANCH   1   4
BRANCH   1   6
ATOM      6  N   UNL     1      44.136 130.555  23.167  1.00  0.00    -0.247 N 
ATOM      7  C   UNL     1      43.223 131.261  24.101  1.00  0.00     0.238 C 
ATOM      8  C   UNL     1      45.232 131.256  22.429  1.00  0.00     0.241 C 
ATOM      9  C   UNL     1      43.471 132.761  24.228  1.00  0.00     0.052 C 
ATOM     10  C   UNL     1      45.517 132.720  22.867  1.00  0.00     0.219 C 
ATOM     11  C   UNL     1      44.968 133.046  24.253  1.00  0.00     0.029 C 
ATOM     12  F   UNL     1      46.886 132.944  22.846  1.00  0.00    -0.242 F 
ATOM     13  C   UNL     1      45.229 134.512  24.623  1.00  0.00     0.011 C 
BRANCH   8  14
ATOM     14  C   UNL     1      44.963 131.240  20.932  1.00  0.00    -0.001 A 
ATOM     15  C   UNL     1      43.793 131.818  20.418  1.00  0.00     0.009 A 
ATOM     16  C   UNL     1      45.854 130.606  20.051  1.00  0.00     0.009 A 
ATOM     17  C   UNL     1      43.538 131.801  19.045  1.00  0.00     0.012 A 
ATOM     18  C   UNL     1      45.603 130.591  18.676  1.00  0.00     0.012 A 
ATOM     19  C   UNL     1      44.443 131.194  18.153  1.00  0.00     0.017 A 
BRANCH  19  20
ATOM     20  C   UNL     1      44.162 131.193  16.693  1.00  0.00     0.159 C 
ATOM     21  O   UNL     1      43.124 131.761  16.254  1.00  0.00    -0.295 OA
ATOM     22  C   UNL     1      45.082 130.533  15.709  1.00  0.00     0.093 C 
ENDBRANCH  19  20
ENDBRANCH   8  14
ENDBRANCH   1   6
BRANCH   2  23
ATOM     23  C   UNL     1      45.282 127.092  23.114  1.00  0.00     0.262 C 
BRANCH  23  24
ATOM     24  C   UNL     1      44.278 126.067  22.589  1.00  0.00     0.205 C 
BRANCH  24  25
ATOM     25  O   UNL     1      44.431 124.859  23.302  1.00  0.00    -0.381 OA
ATOM     26  C   UNL     1      45.415 124.069  22.673  1.00  0.00     0.195 C 
ENDBRANCH  24  25
ENDBRANCH  23  24
ENDBRANCH   2  23
TORSDOF 7
ENDMDL
MODEL 2
REMARK VINA RESULT:      -1.1      3.219      5.712
REMARK SMILES COCCN/C(S)=[N+]1\CC[C@H](C)[C@@H](F)[C@@H]1c1ccc(C(C)=O)cc1
REMARK SMILES IDX 6 1 5 2 7 4 8 6 9 7 15 8 10 9 13 10 11 11 14 12 12 13 16 14
REMARK SMILES IDX 17 15 24 16 18 17 23 18 19 19 20 20 22 21 21 22 4 23 3 24
REMARK SMILES IDX 2 25 1 26
REMARK H PARENT 5 3 7 5
ROOT
ATOM      1  C   UNL     1      42.863 131.970  20.440  1.00  0.00     0.303 C 
ATOM      2  N   UNL     1      43.551 131.699  19.203  1.00  0.00    -0.267 N 
ATOM      3  H   UNL     1      44.573 131.484  19.199  1.00  0.00     0.305 HD
ENDROOT
BRANCH   1   4
ATOM      4  S   UNL     1      41.630 133.297  20.414  1.00  0.00    -0.056 SA
ATOM      5  H   UNL     1      42.278 133.986  21.457  1.00  0.00     0.116 HD
ENDBRANCH   1   4
BRANCH   1   6
ATOM      6  N   UNL     1      43.115 131.266  21.535  1.00  0.00    -0.247 N 
ATOM      7  C   UNL     1      42.032 131.135  22.541  1.00  0.00     0.238 C 
ATOM      8  C   UNL     1      44.462 130.642  21.717  1.00  0.00     0.241 C 
ATOM      9  C   UNL     1      42.407 130.340  23.787  1.00  0.00     0.052 C 
ATOM     10  C   UNL     1      44.596 129.651  22.907  1.00  0.00     0.219 C 
ATOM     11  C   UNL     1      43.250 129.130  23.404  1.00  0.00     0.029 C 
ATOM     12  F   UNL     1      45.395 128.583  22.525  1.00  0.00    -0.242 F 
ATOM     13  C   UNL     1      43.428 128.195  24.608  1.00  0.00     0.011 C 
BRANCH   8  14
ATOM     14  C   UNL     1      45.533 131.713  21.853  1.00  0.00    -0.001 A 
ATOM     15  C   UNL     1      46.582 131.786  20.925  1.00  0.00     0.009 A 
ATOM     16  C   UNL     1      45.515 132.610  22.934  1.00  0.00     0.009 A 
ATOM     17  C   UNL     1      47.572 132.764  21.049  1.00  0.00     0.012 A 
ATOM     18  C   UNL     1      46.502 133.592  23.059  1.00  0.00     0.012 A 
ATOM     19  C   UNL     1      47.542 133.686  22.113  1.00  0.00     0.017 A 
BRANCH  19  20
ATOM     20  C   UNL     1      48.597 134.728  22.226  1.00  0.00     0.159 C 
ATOM     21  O   UNL     1      49.343 134.757  23.243  1.00  0.00    -0.295 OA
ATOM     22  C   UNL     1      48.809 135.760  21.159  1.00  0.00     0.093 C 
ENDBRANCH  19  20
ENDBRANCH   8  14
ENDBRANCH   1   6
BRANCH   2  23
ATOM     23  C   UNL     1      42.853 131.671  17.919  1.00  0.00     0.262 C 
BRANCH  23  24
ATOM     24  C   UNL     1      43.851 131.580  16.765  1.00  0.00     0.205 C 
BRANCH  24  25
ATOM     25  O   UNL     1      45.163 131.636  17.281  1.00  0.00    -0.381 OA
ATOM     26  C   UNL     1      45.630 130.325  17.510  1.00  0.00     0.195 C 
ENDBRANCH  24  25
ENDBRANCH  23  24
ENDBRANCH   2  23
TORSDOF 7
ENDMDL
MODEL 3
REMARK VINA RESULT:      -0.8      3.388      5.292
REMARK SMILES COCCN/C(S)=[N+]1\CC[C@H](C)[C@@H](F)[C@@H]1c1ccc(C(C)=O)cc1
REMARK SMILES IDX 6 1 5 2 7 4 8 6 9 7 15 8 10 9 13 10 11 11 14 12 12 13 16 14
REMARK SMILES IDX 17 15 24 16 18 17 23 18 19 19 20 20 22 21 21 22 4 23 3 24
REMARK SMILES IDX 2 25 1 26
REMARK H PARENT 5 3 7 5
ROOT
ATOM      1  C   UNL     1      45.935 132.900  23.411  1.00  0.00     0.303 C 
ATOM      2  N   UNL     1      46.875 132.883  22.317  1.00  0.00    -0.267 N 
ATOM      3  H   UNL     1      47.275 131.981  21.975  1.00  0.00     0.305 HD
ENDROOT
BRANCH   1   4
ATOM      4  S   UNL     1      46.117 134.235  24.621  1.00  0.00    -0.056 SA
ATOM      5  H   UNL     1      44.958 133.832  25.312  1.00  0.00     0.116 HD
ENDBRANCH   1   4
BRANCH   1   6
ATOM      6  N   UNL     1      44.977 131.989  23.508  1.00  0.00    -0.247 N 
ATOM      7  C   UNL     1      45.080 130.986  24.597  1.00  0.00     0.238 C 
ATOM      8  C   UNL     1      43.846 132.001  22.529  1.00  0.00     0.241 C 
ATOM      9  C   UNL     1      43.960 129.951  24.624  1.00  0.00     0.052 C 
ATOM     10  C   UNL     1      42.659 131.050  22.853  1.00  0.00     0.219 C 
ATOM     11  C   UNL     1      42.624 130.615  24.315  1.00  0.00     0.029 C 
ATOM     12  F   UNL     1      41.467 131.682  22.528  1.00  0.00    -0.242 F 
ATOM     13  C   UNL     1      41.467 129.642  24.576  1.00  0.00     0.011 C 
BRANCH   8  14
ATOM     14  C   UNL     1      44.348 131.691  21.128  1.00  0.00    -0.001 A 
ATOM     15  C   UNL     1      43.719 132.256  20.009  1.00  0.00     0.009 A 
ATOM     16  C   UNL     1      45.416 130.799  20.931  1.00  0.00     0.009 A 
ATOM     17  C   UNL     1      44.173 131.970  18.720  1.00  0.00     0.012 A 
ATOM     18  C   UNL     1      45.874 130.513  19.642  1.00  0.00     0.012 A 
ATOM     19  C   UNL     1      45.262 131.100  18.518  1.00  0.00     0.017 A 
BRANCH  19  20
ATOM     20  C   UNL     1      45.740 130.813  17.139  1.00  0.00     0.159 C 
ATOM     21  O   UNL     1      46.186 129.667  16.856  1.00  0.00    -0.295 OA
ATOM     22  C   UNL     1      45.709 131.851  16.057  1.00  0.00     0.093 C 
ENDBRANCH  19  20
ENDBRANCH   8  14
ENDBRANCH   1   6
BRANCH   2  23
ATOM     23  C   UNL     1      47.272 134.104  21.619  1.00  0.00     0.262 C 
BRANCH  23  24
ATOM     24  C   UNL     1      48.628 134.596  22.125  1.00  0.00     0.205 C 
BRANCH  24  25
ATOM     25  O   UNL     1      49.043 135.697  21.347  1.00  0.00    -0.381 OA
ATOM     26  C   UNL     1      47.912 136.320  20.781  1.00  0.00     0.195 C 
ENDBRANCH  24  25
ENDBRANCH  23  24
ENDBRANCH   2  23
TORSDOF 7
ENDMDL
MODEL 4
REMARK VINA RESULT:      -0.8      4.290      6.863
REMARK SMILES COCCN/C(S)=[N+]1\CC[C@H](C)[C@@H](F)[C@@H]1c1ccc(C(C)=O)cc1
REMARK SMILES IDX 6 1 5 2 7 4 8 6 9 7 15 8 10 9 13 10 11 11 14 12 12 13 16 14
REMARK SMILES IDX 17 15 24 16 18 17 23 18 19 19 20 20 22 21 21 22 4 23 3 24
REMARK SMILES IDX 2 25 1 26
REMARK H PARENT 5 3 7 5
ROOT
ATOM      1  C   UNL     1      45.834 124.950  22.873  1.00  0.00     0.303 C 
ATOM      2  N   UNL     1      46.715 123.922  23.369  1.00  0.00    -0.267 N 
ATOM      3  H   UNL     1      46.399 123.267  24.117  1.00  0.00     0.305 HD
ENDROOT
BRANCH   1   4
ATOM      4  S   UNL     1      46.574 126.569  22.541  1.00  0.00    -0.056 SA
ATOM      5  H   UNL     1      45.743 127.198  23.488  1.00  0.00     0.116 HD
ENDBRANCH   1   4
BRANCH   1   6
ATOM      6  N   UNL     1      44.549 124.706  22.657  1.00  0.00    -0.247 N 
ATOM      7  C   UNL     1      44.193 123.785  21.549  1.00  0.00     0.238 C 
ATOM      8  C   UNL     1      43.519 125.362  23.520  1.00  0.00     0.241 C 
ATOM      9  C   UNL     1      42.696 123.580  21.340  1.00  0.00     0.052 C 
ATOM     10  C   UNL     1      42.062 124.847  23.349  1.00  0.00     0.219 C 
ATOM     11  C   UNL     1      41.988 123.475  22.686  1.00  0.00     0.029 C 
ATOM     12  F   UNL     1      41.447 124.797  24.591  1.00  0.00    -0.242 F 
ATOM     13  C   UNL     1      40.533 123.029  22.493  1.00  0.00     0.011 C 
BRANCH   8  14
ATOM     14  C   UNL     1      43.529 126.869  23.313  1.00  0.00    -0.001 A 
ATOM     15  C   UNL     1      42.498 127.662  23.838  1.00  0.00     0.009 A 
ATOM     16  C   UNL     1      44.541 127.481  22.555  1.00  0.00     0.009 A 
ATOM     17  C   UNL     1      42.499 129.045  23.645  1.00  0.00     0.012 A 
ATOM     18  C   UNL     1      44.547 128.865  22.364  1.00  0.00     0.012 A 
ATOM     19  C   UNL     1      43.528 129.668  22.912  1.00  0.00     0.017 A 
BRANCH  19  20
ATOM     20  C   UNL     1      43.521 131.143  22.725  1.00  0.00     0.159 C 
ATOM     21  O   UNL     1      44.490 131.706  22.145  1.00  0.00    -0.295 OA
ATOM     22  C   UNL     1      42.387 131.998  23.207  1.00  0.00     0.093 C 
ENDBRANCH  19  20
ENDBRANCH   8  14
ENDBRANCH   1   6
BRANCH   2  23
ATOM     23  C   UNL     1      48.059 123.727  22.826  1.00  0.00     0.262 C 
BRANCH  23  24
ATOM     24  C   UNL     1      49.068 124.610  23.559  1.00  0.00     0.205 C 
BRANCH  24  25
ATOM     25  O   UNL     1      50.234 124.732  22.774  1.00  0.00    -0.381 OA
ATOM     26  C   UNL     1      51.008 123.560  22.905  1.00  0.00     0.195 C 
ENDBRANCH  24  25
ENDBRANCH  23  24
ENDBRANCH   2  23
TORSDOF 7
ENDMDL
MODEL 5
REMARK VINA RESULT:      -0.8      3.327      4.986
REMARK SMILES COCCN/C(S)=[N+]1\CC[C@H](C)[C@@H](F)[C@@H]1c1ccc(C(C)=O)cc1
REMARK SMILES IDX 6 1 5 2 7 4 8 6 9 7 15 8 10 9 13 10 11 11 14 12 12 13 16 14
REMARK SMILES IDX 17 15 24 16 18 17 23 18 19 19 20 20 22 21 21 22 4 23 3 24
REMARK SMILES IDX 2 25 1 26
REMARK H PARENT 5 3 7 5
ROOT
ATOM      1  C   UNL     1      45.632 132.781  23.523  1.00  0.00     0.303 C 
ATOM      2  N   UNL     1      46.715 132.807  22.573  1.00  0.00    -0.267 N 
ATOM      3  H   UNL     1      47.265 131.942  22.370  1.00  0.00     0.305 HD
ENDROOT
BRANCH   1   4
ATOM      4  S   UNL     1      45.477 134.211  24.624  1.00  0.00    -0.056 SA
ATOM      5  H   UNL     1      44.680 133.488  25.531  1.00  0.00     0.116 HD
ENDBRANCH   1   4
BRANCH   1   6
ATOM      6  N   UNL     1      44.784 131.763  23.570  1.00  0.00    -0.247 N 
ATOM      7  C   UNL     1      44.985 130.738  24.625  1.00  0.00     0.238 C 
ATOM      8  C   UNL     1      43.673 131.681  22.571  1.00  0.00     0.241 C 
ATOM      9  C   UNL     1      43.991 129.582  24.595  1.00  0.00     0.052 C 
ATOM     10  C   UNL     1      42.598 130.590  22.839  1.00  0.00     0.219 C 
ATOM     11  C   UNL     1      42.592 130.100  24.284  1.00  0.00     0.029 C 
ATOM     12  F   UNL     1      41.347 131.093  22.514  1.00  0.00    -0.242 F 
ATOM     13  C   UNL     1      41.551 128.991  24.489  1.00  0.00     0.011 C 
BRANCH   8  14
ATOM     14  C   UNL     1      44.229 131.483  21.170  1.00  0.00    -0.001 A 
ATOM     15  C   UNL     1      43.692 132.197  20.088  1.00  0.00     0.009 A 
ATOM     16  C   UNL     1      45.251 130.550  20.930  1.00  0.00     0.009 A 
ATOM     17  C   UNL     1      44.195 132.014  18.798  1.00  0.00     0.012 A 
ATOM     18  C   UNL     1      45.758 130.367  19.641  1.00  0.00     0.012 A 
ATOM     19  C   UNL     1      45.240 131.102  18.557  1.00  0.00     0.017 A 
BRANCH  19  20
ATOM     20  C   UNL     1      45.771 130.926  17.179  1.00  0.00     0.159 C 
ATOM     21  O   UNL     1      46.358 129.853  16.866  1.00  0.00    -0.295 OA
ATOM     22  C   UNL     1      45.633 131.992  16.134  1.00  0.00     0.093 C 
ENDBRANCH  19  20
ENDBRANCH   8  14
ENDBRANCH   1   6
BRANCH   2  23
ATOM     23  C   UNL     1      47.064 134.017  21.830  1.00  0.00     0.262 C 
BRANCH  23  24
ATOM     24  C   UNL     1      48.211 134.758  22.516  1.00  0.00     0.205 C 
BRANCH  24  25
ATOM     25  O   UNL     1      49.306 133.881  22.667  1.00  0.00    -0.381 OA
ATOM     26  C   UNL     1      49.710 133.870  24.018  1.00  0.00     0.195 C 
ENDBRANCH  24  25
ENDBRANCH  23  24
ENDBRANCH   2  23
TORSDOF 7
ENDMDL
MODEL 6
REMARK VINA RESULT:      -0.6      3.184      5.697
REMARK SMILES COCCN/C(S)=[N+]1\CC[C@H](C)[C@@H](F)[C@@H]1c1ccc(C(C)=O)cc1
REMARK SMILES IDX 6 1 5 2 7 4 8 6 9 7 15 8 10 9 13 10 11 11 14 12 12 13 16 14
REMARK SMILES IDX 17 15 24 16 18 17 23 18 19 19 20 20 22 21 21 22 4 23 3 24
REMARK SMILES IDX 2 25 1 26
REMARK H PARENT 5 3 7 5
ROOT
ATOM      1  C   UNL     1      43.359 131.808  19.835  1.00  0.00     0.303 C 
ATOM      2  N   UNL     1      44.484 131.768  18.934  1.00  0.00    -0.267 N 
ATOM      3  H   UNL     1      45.455 131.914  19.289  1.00  0.00     0.305 HD
ENDROOT
BRANCH   1   4
ATOM      4  S   UNL     1      41.863 132.634  19.236  1.00  0.00    -0.056 SA
ATOM      5  H   UNL     1      41.505 133.036  20.537  1.00  0.00     0.116 HD
ENDBRANCH   1   4
BRANCH   1   6
ATOM      6  N   UNL     1      43.421 131.249  21.035  1.00  0.00    -0.247 N 
ATOM      7  C   UNL     1      42.189 131.244  21.864  1.00  0.00     0.238 C 
ATOM      8  C   UNL     1      44.711 130.655  21.507  1.00  0.00     0.241 C 
ATOM      9  C   UNL     1      42.347 130.614  23.243  1.00  0.00     0.052 C 
ATOM     10  C   UNL     1      44.635 129.824  22.819  1.00  0.00     0.219 C 
ATOM     11  C   UNL     1      43.218 129.367  23.155  1.00  0.00     0.029 C 
ATOM     12  F   UNL     1      45.465 128.718  22.706  1.00  0.00    -0.242 F 
ATOM     13  C   UNL     1      43.185 128.593  24.480  1.00  0.00     0.011 C 
BRANCH   8  14
ATOM     14  C   UNL     1      45.765 131.737  21.678  1.00  0.00    -0.001 A 
ATOM     15  C   UNL     1      46.924 131.726  20.888  1.00  0.00     0.009 A 
ATOM     16  C   UNL     1      45.618 132.732  22.659  1.00  0.00     0.009 A 
ATOM     17  C   UNL     1      47.899 132.714  21.045  1.00  0.00     0.012 A 
ATOM     18  C   UNL     1      46.591 133.724  22.815  1.00  0.00     0.012 A 
ATOM     19  C   UNL     1      47.743 133.731  22.005  1.00  0.00     0.017 A 
BRANCH  19  20
ATOM     20  C   UNL     1      48.785 134.782  22.153  1.00  0.00     0.159 C 
ATOM     21  O   UNL     1      48.755 135.804  21.413  1.00  0.00    -0.295 OA
ATOM     22  C   UNL     1      49.886 134.670  23.166  1.00  0.00     0.093 C 
ENDBRANCH  19  20
ENDBRANCH   8  14
ENDBRANCH   1   6
BRANCH   2  23
ATOM     23  C   UNL     1      44.324 131.483  17.508  1.00  0.00     0.262 C 
BRANCH  23  24
ATOM     24  C   UNL     1      45.666 131.107  16.881  1.00  0.00     0.205 C 
BRANCH  24  25
ATOM     25  O   UNL     1      45.773 129.702  16.821  1.00  0.00    -0.381 OA
ATOM     26  C   UNL     1      45.225 129.244  15.604  1.00  0.00     0.195 C 
ENDBRANCH  24  25
ENDBRANCH  23  24
ENDBRANCH   2  23
TORSDOF 7
ENDMDL
MODEL 7
REMARK VINA RESULT:      -0.3      3.331      5.820
REMARK SMILES COCCN/C(S)=[N+]1\CC[C@H](C)[C@@H](F)[C@@H]1c1ccc(C(C)=O)cc1
REMARK SMILES IDX 6 1 5 2 7 4 8 6 9 7 15 8 10 9 13 10 11 11 14 12 12 13 16 14
REMARK SMILES IDX 17 15 24 16 18 17 23 18 19 19 20 20 22 21 21 22 4 23 3 24
REMARK SMILES IDX 2 25 1 26
REMARK H PARENT 5 3 7 5
ROOT
ATOM      1  C   UNL     1      43.216 131.990  19.855  1.00  0.00     0.303 C 
ATOM      2  N   UNL     1      44.432 131.997  19.080  1.00  0.00    -0.267 N 
ATOM      3  H   UNL     1      45.346 132.229  19.528  1.00  0.00     0.305 HD
ENDROOT
BRANCH   1   4
ATOM      4  S   UNL     1      41.740 132.679  19.064  1.00  0.00    -0.056 SA
ATOM      5  H   UNL     1      42.502 133.254  18.030  1.00  0.00     0.116 HD
ENDBRANCH   1   4
BRANCH   1   6
ATOM      6  N   UNL     1      43.187 131.485  21.081  1.00  0.00    -0.247 N 
ATOM      7  C   UNL     1      41.921 131.598  21.848  1.00  0.00     0.238 C 
ATOM      8  C   UNL     1      44.412 130.834  21.640  1.00  0.00     0.241 C 
ATOM      9  C   UNL     1      41.974 131.026  23.261  1.00  0.00     0.052 C 
ATOM     10  C   UNL     1      44.222 130.072  22.982  1.00  0.00     0.219 C 
ATOM     11  C   UNL     1      42.765 129.723  23.269  1.00  0.00     0.029 C 
ATOM     12  F   UNL     1      44.982 128.911  22.959  1.00  0.00    -0.242 F 
ATOM     13  C   UNL     1      42.621 129.016  24.624  1.00  0.00     0.011 C 
BRANCH   8  14
ATOM     14  C   UNL     1      45.526 131.853  21.813  1.00  0.00    -0.001 A 
ATOM     15  C   UNL     1      45.596 132.635  22.976  1.00  0.00     0.009 A 
ATOM     16  C   UNL     1      46.472 132.061  20.795  1.00  0.00     0.009 A 
ATOM     17  C   UNL     1      46.614 133.577  23.137  1.00  0.00     0.012 A 
ATOM     18  C   UNL     1      47.494 133.001  20.955  1.00  0.00     0.012 A 
ATOM     19  C   UNL     1      47.582 133.768  22.133  1.00  0.00     0.017 A 
BRANCH  19  20
ATOM     20  C   UNL     1      48.667 134.768  22.324  1.00  0.00     0.159 C 
ATOM     21  O   UNL     1      49.400 134.709  23.349  1.00  0.00    -0.295 OA
ATOM     22  C   UNL     1      48.923 135.859  21.328  1.00  0.00     0.093 C 
ENDBRANCH  19  20
ENDBRANCH   8  14
ENDBRANCH   1   6
BRANCH   2  23
ATOM     23  C   UNL     1      44.446 131.645  17.661  1.00  0.00     0.262 C 
BRANCH  23  24
ATOM     24  C   UNL     1      45.642 130.748  17.342  1.00  0.00     0.205 C 
BRANCH  24  25
ATOM     25  O   UNL     1      45.896 130.789  15.955  1.00  0.00    -0.381 OA
ATOM     26  C   UNL     1      44.765 131.305  15.289  1.00  0.00     0.195 C 
ENDBRANCH  24  25
ENDBRANCH  23  24
ENDBRANCH   2  23
TORSDOF 7
ENDMDL
MODEL 8
REMARK VINA RESULT:      -0.2      3.208      5.340
REMARK SMILES COCCN/C(S)=[N+]1\CC[C@H](C)[C@@H](F)[C@@H]1c1ccc(C(C)=O)cc1
REMARK SMILES IDX 6 1 5 2 7 4 8 6 9 7 15 8 10 9 13 10 11 11 14 12 12 13 16 14
REMARK SMILES IDX 17 15 24 16 18 17 23 18 19 19 20 20 22 21 21 22 4 23 3 24
REMARK SMILES IDX 2 25 1 26
REMARK H PARENT 5 3 7 5
ROOT
ATOM      1  C   UNL     1      45.403 132.601  23.601  1.00  0.00     0.303 C 
ATOM      2  N   UNL     1      46.534 132.724  22.715  1.00  0.00    -0.267 N 
ATOM      3  H   UNL     1      47.196 131.927  22.585  1.00  0.00     0.305 HD
ENDROOT
BRANCH   1   4
ATOM      4  S   UNL     1      45.007 134.043  24.623  1.00  0.00    -0.056 SA
ATOM      5  H   UNL     1      45.863 133.609  25.653  1.00  0.00     0.116 HD
ENDBRANCH   1   4
BRANCH   1   6
ATOM      6  N   UNL     1      44.684 131.488  23.646  1.00  0.00    -0.247 N 
ATOM      7  C   UNL     1      45.080 130.443  24.623  1.00  0.00     0.238 C 
ATOM      8  C   UNL     1      43.519 131.325  22.722  1.00  0.00     0.241 C 
ATOM      9  C   UNL     1      44.227 129.180  24.593  1.00  0.00     0.052 C 
ATOM     10  C   UNL     1      42.600 130.101  22.998  1.00  0.00     0.219 C 
ATOM     11  C   UNL     1      42.758 129.543  24.409  1.00  0.00     0.029 C 
ATOM     12  F   UNL     1      41.278 130.467  22.789  1.00  0.00    -0.242 F 
ATOM     13  C   UNL     1      41.870 128.309  24.620  1.00  0.00     0.011 C 
BRANCH   8  14
ATOM     14  C   UNL     1      43.987 131.265  21.277  1.00  0.00    -0.001 A 
ATOM     15  C   UNL     1      45.209 130.656  20.955  1.00  0.00     0.009 A 
ATOM     16  C   UNL     1      43.230 131.858  20.253  1.00  0.00     0.009 A 
ATOM     17  C   UNL     1      45.647 130.603  19.629  1.00  0.00     0.012 A 
ATOM     18  C   UNL     1      43.665 131.803  18.926  1.00  0.00     0.012 A 
ATOM     19  C   UNL     1      44.878 131.169  18.595  1.00  0.00     0.017 A 
BRANCH  19  20
ATOM     20  C   UNL     1      45.353 131.096  17.188  1.00  0.00     0.159 C 
ATOM     21  O   UNL     1      45.539 129.971  16.646  1.00  0.00    -0.295 OA
ATOM     22  C   UNL     1      45.623 132.328  16.377  1.00  0.00     0.093 C 
ENDBRANCH  19  20
ENDBRANCH   8  14
ENDBRANCH   1   6
BRANCH   2  23
ATOM     23  C   UNL     1      46.779 133.938  21.937  1.00  0.00     0.262 C 
BRANCH  23  24
ATOM     24  C   UNL     1      48.279 134.164  21.752  1.00  0.00     0.205 C 
BRANCH  24  25
ATOM     25  O   UNL     1      48.491 135.445  21.201  1.00  0.00    -0.381 OA
ATOM     26  C   UNL     1      49.548 136.078  21.887  1.00  0.00     0.195 C 
ENDBRANCH  24  25
ENDBRANCH  23  24
ENDBRANCH   2  23
TORSDOF 7
ENDMDL
MODEL 9
REMARK VINA RESULT:      -0.1      3.357      5.193
REMARK SMILES COCCN/C(S)=[N+]1\CC[C@H](C)[C@@H](F)[C@@H]1c1ccc(C(C)=O)cc1
REMARK SMILES IDX 6 1 5 2 7 4 8 6 9 7 15 8 10 9 13 10 11 11 14 12 12 13 16 14
REMARK SMILES IDX 17 15 24 16 18 17 23 18 19 19 20 20 22 21 21 22 4 23 3 24
REMARK SMILES IDX 2 25 1 26
REMARK H PARENT 5 3 7 5
ROOT
ATOM      1  C   UNL     1      45.599 132.598  23.372  1.00  0.00     0.303 C 
ATOM      2  N   UNL     1      46.519 132.655  22.263  1.00  0.00    -0.267 N 
ATOM      3  H   UNL     1      46.951 131.783  21.885  1.00  0.00     0.305 HD
ENDROOT
BRANCH   1   4
ATOM      4  S   UNL     1      45.745 133.899  24.622  1.00  0.00    -0.056 SA
ATOM      5  H   UNL     1      46.351 133.019  25.538  1.00  0.00     0.116 HD
ENDBRANCH   1   4
BRANCH   1   6
ATOM      6  N   UNL     1      44.682 131.644  23.454  1.00  0.00    -0.247 N 
ATOM      7  C   UNL     1      44.964 130.482  24.334  1.00  0.00     0.238 C 
ATOM      8  C   UNL     1      43.417 131.767  22.665  1.00  0.00     0.241 C 
ATOM      9  C   UNL     1      43.879 129.411  24.351  1.00  0.00     0.052 C 
ATOM     10  C   UNL     1      42.308 130.728  22.995  1.00  0.00     0.219 C 
ATOM     11  C   UNL     1      42.500 130.061  24.354  1.00  0.00     0.029 C 
ATOM     12  F   UNL     1      41.070 131.354  22.957  1.00  0.00    -0.242 F 
ATOM     13  C   UNL     1      41.413 129.011  24.616  1.00  0.00     0.011 C 
BRANCH   8  14
ATOM     14  C   UNL     1      43.709 131.709  21.174  1.00  0.00    -0.001 A 
ATOM     15  C   UNL     1      42.819 132.286  20.256  1.00  0.00     0.009 A 
ATOM     16  C   UNL     1      44.844 131.036  20.693  1.00  0.00     0.009 A 
ATOM     17  C   UNL     1      43.079 132.229  18.885  1.00  0.00     0.012 A 
ATOM     18  C   UNL     1      45.109 130.982  19.321  1.00  0.00     0.012 A 
ATOM     19  C   UNL     1      44.232 131.584  18.398  1.00  0.00     0.017 A 
BRANCH  19  20
ATOM     20  C   UNL     1      44.500 131.541  16.936  1.00  0.00     0.159 C 
ATOM     21  O   UNL     1      43.542 131.630  16.120  1.00  0.00    -0.295 OA
ATOM     22  C   UNL     1      45.889 131.396  16.389  1.00  0.00     0.093 C 
ENDBRANCH  19  20
ENDBRANCH   8  14
ENDBRANCH   1   6
BRANCH   2  23
ATOM     23  C   UNL     1      46.853 133.915  21.599  1.00  0.00     0.262 C 
BRANCH  23  24
ATOM     24  C   UNL     1      47.952 134.651  22.365  1.00  0.00     0.205 C 
BRANCH  24  25
ATOM     25  O   UNL     1      48.968 135.035  21.464  1.00  0.00    -0.381 OA
ATOM     26  C   UNL     1      48.730 136.356  21.030  1.00  0.00     0.195 C 
ENDBRANCH  24  25
ENDBRANCH  23  24
ENDBRANCH   2  23
TORSDOF 7
ENDMDL


