REMARK SMILES c1cc(-c2ccc3cc[nH]c3c2)cc([C@@H]2CO2)c1
REMARK SMILES IDX 4 1 5 2 6 3 7 4 8 5 9 6 10 7 11 8 12 9 3 11 1 12 2 13 18 14
REMARK SMILES IDX 14 15 13 16 15 17 16 18 17 19
REMARK H PARENT 10 10
ROOT
ATOM      1  C   UNL     1      -0.047   0.006   1.613  1.00  0.00    -0.016 A 
ATOM      2  C   UNL     1      -0.507   0.202   2.943  1.00  0.00     0.009 A 
ATOM      3  C   UNL     1      -1.552  -0.580   3.467  1.00  0.00     0.011 A 
ATOM      4  C   UNL     1      -2.118  -1.546   2.643  1.00  0.00    -0.001 A 
ATOM      5  C   UNL     1      -3.138  -2.442   2.878  1.00  0.00     0.028 A 
ATOM      6  C   UNL     1      -3.274  -3.157   1.692  1.00  0.00     0.083 A 
ATOM      7  N   UNL     1      -2.384  -2.727   0.768  1.00  0.00    -0.361 N 
ATOM      8  C   UNL     1      -1.684  -1.746   1.361  1.00  0.00     0.046 A 
ATOM      9  C   UNL     1      -0.652  -0.990   0.809  1.00  0.00     0.035 A 
ATOM     10  H   UNL     1      -2.268  -3.087  -0.205  1.00  0.00     0.166 HD
ENDROOT
BRANCH   1  11
ATOM     11  C   UNL     1       1.057   0.838   1.069  1.00  0.00    -0.018 A 
ATOM     12  C   UNL     1       2.165   2.994   0.848  1.00  0.00     0.001 A 
ATOM     13  C   UNL     1       1.122   2.214   1.355  1.00  0.00     0.009 A 
ATOM     14  C   UNL     1       3.152   2.413   0.049  1.00  0.00     0.006 A 
ATOM     15  C   UNL     1       3.094   1.048  -0.261  1.00  0.00    -0.016 A 
ATOM     16  C   UNL     1       2.056   0.261   0.263  1.00  0.00     0.015 A 
BRANCH  15  17
ATOM     17  C   UNL     1       4.176   0.420  -1.089  1.00  0.00     0.174 C 
ATOM     18  C   UNL     1       4.270   0.878  -2.494  1.00  0.00     0.198 C 
ATOM     19  O   UNL     1       3.647  -0.337  -2.153  1.00  0.00    -0.368 OA
ENDBRANCH  15  17
ENDBRANCH   1  11
TORSDOF 2


