MODEL 1
REMARK VINA RESULT:      -5.2      0.000      0.000
REMARK SMILES CC1=CCC=C[C@H]1C(=O)Oc1ccc(N(C(=O)Oc2ccccc2)c2ccc3cc[nH]c3c2)c(F)c1
REMARK SMILES IDX 11 1 12 2 13 3 14 4 34 5 35 6 36 7 10 8 8 9 9 10 7 11 2 12
REMARK SMILES IDX 3 13 4 14 6 15 5 16 1 17 15 18 16 19 17 20 18 21 19 22 20 23
REMARK SMILES IDX 24 24 21 25 23 26 22 27 25 28 26 29 33 30 27 31 32 32 28 33
REMARK SMILES IDX 31 34 29 35 30 36
REMARK H PARENT 31 37
ROOT
ATOM      1  C   UNL     1      48.119 123.664  22.465  1.00  0.00     0.133 A 
ATOM      2  C   UNL     1      47.813 124.640  21.511  1.00  0.00     0.049 A 
ATOM      3  C   UNL     1      46.617 125.359  21.586  1.00  0.00     0.034 A 
ATOM      4  C   UNL     1      45.700 125.105  22.618  1.00  0.00     0.088 A 
ATOM      5  C   UNL     1      45.998 124.114  23.570  1.00  0.00     0.151 A 
ATOM      6  F   UNL     1      45.133 123.850  24.581  1.00  0.00    -0.205 F 
ATOM      7  C   UNL     1      47.194 123.394  23.489  1.00  0.00     0.088 A 
ENDROOT
BRANCH   1   8
ATOM      8  O   UNL     1      49.324 122.958  22.329  1.00  0.00    -0.426 OA
BRANCH   8   9
ATOM      9  C   UNL     1      50.600 123.443  22.647  1.00  0.00     0.322 C 
ATOM     10  O   UNL     1      51.145 123.167  23.751  1.00  0.00    -0.251 OA
BRANCH   9  11
ATOM     11  C   UNL     1      51.305 124.335  21.666  1.00  0.00     0.147 C 
ATOM     12  C   UNL     1      52.771 123.942  21.538  1.00  0.00    -0.059 C 
ATOM     13  C   UNL     1      53.354 123.768  20.335  1.00  0.00    -0.023 C 
ATOM     14  C   UNL     1      52.640 124.018  19.033  1.00  0.00     0.054 C 
ATOM     15  C   UNL     1      50.548 124.301  20.358  1.00  0.00    -0.012 C 
ATOM     16  C   UNL     1      51.149 124.141  19.173  1.00  0.00    -0.026 C 
ATOM     17  C   UNL     1      53.625 123.825  22.775  1.00  0.00     0.040 C 
ENDBRANCH   9  11
ENDBRANCH   8   9
ENDBRANCH   1   8
BRANCH   4  18
ATOM     18  N   UNL     1      44.454 125.830  22.676  1.00  0.00    -0.243 N 
BRANCH  18  19
ATOM     19  C   UNL     1      44.460 127.269  22.755  1.00  0.00     0.424 C 
ATOM     20  O   UNL     1      45.312 127.932  22.101  1.00  0.00    -0.223 OA
BRANCH  19  21
ATOM     21  O   UNL     1      43.485 127.928  23.518  1.00  0.00    -0.410 OA
BRANCH  21  22
ATOM     22  C   UNL     1      43.339 129.319  23.621  1.00  0.00     0.132 A 
ATOM     23  C   UNL     1      44.249 130.139  22.940  1.00  0.00     0.047 A 
ATOM     24  C   UNL     1      42.286 129.914  24.342  1.00  0.00     0.047 A 
ATOM     25  C   UNL     1      44.131 131.531  22.998  1.00  0.00     0.004 A 
ATOM     26  C   UNL     1      42.169 131.307  24.399  1.00  0.00     0.004 A 
ATOM     27  C   UNL     1      43.093 132.114  23.730  1.00  0.00     0.000 A 
ENDBRANCH  21  22
ENDBRANCH  19  21
ENDBRANCH  18  19
BRANCH  18  28
ATOM     28  C   UNL     1      43.201 125.115  22.629  1.00  0.00     0.055 A 
ATOM     29  C   UNL     1      43.106 123.871  21.948  1.00  0.00     0.027 A 
ATOM     30  C   UNL     1      42.050 125.657  23.250  1.00  0.00     0.053 A 
ATOM     31  C   UNL     1      41.887 123.170  21.894  1.00  0.00     0.012 A 
ATOM     32  C   UNL     1      40.859 124.939  23.172  1.00  0.00     0.047 A 
ATOM     33  C   UNL     1      40.783 123.739  22.519  1.00  0.00    -0.000 A 
ATOM     34  N   UNL     1      39.668 125.274  23.693  1.00  0.00    -0.361 N 
ATOM     35  C   UNL     1      39.485 123.290  22.630  1.00  0.00     0.028 A 
ATOM     36  C   UNL     1      38.824 124.269  23.365  1.00  0.00     0.083 A 
ATOM     37  H   UNL     1      39.438 126.129  24.248  1.00  0.00     0.166 HD
ENDBRANCH  18  28
ENDBRANCH   4  18
TORSDOF 8
ENDMDL
MODEL 2
REMARK VINA RESULT:      -4.4      6.140      9.886
REMARK SMILES CC1=CCC=C[C@H]1C(=O)Oc1ccc(N(C(=O)Oc2ccccc2)c2ccc3cc[nH]c3c2)c(F)c1
REMARK SMILES IDX 11 1 12 2 13 3 14 4 34 5 35 6 36 7 10 8 8 9 9 10 7 11 2 12
REMARK SMILES IDX 3 13 4 14 6 15 5 16 1 17 15 18 16 19 17 20 18 21 19 22 20 23
REMARK SMILES IDX 24 24 21 25 23 26 22 27 25 28 26 29 33 30 27 31 32 32 28 33
REMARK SMILES IDX 31 34 29 35 30 36
REMARK H PARENT 31 37
ROOT
ATOM      1  C   UNL     1      43.806 131.563  17.225  1.00  0.00     0.133 A 
ATOM      2  C   UNL     1      45.124 131.292  17.607  1.00  0.00     0.049 A 
ATOM      3  C   UNL     1      45.545 131.513  18.921  1.00  0.00     0.034 A 
ATOM      4  C   UNL     1      44.651 132.020  19.877  1.00  0.00     0.088 A 
ATOM      5  C   UNL     1      43.330 132.308  19.493  1.00  0.00     0.151 A 
ATOM      6  F   UNL     1      42.442 132.794  20.396  1.00  0.00    -0.205 F 
ATOM      7  C   UNL     1      42.913 132.089  18.176  1.00  0.00     0.088 A 
ENDROOT
BRANCH   1   8
ATOM      8  O   UNL     1      43.444 131.342  15.888  1.00  0.00    -0.426 OA
BRANCH   8   9
ATOM      9  C   UNL     1      44.328 131.204  14.809  1.00  0.00     0.322 C 
ATOM     10  O   UNL     1      43.913 131.246  13.618  1.00  0.00    -0.251 OA
BRANCH   9  11
ATOM     11  C   UNL     1      45.784 130.966  15.087  1.00  0.00     0.147 C 
ATOM     12  C   UNL     1      46.115 129.482  14.994  1.00  0.00    -0.059 C 
ATOM     13  C   UNL     1      47.165 129.036  14.277  1.00  0.00    -0.023 C 
ATOM     14  C   UNL     1      48.133 129.954  13.579  1.00  0.00     0.054 C 
ATOM     15  C   UNL     1      46.598 131.833  14.153  1.00  0.00    -0.012 C 
ATOM     16  C   UNL     1      47.646 131.371  13.460  1.00  0.00    -0.026 C 
ATOM     17  C   UNL     1      45.309 128.486  15.788  1.00  0.00     0.040 C 
ENDBRANCH   9  11
ENDBRANCH   8   9
ENDBRANCH   1   8
BRANCH   4  18
ATOM     18  N   UNL     1      45.098 132.273  21.225  1.00  0.00    -0.243 N 
BRANCH  18  19
ATOM     19  C   UNL     1      44.364 131.732  22.341  1.00  0.00     0.424 C 
ATOM     20  O   UNL     1      43.153 132.046  22.510  1.00  0.00    -0.223 OA
BRANCH  19  21
ATOM     21  O   UNL     1      44.985 130.816  23.203  1.00  0.00    -0.410 OA
BRANCH  21  22
ATOM     22  C   UNL     1      44.692 129.446  23.278  1.00  0.00     0.132 A 
ATOM     23  C   UNL     1      45.027 128.631  22.188  1.00  0.00     0.047 A 
ATOM     24  C   UNL     1      44.121 128.860  24.424  1.00  0.00     0.047 A 
ATOM     25  C   UNL     1      44.772 127.256  22.226  1.00  0.00     0.004 A 
ATOM     26  C   UNL     1      43.867 127.485  24.460  1.00  0.00     0.004 A 
ATOM     27  C   UNL     1      44.189 126.685  23.360  1.00  0.00     0.000 A 
ENDBRANCH  21  22
ENDBRANCH  19  21
ENDBRANCH  18  19
BRANCH  18  28
ATOM     28  C   UNL     1      46.294 133.048  21.454  1.00  0.00     0.055 A 
ATOM     29  C   UNL     1      47.436 132.452  22.055  1.00  0.00     0.027 A 
ATOM     30  C   UNL     1      46.332 134.417  21.096  1.00  0.00     0.053 A 
ATOM     31  C   UNL     1      48.603 133.202  22.286  1.00  0.00     0.012 A 
ATOM     32  C   UNL     1      47.503 135.131  21.344  1.00  0.00     0.047 A 
ATOM     33  C   UNL     1      48.597 134.543  21.917  1.00  0.00    -0.000 A 
ATOM     34  N   UNL     1      47.742 136.425  21.076  1.00  0.00    -0.361 N 
ATOM     35  C   UNL     1      49.578 135.506  22.017  1.00  0.00     0.028 A 
ATOM     36  C   UNL     1      49.009 136.660  21.486  1.00  0.00     0.083 A 
ATOM     37  H   UNL     1      47.090 137.111  20.633  1.00  0.00     0.166 HD
ENDBRANCH  18  28
ENDBRANCH   4  18
TORSDOF 8
ENDMDL
MODEL 3
REMARK VINA RESULT:      -3.3      5.701      8.250
REMARK SMILES CC1=CCC=C[C@H]1C(=O)Oc1ccc(N(C(=O)Oc2ccccc2)c2ccc3cc[nH]c3c2)c(F)c1
REMARK SMILES IDX 11 1 12 2 13 3 14 4 34 5 35 6 36 7 10 8 8 9 9 10 7 11 2 12
REMARK SMILES IDX 3 13 4 14 6 15 5 16 1 17 15 18 16 19 17 20 18 21 19 22 20 23
REMARK SMILES IDX 24 24 21 25 23 26 22 27 25 28 26 29 33 30 27 31 32 32 28 33
REMARK SMILES IDX 31 34 29 35 30 36
REMARK H PARENT 31 37
ROOT
ATOM      1  C   UNL     1      44.072 131.599  17.191  1.00  0.00     0.133 A 
ATOM      2  C   UNL     1      45.393 131.495  17.641  1.00  0.00     0.049 A 
ATOM      3  C   UNL     1      45.669 131.268  18.992  1.00  0.00     0.034 A 
ATOM      4  C   UNL     1      44.623 131.149  19.920  1.00  0.00     0.088 A 
ATOM      5  C   UNL     1      43.296 131.268  19.474  1.00  0.00     0.151 A 
ATOM      6  F   UNL     1      42.264 131.153  20.347  1.00  0.00    -0.205 F 
ATOM      7  C   UNL     1      43.022 131.499  18.122  1.00  0.00     0.088 A 
ENDROOT
BRANCH   1   8
ATOM      8  O   UNL     1      43.854 131.848  15.828  1.00  0.00    -0.426 OA
BRANCH   8   9
ATOM      9  C   UNL     1      44.622 131.347  14.768  1.00  0.00     0.322 C 
ATOM     10  O   UNL     1      44.101 131.107  13.643  1.00  0.00    -0.251 OA
BRANCH   9  11
ATOM     11  C   UNL     1      46.078 131.061  14.996  1.00  0.00     0.147 C 
ATOM     12  C   UNL     1      46.334 129.560  15.023  1.00  0.00    -0.059 C 
ATOM     13  C   UNL     1      47.322 128.998  14.300  1.00  0.00    -0.023 C 
ATOM     14  C   UNL     1      48.293 129.799  13.474  1.00  0.00     0.054 C 
ATOM     15  C   UNL     1      46.880 131.798  13.947  1.00  0.00    -0.012 C 
ATOM     16  C   UNL     1      47.868 131.224  13.250  1.00  0.00    -0.026 C 
ATOM     17  C   UNL     1      45.525 128.680  15.943  1.00  0.00     0.040 C 
ENDBRANCH   9  11
ENDBRANCH   8   9
ENDBRANCH   1   8
BRANCH   4  18
ATOM     18  N   UNL     1      44.914 130.942  21.318  1.00  0.00    -0.243 N 
BRANCH  18  19
ATOM     19  C   UNL     1      44.972 132.068  22.217  1.00  0.00     0.424 C 
ATOM     20  O   UNL     1      43.915 132.690  22.515  1.00  0.00    -0.223 OA
BRANCH  19  21
ATOM     21  O   UNL     1      46.196 132.432  22.798  1.00  0.00    -0.410 OA
BRANCH  21  22
ATOM     22  C   UNL     1      47.075 133.403  22.297  1.00  0.00     0.132 A 
ATOM     23  C   UNL     1      46.540 134.617  21.843  1.00  0.00     0.047 A 
ATOM     24  C   UNL     1      48.470 133.219  22.280  1.00  0.00     0.047 A 
ATOM     25  C   UNL     1      47.380 135.622  21.353  1.00  0.00     0.004 A 
ATOM     26  C   UNL     1      49.308 134.225  21.790  1.00  0.00     0.004 A 
ATOM     27  C   UNL     1      48.763 135.424  21.324  1.00  0.00     0.000 A 
ENDBRANCH  21  22
ENDBRANCH  19  21
ENDBRANCH  18  19
BRANCH  18  28
ATOM     28  C   UNL     1      45.123 129.605  21.820  1.00  0.00     0.055 A 
ATOM     29  C   UNL     1      46.008 128.715  21.154  1.00  0.00     0.027 A 
ATOM     30  C   UNL     1      44.432 129.164  22.974  1.00  0.00     0.053 A 
ATOM     31  C   UNL     1      46.214 127.409  21.634  1.00  0.00     0.012 A 
ATOM     32  C   UNL     1      44.655 127.862  23.418  1.00  0.00     0.047 A 
ATOM     33  C   UNL     1      45.515 127.018  22.772  1.00  0.00    -0.000 A 
ATOM     34  N   UNL     1      44.107 127.259  24.486  1.00  0.00    -0.361 N 
ATOM     35  C   UNL     1      45.516 125.823  23.459  1.00  0.00     0.028 A 
ATOM     36  C   UNL     1      44.630 126.012  24.515  1.00  0.00     0.083 A 
ATOM     37  H   UNL     1      43.426 127.668  25.164  1.00  0.00     0.166 HD
ENDBRANCH  18  28
ENDBRANCH   4  18
TORSDOF 8
ENDMDL
MODEL 4
REMARK VINA RESULT:      -3.2      5.700      9.413
REMARK SMILES CC1=CCC=C[C@H]1C(=O)Oc1ccc(N(C(=O)Oc2ccccc2)c2ccc3cc[nH]c3c2)c(F)c1
REMARK SMILES IDX 11 1 12 2 13 3 14 4 34 5 35 6 36 7 10 8 8 9 9 10 7 11 2 12
REMARK SMILES IDX 3 13 4 14 6 15 5 16 1 17 15 18 16 19 17 20 18 21 19 22 20 23
REMARK SMILES IDX 24 24 21 25 23 26 22 27 25 28 26 29 33 30 27 31 32 32 28 33
REMARK SMILES IDX 31 34 29 35 30 36
REMARK H PARENT 31 37
ROOT
ATOM      1  C   UNL     1      44.473 131.998  17.164  1.00  0.00     0.133 A 
ATOM      2  C   UNL     1      43.907 132.971  17.994  1.00  0.00     0.049 A 
ATOM      3  C   UNL     1      43.943 132.830  19.384  1.00  0.00     0.034 A 
ATOM      4  C   UNL     1      44.543 131.703  19.967  1.00  0.00     0.088 A 
ATOM      5  C   UNL     1      45.100 130.716  19.135  1.00  0.00     0.151 A 
ATOM      6  F   UNL     1      45.690 129.618  19.671  1.00  0.00    -0.205 F 
ATOM      7  C   UNL     1      45.058 130.859  17.745  1.00  0.00     0.088 A 
ENDROOT
BRANCH   1   8
ATOM      8  O   UNL     1      44.389 132.181  15.775  1.00  0.00    -0.426 OA
BRANCH   8   9
ATOM      9  C   UNL     1      44.949 131.342  14.801  1.00  0.00     0.322 C 
ATOM     10  O   UNL     1      44.231 130.811  13.909  1.00  0.00    -0.251 OA
BRANCH   9  11
ATOM     11  C   UNL     1      46.420 131.048  14.851  1.00  0.00     0.147 C 
ATOM     12  C   UNL     1      46.671 129.546  14.809  1.00  0.00    -0.059 C 
ATOM     13  C   UNL     1      47.567 129.004  13.962  1.00  0.00    -0.023 C 
ATOM     14  C   UNL     1      48.440 129.825  13.051  1.00  0.00     0.054 C 
ATOM     15  C   UNL     1      47.099 131.812  13.737  1.00  0.00    -0.012 C 
ATOM     16  C   UNL     1      47.997 131.256  12.916  1.00  0.00    -0.026 C 
ATOM     17  C   UNL     1      45.971 128.644  15.793  1.00  0.00     0.040 C 
ENDBRANCH   9  11
ENDBRANCH   8   9
ENDBRANCH   1   8
BRANCH   4  18
ATOM     18  N   UNL     1      44.553 131.548  21.402  1.00  0.00    -0.243 N 
BRANCH  18  19
ATOM     19  C   UNL     1      43.676 130.593  22.031  1.00  0.00     0.424 C 
ATOM     20  O   UNL     1      42.526 130.385  21.553  1.00  0.00    -0.223 OA
BRANCH  19  21
ATOM     21  O   UNL     1      44.125 129.859  23.139  1.00  0.00    -0.410 OA
BRANCH  21  22
ATOM     22  C   UNL     1      43.750 128.543  23.447  1.00  0.00     0.132 A 
ATOM     23  C   UNL     1      42.591 128.340  24.208  1.00  0.00     0.047 A 
ATOM     24  C   UNL     1      44.468 127.427  22.978  1.00  0.00     0.047 A 
ATOM     25  C   UNL     1      42.168 127.045  24.523  1.00  0.00     0.004 A 
ATOM     26  C   UNL     1      44.044 126.132  23.294  1.00  0.00     0.004 A 
ATOM     27  C   UNL     1      42.896 125.942  24.069  1.00  0.00     0.000 A 
ENDBRANCH  21  22
ENDBRANCH  19  21
ENDBRANCH  18  19
BRANCH  18  28
ATOM     28  C   UNL     1      45.461 132.332  22.204  1.00  0.00     0.055 A 
ATOM     29  C   UNL     1      45.109 132.713  23.528  1.00  0.00     0.027 A 
ATOM     30  C   UNL     1      46.706 132.745  21.670  1.00  0.00     0.053 A 
ATOM     31  C   UNL     1      45.986 133.482  24.314  1.00  0.00     0.012 A 
ATOM     32  C   UNL     1      47.547 133.510  22.475  1.00  0.00     0.047 A 
ATOM     33  C   UNL     1      47.199 133.863  23.750  1.00  0.00    -0.000 A 
ATOM     34  N   UNL     1      48.761 133.992  22.161  1.00  0.00    -0.361 N 
ATOM     35  C   UNL     1      48.239 134.602  24.272  1.00  0.00     0.028 A 
ATOM     36  C   UNL     1      49.188 134.661  23.256  1.00  0.00     0.083 A 
ATOM     37  H   UNL     1      49.277 133.868  21.262  1.00  0.00     0.166 HD
ENDBRANCH  18  28
ENDBRANCH   4  18
TORSDOF 8
ENDMDL


