REMARK SMILES Cc1cc[nH+]c(F)c1-c1cc2cc(F)ccc2[nH]1
REMARK SMILES IDX 9 1 10 2 11 3 12 4 13 5 14 6 15 7 16 8 17 9 18 10 8 12 2 13
REMARK SMILES IDX 3 14 4 15 6 16 5 17 1 18 7 19
REMARK H PARENT 18 11 5 20
ROOT
ATOM      1  C   UNL     1       0.515  -0.479   0.040  1.00  0.00     0.056 A 
ATOM      2  C   UNL     1       1.057   0.087  -1.114  1.00  0.00     0.037 A 
ATOM      3  C   UNL     1       2.401  -0.206  -1.057  1.00  0.00     0.003 A 
ATOM      4  C   UNL     1       3.435   0.103  -1.939  1.00  0.00     0.049 A 
ATOM      5  C   UNL     1       4.730  -0.342  -1.614  1.00  0.00     0.123 A 
ATOM      6  F   UNL     1       5.766  -0.063  -2.442  1.00  0.00    -0.207 F 
ATOM      7  C   UNL     1       4.956  -1.080  -0.429  1.00  0.00     0.041 A 
ATOM      8  C   UNL     1       3.890  -1.378   0.439  1.00  0.00     0.030 A 
ATOM      9  C   UNL     1       2.619  -0.922   0.091  1.00  0.00     0.046 A 
ATOM     10  N   UNL     1       1.474  -1.102   0.768  1.00  0.00    -0.354 N 
ATOM     11  H   UNL     1       1.352  -1.609   1.673  1.00  0.00     0.167 HD
ENDROOT
BRANCH   1  12
ATOM     12  C   UNL     1      -0.916  -0.464   0.416  1.00  0.00     0.105 A 
ATOM     13  C   UNL     1      -1.679   0.730   0.438  1.00  0.00    -0.026 A 
ATOM     14  C   UNL     1      -3.042   0.662   0.763  1.00  0.00     0.075 A 
ATOM     15  C   UNL     1      -3.617  -0.563   1.094  1.00  0.00     0.309 A 
ATOM     16  C   UNL     1      -1.544  -1.673   0.770  1.00  0.00     0.367 A 
ATOM     17  N   UNL     1      -2.865  -1.693   1.097  1.00  0.00    -0.186 N 
ATOM     18  C   UNL     1      -1.077   2.073   0.118  1.00  0.00     0.045 C 
ATOM     19  F   UNL     1      -0.849  -2.839   0.756  1.00  0.00    -0.135 F 
ATOM     20  H   UNL     1      -3.315  -2.602   1.348  1.00  0.00     0.456 HD
ENDBRANCH   1  12
TORSDOF 1


