REMARK SMILES Cc1[nH+]cnc(O[C@@H](c2ccccc2)[C@H]2CO2)c1C
REMARK SMILES IDX 7 1 6 2 2 3 3 4 18 5 4 6 5 7 1 8 19 10 8 11 9 12 10 13 14 14
REMARK SMILES IDX 11 15 13 16 12 17 15 18 16 19 17 20
REMARK H PARENT 3 9
ROOT
ATOM      1  O   UNL     1      -0.041   0.887   0.546  1.00  0.00    -0.448 OA
ENDROOT
BRANCH   1   2
ATOM      2  C   UNL     1      -1.151   0.034   0.629  1.00  0.00     0.335 A 
ATOM      3  C   UNL     1      -3.536  -0.351   0.562  1.00  0.00     0.108 A 
ATOM      4  N   UNL     1      -3.293  -1.679   0.757  1.00  0.00    -0.247 N 
ATOM      5  C   UNL     1      -2.452   0.556   0.519  1.00  0.00     0.080 A 
ATOM      6  C   UNL     1      -2.026  -2.150   0.881  1.00  0.00     0.453 A 
ATOM      7  N   UNL     1      -0.973  -1.301   0.812  1.00  0.00    -0.010 NA
ATOM      8  C   UNL     1      -4.958   0.124   0.425  1.00  0.00     0.093 C 
ATOM      9  H   UNL     1      -4.084  -2.359   0.810  1.00  0.00     0.311 HD
ATOM     10  C   UNL     1      -2.670   2.033   0.295  1.00  0.00     0.057 C 
ENDBRANCH   1   2
BRANCH   1  11
ATOM     11  C   UNL     1       1.311   0.432   0.596  1.00  0.00     0.239 C 
BRANCH  11  12
ATOM     12  C   UNL     1       1.653  -0.351  -0.651  1.00  0.00    -0.005 A 
ATOM     13  C   UNL     1       2.391  -1.544  -0.556  1.00  0.00     0.007 A 
ATOM     14  C   UNL     1       1.270   0.119  -1.920  1.00  0.00     0.007 A 
ATOM     15  C   UNL     1       2.721  -2.262  -1.710  1.00  0.00     0.000 A 
ATOM     16  C   UNL     1       1.602  -0.603  -3.070  1.00  0.00     0.000 A 
ATOM     17  C   UNL     1       2.326  -1.794  -2.965  1.00  0.00     0.000 A 
ENDBRANCH  11  12
BRANCH  11  18
ATOM     18  C   UNL     1       2.234   1.650   0.699  1.00  0.00     0.189 C 
ATOM     19  C   UNL     1       2.501   2.164   2.061  1.00  0.00     0.197 C 
ATOM     20  O   UNL     1       3.431   1.352   1.378  1.00  0.00    -0.369 OA
ENDBRANCH  11  18
ENDBRANCH   1  11
TORSDOF 4


