REMARK SMILES C=Cc1ccc(-c2cccc3cc(Nc4ccc(F)cc4C)[nH]c23)nc1
REMARK SMILES IDX 7 1 8 2 9 3 10 4 11 5 12 6 13 7 23 8 24 9 6 11 3 12 4 13
REMARK SMILES IDX 26 14 5 15 25 16 2 17 1 18 14 19 15 21 16 22 21 23 17 24
REMARK SMILES IDX 20 25 18 26 22 27 19 28
REMARK H PARENT 23 10 14 20
ROOT
ATOM      1  C   UNL     1       2.585  -0.770   0.269  1.00  0.00     0.024 A 
ATOM      2  C   UNL     1       3.729  -1.593   0.140  1.00  0.00     0.012 A 
ATOM      3  C   UNL     1       3.919  -2.396  -1.005  1.00  0.00     0.001 A 
ATOM      4  C   UNL     1       2.973  -2.395  -2.042  1.00  0.00     0.010 A 
ATOM      5  C   UNL     1       1.855  -1.579  -1.901  1.00  0.00     0.002 A 
ATOM      6  C   UNL     1       0.801  -1.365  -2.763  1.00  0.00     0.055 A 
ATOM      7  C   UNL     1       0.005  -0.430  -2.115  1.00  0.00     0.108 A 
ATOM      8  N   UNL     1       0.532  -0.067  -0.923  1.00  0.00    -0.341 N 
ATOM      9  C   UNL     1       1.661  -0.790  -0.792  1.00  0.00     0.057 A 
ATOM     10  H   UNL     1       0.159   0.656  -0.270  1.00  0.00     0.168 HD
ENDROOT
BRANCH   1  11
ATOM     11  C   UNL     1       2.362   0.037   1.490  1.00  0.00     0.072 A 
ATOM     12  C   UNL     1       1.880   1.520   3.814  1.00  0.00    -0.008 A 
ATOM     13  C   UNL     1       3.179   1.448   3.277  1.00  0.00     0.012 A 
ATOM     14  C   UNL     1       0.850   0.844   3.145  1.00  0.00     0.119 A 
ATOM     15  C   UNL     1       3.422   0.704   2.121  1.00  0.00     0.030 A 
ATOM     16  N   UNL     1       1.112   0.126   2.022  1.00  0.00    -0.256 NA
BRANCH  12  17
ATOM     17  C   UNL     1       1.550   2.300   5.032  1.00  0.00     0.002 C 
ATOM     18  C   UNL     1       2.453   2.747   5.906  1.00  0.00     0.009 C 
ENDBRANCH  12  17
ENDBRANCH   1  11
BRANCH   7  19
ATOM     19  N   UNL     1      -1.202   0.119  -2.661  1.00  0.00    -0.342 N 
ATOM     20  H   UNL     1      -1.375   0.014  -3.686  1.00  0.00     0.168 HD
BRANCH  19  21
ATOM     21  C   UNL     1      -2.063   0.985  -1.909  1.00  0.00     0.043 A 
ATOM     22  C   UNL     1      -2.286   2.287  -2.378  1.00  0.00     0.029 A 
ATOM     23  C   UNL     1      -2.710   0.548  -0.727  1.00  0.00    -0.025 A 
ATOM     24  C   UNL     1      -3.096   3.170  -1.660  1.00  0.00     0.041 A 
ATOM     25  C   UNL     1      -3.505   1.454  -0.005  1.00  0.00     0.044 A 
ATOM     26  C   UNL     1      -3.697   2.757  -0.470  1.00  0.00     0.123 A 
ATOM     27  C   UNL     1      -2.560  -0.859  -0.213  1.00  0.00     0.047 C 
ATOM     28  F   UNL     1      -4.474   3.619   0.230  1.00  0.00    -0.207 F 
ENDBRANCH  19  21
ENDBRANCH   7  19
TORSDOF 4


