MODEL 1
REMARK VINA RESULT:      -8.1      0.000      0.000
REMARK SMILES Nc1cc(F)c(-c2cnc3c(c2)C(=O)[N-]C3)cc1C=O
REMARK SMILES IDX 2 1 3 2 4 3 5 4 6 5 17 6 18 7 1 8 19 11 20 12 7 13 8 14
REMARK SMILES IDX 12 15 9 16 11 17 10 18 13 19 16 20 15 21 14 22
REMARK H PARENT 1 9 1 10
ROOT
ATOM      1  C   UNL     1      45.944 130.847  14.131  1.00  0.00     0.045 A 
ATOM      2  C   UNL     1      44.786 131.492  14.591  1.00  0.00     0.066 A 
ATOM      3  C   UNL     1      44.488 131.543  15.953  1.00  0.00     0.133 A 
ATOM      4  F   UNL     1      43.382 132.222  16.356  1.00  0.00    -0.206 F 
ATOM      5  C   UNL     1      45.348 130.947  16.889  1.00  0.00     0.020 A 
ATOM      6  C   UNL     1      46.502 130.288  16.433  1.00  0.00     0.025 A 
ATOM      7  C   UNL     1      46.800 130.209  15.062  1.00  0.00     0.038 A 
ENDROOT
BRANCH   1   8
ATOM      8  N   UNL     1      46.251 130.912  12.731  1.00  0.00    -0.398 N 
ATOM      9  H   UNL     1      46.092 131.795  12.196  1.00  0.00     0.156 HD
ATOM     10  H   UNL     1      46.779 130.156  12.245  1.00  0.00     0.156 HD
ENDBRANCH   1   8
BRANCH   7  11
ATOM     11  C   UNL     1      47.985 129.416  14.667  1.00  0.00     0.262 C 
ATOM     12  O   UNL     1      48.559 129.590  13.560  1.00  0.00    -0.298 OA
ENDBRANCH   7  11
BRANCH   5  13
ATOM     13  C   UNL     1      45.051 130.996  18.342  1.00  0.00     0.004 A 
ATOM     14  C   UNL     1      45.902 130.348  19.273  1.00  0.00     0.120 A 
ATOM     15  C   UNL     1      43.908 131.673  18.821  1.00  0.00     0.022 A 
ATOM     16  N   UNL     1      45.630 130.384  20.611  1.00  0.00    -0.262 NA
ATOM     17  C   UNL     1      43.683 131.677  20.192  1.00  0.00     0.020 A 
ATOM     18  C   UNL     1      44.532 131.043  21.057  1.00  0.00     0.032 A 
ATOM     19  C   UNL     1      42.631 132.254  20.988  1.00  0.00     0.084 C 
ATOM     20  C   UNL     1      44.073 131.180  22.476  1.00  0.00    -0.059 C 
ATOM     21  N   UNL     1      42.841 131.971  22.368  1.00  0.00    -0.644 NA
ATOM     22  O   UNL     1      41.656 132.917  20.548  1.00  0.00    -0.315 OA
ENDBRANCH   5  13
TORSDOF 3
ENDMDL
MODEL 2
REMARK VINA RESULT:      -7.4      2.172      6.668
REMARK SMILES Nc1cc(F)c(-c2cnc3c(c2)C(=O)[N-]C3)cc1C=O
REMARK SMILES IDX 2 1 3 2 4 3 5 4 6 5 17 6 18 7 1 8 19 11 20 12 7 13 8 14
REMARK SMILES IDX 12 15 9 16 11 17 10 18 13 19 16 20 15 21 14 22
REMARK H PARENT 1 9 1 10
ROOT
ATOM      1  C   UNL     1      42.424 132.114  22.051  1.00  0.00     0.045 A 
ATOM      2  C   UNL     1      41.902 132.557  20.827  1.00  0.00     0.066 A 
ATOM      3  C   UNL     1      42.554 132.276  19.626  1.00  0.00     0.133 A 
ATOM      4  F   UNL     1      41.986 132.682  18.461  1.00  0.00    -0.206 F 
ATOM      5  C   UNL     1      43.750 131.539  19.625  1.00  0.00     0.020 A 
ATOM      6  C   UNL     1      44.285 131.104  20.849  1.00  0.00     0.025 A 
ATOM      7  C   UNL     1      43.650 131.402  22.067  1.00  0.00     0.038 A 
ENDROOT
BRANCH   1   8
ATOM      8  N   UNL     1      41.661 132.346  23.243  1.00  0.00    -0.398 N 
ATOM      9  H   UNL     1      42.099 132.217  24.183  1.00  0.00     0.156 HD
ATOM     10  H   UNL     1      40.721 132.795  23.220  1.00  0.00     0.156 HD
ENDBRANCH   1   8
BRANCH   7  11
ATOM     11  C   UNL     1      44.332 130.985  23.312  1.00  0.00     0.262 C 
ATOM     12  O   UNL     1      44.405 129.776  23.654  1.00  0.00    -0.298 OA
ENDBRANCH   7  11
BRANCH   5  13
ATOM     13  C   UNL     1      44.454 131.224  18.358  1.00  0.00     0.004 A 
ATOM     14  C   UNL     1      45.738 130.621  18.379  1.00  0.00     0.120 A 
ATOM     15  C   UNL     1      43.868 131.535  17.112  1.00  0.00     0.022 A 
ATOM     16  N   UNL     1      46.394 130.336  17.216  1.00  0.00    -0.262 NA
ATOM     17  C   UNL     1      44.583 131.221  15.961  1.00  0.00     0.020 A 
ATOM     18  C   UNL     1      45.817 130.634  16.026  1.00  0.00     0.032 A 
ATOM     19  C   UNL     1      44.282 131.408  14.567  1.00  0.00     0.084 C 
ATOM     20  C   UNL     1      46.386 130.404  14.660  1.00  0.00    -0.059 C 
ATOM     21  N   UNL     1      45.351 130.924  13.759  1.00  0.00    -0.644 NA
ATOM     22  O   UNL     1      43.230 131.922  14.104  1.00  0.00    -0.315 OA
ENDBRANCH   5  13
TORSDOF 3
ENDMDL
MODEL 3
REMARK VINA RESULT:      -6.8      2.514      3.285
REMARK SMILES Nc1cc(F)c(-c2cnc3c(c2)C(=O)[N-]C3)cc1C=O
REMARK SMILES IDX 2 1 3 2 4 3 5 4 6 5 17 6 18 7 1 8 19 11 20 12 7 13 8 14
REMARK SMILES IDX 12 15 9 16 11 17 10 18 13 19 16 20 15 21 14 22
REMARK H PARENT 1 9 1 10
ROOT
ATOM      1  C   UNL     1      45.611 130.668  15.735  1.00  0.00     0.045 A 
ATOM      2  C   UNL     1      46.243 130.281  16.926  1.00  0.00     0.066 A 
ATOM      3  C   UNL     1      45.659 130.544  18.166  1.00  0.00     0.133 A 
ATOM      4  F   UNL     1      46.284 130.106  19.290  1.00  0.00    -0.206 F 
ATOM      5  C   UNL     1      44.422 131.204  18.240  1.00  0.00     0.020 A 
ATOM      6  C   UNL     1      43.791 131.607  17.052  1.00  0.00     0.025 A 
ATOM      7  C   UNL     1      44.381 131.369  15.799  1.00  0.00     0.038 A 
ENDROOT
BRANCH   1   8
ATOM      8  N   UNL     1      46.208 130.284  14.489  1.00  0.00    -0.398 N 
ATOM      9  H   UNL     1      45.956 130.785  13.607  1.00  0.00     0.156 HD
ATOM     10  H   UNL     1      47.010 129.621  14.441  1.00  0.00     0.156 HD
ENDBRANCH   1   8
BRANCH   7  11
ATOM     11  C   UNL     1      43.691 131.909  14.606  1.00  0.00     0.262 C 
ATOM     12  O   UNL     1      43.141 131.157  13.761  1.00  0.00    -0.298 OA
ENDBRANCH   7  11
BRANCH   5  13
ATOM     13  C   UNL     1      43.783 131.487  19.549  1.00  0.00     0.004 A 
ATOM     14  C   UNL     1      42.734 132.436  19.646  1.00  0.00     0.120 A 
ATOM     15  C   UNL     1      44.219 130.831  20.720  1.00  0.00     0.022 A 
ATOM     16  N   UNL     1      42.146 132.706  20.849  1.00  0.00    -0.262 NA
ATOM     17  C   UNL     1      43.583 131.146  21.916  1.00  0.00     0.020 A 
ATOM     18  C   UNL     1      42.571 132.065  21.966  1.00  0.00     0.032 A 
ATOM     19  C   UNL     1      43.786 130.675  23.260  1.00  0.00     0.084 C 
ATOM     20  C   UNL     1      42.056 132.237  23.361  1.00  0.00    -0.059 C 
ATOM     21  N   UNL     1      42.879 131.315  24.153  1.00  0.00    -0.644 NA
ATOM     22  O   UNL     1      44.638 129.821  23.620  1.00  0.00    -0.315 OA
ENDBRANCH   5  13
TORSDOF 3
ENDMDL
MODEL 4
REMARK VINA RESULT:      -6.4      1.687      6.801
REMARK SMILES Nc1cc(F)c(-c2cnc3c(c2)C(=O)[N-]C3)cc1C=O
REMARK SMILES IDX 2 1 3 2 4 3 5 4 6 5 17 6 18 7 1 8 19 11 20 12 7 13 8 14
REMARK SMILES IDX 12 15 9 16 11 17 10 18 13 19 16 20 15 21 14 22
REMARK H PARENT 1 9 1 10
ROOT
ATOM      1  C   UNL     1      43.050 131.531  20.290  1.00  0.00     0.045 A 
ATOM      2  C   UNL     1      42.461 131.783  19.042  1.00  0.00     0.066 A 
ATOM      3  C   UNL     1      43.222 131.761  17.872  1.00  0.00     0.133 A 
ATOM      4  F   UNL     1      42.600 131.962  16.682  1.00  0.00    -0.206 F 
ATOM      5  C   UNL     1      44.598 131.484  17.928  1.00  0.00     0.020 A 
ATOM      6  C   UNL     1      45.196 131.245  19.177  1.00  0.00     0.025 A 
ATOM      7  C   UNL     1      44.445 131.288  20.363  1.00  0.00     0.038 A 
ENDROOT
BRANCH   1   8
ATOM      8  N   UNL     1      42.202 131.468  21.445  1.00  0.00    -0.398 N 
ATOM      9  H   UNL     1      41.171 131.605  21.351  1.00  0.00     0.156 HD
ATOM     10  H   UNL     1      42.550 131.133  22.369  1.00  0.00     0.156 HD
ENDBRANCH   1   8
BRANCH   7  11
ATOM     11  C   UNL     1      45.174 131.115  21.639  1.00  0.00     0.262 C 
ATOM     12  O   UNL     1      44.634 131.361  22.749  1.00  0.00    -0.298 OA
ENDBRANCH   7  11
BRANCH   5  13
ATOM     13  C   UNL     1      45.422 131.451  16.695  1.00  0.00     0.004 A 
ATOM     14  C   UNL     1      45.668 132.641  15.962  1.00  0.00     0.120 A 
ATOM     15  C   UNL     1      45.960 130.235  16.221  1.00  0.00     0.022 A 
ATOM     16  N   UNL     1      46.421 132.615  14.823  1.00  0.00    -0.262 NA
ATOM     17  C   UNL     1      46.718 130.271  15.056  1.00  0.00     0.020 A 
ATOM     18  C   UNL     1      46.936 131.441  14.382  1.00  0.00     0.032 A 
ATOM     19  C   UNL     1      47.387 129.233  14.317  1.00  0.00     0.084 C 
ATOM     20  C   UNL     1      47.770 131.221  13.158  1.00  0.00    -0.059 C 
ATOM     21  N   UNL     1      48.030 129.777  13.168  1.00  0.00    -0.644 NA
ATOM     22  O   UNL     1      47.413 128.012  14.624  1.00  0.00    -0.315 OA
ENDBRANCH   5  13
TORSDOF 3
ENDMDL
MODEL 5
REMARK VINA RESULT:      -6.4      1.961      2.622
REMARK SMILES Nc1cc(F)c(-c2cnc3c(c2)C(=O)[N-]C3)cc1C=O
REMARK SMILES IDX 2 1 3 2 4 3 5 4 6 5 17 6 18 7 1 8 19 11 20 12 7 13 8 14
REMARK SMILES IDX 12 15 9 16 11 17 10 18 13 19 16 20 15 21 14 22
REMARK H PARENT 1 9 1 10
ROOT
ATOM      1  C   UNL     1      44.810 131.106  15.525  1.00  0.00     0.045 A 
ATOM      2  C   UNL     1      43.597 131.713  15.883  1.00  0.00     0.066 A 
ATOM      3  C   UNL     1      43.220 131.828  17.222  1.00  0.00     0.133 A 
ATOM      4  F   UNL     1      42.061 132.467  17.523  1.00  0.00    -0.206 F 
ATOM      5  C   UNL     1      44.056 131.335  18.237  1.00  0.00     0.020 A 
ATOM      6  C   UNL     1      45.265 130.713  17.884  1.00  0.00     0.025 A 
ATOM      7  C   UNL     1      45.644 130.570  16.539  1.00  0.00     0.038 A 
ENDROOT
BRANCH   1   8
ATOM      8  N   UNL     1      45.192 131.104  14.143  1.00  0.00    -0.398 N 
ATOM      9  H   UNL     1      44.775 130.411  13.481  1.00  0.00     0.156 HD
ATOM     10  H   UNL     1      45.758 131.873  13.725  1.00  0.00     0.156 HD
ENDBRANCH   1   8
BRANCH   7  11
ATOM     11  C   UNL     1      46.888 129.822  16.256  1.00  0.00     0.262 C 
ATOM     12  O   UNL     1      47.425 129.833  15.118  1.00  0.00    -0.298 OA
ENDBRANCH   7  11
BRANCH   5  13
ATOM     13  C   UNL     1      43.675 131.453  19.666  1.00  0.00     0.004 A 
ATOM     14  C   UNL     1      42.766 132.458  20.087  1.00  0.00     0.120 A 
ATOM     15  C   UNL     1      44.221 130.581  20.632  1.00  0.00     0.022 A 
ATOM     16  N   UNL     1      42.417 132.576  21.402  1.00  0.00    -0.262 NA
ATOM     17  C   UNL     1      43.828 130.749  21.955  1.00  0.00     0.020 A 
ATOM     18  C   UNL     1      42.946 131.728  22.319  1.00  0.00     0.032 A 
ATOM     19  C   UNL     1      44.195 130.050  23.158  1.00  0.00     0.084 C 
ATOM     20  C   UNL     1      42.688 131.713  23.794  1.00  0.00    -0.059 C 
ATOM     21  N   UNL     1      43.522 130.609  24.282  1.00  0.00    -0.644 NA
ATOM     22  O   UNL     1      44.994 129.080  23.231  1.00  0.00    -0.315 OA
ENDBRANCH   5  13
TORSDOF 3
ENDMDL
MODEL 6
REMARK VINA RESULT:      -6.3      1.808      2.333
REMARK SMILES Nc1cc(F)c(-c2cnc3c(c2)C(=O)[N-]C3)cc1C=O
REMARK SMILES IDX 2 1 3 2 4 3 5 4 6 5 17 6 18 7 1 8 19 11 20 12 7 13 8 14
REMARK SMILES IDX 12 15 9 16 11 17 10 18 13 19 16 20 15 21 14 22
REMARK H PARENT 1 9 1 10
ROOT
ATOM      1  C   UNL     1      44.583 131.097  15.767  1.00  0.00     0.045 A 
ATOM      2  C   UNL     1      43.474 131.645  16.428  1.00  0.00     0.066 A 
ATOM      3  C   UNL     1      43.448 131.752  17.819  1.00  0.00     0.133 A 
ATOM      4  F   UNL     1      42.374 132.335  18.412  1.00  0.00    -0.206 F 
ATOM      5  C   UNL     1      44.540 131.309  18.583  1.00  0.00     0.020 A 
ATOM      6  C   UNL     1      45.649 130.747  17.928  1.00  0.00     0.025 A 
ATOM      7  C   UNL     1      45.676 130.612  16.530  1.00  0.00     0.038 A 
ENDROOT
BRANCH   1   8
ATOM      8  N   UNL     1      44.597 131.104  14.333  1.00  0.00    -0.398 N 
ATOM      9  H   UNL     1      44.875 131.966  13.813  1.00  0.00     0.156 HD
ATOM     10  H   UNL     1      44.491 130.230  13.775  1.00  0.00     0.156 HD
ENDBRANCH   1   8
BRANCH   7  11
ATOM     11  C   UNL     1      46.842 129.925  15.933  1.00  0.00     0.262 C 
ATOM     12  O   UNL     1      46.884 129.631  14.710  1.00  0.00    -0.298 OA
ENDBRANCH   7  11
BRANCH   5  13
ATOM     13  C   UNL     1      44.534 131.419  20.062  1.00  0.00     0.004 A 
ATOM     14  C   UNL     1      45.492 132.227  20.728  1.00  0.00     0.120 A 
ATOM     15  C   UNL     1      43.587 130.711  20.834  1.00  0.00     0.022 A 
ATOM     16  N   UNL     1      45.496 132.327  22.090  1.00  0.00    -0.262 NA
ATOM     17  C   UNL     1      43.639 130.853  22.216  1.00  0.00     0.020 A 
ATOM     18  C   UNL     1      44.576 131.645  22.818  1.00  0.00     0.032 A 
ATOM     19  C   UNL     1      42.843 130.276  23.267  1.00  0.00     0.084 C 
ATOM     20  C   UNL     1      44.434 131.627  24.309  1.00  0.00    -0.059 C 
ATOM     21  N   UNL     1      43.299 130.726  24.539  1.00  0.00    -0.644 NA
ATOM     22  O   UNL     1      41.876 129.485  23.108  1.00  0.00    -0.315 OA
ENDBRANCH   5  13
TORSDOF 3
ENDMDL
MODEL 7
REMARK VINA RESULT:      -6.2      1.508      1.956
REMARK SMILES Nc1cc(F)c(-c2cnc3c(c2)C(=O)[N-]C3)cc1C=O
REMARK SMILES IDX 2 1 3 2 4 3 5 4 6 5 17 6 18 7 1 8 19 11 20 12 7 13 8 14
REMARK SMILES IDX 12 15 9 16 11 17 10 18 13 19 16 20 15 21 14 22
REMARK H PARENT 1 9 1 10
ROOT
ATOM      1  C   UNL     1      46.121 130.834  13.805  1.00  0.00     0.045 A 
ATOM      2  C   UNL     1      44.859 131.445  13.858  1.00  0.00     0.066 A 
ATOM      3  C   UNL     1      44.211 131.645  15.078  1.00  0.00     0.133 A 
ATOM      4  F   UNL     1      43.013 132.286  15.085  1.00  0.00    -0.206 F 
ATOM      5  C   UNL     1      44.816 131.236  16.277  1.00  0.00     0.020 A 
ATOM      6  C   UNL     1      46.073 130.611  16.229  1.00  0.00     0.025 A 
ATOM      7  C   UNL     1      46.725 130.382  15.005  1.00  0.00     0.038 A 
ENDROOT
BRANCH   1   8
ATOM      8  N   UNL     1      46.784 130.744  12.536  1.00  0.00    -0.398 N 
ATOM      9  H   UNL     1      46.707 129.875  11.961  1.00  0.00     0.156 HD
ATOM     10  H   UNL     1      47.219 131.574  12.080  1.00  0.00     0.156 HD
ENDBRANCH   1   8
BRANCH   7  11
ATOM     11  C   UNL     1      48.002 129.635  15.042  1.00  0.00     0.262 C 
ATOM     12  O   UNL     1      48.618 129.324  13.990  1.00  0.00    -0.298 OA
ENDBRANCH   7  11
BRANCH   5  13
ATOM     13  C   UNL     1      44.144 131.445  17.583  1.00  0.00     0.004 A 
ATOM     14  C   UNL     1      42.769 131.789  17.638  1.00  0.00     0.120 A 
ATOM     15  C   UNL     1      44.864 131.324  18.791  1.00  0.00     0.022 A 
ATOM     16  N   UNL     1      42.147 131.990  18.837  1.00  0.00    -0.262 NA
ATOM     17  C   UNL     1      44.178 131.539  19.981  1.00  0.00     0.020 A 
ATOM     18  C   UNL     1      42.849 131.864  19.990  1.00  0.00     0.032 A 
ATOM     19  C   UNL     1      44.608 131.503  21.354  1.00  0.00     0.084 C 
ATOM     20  C   UNL     1      42.341 132.055  21.385  1.00  0.00    -0.059 C 
ATOM     21  N   UNL     1      43.521 131.809  22.223  1.00  0.00    -0.644 NA
ATOM     22  O   UNL     1      45.772 131.240  21.753  1.00  0.00    -0.315 OA
ENDBRANCH   5  13
TORSDOF 3
ENDMDL
MODEL 8
REMARK VINA RESULT:      -6.2      2.145      6.929
REMARK SMILES Nc1cc(F)c(-c2cnc3c(c2)C(=O)[N-]C3)cc1C=O
REMARK SMILES IDX 2 1 3 2 4 3 5 4 6 5 17 6 18 7 1 8 19 11 20 12 7 13 8 14
REMARK SMILES IDX 12 15 9 16 11 17 10 18 13 19 16 20 15 21 14 22
REMARK H PARENT 1 9 1 10
ROOT
ATOM      1  C   UNL     1      43.119 131.820  22.000  1.00  0.00     0.045 A 
ATOM      2  C   UNL     1      44.203 130.933  21.913  1.00  0.00     0.066 A 
ATOM      3  C   UNL     1      44.792 130.640  20.682  1.00  0.00     0.133 A 
ATOM      4  F   UNL     1      45.871 129.816  20.652  1.00  0.00    -0.206 F 
ATOM      5  C   UNL     1      44.306 131.233  19.506  1.00  0.00     0.020 A 
ATOM      6  C   UNL     1      43.212 132.111  19.585  1.00  0.00     0.025 A 
ATOM      7  C   UNL     1      42.595 132.394  20.815  1.00  0.00     0.038 A 
ENDROOT
BRANCH   1   8
ATOM      8  N   UNL     1      42.619 132.160  23.301  1.00  0.00    -0.398 N 
ATOM      9  H   UNL     1      41.795 132.796  23.399  1.00  0.00     0.156 HD
ATOM     10  H   UNL     1      42.944 131.674  24.163  1.00  0.00     0.156 HD
ENDBRANCH   1   8
BRANCH   7  11
ATOM     11  C   UNL     1      41.393 133.257  20.793  1.00  0.00     0.262 C 
ATOM     12  O   UNL     1      40.592 133.303  21.763  1.00  0.00    -0.298 OA
ENDBRANCH   7  11
BRANCH   5  13
ATOM     13  C   UNL     1      44.922 130.939  18.189  1.00  0.00     0.004 A 
ATOM     14  C   UNL     1      46.149 130.231  18.112  1.00  0.00     0.120 A 
ATOM     15  C   UNL     1      44.310 131.372  16.993  1.00  0.00     0.022 A 
ATOM     16  N   UNL     1      46.726 129.963  16.903  1.00  0.00    -0.262 NA
ATOM     17  C   UNL     1      44.942 131.070  15.793  1.00  0.00     0.020 A 
ATOM     18  C   UNL     1      46.123 130.380  15.762  1.00  0.00     0.032 A 
ATOM     19  C   UNL     1      44.596 131.365  14.428  1.00  0.00     0.084 C 
ATOM     20  C   UNL     1      46.608 130.186  14.358  1.00  0.00    -0.059 C 
ATOM     21  N   UNL     1      45.582 130.844  13.541  1.00  0.00    -0.644 NA
ATOM     22  O   UNL     1      43.573 131.992  14.048  1.00  0.00    -0.315 OA
ENDBRANCH   5  13
TORSDOF 3
ENDMDL
MODEL 9
REMARK VINA RESULT:      -6.1      1.709      7.079
REMARK SMILES Nc1cc(F)c(-c2cnc3c(c2)C(=O)[N-]C3)cc1C=O
REMARK SMILES IDX 2 1 3 2 4 3 5 4 6 5 17 6 18 7 1 8 19 11 20 12 7 13 8 14
REMARK SMILES IDX 12 15 9 16 11 17 10 18 13 19 16 20 15 21 14 22
REMARK H PARENT 1 9 1 10
ROOT
ATOM      1  C   UNL     1      43.523 131.404  20.721  1.00  0.00     0.045 A 
ATOM      2  C   UNL     1      44.789 130.814  20.589  1.00  0.00     0.066 A 
ATOM      3  C   UNL     1      45.449 130.800  19.359  1.00  0.00     0.133 A 
ATOM      4  F   UNL     1      46.694 130.262  19.291  1.00  0.00    -0.206 F 
ATOM      5  C   UNL     1      44.852 131.382  18.229  1.00  0.00     0.020 A 
ATOM      6  C   UNL     1      43.579 131.963  18.351  1.00  0.00     0.025 A 
ATOM      7  C   UNL     1      42.894 131.961  19.578  1.00  0.00     0.038 A 
ENDROOT
BRANCH   1   8
ATOM      8  N   UNL     1      42.936 131.478  22.027  1.00  0.00    -0.398 N 
ATOM      9  H   UNL     1      42.597 130.611  22.503  1.00  0.00     0.156 HD
ATOM     10  H   UNL     1      42.972 132.347  22.602  1.00  0.00     0.156 HD
ENDBRANCH   1   8
BRANCH   7  11
ATOM     11  C   UNL     1      41.521 132.511  19.594  1.00  0.00     0.262 C 
ATOM     12  O   UNL     1      41.192 133.449  20.366  1.00  0.00    -0.298 OA
ENDBRANCH   7  11
BRANCH   5  13
ATOM     13  C   UNL     1      45.541 131.382  16.915  1.00  0.00     0.004 A 
ATOM     14  C   UNL     1      45.635 132.575  16.153  1.00  0.00     0.120 A 
ATOM     15  C   UNL     1      46.099 130.195  16.394  1.00  0.00     0.022 A 
ATOM     16  N   UNL     1      46.262 132.580  14.939  1.00  0.00    -0.262 NA
ATOM     17  C   UNL     1      46.726 130.261  15.155  1.00  0.00     0.020 A 
ATOM     18  C   UNL     1      46.799 131.433  14.453  1.00  0.00     0.032 A 
ATOM     19  C   UNL     1      47.374 129.255  14.356  1.00  0.00     0.084 C 
ATOM     20  C   UNL     1      47.510 131.248  13.149  1.00  0.00    -0.059 C 
ATOM     21  N   UNL     1      47.858 129.822  13.141  1.00  0.00    -0.644 NA
ATOM     22  O   UNL     1      47.508 128.043  14.665  1.00  0.00    -0.315 OA
ENDBRANCH   5  13
TORSDOF 3
ENDMDL


