REMARK SMILES C=C[C@@H]1CN[C@H](c2ccc3[nH+]cnn3c2)/[N+](=C(/O)C[C@H]2C[C@@H](C)C2)C1
REMARK SMILES IDX 17 1 18 2 16 4 25 5 6 6 3 7 5 8 4 9 7 11 8 12 15 13 9 14
REMARK SMILES IDX 14 15 10 16 13 17 11 18 12 19 2 21 1 22 19 23 20 24 21 25
REMARK SMILES IDX 24 26 22 27 23 28
REMARK H PARENT 18 3 5 10 11 20
ROOT
ATOM      1  C   UNL     1      -1.209  -0.730   1.000  1.00  0.00     0.335 C 
ENDROOT
BRANCH   1   2
ATOM      2  O   UNL     1      -2.592  -0.906   0.911  1.00  0.00    -0.463 OA
ATOM      3  H   UNL     1      -3.013  -1.821   0.810  1.00  0.00     0.299 HD
ENDBRANCH   1   2
BRANCH   1   4
ATOM      4  N   UNL     1      -0.711   0.483   1.172  1.00  0.00    -0.181 N 
ATOM      5  C   UNL     1      -1.609   1.653   1.271  1.00  0.00     0.365 C 
ATOM      6  C   UNL     1       0.746   0.756   1.319  1.00  0.00     0.372 C 
ATOM      7  C   UNL     1      -1.337   2.422   2.579  1.00  0.00     0.091 C 
ATOM      8  N   UNL     1       0.983   2.152   1.731  1.00  0.00    -0.254 NA
ATOM      9  C   UNL     1       0.174   2.478   2.911  1.00  0.00     0.102 C 
ATOM     10  H   UNL     1       1.991   2.249   2.000  1.00  0.00     0.129 HD
BRANCH   6  11
ATOM     11  C   UNL     1       1.482   0.509   0.021  1.00  0.00     0.071 A 
ATOM     12  C   UNL     1       2.627  -0.328  -0.007  1.00  0.00     0.022 A 
ATOM     13  C   UNL     1       1.068   1.130  -1.177  1.00  0.00     0.222 A 
ATOM     14  C   UNL     1       3.311  -0.566  -1.209  1.00  0.00     0.084 A 
ATOM     15  N   UNL     1       1.764   0.866  -2.309  1.00  0.00    -0.080 N 
ATOM     16  C   UNL     1       2.830   0.061  -2.353  1.00  0.00     0.263 A 
ATOM     17  N   UNL     1       1.524   1.329  -3.523  1.00  0.00     0.042 NA
ATOM     18  N   UNL     1       3.319  -0.026  -3.599  1.00  0.00    -0.244 N 
ATOM     19  C   UNL     1       2.484   0.775  -4.304  1.00  0.00     0.411 A 
ATOM     20  H   UNL     1       4.139  -0.573  -3.943  1.00  0.00     0.266 HD
ENDBRANCH   6  11
BRANCH   7  21
ATOM     21  C   UNL     1      -1.965   3.798   2.541  1.00  0.00    -0.024 C 
ATOM     22  C   UNL     1      -1.548   4.759   1.707  1.00  0.00     0.004 C 
ENDBRANCH   7  21
ENDBRANCH   1   4
BRANCH   1  23
ATOM     23  C   UNL     1      -0.353  -1.977   0.870  1.00  0.00     0.156 C 
BRANCH  23  24
ATOM     24  C   UNL     1      -0.155  -2.358  -0.611  1.00  0.00     0.003 C 
ATOM     25  C   UNL     1      -1.249  -3.256  -1.195  1.00  0.00     0.007 C 
ATOM     26  C   UNL     1       0.870  -3.475  -0.820  1.00  0.00     0.007 C 
ATOM     27  C   UNL     1      -0.219  -4.363  -1.418  1.00  0.00    -0.014 C 
ATOM     28  C   UNL     1      -0.493  -5.630  -0.603  1.00  0.00     0.007 C 
ENDBRANCH  23  24
ENDBRANCH   1  23
TORSDOF 6


