MODEL 1
REMARK VINA RESULT:      -6.9      0.000      0.000
REMARK SMILES Cc1cc(-c2cccc3[nH+]coc23)cc(OC(=S)NC(=O)COc2ccc(Cl)cc2)c1F
REMARK SMILES IDX 17 1 18 2 19 3 20 4 21 5 16 7 15 8 2 9 3 10 31 11 4 12 14 13
REMARK SMILES IDX 1 14 32 15 5 16 6 17 13 18 7 19 12 20 9 21 8 22 11 23 10 24
REMARK SMILES IDX 22 26 23 27 24 28 25 29 30 30 26 31 29 32 27 33 28 34
REMARK H PARENT 19 6 10 25
ROOT
ATOM      1  C   UNL     1      44.191 129.566  23.345  1.00  0.00     0.269 C 
ATOM      2  S   UNL     1      43.403 130.829  24.034  1.00  0.00    -0.018 S 
ATOM      3  N   UNL     1      44.097 128.266  23.938  1.00  0.00    -0.284 N 
ATOM      4  C   UNL     1      44.843 127.146  23.443  1.00  0.00     0.265 C 
ATOM      5  O   UNL     1      45.103 127.045  22.214  1.00  0.00    -0.271 OA
ATOM      6  H   UNL     1      43.607 128.171  24.855  1.00  0.00     0.174 HD
ENDROOT
BRANCH   1   7
ATOM      7  O   UNL     1      44.951 129.759  22.185  1.00  0.00    -0.428 OA
BRANCH   7   8
ATOM      8  C   UNL     1      44.512 130.481  21.067  1.00  0.00     0.166 A 
ATOM      9  C   UNL     1      42.962 132.093  20.111  1.00  0.00    -0.011 A 
ATOM     10  C   UNL     1      43.563 131.920  18.854  1.00  0.00     0.015 A 
ATOM     11  C   UNL     1      43.445 131.373  21.215  1.00  0.00     0.168 A 
ATOM     12  C   UNL     1      44.618 131.009  18.684  1.00  0.00    -0.010 A 
ATOM     13  C   UNL     1      45.088 130.294  19.798  1.00  0.00     0.059 A 
ATOM     14  C   UNL     1      41.846 133.083  20.286  1.00  0.00     0.048 C 
ATOM     15  F   UNL     1      42.886 131.545  22.440  1.00  0.00    -0.203 F 
BRANCH  12  16
ATOM     16  C   UNL     1      45.236 130.803  17.350  1.00  0.00     0.032 A 
ATOM     17  C   UNL     1      46.509 130.197  17.211  1.00  0.00     0.013 A 
ATOM     18  C   UNL     1      44.587 131.182  16.166  1.00  0.00     0.212 A 
ATOM     19  C   UNL     1      47.082 130.001  15.933  1.00  0.00     0.008 A 
ATOM     20  O   UNL     1      43.402 131.722  16.007  1.00  0.00    -0.403 OA
ATOM     21  C   UNL     1      45.149 130.994  14.938  1.00  0.00     0.249 A 
ATOM     22  C   UNL     1      46.396 130.404  14.773  1.00  0.00     0.083 A 
ATOM     23  C   UNL     1      43.235 131.871  14.702  1.00  0.00     0.521 A 
ATOM     24  N   UNL     1      44.301 131.430  13.994  1.00  0.00    -0.176 N 
ATOM     25  H   UNL     1      44.426 131.421  12.958  1.00  0.00     0.457 HD
ENDBRANCH  12  16
ENDBRANCH   7   8
ENDBRANCH   1   7
BRANCH   4  26
ATOM     26  C   UNL     1      45.339 126.095  24.388  1.00  0.00     0.329 C 
BRANCH  26  27
ATOM     27  O   UNL     1      46.737 126.265  24.625  1.00  0.00    -0.484 OA
BRANCH  27  28
ATOM     28  C   UNL     1      47.750 125.413  24.154  1.00  0.00     0.120 A 
ATOM     29  C   UNL     1      49.082 125.766  24.407  1.00  0.00     0.048 A 
ATOM     30  C   UNL     1      47.480 124.227  23.440  1.00  0.00     0.048 A 
ATOM     31  C   UNL     1      50.129 124.953  23.964  1.00  0.00     0.024 A 
ATOM     32  C   UNL     1      48.530 123.415  23.000  1.00  0.00     0.024 A 
ATOM     33  C   UNL     1      49.855 123.778  23.259  1.00  0.00     0.041 A 
ATOM     34  Cl  UNL     1      51.172 122.772  22.686  1.00  0.00    -0.084 Cl
ENDBRANCH  27  28
ENDBRANCH  26  27
ENDBRANCH   4  26
TORSDOF 6
ENDMDL
MODEL 2
REMARK VINA RESULT:      -6.1      3.156      3.926
REMARK SMILES Cc1cc(-c2cccc3[nH+]coc23)cc(OC(=S)NC(=O)COc2ccc(Cl)cc2)c1F
REMARK SMILES IDX 17 1 18 2 19 3 20 4 21 5 16 7 15 8 2 9 3 10 31 11 4 12 14 13
REMARK SMILES IDX 1 14 32 15 5 16 6 17 13 18 7 19 12 20 9 21 8 22 11 23 10 24
REMARK SMILES IDX 22 26 23 27 24 28 25 29 30 30 26 31 29 32 27 33 28 34
REMARK H PARENT 19 6 10 25
ROOT
ATOM      1  C   UNL     1      45.409 129.823  21.509  1.00  0.00     0.269 C 
ATOM      2  S   UNL     1      46.457 129.147  20.443  1.00  0.00    -0.018 S 
ATOM      3  N   UNL     1      44.939 129.055  22.622  1.00  0.00    -0.284 N 
ATOM      4  C   UNL     1      43.946 129.554  23.528  1.00  0.00     0.265 C 
ATOM      5  O   UNL     1      43.884 130.784  23.793  1.00  0.00    -0.271 OA
ATOM      6  H   UNL     1      45.197 128.045  22.675  1.00  0.00     0.174 HD
ENDROOT
BRANCH   1   7
ATOM      7  O   UNL     1      44.978 131.143  21.330  1.00  0.00    -0.428 OA
BRANCH   7   8
ATOM      8  C   UNL     1      44.143 131.565  20.286  1.00  0.00     0.166 A 
ATOM      9  C   UNL     1      42.056 132.598  19.581  1.00  0.00    -0.011 A 
ATOM     10  C   UNL     1      42.413 132.392  18.239  1.00  0.00     0.015 A 
ATOM     11  C   UNL     1      42.929 132.186  20.600  1.00  0.00     0.168 A 
ATOM     12  C   UNL     1      43.616 131.748  17.908  1.00  0.00    -0.010 A 
ATOM     13  C   UNL     1      44.477 131.339  18.940  1.00  0.00     0.059 A 
ATOM     14  C   UNL     1      40.776 133.305  19.924  1.00  0.00     0.048 C 
ATOM     15  F   UNL     1      42.606 132.396  21.903  1.00  0.00    -0.203 F 
BRANCH  12  16
ATOM     16  C   UNL     1      43.981 131.502  16.489  1.00  0.00     0.032 A 
ATOM     17  C   UNL     1      43.152 131.942  15.427  1.00  0.00     0.013 A 
ATOM     18  C   UNL     1      45.164 130.840  16.132  1.00  0.00     0.212 A 
ATOM     19  C   UNL     1      43.516 131.708  14.081  1.00  0.00     0.008 A 
ATOM     20  O   UNL     1      46.114 130.368  16.903  1.00  0.00    -0.403 OA
ATOM     21  C   UNL     1      45.504 130.613  14.831  1.00  0.00     0.249 A 
ATOM     22  C   UNL     1      44.710 131.033  13.771  1.00  0.00     0.083 A 
ATOM     23  C   UNL     1      47.026 129.853  16.093  1.00  0.00     0.521 A 
ATOM     24  N   UNL     1      46.687 129.983  14.789  1.00  0.00    -0.176 N 
ATOM     25  H   UNL     1      47.227 129.675  13.950  1.00  0.00     0.457 HD
ENDBRANCH  12  16
ENDBRANCH   7   8
ENDBRANCH   1   7
BRANCH   4  26
ATOM     26  C   UNL     1      42.958 128.618  24.152  1.00  0.00     0.329 C 
BRANCH  26  27
ATOM     27  O   UNL     1      43.540 127.324  24.318  1.00  0.00    -0.484 OA
BRANCH  27  28
ATOM     28  C   UNL     1      43.172 126.170  23.606  1.00  0.00     0.120 A 
ATOM     29  C   UNL     1      44.184 125.417  22.997  1.00  0.00     0.048 A 
ATOM     30  C   UNL     1      41.833 125.745  23.481  1.00  0.00     0.048 A 
ATOM     31  C   UNL     1      43.874 124.258  22.280  1.00  0.00     0.024 A 
ATOM     32  C   UNL     1      41.526 124.584  22.763  1.00  0.00     0.024 A 
ATOM     33  C   UNL     1      42.545 123.841  22.161  1.00  0.00     0.041 A 
ATOM     34  Cl  UNL     1      42.159 122.400  21.241  1.00  0.00    -0.084 Cl
ENDBRANCH  27  28
ENDBRANCH  26  27
ENDBRANCH   4  26
TORSDOF 6
ENDMDL
MODEL 3
REMARK VINA RESULT:      -4.9      5.141      6.793
REMARK SMILES Cc1cc(-c2cccc3[nH+]coc23)cc(OC(=S)NC(=O)COc2ccc(Cl)cc2)c1F
REMARK SMILES IDX 17 1 18 2 19 3 20 4 21 5 16 7 15 8 2 9 3 10 31 11 4 12 14 13
REMARK SMILES IDX 1 14 32 15 5 16 6 17 13 18 7 19 12 20 9 21 8 22 11 23 10 24
REMARK SMILES IDX 22 26 23 27 24 28 25 29 30 30 26 31 29 32 27 33 28 34
REMARK H PARENT 19 6 10 25
ROOT
ATOM      1  C   UNL     1      44.683 131.654  22.597  1.00  0.00     0.269 C 
ATOM      2  S   UNL     1      43.326 131.184  23.391  1.00  0.00    -0.018 S 
ATOM      3  N   UNL     1      45.500 132.692  23.149  1.00  0.00    -0.284 N 
ATOM      4  C   UNL     1      46.639 133.216  22.454  1.00  0.00     0.265 C 
ATOM      5  O   UNL     1      47.329 132.473  21.706  1.00  0.00    -0.271 OA
ATOM      6  H   UNL     1      45.159 133.197  23.997  1.00  0.00     0.174 HD
ENDROOT
BRANCH   1   7
ATOM      7  O   UNL     1      45.039 131.043  21.389  1.00  0.00    -0.428 OA
BRANCH   7   8
ATOM      8  C   UNL     1      44.479 131.370  20.146  1.00  0.00     0.166 A 
ATOM      9  C   UNL     1      42.552 132.126  18.869  1.00  0.00    -0.011 A 
ATOM     10  C   UNL     1      43.292 131.996  17.683  1.00  0.00     0.015 A 
ATOM     11  C   UNL     1      43.154 131.815  20.098  1.00  0.00     0.168 A 
ATOM     12  C   UNL     1      44.615 131.526  17.712  1.00  0.00    -0.010 A 
ATOM     13  C   UNL     1      45.202 131.217  18.950  1.00  0.00     0.059 A 
ATOM     14  C   UNL     1      41.144 132.647  18.829  1.00  0.00     0.048 C 
ATOM     15  F   UNL     1      42.456 131.954  21.255  1.00  0.00    -0.203 F 
BRANCH  12  16
ATOM     16  C   UNL     1      45.390 131.361  16.456  1.00  0.00     0.032 A 
ATOM     17  C   UNL     1      45.928 132.476  15.768  1.00  0.00     0.013 A 
ATOM     18  C   UNL     1      45.639 130.098  15.900  1.00  0.00     0.212 A 
ATOM     19  C   UNL     1      46.670 132.303  14.577  1.00  0.00     0.008 A 
ATOM     20  O   UNL     1      45.293 128.914  16.345  1.00  0.00    -0.403 OA
ATOM     21  C   UNL     1      46.350 129.940  14.747  1.00  0.00     0.249 A 
ATOM     22  C   UNL     1      46.888 131.016  14.052  1.00  0.00     0.083 A 
ATOM     23  C   UNL     1      45.778 128.037  15.480  1.00  0.00     0.521 A 
ATOM     24  N   UNL     1      46.446 128.632  14.465  1.00  0.00    -0.176 N 
ATOM     25  H   UNL     1      46.932 128.178  13.660  1.00  0.00     0.457 HD
ENDBRANCH  12  16
ENDBRANCH   7   8
ENDBRANCH   1   7
BRANCH   4  26
ATOM     26  C   UNL     1      47.008 134.661  22.595  1.00  0.00     0.329 C 
BRANCH  26  27
ATOM     27  O   UNL     1      47.988 135.018  21.619  1.00  0.00    -0.484 OA
BRANCH  27  28
ATOM     28  C   UNL     1      49.194 135.687  21.886  1.00  0.00     0.120 A 
ATOM     29  C   UNL     1      49.441 136.895  21.221  1.00  0.00     0.048 A 
ATOM     30  C   UNL     1      50.158 135.194  22.789  1.00  0.00     0.048 A 
ATOM     31  C   UNL     1      50.623 137.605  21.451  1.00  0.00     0.024 A 
ATOM     32  C   UNL     1      51.339 135.908  23.019  1.00  0.00     0.024 A 
ATOM     33  C   UNL     1      51.573 137.112  22.349  1.00  0.00     0.041 A 
ATOM     34  Cl  UNL     1      53.064 137.994  22.619  1.00  0.00    -0.084 Cl
ENDBRANCH  27  28
ENDBRANCH  26  27
ENDBRANCH   4  26
TORSDOF 6
ENDMDL


