REMARK SMILES Cc1cc(C#N)ccc1C(=O)[N-][C@H]1CC12CCC2
REMARK SMILES IDX 1 1 2 2 3 3 4 4 7 5 8 6 9 7 10 8 11 9 12 10 13 11 14 12
REMARK SMILES IDX 15 13 16 14 18 15 17 16 5 17 6 18
REMARK H PARENT
ROOT
ATOM      1  C   UNL     1       3.553  -1.403   0.438  1.00  0.00     0.045 C 
ATOM      2  C   UNL     1       2.628  -1.833   1.548  1.00  0.00    -0.041 A 
ATOM      3  C   UNL     1       3.159  -1.982   2.843  1.00  0.00     0.023 A 
ATOM      4  C   UNL     1       2.336  -2.341   3.914  1.00  0.00     0.052 A 
ATOM      5  C   UNL     1       0.974  -2.558   3.703  1.00  0.00     0.020 A 
ATOM      6  C   UNL     1       0.434  -2.429   2.424  1.00  0.00     0.012 A 
ATOM      7  C   UNL     1       1.246  -2.081   1.328  1.00  0.00     0.002 A 
ENDROOT
BRANCH   7   8
ATOM      8  C   UNL     1       0.616  -1.985  -0.014  1.00  0.00     0.082 C 
ATOM      9  O   UNL     1       1.286  -2.216  -1.057  1.00  0.00    -0.315 OA
BRANCH   8  10
ATOM     10  N   UNL     1      -0.770  -1.649  -0.126  1.00  0.00    -0.646 NA
BRANCH  10  11
ATOM     11  C   UNL     1      -1.437  -1.514  -1.414  1.00  0.00    -0.100 C 
ATOM     12  C   UNL     1      -2.608  -0.523  -1.389  1.00  0.00    -0.010 C 
ATOM     13  C   UNL     1      -1.276  -0.143  -2.024  1.00  0.00    -0.044 C 
ATOM     14  C   UNL     1      -0.591   1.095  -1.521  1.00  0.00     0.006 C 
ATOM     15  C   UNL     1      -1.286   0.277  -3.463  1.00  0.00     0.006 C 
ATOM     16  C   UNL     1      -0.580   1.566  -2.991  1.00  0.00     0.001 C 
ENDBRANCH  10  11
ENDBRANCH   8  10
ENDBRANCH   7   8
BRANCH   4  17
ATOM     17  C   UNL     1       2.892  -2.483   5.235  1.00  0.00     0.099 C 
ATOM     18  N   UNL     1       3.339  -2.596   6.297  1.00  0.00    -0.192 NA
ENDBRANCH   4  17
TORSDOF 4


