REMARK SMILES Cc1ccc(CCC(O)=C2CCC2)c(C)c1
REMARK SMILES IDX 7 1 6 2 5 3 2 4 3 5 16 6 4 7 14 8 1 9 15 10 8 11 9 12 10 14
REMARK SMILES IDX 11 15 13 16 12 17
REMARK H PARENT 9 13
ROOT
ATOM      1  C   UNL     1       2.836  -0.682  -0.742  1.00  0.00     0.079 C 
ENDROOT
BRANCH   1   2
ATOM      2  C   UNL     1       2.422   0.419  -1.730  1.00  0.00     0.044 C 
BRANCH   2   3
ATOM      3  C   UNL     1       0.973   0.827  -1.554  1.00  0.00    -0.045 A 
ATOM      4  C   UNL     1      -1.697   1.598  -1.071  1.00  0.00    -0.051 A 
ATOM      5  C   UNL     1      -0.645   2.247  -0.415  1.00  0.00     0.004 A 
ATOM      6  C   UNL     1      -1.416   0.549  -1.956  1.00  0.00     0.007 A 
ATOM      7  C   UNL     1       0.675   1.872  -0.661  1.00  0.00     0.004 A 
ATOM      8  C   UNL     1      -0.090   0.152  -2.207  1.00  0.00    -0.048 A 
ATOM      9  C   UNL     1      -3.118   1.974  -0.771  1.00  0.00     0.044 C 
ATOM     10  C   UNL     1       0.163  -0.960  -3.192  1.00  0.00     0.044 C 
ENDBRANCH   2   3
ENDBRANCH   1   2
BRANCH   1  11
ATOM     11  C   UNL     1       2.824  -0.189   0.681  1.00  0.00     0.092 C 
BRANCH  11  12
ATOM     12  O   UNL     1       3.873   0.594   1.155  1.00  0.00    -0.512 OA
ATOM     13  H   UNL     1       4.657   0.836   0.561  1.00  0.00     0.293 HD
ENDBRANCH  11  12
BRANCH  11  14
ATOM     14  C   UNL     1       1.804  -0.464   1.491  1.00  0.00    -0.033 C 
ATOM     15  C   UNL     1       1.405  -0.138   2.917  1.00  0.00     0.035 C 
ATOM     16  C   UNL     1       0.492  -1.224   1.431  1.00  0.00     0.035 C 
ATOM     17  C   UNL     1       0.115  -0.889   2.837  1.00  0.00     0.009 C 
ENDBRANCH  11  14
ENDBRANCH   1  11
TORSDOF 5


