REMARK SMILES NN(C(=O)OCc1ccccc1Cl)c1ccccc1-c1[nH]c2ccccc2[nH+]1
REMARK SMILES IDX 3 1 4 2 2 3 1 4 14 7 15 8 19 9 16 10 18 11 17 12 20 13 21 14
REMARK SMILES IDX 28 15 22 16 27 17 23 18 26 19 24 20 25 21 5 24 6 25 7 26
REMARK SMILES IDX 8 27 12 28 9 29 11 30 10 31 13 32
REMARK H PARENT 1 5 1 6 21 22 28 23
ROOT
ATOM      1  C   UNL     1       0.783   1.038   1.847  1.00  0.00     0.429 C 
ATOM      2  O   UNL     1       1.312   0.862   2.978  1.00  0.00    -0.222 OA
ENDROOT
BRANCH   1   3
ATOM      3  N   UNL     1      -0.586   0.674   1.633  1.00  0.00    -0.212 N 
BRANCH   3   4
ATOM      4  N   UNL     1      -1.337   0.153   2.701  1.00  0.00    -0.238 NA
ATOM      5  H   UNL     1      -1.912  -0.643   2.343  1.00  0.00     0.144 HD
ATOM      6  H   UNL     1      -1.998   0.901   3.013  1.00  0.00     0.144 HD
ENDBRANCH   3   4
BRANCH   3   7
ATOM      7  C   UNL     1      -1.234   1.018   0.396  1.00  0.00     0.079 A 
ATOM      8  C   UNL     1      -1.469   2.371   0.106  1.00  0.00     0.029 A 
ATOM      9  C   UNL     1      -1.683   0.021  -0.503  1.00  0.00     0.089 A 
ATOM     10  C   UNL     1      -2.155   2.738  -1.053  1.00  0.00     0.002 A 
ATOM     11  C   UNL     1      -2.386   0.408  -1.658  1.00  0.00     0.019 A 
ATOM     12  C   UNL     1      -2.618   1.758  -1.930  1.00  0.00     0.001 A 
BRANCH   9  13
ATOM     13  C   UNL     1      -1.411  -1.416  -0.278  1.00  0.00     0.287 A 
ATOM     14  N   UNL     1      -0.233  -1.901   0.196  1.00  0.00    -0.236 N 
ATOM     15  N   UNL     1      -2.303  -2.399  -0.565  1.00  0.00    -0.236 N 
ATOM     16  C   UNL     1      -0.408  -3.231   0.211  1.00  0.00     0.172 A 
ATOM     17  C   UNL     1      -1.658  -3.532  -0.246  1.00  0.00     0.172 A 
ATOM     18  C   UNL     1       0.494  -4.218   0.601  1.00  0.00     0.056 A 
ATOM     19  C   UNL     1      -2.111  -4.845  -0.346  1.00  0.00     0.056 A 
ATOM     20  C   UNL     1       0.069  -5.558   0.515  1.00  0.00     0.005 A 
ATOM     21  C   UNL     1      -1.228  -5.870   0.044  1.00  0.00     0.005 A 
ATOM     22  H   UNL     1       0.631  -1.375   0.450  1.00  0.00     0.312 HD
ATOM     23  H   UNL     1      -3.273  -2.302  -0.940  1.00  0.00     0.312 HD
ENDBRANCH   9  13
ENDBRANCH   3   7
ENDBRANCH   1   3
BRANCH   1  24
ATOM     24  O   UNL     1       1.534   1.560   0.789  1.00  0.00    -0.443 OA
BRANCH  24  25
ATOM     25  C   UNL     1       2.921   1.854   0.894  1.00  0.00     0.272 C 
BRANCH  25  26
ATOM     26  C   UNL     1       3.432   2.312  -0.445  1.00  0.00     0.008 A 
ATOM     27  C   UNL     1       3.799   3.656  -0.628  1.00  0.00     0.009 A 
ATOM     28  C   UNL     1       3.513   1.420  -1.537  1.00  0.00     0.047 A 
ATOM     29  C   UNL     1       4.255   4.102  -1.872  1.00  0.00     0.001 A 
ATOM     30  C   UNL     1       3.971   1.877  -2.779  1.00  0.00     0.021 A 
ATOM     31  C   UNL     1       4.342   3.213  -2.945  1.00  0.00     0.002 A 
ATOM     32  Cl  UNL     1       3.041  -0.270  -1.387  1.00  0.00    -0.084 Cl
ENDBRANCH  25  26
ENDBRANCH  24  25
ENDBRANCH   1  24
TORSDOF 7


