REMARK SMILES CC(=O)c1nc(N2CC[C@H](C)[C@H](c3cc4cc(F)ccc4[nH]3)[C@H]2F)c[nH]1
REMARK SMILES IDX 7 1 8 2 9 3 10 4 11 5 12 6 23 7 24 8 6 9 4 10 26 11 5 12
REMARK SMILES IDX 25 13 2 15 1 16 3 17 13 18 14 19 22 20 15 21 21 22 16 23
REMARK SMILES IDX 20 24 17 25 19 26 18 28
REMARK H PARENT 26 14 22 27
ROOT
ATOM      1  N   UNL     1      -0.458   1.763  -0.008  1.00  0.00    -0.325 N 
ATOM      2  C   UNL     1       0.416   2.033  -1.160  1.00  0.00     0.121 C 
ATOM      3  C   UNL     1       1.662   1.146  -1.118  1.00  0.00     0.026 C 
ATOM      4  C   UNL     1       2.372   1.264   0.241  1.00  0.00     0.001 C 
ATOM      5  C   UNL     1       3.647   0.408   0.268  1.00  0.00     0.008 C 
ATOM      6  C   UNL     1       1.412   0.935   1.414  1.00  0.00     0.094 C 
ATOM      7  C   UNL     1       0.131   1.794   1.341  1.00  0.00     0.273 C 
ATOM      8  F   UNL     1       0.426   3.105   1.677  1.00  0.00    -0.223 F 
ENDROOT
BRANCH   1   9
ATOM      9  C   UNL     1      -1.890   1.770  -0.190  1.00  0.00     0.149 A 
ATOM     10  C   UNL     1      -3.811   1.621  -1.086  1.00  0.00     0.175 A 
ATOM     11  N   UNL     1      -4.049   1.933   0.205  1.00  0.00    -0.340 N 
ATOM     12  N   UNL     1      -2.495   1.513  -1.368  1.00  0.00    -0.208 NA
ATOM     13  C   UNL     1      -2.840   2.030   0.779  1.00  0.00     0.131 A 
ATOM     14  H   UNL     1      -4.972   2.079   0.671  1.00  0.00     0.168 HD
BRANCH  10  15
ATOM     15  C   UNL     1      -4.864   1.418  -2.095  1.00  0.00     0.195 C 
ATOM     16  C   UNL     1      -6.311   1.548  -1.739  1.00  0.00     0.097 C 
ATOM     17  O   UNL     1      -4.542   1.130  -3.279  1.00  0.00    -0.291 OA
ENDBRANCH  10  15
ENDBRANCH   1   9
BRANCH   6  18
ATOM     18  C   UNL     1       1.092  -0.544   1.525  1.00  0.00     0.024 A 
ATOM     19  C   UNL     1       0.143  -1.251   0.781  1.00  0.00     0.032 A 
ATOM     20  N   UNL     1       1.763  -1.379   2.356  1.00  0.00    -0.358 N 
ATOM     21  C   UNL     1       0.259  -2.557   1.200  1.00  0.00     0.003 A 
ATOM     22  C   UNL     1       1.244  -2.599   2.150  1.00  0.00     0.046 A 
ATOM     23  C   UNL     1      -0.430  -3.701   0.802  1.00  0.00     0.049 A 
ATOM     24  C   UNL     1       1.613  -3.792   2.770  1.00  0.00     0.029 A 
ATOM     25  C   UNL     1      -0.083  -4.921   1.412  1.00  0.00     0.123 A 
ATOM     26  C   UNL     1       0.935  -4.966   2.392  1.00  0.00     0.041 A 
ATOM     27  H   UNL     1       2.535  -1.127   3.014  1.00  0.00     0.166 HD
ATOM     28  F   UNL     1      -0.727  -6.059   1.056  1.00  0.00    -0.207 F 
ENDBRANCH   6  18
TORSDOF 3


