MODEL 1
REMARK VINA RESULT:      -6.9      0.000      0.000
REMARK SMILES CC(=O)c1ccc(-c2ccc(OC(=O)[C@@H]3C[C@H]3C=O)cc2)c2c[n-]nc12
REMARK SMILES IDX 12 1 11 2 8 3 9 4 21 5 10 6 20 7 7 8 4 9 5 10 26 11 6 12
REMARK SMILES IDX 25 13 22 14 24 15 23 16 2 17 1 18 3 19 13 20 14 21 15 22
REMARK SMILES IDX 16 23 17 24 18 25 19 26
REMARK H PARENT
ROOT
ATOM      1  O   UNL     1      42.540 131.928  22.615  1.00  0.00    -0.426 OA
ENDROOT
BRANCH   1   2
ATOM      2  C   UNL     1      43.120 131.693  21.358  1.00  0.00     0.130 A 
ATOM      3  C   UNL     1      44.373 131.228  18.877  1.00  0.00    -0.018 A 
ATOM      4  C   UNL     1      43.010 131.561  18.933  1.00  0.00     0.012 A 
ATOM      5  C   UNL     1      45.108 131.156  20.071  1.00  0.00     0.012 A 
ATOM      6  C   UNL     1      42.387 131.793  20.163  1.00  0.00     0.048 A 
ATOM      7  C   UNL     1      44.484 131.390  21.300  1.00  0.00     0.048 A 
BRANCH   3   8
ATOM      8  C   UNL     1      45.032 130.993  17.571  1.00  0.00    -0.011 A 
ATOM      9  C   UNL     1      46.306 130.522  15.045  1.00  0.00     0.042 A 
ATOM     10  C   UNL     1      46.953 130.199  16.263  1.00  0.00     0.014 A 
ATOM     11  C   UNL     1      45.024 131.084  15.146  1.00  0.00     0.058 A 
ATOM     12  C   UNL     1      46.326 130.434  17.505  1.00  0.00     0.010 A 
ATOM     13  N   UNL     1      44.223 131.505  14.149  1.00  0.00    -0.367 NA
ATOM     14  C   UNL     1      44.418 131.307  16.353  1.00  0.00    -0.014 A 
ATOM     15  N   UNL     1      43.119 131.998  14.700  1.00  0.00    -0.581 NA
ATOM     16  C   UNL     1      43.211 131.896  16.045  1.00  0.00    -0.113 A 
BRANCH   9  17
ATOM     17  C   UNL     1      46.957 130.285  13.727  1.00  0.00     0.161 C 
ATOM     18  C   UNL     1      47.865 129.115  13.496  1.00  0.00     0.093 C 
ATOM     19  O   UNL     1      46.746 131.076  12.769  1.00  0.00    -0.294 OA
ENDBRANCH   9  17
ENDBRANCH   3   8
ENDBRANCH   1   2
BRANCH   1  20
ATOM     20  C   UNL     1      43.052 131.476  23.838  1.00  0.00     0.315 C 
ATOM     21  O   UNL     1      43.647 132.262  24.624  1.00  0.00    -0.251 OA
BRANCH  20  22
ATOM     22  C   UNL     1      42.794 130.067  24.262  1.00  0.00     0.110 C 
ATOM     23  C   UNL     1      43.715 129.038  23.617  1.00  0.00     0.028 C 
ATOM     24  C   UNL     1      42.270 129.165  23.152  1.00  0.00     0.068 C 
BRANCH  24  25
ATOM     25  C   UNL     1      41.384 128.050  23.617  1.00  0.00     0.228 C 
ATOM     26  O   UNL     1      40.397 128.294  24.292  1.00  0.00    -0.303 OA
ENDBRANCH  24  25
ENDBRANCH  20  22
ENDBRANCH   1  20
TORSDOF 6
ENDMDL
MODEL 2
REMARK VINA RESULT:      -4.6      1.126      1.588
REMARK SMILES CC(=O)c1ccc(-c2ccc(OC(=O)[C@@H]3C[C@H]3C=O)cc2)c2c[n-]nc12
REMARK SMILES IDX 12 1 11 2 8 3 9 4 21 5 10 6 20 7 7 8 4 9 5 10 26 11 6 12
REMARK SMILES IDX 25 13 22 14 24 15 23 16 2 17 1 18 3 19 13 20 14 21 15 22
REMARK SMILES IDX 16 23 17 24 18 25 19 26
REMARK H PARENT
ROOT
ATOM      1  O   UNL     1      42.439 131.448  22.075  1.00  0.00    -0.426 OA
ENDROOT
BRANCH   1   2
ATOM      2  C   UNL     1      43.163 131.284  20.885  1.00  0.00     0.130 A 
ATOM      3  C   UNL     1      44.532 130.965  18.442  1.00  0.00    -0.018 A 
ATOM      4  C   UNL     1      45.137 130.582  19.650  1.00  0.00     0.012 A 
ATOM      5  C   UNL     1      43.228 131.484  18.465  1.00  0.00     0.012 A 
ATOM      6  C   UNL     1      44.458 130.738  20.862  1.00  0.00     0.048 A 
ATOM      7  C   UNL     1      42.550 131.637  19.678  1.00  0.00     0.048 A 
BRANCH   3   8
ATOM      8  C   UNL     1      45.251 130.789  17.159  1.00  0.00    -0.011 A 
ATOM      9  C   UNL     1      46.640 130.432  14.675  1.00  0.00     0.042 A 
ATOM     10  C   UNL     1      47.228 130.048  15.904  1.00  0.00     0.014 A 
ATOM     11  C   UNL     1      45.355 130.995  14.743  1.00  0.00     0.058 A 
ATOM     12  C   UNL     1      46.545 130.227  17.126  1.00  0.00     0.010 A 
ATOM     13  N   UNL     1      44.603 131.467  13.731  1.00  0.00    -0.367 NA
ATOM     14  C   UNL     1      44.694 131.164  15.929  1.00  0.00    -0.014 A 
ATOM     15  N   UNL     1      43.476 131.939  14.253  1.00  0.00    -0.581 NA
ATOM     16  C   UNL     1      43.505 131.773  15.595  1.00  0.00    -0.113 A 
BRANCH   9  17
ATOM     17  C   UNL     1      47.350 130.254  13.378  1.00  0.00     0.161 C 
ATOM     18  C   UNL     1      48.775 129.792  13.317  1.00  0.00     0.093 C 
ATOM     19  O   UNL     1      46.752 130.491  12.294  1.00  0.00    -0.294 OA
ENDBRANCH   9  17
ENDBRANCH   3   8
ENDBRANCH   1   2
BRANCH   1  20
ATOM     20  C   UNL     1      42.678 130.756  23.269  1.00  0.00     0.315 C 
ATOM     21  O   UNL     1      42.906 131.372  24.345  1.00  0.00    -0.251 OA
BRANCH  20  22
ATOM     22  C   UNL     1      42.556 129.266  23.287  1.00  0.00     0.110 C 
ATOM     23  C   UNL     1      42.080 128.691  24.615  1.00  0.00     0.028 C 
ATOM     24  C   UNL     1      43.544 128.569  24.214  1.00  0.00     0.068 C 
BRANCH  24  25
ATOM     25  C   UNL     1      43.940 127.190  23.782  1.00  0.00     0.228 C 
ATOM     26  O   UNL     1      43.972 126.280  24.595  1.00  0.00    -0.303 OA
ENDBRANCH  24  25
ENDBRANCH  20  22
ENDBRANCH   1  20
TORSDOF 6
ENDMDL


