REMARK SMILES CCn1[nH+]c[nH+]c1COc1ccc(Nc2ccc3cc[nH]c3c2)c(F)c1
REMARK SMILES IDX 9 1 8 2 7 3 3 4 4 5 5 6 6 7 2 10 1 11 10 12 11 13 26 14
REMARK SMILES IDX 12 15 24 16 13 17 25 18 14 19 15 21 16 22 23 23 17 24 22 25
REMARK SMILES IDX 18 26 21 27 19 28 20 29
REMARK H PARENT 4 8 6 9 14 20 21 30
ROOT
ATOM      1  O   UNL     1      -0.705  -0.483   3.066  1.00  0.00    -0.480 OA
ENDROOT
BRANCH   1   2
ATOM      2  C   UNL     1       0.604  -0.693   3.586  1.00  0.00     0.364 C 
BRANCH   2   3
ATOM      3  C   UNL     1       0.577  -0.520   5.072  1.00  0.00     0.347 A 
ATOM      4  N   UNL     1       0.467   0.660   5.719  1.00  0.00    -0.089 N 
ATOM      5  N   UNL     1       0.453   0.398   7.016  1.00  0.00    -0.067 N 
ATOM      6  C   UNL     1       0.532  -0.939   7.153  1.00  0.00     0.656 A 
ATOM      7  N   UNL     1       0.606  -1.543   5.950  1.00  0.00    -0.135 N 
ATOM      8  H   UNL     1       0.396   1.107   7.780  1.00  0.00     0.495 HD
ATOM      9  H   UNL     1       0.671  -2.566   5.751  1.00  0.00     0.462 HD
BRANCH   4  10
ATOM     10  C   UNL     1       0.446   2.006   5.148  1.00  0.00     0.194 C 
ATOM     11  C   UNL     1       1.862   2.560   5.051  1.00  0.00     0.034 C 
ENDBRANCH   4  10
ENDBRANCH   2   3
ENDBRANCH   1   2
BRANCH   1  12
ATOM     12  C   UNL     1      -1.035  -0.533   1.704  1.00  0.00     0.123 A 
ATOM     13  C   UNL     1      -2.362  -0.290   1.333  1.00  0.00     0.049 A 
ATOM     14  C   UNL     1      -0.085  -0.821   0.706  1.00  0.00     0.087 A 
ATOM     15  C   UNL     1      -2.740  -0.323  -0.012  1.00  0.00     0.033 A 
ATOM     16  C   UNL     1      -0.461  -0.854  -0.640  1.00  0.00     0.150 A 
ATOM     17  C   UNL     1      -1.792  -0.582  -1.010  1.00  0.00     0.075 A 
ATOM     18  F   UNL     1       0.463  -1.187  -1.576  1.00  0.00    -0.205 F 
BRANCH  17  19
ATOM     19  N   UNL     1      -2.210  -0.625  -2.384  1.00  0.00    -0.353 N 
ATOM     20  H   UNL     1      -3.141  -1.052  -2.596  1.00  0.00     0.167 HD
BRANCH  19  21
ATOM     21  C   UNL     1      -1.468  -0.049  -3.473  1.00  0.00     0.041 A 
ATOM     22  C   UNL     1      -1.675  -0.538  -4.787  1.00  0.00     0.027 A 
ATOM     23  C   UNL     1      -0.579   1.033  -3.263  1.00  0.00     0.052 A 
ATOM     24  C   UNL     1      -0.986   0.016  -5.880  1.00  0.00     0.012 A 
ATOM     25  C   UNL     1       0.088   1.558  -4.367  1.00  0.00     0.047 A 
ATOM     26  C   UNL     1      -0.107   1.066  -5.629  1.00  0.00    -0.001 A 
ATOM     27  N   UNL     1       0.969   2.572  -4.382  1.00  0.00    -0.361 N 
ATOM     28  C   UNL     1       0.686   1.798  -6.485  1.00  0.00     0.028 A 
ATOM     29  C   UNL     1       1.338   2.722  -5.675  1.00  0.00     0.083 A 
ATOM     30  H   UNL     1       1.302   3.133  -3.567  1.00  0.00     0.166 HD
ENDBRANCH  19  21
ENDBRANCH  17  19
ENDBRANCH   1  12
TORSDOF 6


