REMARK SMILES CCOC(=O)n1cc(F)cc(N)/c1=N\c1c[nH]c2nccc-2c1
REMARK SMILES IDX 13 1 11 2 10 3 8 4 9 5 7 6 6 7 14 8 15 9 20 10 19 11 21 12
REMARK SMILES IDX 18 13 22 14 17 15 23 16 16 17 12 19 4 22 5 23 3 24 2 25 1 26
REMARK H PARENT 17 18 12 20 12 21
ROOT
ATOM      1  C   UNL     1       1.931   0.373  -0.827  1.00  0.00     0.166 A 
ATOM      2  C   UNL     1       3.038  -0.316  -0.244  1.00  0.00     0.079 A 
ATOM      3  C   UNL     1       4.169  -0.565  -1.026  1.00  0.00     0.070 A 
ATOM      4  C   UNL     1       4.252  -0.068  -2.317  1.00  0.00     0.142 A 
ATOM      5  F   UNL     1       5.363  -0.288  -3.062  1.00  0.00    -0.205 F 
ATOM      6  C   UNL     1       3.207   0.693  -2.825  1.00  0.00     0.139 A 
ATOM      7  N   UNL     1       2.070   0.910  -2.094  1.00  0.00    -0.232 N 
ENDROOT
BRANCH   1   8
ATOM      8  N   UNL     1       0.786   0.520  -0.206  1.00  0.00    -0.227 NA
BRANCH   8   9
ATOM      9  C   UNL     1       0.277  -0.137   0.963  1.00  0.00     0.082 A 
ATOM     10  C   UNL     1      -1.901  -0.813   4.842  1.00  0.00     0.114 A 
ATOM     11  N   UNL     1      -1.421  -1.928   4.229  1.00  0.00    -0.239 NA
ATOM     12  C   UNL     1      -1.621   0.357   4.132  1.00  0.00     0.032 A 
ATOM     13  C   UNL     1      -0.825  -1.464   3.119  1.00  0.00     0.137 A 
ATOM     14  C   UNL     1      -0.928  -0.047   3.021  1.00  0.00     0.021 A 
ATOM     15  N   UNL     1      -0.214  -2.199   2.161  1.00  0.00    -0.344 N 
ATOM     16  C   UNL     1      -0.392   0.630   1.938  1.00  0.00     0.042 A 
ATOM     17  C   UNL     1       0.325  -1.556   1.079  1.00  0.00     0.112 A 
ATOM     18  H   UNL     1      -0.165  -3.240   2.238  1.00  0.00     0.168 HD
ENDBRANCH   8   9
ENDBRANCH   1   8
BRANCH   2  19
ATOM     19  N   UNL     1       3.115  -0.626   1.153  1.00  0.00    -0.396 N 
ATOM     20  H   UNL     1       3.825  -1.307   1.504  1.00  0.00     0.156 HD
ATOM     21  H   UNL     1       2.642  -0.029   1.866  1.00  0.00     0.156 HD
ENDBRANCH   2  19
BRANCH   7  22
ATOM     22  C   UNL     1       1.010   1.680  -2.714  1.00  0.00     0.419 C 
ATOM     23  O   UNL     1       1.293   2.574  -3.560  1.00  0.00    -0.223 OA
BRANCH  22  24
ATOM     24  O   UNL     1      -0.329   1.426  -2.397  1.00  0.00    -0.449 OA
BRANCH  24  25
ATOM     25  C   UNL     1      -1.410   2.163  -2.959  1.00  0.00     0.231 C 
ATOM     26  C   UNL     1      -2.722   1.657  -2.380  1.00  0.00     0.049 C 
ENDBRANCH  24  25
ENDBRANCH  22  24
ENDBRANCH   7  22
TORSDOF 6


