REMARK SMILES Cc1ccc(-c2ccc([N-]/C(O)=C/[C@H]([NH3+])C(=O)[O-])c(C=O)c2)cc1
REMARK SMILES IDX 11 1 12 2 10 4 9 5 8 6 19 7 7 8 22 9 6 10 20 11 21 12 5 13
REMARK SMILES IDX 4 14 23 15 3 16 24 17 2 18 1 19 13 20 14 21 16 22 17 23
REMARK SMILES IDX 18 24 15 25
REMARK H PARENT 12 3 15 26 15 27 15 28
ROOT
ATOM      1  C   UNL     1      -1.813  -2.642   1.103  1.00  0.00     0.016 C 
ENDROOT
BRANCH   1   2
ATOM      2  O   UNL     1      -1.163  -2.455   2.324  1.00  0.00    -0.531 OA
ATOM      3  H   UNL     1      -0.227  -2.073   2.377  1.00  0.00     0.290 HD
ENDBRANCH   1   2
BRANCH   1   4
ATOM      4  N   UNL     1      -1.227  -2.178  -0.120  1.00  0.00    -0.627 NA
BRANCH   4   5
ATOM      5  C   UNL     1      -0.301  -1.088  -0.249  1.00  0.00    -0.123 A 
ATOM      6  C   UNL     1      -0.359   0.006   0.629  1.00  0.00    -0.015 A 
ATOM      7  C   UNL     1       0.626  -1.075  -1.314  1.00  0.00     0.000 A 
ATOM      8  C   UNL     1       0.517   1.081   0.485  1.00  0.00     0.007 A 
ATOM      9  C   UNL     1       1.505   0.016  -1.450  1.00  0.00     0.019 A 
ATOM     10  C   UNL     1       1.461   1.097  -0.553  1.00  0.00    -0.018 A 
BRANCH   7  11
ATOM     11  C   UNL     1       0.690  -2.202  -2.272  1.00  0.00     0.258 C 
ATOM     12  O   UNL     1       1.510  -2.197  -3.228  1.00  0.00    -0.298 OA
ENDBRANCH   7  11
BRANCH  10  13
ATOM     13  C   UNL     1       2.393   2.244  -0.705  1.00  0.00    -0.018 A 
ATOM     14  C   UNL     1       2.997   2.827   0.423  1.00  0.00     0.009 A 
ATOM     15  C   UNL     1       2.689   2.763  -1.979  1.00  0.00     0.009 A 
ATOM     16  C   UNL     1       3.874   3.906   0.281  1.00  0.00     0.004 A 
ATOM     17  C   UNL     1       3.566   3.842  -2.119  1.00  0.00     0.004 A 
ATOM     18  C   UNL     1       4.152   4.430  -0.989  1.00  0.00    -0.051 A 
ATOM     19  C   UNL     1       5.123   5.563  -1.145  1.00  0.00     0.044 C 
ENDBRANCH  10  13
ENDBRANCH   4   5
ENDBRANCH   1   4
BRANCH   1  20
ATOM     20  C   UNL     1      -2.979  -3.293   1.056  1.00  0.00     0.064 C 
BRANCH  20  21
ATOM     21  C   UNL     1      -3.651  -3.847   2.290  1.00  0.00     0.253 C 
BRANCH  21  22
ATOM     22  C   UNL     1      -5.116  -4.069   2.024  1.00  0.00     0.104 C 
ATOM     23  O   UNL     1      -5.495  -5.002   1.266  1.00  0.00    -0.544 OA
ATOM     24  O   UNL     1      -6.060  -3.224   2.593  1.00  0.00    -0.544 OA
ENDBRANCH  21  22
BRANCH  21  25
ATOM     25  N   UNL     1      -3.007  -5.096   2.715  1.00  0.00    -0.347 N 
ATOM     26  H   UNL     1      -2.013  -4.913   2.983  1.00  0.00     0.345 HD
ATOM     27  H   UNL     1      -3.027  -5.803   1.943  1.00  0.00     0.345 HD
ATOM     28  H   UNL     1      -3.503  -5.485   3.550  1.00  0.00     0.345 HD
ENDBRANCH  21  25
ENDBRANCH  20  21
ENDBRANCH   1  20
TORSDOF 9


