REMARK SMILES Cc1cc(F)ncc1-c1ccc2cc(Nc3cn4ccccc4n3)[n-]c2c1
REMARK SMILES IDX 9 1 10 2 11 3 12 4 13 5 14 6 25 7 26 8 27 9 8 10 2 11 3 12
REMARK SMILES IDX 4 13 7 14 6 15 1 16 5 17 15 18 16 20 17 21 24 22 18 23 23 24
REMARK SMILES IDX 19 25 22 26 20 27 21 28
REMARK H PARENT 15 19
ROOT
ATOM      1  C   UNL     1      -3.198  -0.237   0.064  1.00  0.00    -0.016 A 
ATOM      2  C   UNL     1      -2.646   0.146  -1.186  1.00  0.00     0.009 A 
ATOM      3  C   UNL     1      -1.261   0.061  -1.413  1.00  0.00     0.009 A 
ATOM      4  C   UNL     1      -0.460  -0.411  -0.378  1.00  0.00    -0.023 A 
ATOM      5  C   UNL     1       0.896  -0.613  -0.321  1.00  0.00     0.007 A 
ATOM      6  C   UNL     1       1.119  -1.111   0.961  1.00  0.00    -0.059 A 
ATOM      7  N   UNL     1      -0.031  -1.242   1.666  1.00  0.00    -0.436 NA
ATOM      8  C   UNL     1      -0.984  -0.797   0.827  1.00  0.00    -0.033 A 
ATOM      9  C   UNL     1      -2.352  -0.728   1.083  1.00  0.00     0.013 A 
ENDROOT
BRANCH   1  10
ATOM     10  C   UNL     1      -4.658  -0.157   0.293  1.00  0.00     0.003 A 
ATOM     11  C   UNL     1      -5.375   1.060   0.197  1.00  0.00    -0.037 A 
ATOM     12  C   UNL     1      -6.766   1.048   0.385  1.00  0.00     0.064 A 
ATOM     13  C   UNL     1      -7.414  -0.146   0.698  1.00  0.00     0.213 A 
ATOM     14  C   UNL     1      -5.359  -1.329   0.623  1.00  0.00     0.123 A 
ATOM     15  N   UNL     1      -6.703  -1.297   0.814  1.00  0.00    -0.228 NA
ATOM     16  C   UNL     1      -4.692   2.366  -0.116  1.00  0.00     0.045 C 
ATOM     17  F   UNL     1      -8.755  -0.161   0.891  1.00  0.00    -0.185 F 
ENDBRANCH   1  10
BRANCH   6  18
ATOM     18  N   UNL     1       2.386  -1.538   1.479  1.00  0.00    -0.441 N 
ATOM     19  H   UNL     1       2.385  -2.241   2.252  1.00  0.00     0.027 HD
BRANCH  18  20
ATOM     20  C   UNL     1       3.655  -1.060   1.012  1.00  0.00     0.068 A 
ATOM     21  C   UNL     1       3.894   0.158   0.391  1.00  0.00     0.116 A 
ATOM     22  N   UNL     1       4.813  -1.730   1.222  1.00  0.00    -0.233 NA
ATOM     23  N   UNL     1       5.217   0.229   0.193  1.00  0.00    -0.307 N 
ATOM     24  C   UNL     1       5.739  -0.904   0.694  1.00  0.00     0.136 A 
ATOM     25  C   UNL     1       5.961   1.214  -0.370  1.00  0.00     0.093 A 
ATOM     26  C   UNL     1       7.113  -1.135   0.655  1.00  0.00     0.048 A 
ATOM     27  C   UNL     1       7.351   1.035  -0.439  1.00  0.00     0.018 A 
ATOM     28  C   UNL     1       7.924  -0.145   0.076  1.00  0.00     0.005 A 
ENDBRANCH  18  20
ENDBRANCH   6  18
TORSDOF 3


