MODEL 1
REMARK VINA RESULT:      -7.4      0.000      0.000
REMARK SMILES C[C@@](O)(CCl)C(=O)Nc1cc(F)c[n-]/c1=N\c1c[nH]c2[nH+]ccc-2c1
REMARK SMILES IDX 9 1 10 2 11 3 12 4 13 5 14 6 15 7 8 8 6 9 7 10 2 12 1 13
REMARK SMILES IDX 3 14 4 16 5 17 16 18 17 19 25 20 18 21 24 22 19 23 23 24
REMARK SMILES IDX 20 25 22 26 21 27
REMARK H PARENT 8 11 3 15 19 28 21 29
ROOT
ATOM      1  C   UNL     1      44.202 131.342  19.914  1.00  0.00     0.043 A 
ATOM      2  C   UNL     1      43.183 132.268  19.630  1.00  0.00     0.064 A 
ATOM      3  C   UNL     1      42.278 132.642  20.622  1.00  0.00     0.121 A 
ATOM      4  F   UNL     1      41.295 133.536  20.350  1.00  0.00    -0.207 F 
ATOM      5  C   UNL     1      42.387 132.082  21.893  1.00  0.00     0.018 A 
ATOM      6  N   UNL     1      43.363 131.174  22.154  1.00  0.00    -0.438 NA
ATOM      7  C   UNL     1      44.261 130.777  21.205  1.00  0.00    -0.034 A 
ENDROOT
BRANCH   1   8
ATOM      8  N   UNL     1      45.130 130.929  18.893  1.00  0.00    -0.324 N 
ATOM      9  C   UNL     1      44.869 131.055  17.484  1.00  0.00     0.257 C 
ATOM     10  O   UNL     1      43.891 131.747  17.087  1.00  0.00    -0.271 OA
ATOM     11  H   UNL     1      46.066 130.580  19.196  1.00  0.00     0.170 HD
BRANCH   9  12
ATOM     12  C   UNL     1      45.786 130.396  16.466  1.00  0.00     0.154 C 
ATOM     13  C   UNL     1      45.010 129.308  15.693  1.00  0.00     0.054 C 
BRANCH  12  14
ATOM     14  O   UNL     1      46.892 129.815  17.121  1.00  0.00    -0.379 OA
ATOM     15  H   UNL     1      46.652 128.884  17.372  1.00  0.00     0.212 HD
ENDBRANCH  12  14
BRANCH  12  16
ATOM     16  C   UNL     1      46.318 131.472  15.496  1.00  0.00     0.154 C 
ATOM     17  Cl  UNL     1      45.988 131.062  13.788  1.00  0.00    -0.123 Cl
ENDBRANCH  12  16
ENDBRANCH   9  12
ENDBRANCH   1   8
BRANCH   7  18
ATOM     18  N   UNL     1      45.203 129.925  21.493  1.00  0.00    -0.431 NA
BRANCH  18  19
ATOM     19  C   UNL     1      45.099 128.780  22.357  1.00  0.00    -0.001 A 
ATOM     20  C   UNL     1      45.373 127.507  21.815  1.00  0.00     0.024 A 
ATOM     21  C   UNL     1      44.646 128.897  23.706  1.00  0.00     0.201 A 
ATOM     22  C   UNL     1      45.236 126.412  22.651  1.00  0.00     0.068 A 
ATOM     23  N   UNL     1      44.517 127.797  24.510  1.00  0.00    -0.247 N 
ATOM     24  C   UNL     1      45.412 125.060  22.470  1.00  0.00     0.060 A 
ATOM     25  C   UNL     1      44.813 126.579  24.000  1.00  0.00     0.284 A 
ATOM     26  C   UNL     1      45.092 124.470  23.698  1.00  0.00     0.198 A 
ATOM     27  N   UNL     1      44.728 125.395  24.621  1.00  0.00    -0.247 N 
ATOM     28  H   UNL     1      44.183 127.895  25.496  1.00  0.00     0.312 HD
ATOM     29  H   UNL     1      44.434 125.218  25.607  1.00  0.00     0.311 HD
ENDBRANCH  18  19
ENDBRANCH   7  18
TORSDOF 6
ENDMDL
MODEL 2
REMARK VINA RESULT:      -7.1      3.483      7.083
REMARK SMILES C[C@@](O)(CCl)C(=O)Nc1cc(F)c[n-]/c1=N\c1c[nH]c2[nH+]ccc-2c1
REMARK SMILES IDX 9 1 10 2 11 3 12 4 13 5 14 6 15 7 8 8 6 9 7 10 2 12 1 13
REMARK SMILES IDX 3 14 4 16 5 17 16 18 17 19 25 20 18 21 24 22 19 23 23 24
REMARK SMILES IDX 20 25 22 26 21 27
REMARK H PARENT 8 11 3 15 19 28 21 29
ROOT
ATOM      1  C   UNL     1      44.710 129.558  22.002  1.00  0.00     0.043 A 
ATOM      2  C   UNL     1      43.823 129.832  23.058  1.00  0.00     0.064 A 
ATOM      3  C   UNL     1      43.017 130.969  23.020  1.00  0.00     0.121 A 
ATOM      4  F   UNL     1      42.159 131.234  24.036  1.00  0.00    -0.207 F 
ATOM      5  C   UNL     1      43.106 131.833  21.931  1.00  0.00     0.018 A 
ATOM      6  N   UNL     1      43.979 131.571  20.925  1.00  0.00    -0.438 NA
ATOM      7  C   UNL     1      44.790 130.473  20.933  1.00  0.00    -0.034 A 
ENDROOT
BRANCH   1   8
ATOM      8  N   UNL     1      45.566 128.401  22.039  1.00  0.00    -0.324 N 
ATOM      9  C   UNL     1      45.153 127.122  22.555  1.00  0.00     0.257 C 
ATOM     10  O   UNL     1      43.934 126.908  22.797  1.00  0.00    -0.271 OA
ATOM     11  H   UNL     1      46.514 128.481  21.609  1.00  0.00     0.170 HD
BRANCH   9  12
ATOM     12  C   UNL     1      46.169 126.012  22.774  1.00  0.00     0.154 C 
ATOM     13  C   UNL     1      46.815 126.164  24.168  1.00  0.00     0.054 C 
BRANCH  12  14
ATOM     14  O   UNL     1      47.168 126.073  21.779  1.00  0.00    -0.379 OA
ATOM     15  H   UNL     1      47.973 125.601  22.118  1.00  0.00     0.212 HD
ENDBRANCH  12  14
BRANCH  12  16
ATOM     16  C   UNL     1      45.459 124.648  22.653  1.00  0.00     0.154 C 
ATOM     17  Cl  UNL     1      46.617 123.294  22.525  1.00  0.00    -0.123 Cl
ENDBRANCH  12  16
ENDBRANCH   9  12
ENDBRANCH   1   8
BRANCH   7  18
ATOM     18  N   UNL     1      45.598 130.234  19.939  1.00  0.00    -0.431 NA
BRANCH  18  19
ATOM     19  C   UNL     1      45.450 130.674  18.578  1.00  0.00    -0.001 A 
ATOM     20  C   UNL     1      46.239 130.055  17.586  1.00  0.00     0.024 A 
ATOM     21  C   UNL     1      44.597 131.765  18.231  1.00  0.00     0.201 A 
ATOM     22  C   UNL     1      46.109 130.514  16.286  1.00  0.00     0.068 A 
ATOM     23  N   UNL     1      44.489 132.199  16.937  1.00  0.00    -0.247 N 
ATOM     24  C   UNL     1      46.703 130.159  15.097  1.00  0.00     0.060 A 
ATOM     25  C   UNL     1      45.221 131.584  15.981  1.00  0.00     0.284 A 
ATOM     26  C   UNL     1      46.161 131.015  14.134  1.00  0.00     0.198 A 
ATOM     27  N   UNL     1      45.264 131.879  14.674  1.00  0.00    -0.247 N 
ATOM     28  H   UNL     1      43.862 133.000  16.696  1.00  0.00     0.312 HD
ATOM     29  H   UNL     1      44.728 132.623  14.176  1.00  0.00     0.311 HD
ENDBRANCH  18  19
ENDBRANCH   7  18
TORSDOF 6
ENDMDL
MODEL 3
REMARK VINA RESULT:      -5.4      3.605      6.931
REMARK SMILES C[C@@](O)(CCl)C(=O)Nc1cc(F)c[n-]/c1=N\c1c[nH]c2[nH+]ccc-2c1
REMARK SMILES IDX 9 1 10 2 11 3 12 4 13 5 14 6 15 7 8 8 6 9 7 10 2 12 1 13
REMARK SMILES IDX 3 14 4 16 5 17 16 18 17 19 25 20 18 21 24 22 19 23 23 24
REMARK SMILES IDX 20 25 22 26 21 27
REMARK H PARENT 8 11 3 15 19 28 21 29
ROOT
ATOM      1  C   UNL     1      44.503 129.749  22.142  1.00  0.00     0.043 A 
ATOM      2  C   UNL     1      43.452 129.830  23.073  1.00  0.00     0.064 A 
ATOM      3  C   UNL     1      42.655 130.973  23.133  1.00  0.00     0.121 A 
ATOM      4  F   UNL     1      41.640 131.054  24.028  1.00  0.00    -0.207 F 
ATOM      5  C   UNL     1      42.918 132.035  22.270  1.00  0.00     0.018 A 
ATOM      6  N   UNL     1      43.946 131.955  21.387  1.00  0.00    -0.438 NA
ATOM      7  C   UNL     1      44.753 130.857  21.306  1.00  0.00    -0.034 A 
ENDROOT
BRANCH   1   8
ATOM      8  N   UNL     1      45.348 128.585  22.085  1.00  0.00    -0.324 N 
ATOM      9  C   UNL     1      45.008 127.324  22.690  1.00  0.00     0.257 C 
ATOM     10  O   UNL     1      43.836 127.128  23.113  1.00  0.00    -0.271 OA
ATOM     11  H   UNL     1      46.224 128.645  21.519  1.00  0.00     0.170 HD
BRANCH   9  12
ATOM     12  C   UNL     1      46.039 126.211  22.788  1.00  0.00     0.154 C 
ATOM     13  C   UNL     1      46.711 126.242  24.177  1.00  0.00     0.054 C 
BRANCH  12  14
ATOM     14  O   UNL     1      47.018 126.373  21.784  1.00  0.00    -0.379 OA
ATOM     15  H   UNL     1      46.607 126.867  21.027  1.00  0.00     0.212 HD
ENDBRANCH  12  14
BRANCH  12  16
ATOM     16  C   UNL     1      45.340 124.855  22.556  1.00  0.00     0.154 C 
ATOM     17  Cl  UNL     1      45.074 123.964  24.082  1.00  0.00    -0.123 Cl
ENDBRANCH  12  16
ENDBRANCH   9  12
ENDBRANCH   1   8
BRANCH   7  18
ATOM     18  N   UNL     1      45.715 130.798  20.430  1.00  0.00    -0.431 NA
BRANCH  18  19
ATOM     19  C   UNL     1      45.581 130.631  19.009  1.00  0.00    -0.001 A 
ATOM     20  C   UNL     1      44.681 131.470  18.319  1.00  0.00     0.024 A 
ATOM     21  C   UNL     1      46.264 129.591  18.307  1.00  0.00     0.201 A 
ATOM     22  C   UNL     1      44.539 131.274  16.956  1.00  0.00     0.068 A 
ATOM     23  N   UNL     1      46.103 129.418  16.959  1.00  0.00    -0.247 N 
ATOM     24  C   UNL     1      43.773 131.885  15.990  1.00  0.00     0.060 A 
ATOM     25  C   UNL     1      45.266 130.245  16.292  1.00  0.00     0.284 A 
ATOM     26  C   UNL     1      44.061 131.212  14.798  1.00  0.00     0.198 A 
ATOM     27  N   UNL     1      44.965 130.217  14.986  1.00  0.00    -0.247 N 
ATOM     28  H   UNL     1      46.607 128.652  16.458  1.00  0.00     0.312 HD
ATOM     29  H   UNL     1      45.340 129.562  14.265  1.00  0.00     0.311 HD
ENDBRANCH  18  19
ENDBRANCH   7  18
TORSDOF 6
ENDMDL
MODEL 4
REMARK VINA RESULT:      -5.4      1.878      2.624
REMARK SMILES C[C@@](O)(CCl)C(=O)Nc1cc(F)c[n-]/c1=N\c1c[nH]c2[nH+]ccc-2c1
REMARK SMILES IDX 9 1 10 2 11 3 12 4 13 5 14 6 15 7 8 8 6 9 7 10 2 12 1 13
REMARK SMILES IDX 3 14 4 16 5 17 16 18 17 19 25 20 18 21 24 22 19 23 23 24
REMARK SMILES IDX 20 25 22 26 21 27
REMARK H PARENT 8 11 3 15 19 28 21 29
ROOT
ATOM      1  C   UNL     1      44.509 130.422  21.545  1.00  0.00     0.043 A 
ATOM      2  C   UNL     1      43.731 131.436  22.133  1.00  0.00     0.064 A 
ATOM      3  C   UNL     1      43.258 131.290  23.437  1.00  0.00     0.121 A 
ATOM      4  F   UNL     1      42.509 132.267  24.006  1.00  0.00    -0.207 F 
ATOM      5  C   UNL     1      43.557 130.129  24.146  1.00  0.00     0.018 A 
ATOM      6  N   UNL     1      44.293 129.148  23.564  1.00  0.00    -0.438 NA
ATOM      7  C   UNL     1      44.764 129.251  22.287  1.00  0.00    -0.034 A 
ENDROOT
BRANCH   1   8
ATOM      8  N   UNL     1      44.983 130.548  20.192  1.00  0.00    -0.324 N 
ATOM      9  C   UNL     1      44.423 131.466  19.235  1.00  0.00     0.257 C 
ATOM     10  O   UNL     1      43.625 132.364  19.620  1.00  0.00    -0.271 OA
ATOM     11  H   UNL     1      45.819 129.989  19.913  1.00  0.00     0.170 HD
BRANCH   9  12
ATOM     12  C   UNL     1      44.816 131.388  17.768  1.00  0.00     0.154 C 
ATOM     13  C   UNL     1      45.600 130.084  17.506  1.00  0.00     0.054 C 
BRANCH  12  14
ATOM     14  O   UNL     1      45.615 132.499  17.426  1.00  0.00    -0.379 OA
ATOM     15  H   UNL     1      46.425 132.488  18.000  1.00  0.00     0.212 HD
ENDBRANCH  12  14
BRANCH  12  16
ATOM     16  C   UNL     1      43.540 131.435  16.902  1.00  0.00     0.154 C 
ATOM     17  Cl  UNL     1      43.913 131.553  15.158  1.00  0.00    -0.123 Cl
ENDBRANCH  12  16
ENDBRANCH   9  12
ENDBRANCH   1   8
BRANCH   7  18
ATOM     18  N   UNL     1      45.491 128.304  21.765  1.00  0.00    -0.431 NA
BRANCH  18  19
ATOM     19  C   UNL     1      45.489 126.913  22.128  1.00  0.00    -0.001 A 
ATOM     20  C   UNL     1      44.259 126.314  22.473  1.00  0.00     0.024 A 
ATOM     21  C   UNL     1      46.699 126.161  22.229  1.00  0.00     0.201 A 
ATOM     22  C   UNL     1      44.279 124.983  22.852  1.00  0.00     0.068 A 
ATOM     23  N   UNL     1      46.689 124.846  22.609  1.00  0.00    -0.247 N 
ATOM     24  C   UNL     1      43.299 124.100  23.246  1.00  0.00     0.060 A 
ATOM     25  C   UNL     1      45.505 124.263  22.907  1.00  0.00     0.284 A 
ATOM     26  C   UNL     1      43.962 122.899  23.520  1.00  0.00     0.198 A 
ATOM     27  N   UNL     1      45.299 123.003  23.315  1.00  0.00    -0.247 N 
ATOM     28  H   UNL     1      47.582 124.307  22.680  1.00  0.00     0.312 HD
ATOM     29  H   UNL     1      46.018 122.259  23.455  1.00  0.00     0.311 HD
ENDBRANCH  18  19
ENDBRANCH   7  18
TORSDOF 6
ENDMDL
MODEL 5
REMARK VINA RESULT:      -5.0      4.822      7.599
REMARK SMILES C[C@@](O)(CCl)C(=O)Nc1cc(F)c[n-]/c1=N\c1c[nH]c2[nH+]ccc-2c1
REMARK SMILES IDX 9 1 10 2 11 3 12 4 13 5 14 6 15 7 8 8 6 9 7 10 2 12 1 13
REMARK SMILES IDX 3 14 4 16 5 17 16 18 17 19 25 20 18 21 24 22 19 23 23 24
REMARK SMILES IDX 20 25 22 26 21 27
REMARK H PARENT 8 11 3 15 19 28 21 29
ROOT
ATOM      1  C   UNL     1      44.976 124.490  22.393  1.00  0.00     0.043 A 
ATOM      2  C   UNL     1      44.135 123.383  22.181  1.00  0.00     0.064 A 
ATOM      3  C   UNL     1      42.793 123.440  22.556  1.00  0.00     0.121 A 
ATOM      4  F   UNL     1      41.979 122.375  22.350  1.00  0.00    -0.207 F 
ATOM      5  C   UNL     1      42.298 124.599  23.149  1.00  0.00     0.018 A 
ATOM      6  N   UNL     1      43.122 125.656  23.367  1.00  0.00    -0.438 NA
ATOM      7  C   UNL     1      44.443 125.633  23.023  1.00  0.00    -0.034 A 
ENDROOT
BRANCH   1   8
ATOM      8  N   UNL     1      46.369 124.436  22.033  1.00  0.00    -0.324 N 
ATOM      9  C   UNL     1      47.409 124.025  22.939  1.00  0.00     0.257 C 
ATOM     10  O   UNL     1      47.106 123.477  24.034  1.00  0.00    -0.271 OA
ATOM     11  H   UNL     1      46.626 124.646  21.043  1.00  0.00     0.170 HD
BRANCH   9  12
ATOM     12  C   UNL     1      48.873 124.208  22.570  1.00  0.00     0.154 C 
ATOM     13  C   UNL     1      49.731 124.268  23.852  1.00  0.00     0.054 C 
BRANCH  12  14
ATOM     14  O   UNL     1      49.036 125.400  21.833  1.00  0.00    -0.379 OA
ATOM     15  H   UNL     1      48.226 125.534  21.274  1.00  0.00     0.212 HD
ENDBRANCH  12  14
BRANCH  12  16
ATOM     16  C   UNL     1      49.318 123.031  21.677  1.00  0.00     0.154 C 
ATOM     17  Cl  UNL     1      48.893 123.290  19.960  1.00  0.00    -0.123 Cl
ENDBRANCH  12  16
ENDBRANCH   9  12
ENDBRANCH   1   8
BRANCH   7  18
ATOM     18  N   UNL     1      45.202 126.673  23.220  1.00  0.00    -0.431 NA
BRANCH  18  19
ATOM     19  C   UNL     1      44.834 128.054  23.065  1.00  0.00    -0.001 A 
ATOM     20  C   UNL     1      44.028 128.646  24.060  1.00  0.00     0.024 A 
ATOM     21  C   UNL     1      45.190 128.800  21.900  1.00  0.00     0.201 A 
ATOM     22  C   UNL     1      43.655 129.967  23.878  1.00  0.00     0.068 A 
ATOM     23  N   UNL     1      44.805 130.104  21.746  1.00  0.00    -0.247 N 
ATOM     24  C   UNL     1      42.894 130.842  24.619  1.00  0.00     0.060 A 
ATOM     25  C   UNL     1      44.060 130.682  22.716  1.00  0.00     0.284 A 
ATOM     26  C   UNL     1      42.868 132.033  23.887  1.00  0.00     0.198 A 
ATOM     27  N   UNL     1      43.575 131.931  22.733  1.00  0.00    -0.247 N 
ATOM     28  H   UNL     1      45.071 130.639  20.888  1.00  0.00     0.312 HD
ATOM     29  H   UNL     1      43.705 132.670  22.007  1.00  0.00     0.311 HD
ENDBRANCH  18  19
ENDBRANCH   7  18
TORSDOF 6
ENDMDL
MODEL 6
REMARK VINA RESULT:      -5.0      5.016      7.293
REMARK SMILES C[C@@](O)(CCl)C(=O)Nc1cc(F)c[n-]/c1=N\c1c[nH]c2[nH+]ccc-2c1
REMARK SMILES IDX 9 1 10 2 11 3 12 4 13 5 14 6 15 7 8 8 6 9 7 10 2 12 1 13
REMARK SMILES IDX 3 14 4 16 5 17 16 18 17 19 25 20 18 21 24 22 19 23 23 24
REMARK SMILES IDX 20 25 22 26 21 27
REMARK H PARENT 8 11 3 15 19 28 21 29
ROOT
ATOM      1  C   UNL     1      44.554 125.645  22.724  1.00  0.00     0.043 A 
ATOM      2  C   UNL     1      43.289 125.042  22.837  1.00  0.00     0.064 A 
ATOM      3  C   UNL     1      43.184 123.679  23.110  1.00  0.00     0.121 A 
ATOM      4  F   UNL     1      41.964 123.095  23.222  1.00  0.00    -0.207 F 
ATOM      5  C   UNL     1      44.342 122.920  23.259  1.00  0.00     0.018 A 
ATOM      6  N   UNL     1      45.560 123.507  23.130  1.00  0.00    -0.438 NA
ATOM      7  C   UNL     1      45.702 124.836  22.854  1.00  0.00    -0.034 A 
ENDROOT
BRANCH   1   8
ATOM      8  N   UNL     1      44.678 127.047  22.419  1.00  0.00    -0.324 N 
ATOM      9  C   UNL     1      44.436 128.094  23.376  1.00  0.00     0.257 C 
ATOM     10  O   UNL     1      44.315 127.809  24.599  1.00  0.00    -0.271 OA
ATOM     11  H   UNL     1      45.026 127.311  21.471  1.00  0.00     0.170 HD
BRANCH   9  12
ATOM     12  C   UNL     1      44.363 129.546  22.931  1.00  0.00     0.154 C 
ATOM     13  C   UNL     1      45.145 129.728  21.613  1.00  0.00     0.054 C 
BRANCH  12  14
ATOM     14  O   UNL     1      44.911 130.381  23.928  1.00  0.00    -0.379 OA
ATOM     15  H   UNL     1      44.745 129.960  24.812  1.00  0.00     0.212 HD
ENDBRANCH  12  14
BRANCH  12  16
ATOM     16  C   UNL     1      42.883 129.940  22.741  1.00  0.00     0.154 C 
ATOM     17  Cl  UNL     1      42.674 131.178  21.468  1.00  0.00    -0.123 Cl
ENDBRANCH  12  16
ENDBRANCH   9  12
ENDBRANCH   1   8
BRANCH   7  18
ATOM     18  N   UNL     1      46.884 125.377  22.762  1.00  0.00    -0.431 NA
BRANCH  18  19
ATOM     19  C   UNL     1      48.058 124.793  22.172  1.00  0.00    -0.001 A 
ATOM     20  C   UNL     1      49.285 125.474  22.311  1.00  0.00     0.024 A 
ATOM     21  C   UNL     1      47.991 123.602  21.386  1.00  0.00     0.201 A 
ATOM     22  C   UNL     1      50.400 124.916  21.709  1.00  0.00     0.068 A 
ATOM     23  N   UNL     1      49.108 123.073  20.799  1.00  0.00    -0.247 N 
ATOM     24  C   UNL     1      51.721 125.294  21.636  1.00  0.00     0.060 A 
ATOM     25  C   UNL     1      50.291 123.709  20.962  1.00  0.00     0.284 A 
ATOM     26  C   UNL     1      52.350 124.316  20.859  1.00  0.00     0.198 A 
ATOM     27  N   UNL     1      51.480 123.359  20.450  1.00  0.00    -0.247 N 
ATOM     28  H   UNL     1      49.046 122.202  20.225  1.00  0.00     0.312 HD
ATOM     29  H   UNL     1      51.691 122.528  19.855  1.00  0.00     0.311 HD
ENDBRANCH  18  19
ENDBRANCH   7  18
TORSDOF 6
ENDMDL
MODEL 7
REMARK VINA RESULT:      -5.0      4.219      7.382
REMARK SMILES C[C@@](O)(CCl)C(=O)Nc1cc(F)c[n-]/c1=N\c1c[nH]c2[nH+]ccc-2c1
REMARK SMILES IDX 9 1 10 2 11 3 12 4 13 5 14 6 15 7 8 8 6 9 7 10 2 12 1 13
REMARK SMILES IDX 3 14 4 16 5 17 16 18 17 19 25 20 18 21 24 22 19 23 23 24
REMARK SMILES IDX 20 25 22 26 21 27
REMARK H PARENT 8 11 3 15 19 28 21 29
ROOT
ATOM      1  C   UNL     1      44.479 126.194  23.542  1.00  0.00     0.043 A 
ATOM      2  C   UNL     1      43.644 125.093  23.802  1.00  0.00     0.064 A 
ATOM      3  C   UNL     1      42.337 125.293  24.244  1.00  0.00     0.121 A 
ATOM      4  F   UNL     1      41.529 124.233  24.493  1.00  0.00    -0.207 F 
ATOM      5  C   UNL     1      41.872 126.592  24.435  1.00  0.00     0.018 A 
ATOM      6  N   UNL     1      42.691 127.649  24.199  1.00  0.00    -0.438 NA
ATOM      7  C   UNL     1      43.979 127.491  23.775  1.00  0.00    -0.034 A 
ENDROOT
BRANCH   1   8
ATOM      8  N   UNL     1      45.838 126.002  23.107  1.00  0.00    -0.324 N 
ATOM      9  C   UNL     1      46.516 124.733  23.152  1.00  0.00     0.257 C 
ATOM     10  O   UNL     1      45.859 123.679  23.373  1.00  0.00    -0.271 OA
ATOM     11  H   UNL     1      46.333 126.815  22.678  1.00  0.00     0.170 HD
BRANCH   9  12
ATOM     12  C   UNL     1      48.012 124.646  22.894  1.00  0.00     0.154 C 
ATOM     13  C   UNL     1      48.774 124.664  24.236  1.00  0.00     0.054 C 
BRANCH  12  14
ATOM     14  O   UNL     1      48.426 125.735  22.098  1.00  0.00    -0.379 OA
ATOM     15  H   UNL     1      49.399 125.871  22.239  1.00  0.00     0.212 HD
ENDBRANCH  12  14
BRANCH  12  16
ATOM     16  C   UNL     1      48.314 123.347  22.118  1.00  0.00     0.154 C 
ATOM     17  Cl  UNL     1      48.125 123.556  20.354  1.00  0.00    -0.123 Cl
ENDBRANCH  12  16
ENDBRANCH   9  12
ENDBRANCH   1   8
BRANCH   7  18
ATOM     18  N   UNL     1      44.733 128.525  23.531  1.00  0.00    -0.431 NA
BRANCH  18  19
ATOM     19  C   UNL     1      44.597 129.458  22.445  1.00  0.00    -0.001 A 
ATOM     20  C   UNL     1      43.495 130.338  22.454  1.00  0.00     0.024 A 
ATOM     21  C   UNL     1      45.492 129.450  21.333  1.00  0.00     0.201 A 
ATOM     22  C   UNL     1      43.360 131.206  21.384  1.00  0.00     0.068 A 
ATOM     23  N   UNL     1      45.334 130.319  20.287  1.00  0.00    -0.247 N 
ATOM     24  C   UNL     1      42.434 132.173  21.066  1.00  0.00     0.060 A 
ATOM     25  C   UNL     1      44.296 131.186  20.312  1.00  0.00     0.284 A 
ATOM     26  C   UNL     1      42.840 132.692  19.832  1.00  0.00     0.198 A 
ATOM     27  N   UNL     1      43.968 132.089  19.378  1.00  0.00    -0.247 N 
ATOM     28  H   UNL     1      45.995 130.302  19.478  1.00  0.00     0.312 HD
ATOM     29  H   UNL     1      44.469 132.283  18.483  1.00  0.00     0.311 HD
ENDBRANCH  18  19
ENDBRANCH   7  18
TORSDOF 6
ENDMDL
MODEL 8
REMARK VINA RESULT:      -4.8      4.331      6.214
REMARK SMILES C[C@@](O)(CCl)C(=O)Nc1cc(F)c[n-]/c1=N\c1c[nH]c2[nH+]ccc-2c1
REMARK SMILES IDX 9 1 10 2 11 3 12 4 13 5 14 6 15 7 8 8 6 9 7 10 2 12 1 13
REMARK SMILES IDX 3 14 4 16 5 17 16 18 17 19 25 20 18 21 24 22 19 23 23 24
REMARK SMILES IDX 20 25 22 26 21 27
REMARK H PARENT 8 11 3 15 19 28 21 29
ROOT
ATOM      1  C   UNL     1      45.334 131.002  20.712  1.00  0.00     0.043 A 
ATOM      2  C   UNL     1      44.547 129.997  21.301  1.00  0.00     0.064 A 
ATOM      3  C   UNL     1      44.039 130.168  22.588  1.00  0.00     0.121 A 
ATOM      4  F   UNL     1      43.278 129.201  23.158  1.00  0.00    -0.207 F 
ATOM      5  C   UNL     1      44.327 131.338  23.286  1.00  0.00     0.018 A 
ATOM      6  N   UNL     1      45.103 132.296  22.717  1.00  0.00    -0.438 NA
ATOM      7  C   UNL     1      45.626 132.159  21.463  1.00  0.00    -0.034 A 
ENDROOT
BRANCH   1   8
ATOM      8  N   UNL     1      45.885 130.829  19.393  1.00  0.00    -0.324 N 
ATOM      9  C   UNL     1      45.146 131.076  18.183  1.00  0.00     0.257 C 
ATOM     10  O   UNL     1      44.036 131.674  18.238  1.00  0.00    -0.271 OA
ATOM     11  H   UNL     1      46.894 130.573  19.315  1.00  0.00     0.170 HD
BRANCH   9  12
ATOM     12  C   UNL     1      45.709 130.659  16.834  1.00  0.00     0.154 C 
ATOM     13  C   UNL     1      44.779 129.614  16.181  1.00  0.00     0.054 C 
BRANCH  12  14
ATOM     14  O   UNL     1      46.997 130.108  17.002  1.00  0.00    -0.379 OA
ATOM     15  H   UNL     1      47.112 129.378  16.338  1.00  0.00     0.212 HD
ENDBRANCH  12  14
BRANCH  12  16
ATOM     16  C   UNL     1      45.838 131.906  15.934  1.00  0.00     0.154 C 
ATOM     17  Cl  UNL     1      46.782 131.575  14.454  1.00  0.00    -0.123 Cl
ENDBRANCH  12  16
ENDBRANCH   9  12
ENDBRANCH   1   8
BRANCH   7  18
ATOM     18  N   UNL     1      46.345 133.107  20.933  1.00  0.00    -0.431 NA
BRANCH  18  19
ATOM     19  C   UNL     1      47.457 133.790  21.537  1.00  0.00    -0.001 A 
ATOM     20  C   UNL     1      47.853 135.031  20.995  1.00  0.00     0.024 A 
ATOM     21  C   UNL     1      48.209 133.205  22.600  1.00  0.00     0.201 A 
ATOM     22  C   UNL     1      48.946 135.659  21.567  1.00  0.00     0.068 A 
ATOM     23  N   UNL     1      49.288 133.847  23.146  1.00  0.00    -0.247 N 
ATOM     24  C   UNL     1      49.597 136.843  21.305  1.00  0.00     0.060 A 
ATOM     25  C   UNL     1      49.647 135.053  22.648  1.00  0.00     0.284 A 
ATOM     26  C   UNL     1      50.650 136.905  22.223  1.00  0.00     0.198 A 
ATOM     27  N   UNL     1      50.678 135.817  23.034  1.00  0.00    -0.247 N 
ATOM     28  H   UNL     1      49.831 133.408  23.923  1.00  0.00     0.312 HD
ATOM     29  H   UNL     1      51.365 135.615  23.794  1.00  0.00     0.311 HD
ENDBRANCH  18  19
ENDBRANCH   7  18
TORSDOF 6
ENDMDL


