REMARK SMILES Cc1ccc(-c2cc3[nH]ccc3cc2N(N)C(=O)[NH+]2CCOCC2)cc1F
REMARK SMILES IDX 15 1 14 2 6 3 7 4 8 5 13 6 9 7 12 8 10 9 11 10 5 12 2 13
REMARK SMILES IDX 3 14 26 15 4 16 25 17 1 18 27 19 16 20 17 23 18 24 19 25
REMARK SMILES IDX 20 26 24 27 21 28 23 29 22 30
REMARK H PARENT 9 11 16 21 16 22 19 31
ROOT
ATOM      1  N   UNL     1      -1.146  -1.074  -0.316  1.00  0.00    -0.196 N 
ENDROOT
BRANCH   1   2
ATOM      2  C   UNL     1      -0.589  -1.295   0.991  1.00  0.00     0.075 A 
ATOM      3  C   UNL     1      -0.628  -0.270   1.986  1.00  0.00     0.009 A 
ATOM      4  C   UNL     1      -0.143  -0.539   3.286  1.00  0.00     0.037 A 
ATOM      5  C   UNL     1       0.377  -1.803   3.549  1.00  0.00     0.046 A 
ATOM      6  C   UNL     1      -0.053  -2.562   1.301  1.00  0.00     0.039 A 
ATOM      7  N   UNL     1       0.889  -2.250   4.707  1.00  0.00    -0.361 N 
ATOM      8  C   UNL     1       0.423  -2.776   2.590  1.00  0.00     0.002 A 
ATOM      9  C   UNL     1       1.262  -3.530   4.477  1.00  0.00     0.083 A 
ATOM     10  C   UNL     1       0.986  -3.895   3.164  1.00  0.00     0.028 A 
ATOM     11  H   UNL     1       0.980  -1.722   5.604  1.00  0.00     0.166 HD
BRANCH   3  12
ATOM     12  C   UNL     1      -1.157   1.079   1.679  1.00  0.00    -0.013 A 
ATOM     13  C   UNL     1      -2.189   3.631   1.085  1.00  0.00    -0.015 A 
ATOM     14  C   UNL     1      -2.673   2.909   2.187  1.00  0.00     0.007 A 
ATOM     15  C   UNL     1      -1.164   3.081   0.298  1.00  0.00     0.126 A 
ATOM     16  C   UNL     1      -2.163   1.642   2.481  1.00  0.00     0.009 A 
ATOM     17  C   UNL     1      -0.652   1.814   0.595  1.00  0.00     0.048 A 
ATOM     18  C   UNL     1      -2.720   5.002   0.783  1.00  0.00     0.047 C 
ATOM     19  F   UNL     1      -0.655   3.772  -0.753  1.00  0.00    -0.207 F 
ENDBRANCH   3  12
ENDBRANCH   1   2
BRANCH   1  20
ATOM     20  N   UNL     1      -2.541  -1.110  -0.487  1.00  0.00    -0.236 NA
ATOM     21  H   UNL     1      -2.976  -0.475   0.219  1.00  0.00     0.144 HD
ATOM     22  H   UNL     1      -2.858  -2.083  -0.274  1.00  0.00     0.144 HD
ENDBRANCH   1  20
BRANCH   1  23
ATOM     23  C   UNL     1      -0.282  -0.981  -1.466  1.00  0.00     0.436 C 
ATOM     24  O   UNL     1       0.949  -1.239  -1.339  1.00  0.00    -0.205 OA
BRANCH  23  25
ATOM     25  N   UNL     1      -0.812  -0.616  -2.763  1.00  0.00    -0.246 N 
ATOM     26  C   UNL     1      -0.864  -1.802  -3.638  1.00  0.00     0.300 C 
ATOM     27  C   UNL     1       0.001   0.449  -3.383  1.00  0.00     0.300 C 
ATOM     28  C   UNL     1      -1.337  -1.402  -5.044  1.00  0.00     0.222 C 
ATOM     29  C   UNL     1      -0.515   0.749  -4.798  1.00  0.00     0.222 C 
ATOM     30  O   UNL     1      -0.485  -0.417  -5.598  1.00  0.00    -0.370 OA
ATOM     31  H   UNL     1      -1.783  -0.242  -2.649  1.00  0.00     0.358 HD
ENDBRANCH  23  25
ENDBRANCH   1  23
TORSDOF 5


