MODEL 1
REMARK VINA RESULT:      -9.9      0.000      0.000
REMARK SMILES C=Cc1ccc(N)c(-c2ccc3c(c2)[N-]C(=O)C3)c1
REMARK SMILES IDX 3 1 4 2 5 3 6 4 8 5 19 6 2 7 1 8 9 9 10 10 14 11 11 12 13 13
REMARK SMILES IDX 12 14 15 15 18 16 16 17 17 18 7 19
REMARK H PARENT 7 20 7 21
ROOT
ATOM      1  C   UNL     1      46.078 130.814  14.968  1.00  0.00    -0.025 A 
ATOM      2  C   UNL     1      44.960 131.226  14.222  1.00  0.00     0.010 A 
ATOM      3  C   UNL     1      43.801 131.659  14.867  1.00  0.00     0.027 A 
ATOM      4  C   UNL     1      43.725 131.685  16.266  1.00  0.00     0.039 A 
ATOM      5  C   UNL     1      44.829 131.238  17.027  1.00  0.00     0.005 A 
ATOM      6  C   UNL     1      45.997 130.815  16.369  1.00  0.00     0.019 A 
ENDROOT
BRANCH   1   7
ATOM      7  C   UNL     1      47.335 130.341  14.332  1.00  0.00     0.000 C 
ATOM      8  C   UNL     1      47.752 130.721  13.124  1.00  0.00     0.009 C 
ENDBRANCH   1   7
BRANCH   5   9
ATOM      9  C   UNL     1      44.788 131.178  18.506  1.00  0.00    -0.018 A 
ATOM     10  C   UNL     1      45.838 130.552  19.221  1.00  0.00     0.009 A 
ATOM     11  C   UNL     1      43.683 131.704  19.208  1.00  0.00    -0.007 A 
ATOM     12  C   UNL     1      45.797 130.470  20.621  1.00  0.00     0.003 A 
ATOM     13  C   UNL     1      43.668 131.610  20.599  1.00  0.00    -0.130 A 
ATOM     14  C   UNL     1      44.698 131.010  21.289  1.00  0.00    -0.057 A 
ATOM     15  N   UNL     1      42.640 132.089  21.450  1.00  0.00    -0.626 NA
ATOM     16  C   UNL     1      44.433 131.038  22.753  1.00  0.00     0.089 C 
ATOM     17  C   UNL     1      43.109 131.740  22.751  1.00  0.00     0.059 C 
ATOM     18  O   UNL     1      42.458 132.004  23.796  1.00  0.00    -0.320 OA
ENDBRANCH   5   9
BRANCH   4  19
ATOM     19  N   UNL     1      42.538 132.199  16.888  1.00  0.00    -0.398 N 
ATOM     20  H   UNL     1      41.865 132.809  16.377  1.00  0.00     0.156 HD
ATOM     21  H   UNL     1      42.281 131.909  17.857  1.00  0.00     0.156 HD
ENDBRANCH   4  19
TORSDOF 3
ENDMDL
MODEL 2
REMARK VINA RESULT:      -9.4      3.150      6.725
REMARK SMILES C=Cc1ccc(N)c(-c2ccc3c(c2)[N-]C(=O)C3)c1
REMARK SMILES IDX 3 1 4 2 5 3 6 4 8 5 19 6 2 7 1 8 9 9 10 10 14 11 11 12 13 13
REMARK SMILES IDX 12 14 15 15 18 16 16 17 17 18 7 19
REMARK H PARENT 7 20 7 21
ROOT
ATOM      1  C   UNL     1      43.893 131.242  21.304  1.00  0.00    -0.025 A 
ATOM      2  C   UNL     1      42.716 131.989  21.482  1.00  0.00     0.010 A 
ATOM      3  C   UNL     1      42.029 132.499  20.379  1.00  0.00     0.027 A 
ATOM      4  C   UNL     1      42.502 132.285  19.077  1.00  0.00     0.039 A 
ATOM      5  C   UNL     1      43.705 131.566  18.887  1.00  0.00     0.005 A 
ATOM      6  C   UNL     1      44.382 131.046  20.003  1.00  0.00     0.019 A 
ENDROOT
BRANCH   1   7
ATOM      7  C   UNL     1      44.663 130.679  22.443  1.00  0.00     0.000 C 
ATOM      8  C   UNL     1      44.206 129.732  23.262  1.00  0.00     0.009 C 
ENDBRANCH   1   7
BRANCH   5   9
ATOM      9  C   UNL     1      44.291 131.363  17.543  1.00  0.00    -0.018 A 
ATOM     10  C   UNL     1      43.600 131.813  16.392  1.00  0.00     0.009 A 
ATOM     11  C   UNL     1      45.517 130.681  17.398  1.00  0.00    -0.007 A 
ATOM     12  C   UNL     1      44.136 131.605  15.112  1.00  0.00     0.003 A 
ATOM     13  C   UNL     1      46.027 130.489  16.115  1.00  0.00    -0.130 A 
ATOM     14  C   UNL     1      45.356 130.940  15.000  1.00  0.00    -0.057 A 
ATOM     15  N   UNL     1      47.242 129.830  15.798  1.00  0.00    -0.626 NA
ATOM     16  C   UNL     1      46.110 130.602  13.763  1.00  0.00     0.089 C 
ATOM     17  C   UNL     1      47.287 129.903  14.373  1.00  0.00     0.059 C 
ATOM     18  O   UNL     1      48.235 129.417  13.703  1.00  0.00    -0.320 OA
ENDBRANCH   5   9
BRANCH   4  19
ATOM     19  N   UNL     1      41.731 132.772  17.969  1.00  0.00    -0.398 N 
ATOM     20  H   UNL     1      42.160 133.329  17.199  1.00  0.00     0.156 HD
ATOM     21  H   UNL     1      40.725 132.512  17.870  1.00  0.00     0.156 HD
ENDBRANCH   4  19
TORSDOF 3
ENDMDL
MODEL 3
REMARK VINA RESULT:      -8.8      3.454      6.868
REMARK SMILES C=Cc1ccc(N)c(-c2ccc3c(c2)[N-]C(=O)C3)c1
REMARK SMILES IDX 3 1 4 2 5 3 6 4 8 5 19 6 2 7 1 8 9 9 10 10 14 11 11 12 13 13
REMARK SMILES IDX 12 14 15 15 18 16 16 17 17 18 7 19
REMARK H PARENT 7 20 7 21
ROOT
ATOM      1  C   UNL     1      44.355 131.176  20.467  1.00  0.00    -0.025 A 
ATOM      2  C   UNL     1      43.014 131.591  20.399  1.00  0.00     0.010 A 
ATOM      3  C   UNL     1      42.432 131.900  19.169  1.00  0.00     0.027 A 
ATOM      4  C   UNL     1      43.171 131.812  17.982  1.00  0.00     0.039 A 
ATOM      5  C   UNL     1      44.531 131.430  18.041  1.00  0.00     0.005 A 
ATOM      6  C   UNL     1      45.106 131.109  19.283  1.00  0.00     0.019 A 
ENDROOT
BRANCH   1   7
ATOM      7  C   UNL     1      45.024 130.838  21.750  1.00  0.00     0.000 C 
ATOM      8  C   UNL     1      44.445 130.163  22.742  1.00  0.00     0.009 C 
ENDBRANCH   1   7
BRANCH   5   9
ATOM      9  C   UNL     1      45.384 131.381  16.832  1.00  0.00    -0.018 A 
ATOM     10  C   UNL     1      45.546 132.537  16.030  1.00  0.00     0.009 A 
ATOM     11  C   UNL     1      46.002 130.174  16.446  1.00  0.00    -0.007 A 
ATOM     12  C   UNL     1      46.333 132.495  14.869  1.00  0.00     0.003 A 
ATOM     13  C   UNL     1      46.779 130.160  15.289  1.00  0.00    -0.130 A 
ATOM     14  C   UNL     1      46.943 131.291  14.520  1.00  0.00    -0.057 A 
ATOM     15  N   UNL     1      47.468 129.036  14.768  1.00  0.00    -0.626 NA
ATOM     16  C   UNL     1      47.809 131.004  13.345  1.00  0.00     0.089 C 
ATOM     17  C   UNL     1      48.089 129.553  13.592  1.00  0.00     0.059 C 
ATOM     18  O   UNL     1      48.805 128.843  12.839  1.00  0.00    -0.320 OA
ENDBRANCH   5   9
BRANCH   4  19
ATOM     19  N   UNL     1      42.515 132.076  16.733  1.00  0.00    -0.398 N 
ATOM     20  H   UNL     1      42.957 131.846  15.817  1.00  0.00     0.156 HD
ATOM     21  H   UNL     1      41.538 132.442  16.716  1.00  0.00     0.156 HD
ENDBRANCH   4  19
TORSDOF 3
ENDMDL
MODEL 4
REMARK VINA RESULT:      -8.3      3.295      6.708
REMARK SMILES C=Cc1ccc(N)c(-c2ccc3c(c2)[N-]C(=O)C3)c1
REMARK SMILES IDX 3 1 4 2 5 3 6 4 8 5 19 6 2 7 1 8 9 9 10 10 14 11 11 12 13 13
REMARK SMILES IDX 12 14 15 15 18 16 16 17 17 18 7 19
REMARK H PARENT 7 20 7 21
ROOT
ATOM      1  C   UNL     1      43.876 131.601  20.801  1.00  0.00    -0.025 A 
ATOM      2  C   UNL     1      42.673 132.311  20.633  1.00  0.00     0.010 A 
ATOM      3  C   UNL     1      42.158 132.534  19.356  1.00  0.00     0.027 A 
ATOM      4  C   UNL     1      42.829 132.067  18.218  1.00  0.00     0.039 A 
ATOM      5  C   UNL     1      44.057 131.384  18.372  1.00  0.00     0.005 A 
ATOM      6  C   UNL     1      44.563 131.152  19.662  1.00  0.00     0.019 A 
ENDROOT
BRANCH   1   7
ATOM      7  C   UNL     1      44.469 131.338  22.137  1.00  0.00     0.000 C 
ATOM      8  C   UNL     1      44.211 130.256  22.872  1.00  0.00     0.009 C 
ENDBRANCH   1   7
BRANCH   5   9
ATOM      9  C   UNL     1      44.847 130.922  17.208  1.00  0.00    -0.018 A 
ATOM     10  C   UNL     1      44.994 129.537  16.954  1.00  0.00     0.009 A 
ATOM     11  C   UNL     1      45.493 131.857  16.372  1.00  0.00    -0.007 A 
ATOM     12  C   UNL     1      45.759 129.089  15.866  1.00  0.00     0.003 A 
ATOM     13  C   UNL     1      46.246 131.384  15.298  1.00  0.00    -0.130 A 
ATOM     14  C   UNL     1      46.375 130.036  15.049  1.00  0.00    -0.057 A 
ATOM     15  N   UNL     1      46.951 132.186  14.365  1.00  0.00    -0.626 NA
ATOM     16  C   UNL     1      47.231 129.803  13.854  1.00  0.00     0.089 C 
ATOM     17  C   UNL     1      47.544 131.224  13.494  1.00  0.00     0.059 C 
ATOM     18  O   UNL     1      48.265 131.553  12.516  1.00  0.00    -0.320 OA
ENDBRANCH   5   9
BRANCH   4  19
ATOM     19  N   UNL     1      42.230 132.262  16.928  1.00  0.00    -0.398 N 
ATOM     20  H   UNL     1      42.246 133.187  16.446  1.00  0.00     0.156 HD
ATOM     21  H   UNL     1      41.826 131.455  16.405  1.00  0.00     0.156 HD
ENDBRANCH   4  19
TORSDOF 3
ENDMDL
MODEL 5
REMARK VINA RESULT:      -8.2      1.247      1.853
REMARK SMILES C=Cc1ccc(N)c(-c2ccc3c(c2)[N-]C(=O)C3)c1
REMARK SMILES IDX 3 1 4 2 5 3 6 4 8 5 19 6 2 7 1 8 9 9 10 10 14 11 11 12 13 13
REMARK SMILES IDX 12 14 15 15 18 16 16 17 17 18 7 19
REMARK H PARENT 7 20 7 21
ROOT
ATOM      1  C   UNL     1      46.584 130.328  14.859  1.00  0.00    -0.025 A 
ATOM      2  C   UNL     1      45.849 130.749  13.737  1.00  0.00     0.010 A 
ATOM      3  C   UNL     1      44.622 131.394  13.898  1.00  0.00     0.027 A 
ATOM      4  C   UNL     1      44.095 131.625  15.176  1.00  0.00     0.039 A 
ATOM      5  C   UNL     1      44.807 131.174  16.311  1.00  0.00     0.005 A 
ATOM      6  C   UNL     1      46.048 130.537  16.139  1.00  0.00     0.019 A 
ENDROOT
BRANCH   1   7
ATOM      7  C   UNL     1      47.893 129.635  14.744  1.00  0.00     0.000 C 
ATOM      8  C   UNL     1      48.562 129.481  13.601  1.00  0.00     0.009 C 
ENDBRANCH   1   7
BRANCH   5   9
ATOM      9  C   UNL     1      44.274 131.330  17.683  1.00  0.00    -0.018 A 
ATOM     10  C   UNL     1      42.939 131.760  17.880  1.00  0.00     0.009 A 
ATOM     11  C   UNL     1      45.103 131.095  18.799  1.00  0.00    -0.007 A 
ATOM     12  C   UNL     1      42.431 131.933  19.177  1.00  0.00     0.003 A 
ATOM     13  C   UNL     1      44.572 131.273  20.075  1.00  0.00    -0.130 A 
ATOM     14  C   UNL     1      43.270 131.680  20.261  1.00  0.00    -0.057 A 
ATOM     15  N   UNL     1      45.267 131.077  21.296  1.00  0.00    -0.626 NA
ATOM     16  C   UNL     1      42.960 131.798  21.712  1.00  0.00     0.089 C 
ATOM     17  C   UNL     1      44.286 131.395  22.282  1.00  0.00     0.059 C 
ATOM     18  O   UNL     1      44.527 131.339  23.516  1.00  0.00    -0.320 OA
ENDBRANCH   5   9
BRANCH   4  19
ATOM     19  N   UNL     1      42.861 132.349  15.298  1.00  0.00    -0.398 N 
ATOM     20  H   UNL     1      42.030 131.947  15.783  1.00  0.00     0.156 HD
ATOM     21  H   UNL     1      42.791 133.335  14.964  1.00  0.00     0.156 HD
ENDBRANCH   4  19
TORSDOF 3
ENDMDL
MODEL 6
REMARK VINA RESULT:      -8.2      3.508      7.074
REMARK SMILES C=Cc1ccc(N)c(-c2ccc3c(c2)[N-]C(=O)C3)c1
REMARK SMILES IDX 3 1 4 2 5 3 6 4 8 5 19 6 2 7 1 8 9 9 10 10 14 11 11 12 13 13
REMARK SMILES IDX 12 14 15 15 18 16 16 17 17 18 7 19
REMARK H PARENT 7 20 7 21
ROOT
ATOM      1  C   UNL     1      42.583 132.306  20.277  1.00  0.00    -0.025 A 
ATOM      2  C   UNL     1      43.256 131.753  21.382  1.00  0.00     0.010 A 
ATOM      3  C   UNL     1      44.465 131.078  21.208  1.00  0.00     0.027 A 
ATOM      4  C   UNL     1      45.027 130.930  19.933  1.00  0.00     0.039 A 
ATOM      5  C   UNL     1      44.342 131.448  18.810  1.00  0.00     0.005 A 
ATOM      6  C   UNL     1      43.131 132.137  18.996  1.00  0.00     0.019 A 
ENDROOT
BRANCH   1   7
ATOM      7  C   UNL     1      41.293 133.031  20.407  1.00  0.00     0.000 C 
ATOM      8  C   UNL     1      40.751 133.394  21.569  1.00  0.00     0.009 C 
ENDBRANCH   1   7
BRANCH   5   9
ATOM      9  C   UNL     1      44.850 131.267  17.431  1.00  0.00    -0.018 A 
ATOM     10  C   UNL     1      44.130 131.800  16.334  1.00  0.00     0.009 A 
ATOM     11  C   UNL     1      46.027 130.527  17.199  1.00  0.00    -0.007 A 
ATOM     12  C   UNL     1      44.591 131.614  15.021  1.00  0.00     0.003 A 
ATOM     13  C   UNL     1      46.463 130.358  15.885  1.00  0.00    -0.130 A 
ATOM     14  C   UNL     1      45.765 130.889  14.823  1.00  0.00    -0.057 A 
ATOM     15  N   UNL     1      47.622 129.648  15.483  1.00  0.00    -0.626 NA
ATOM     16  C   UNL     1      46.438 130.560  13.537  1.00  0.00     0.089 C 
ATOM     17  C   UNL     1      47.602 129.775  14.062  1.00  0.00     0.059 C 
ATOM     18  O   UNL     1      48.488 129.266  13.327  1.00  0.00    -0.320 OA
ENDBRANCH   5   9
BRANCH   4  19
ATOM     19  N   UNL     1      46.303 130.285  19.806  1.00  0.00    -0.398 N 
ATOM     20  H   UNL     1      47.195 130.825  19.783  1.00  0.00     0.156 HD
ATOM     21  H   UNL     1      46.372 129.244  19.809  1.00  0.00     0.156 HD
ENDBRANCH   4  19
TORSDOF 3
ENDMDL
MODEL 7
REMARK VINA RESULT:      -8.2      2.968      6.626
REMARK SMILES C=Cc1ccc(N)c(-c2ccc3c(c2)[N-]C(=O)C3)c1
REMARK SMILES IDX 3 1 4 2 5 3 6 4 8 5 19 6 2 7 1 8 9 9 10 10 14 11 11 12 13 13
REMARK SMILES IDX 12 14 15 15 18 16 16 17 17 18 7 19
REMARK H PARENT 7 20 7 21
ROOT
ATOM      1  C   UNL     1      43.038 131.923  22.005  1.00  0.00    -0.025 A 
ATOM      2  C   UNL     1      41.869 132.659  21.742  1.00  0.00     0.010 A 
ATOM      3  C   UNL     1      41.483 132.925  20.427  1.00  0.00     0.027 A 
ATOM      4  C   UNL     1      42.255 132.476  19.348  1.00  0.00     0.039 A 
ATOM      5  C   UNL     1      43.452 131.767  19.600  1.00  0.00     0.005 A 
ATOM      6  C   UNL     1      43.826 131.493  20.927  1.00  0.00     0.019 A 
ENDROOT
BRANCH   1   7
ATOM      7  C   UNL     1      43.495 131.614  23.385  1.00  0.00     0.000 C 
ATOM      8  C   UNL     1      43.516 130.390  23.911  1.00  0.00     0.009 C 
ENDBRANCH   1   7
BRANCH   5   9
ATOM      9  C   UNL     1      44.344 131.323  18.506  1.00  0.00    -0.018 A 
ATOM     10  C   UNL     1      45.447 130.480  18.787  1.00  0.00     0.009 A 
ATOM     11  C   UNL     1      44.128 131.771  17.186  1.00  0.00    -0.007 A 
ATOM     12  C   UNL     1      46.312 130.071  17.759  1.00  0.00     0.003 A 
ATOM     13  C   UNL     1      45.002 131.350  16.185  1.00  0.00    -0.130 A 
ATOM     14  C   UNL     1      46.065 130.520  16.463  1.00  0.00    -0.057 A 
ATOM     15  N   UNL     1      44.923 131.704  14.814  1.00  0.00    -0.626 NA
ATOM     16  C   UNL     1      46.839 130.228  15.225  1.00  0.00     0.089 C 
ATOM     17  C   UNL     1      46.037 131.022  14.239  1.00  0.00     0.059 C 
ATOM     18  O   UNL     1      46.309 131.090  13.012  1.00  0.00    -0.320 OA
ENDBRANCH   5   9
BRANCH   4  19
ATOM     19  N   UNL     1      41.788 132.716  18.012  1.00  0.00    -0.398 N 
ATOM     20  H   UNL     1      40.914 133.251  17.819  1.00  0.00     0.156 HD
ATOM     21  H   UNL     1      42.360 132.420  17.191  1.00  0.00     0.156 HD
ENDBRANCH   4  19
TORSDOF 3
ENDMDL
MODEL 8
REMARK VINA RESULT:      -7.0      2.936      6.803
REMARK SMILES C=Cc1ccc(N)c(-c2ccc3c(c2)[N-]C(=O)C3)c1
REMARK SMILES IDX 3 1 4 2 5 3 6 4 8 5 19 6 2 7 1 8 9 9 10 10 14 11 11 12 13 13
REMARK SMILES IDX 12 14 15 15 18 16 16 17 17 18 7 19
REMARK H PARENT 7 20 7 21
ROOT
ATOM      1  C   UNL     1      44.084 130.574  22.670  1.00  0.00    -0.025 A 
ATOM      2  C   UNL     1      43.143 131.511  23.133  1.00  0.00     0.010 A 
ATOM      3  C   UNL     1      42.468 132.338  22.234  1.00  0.00     0.027 A 
ATOM      4  C   UNL     1      42.720 132.260  20.858  1.00  0.00     0.039 A 
ATOM      5  C   UNL     1      43.691 131.347  20.383  1.00  0.00     0.005 A 
ATOM      6  C   UNL     1      44.356 130.510  21.294  1.00  0.00     0.019 A 
ENDROOT
BRANCH   1   7
ATOM      7  C   UNL     1      44.831 129.673  23.583  1.00  0.00     0.000 C 
ATOM      8  C   UNL     1      44.336 128.547  24.097  1.00  0.00     0.009 C 
ENDBRANCH   1   7
BRANCH   5   9
ATOM      9  C   UNL     1      44.049 131.262  18.949  1.00  0.00    -0.018 A 
ATOM     10  C   UNL     1      43.160 131.757  17.965  1.00  0.00     0.009 A 
ATOM     11  C   UNL     1      45.256 130.649  18.553  1.00  0.00    -0.007 A 
ATOM     12  C   UNL     1      43.481 131.661  16.601  1.00  0.00     0.003 A 
ATOM     13  C   UNL     1      45.550 130.567  17.193  1.00  0.00    -0.130 A 
ATOM     14  C   UNL     1      44.686 131.061  16.241  1.00  0.00    -0.057 A 
ATOM     15  N   UNL     1      46.716 129.987  16.631  1.00  0.00    -0.626 NA
ATOM     16  C   UNL     1      45.233 130.842  14.874  1.00  0.00     0.089 C 
ATOM     17  C   UNL     1      46.518 130.158  15.229  1.00  0.00     0.059 C 
ATOM     18  O   UNL     1      47.357 129.763  14.377  1.00  0.00    -0.320 OA
ENDBRANCH   5   9
BRANCH   4  19
ATOM     19  N   UNL     1      41.958 133.083  19.963  1.00  0.00    -0.398 N 
ATOM     20  H   UNL     1      42.270 134.040  19.690  1.00  0.00     0.156 HD
ATOM     21  H   UNL     1      41.100 132.709  19.502  1.00  0.00     0.156 HD
ENDBRANCH   4  19
TORSDOF 3
ENDMDL


