REMARK SMILES Cc1ccc(-c2cc(O)c(F)c(C(=O)[O-])c2)c2oc[nH+]c12
REMARK SMILES IDX 6 1 7 2 8 3 10 4 11 5 12 6 16 7 5 8 2 9 3 10 21 11 4 12
REMARK SMILES IDX 20 13 17 14 19 15 18 16 1 17 9 19 13 21 14 22 15 23
REMARK H PARENT 20 18 9 20
ROOT
ATOM      1  C   UNL     1      -0.108   0.351   0.675  1.00  0.00    -0.010 A 
ATOM      2  C   UNL     1       0.403  -0.250   1.836  1.00  0.00     0.058 A 
ATOM      3  C   UNL     1       1.154   0.496   2.751  1.00  0.00     0.152 A 
ATOM      4  C   UNL     1       1.406   1.852   2.512  1.00  0.00     0.173 A 
ATOM      5  F   UNL     1       2.137   2.549   3.419  1.00  0.00    -0.202 F 
ATOM      6  C   UNL     1       0.906   2.475   1.349  1.00  0.00     0.037 A 
ATOM      7  C   UNL     1       0.152   1.712   0.439  1.00  0.00     0.022 A 
ENDROOT
BRANCH   1   8
ATOM      8  C   UNL     1      -0.904  -0.444  -0.291  1.00  0.00     0.032 A 
ATOM      9  C   UNL     1      -2.454  -1.960  -2.157  1.00  0.00     0.025 A 
ATOM     10  C   UNL     1      -1.294  -2.509  -1.571  1.00  0.00     0.011 A 
ATOM     11  C   UNL     1      -2.803  -0.660  -1.780  1.00  0.00     0.252 A 
ATOM     12  C   UNL     1      -0.528  -1.761  -0.648  1.00  0.00     0.013 A 
ATOM     13  N   UNL     1      -3.856   0.075  -2.172  1.00  0.00    -0.176 N 
ATOM     14  C   UNL     1      -2.064   0.064  -0.889  1.00  0.00     0.212 A 
ATOM     15  C   UNL     1      -3.713   1.234  -1.488  1.00  0.00     0.521 A 
ATOM     16  O   UNL     1      -2.639   1.230  -0.715  1.00  0.00    -0.403 OA
ATOM     17  C   UNL     1      -3.284  -2.740  -3.132  1.00  0.00     0.052 C 
ATOM     18  H   UNL     1      -4.615  -0.181  -2.842  1.00  0.00     0.457 HD
ENDBRANCH   1   8
BRANCH   3  19
ATOM     19  O   UNL     1       1.655  -0.102   3.906  1.00  0.00    -0.505 OA
ATOM     20  H   UNL     1       1.491  -1.081   4.110  1.00  0.00     0.293 HD
ENDBRANCH   3  19
BRANCH   6  21
ATOM     21  C   UNL     1       1.163   3.909   1.068  1.00  0.00     0.075 C 
ATOM     22  O   UNL     1       1.843   4.612   1.861  1.00  0.00    -0.545 OA
ATOM     23  O   UNL     1       0.652   4.502  -0.081  1.00  0.00    -0.545 OA
ENDBRANCH   6  21
TORSDOF 3


