REMARK SMILES C=Cc1cc(-c2cccc3[nH+]coc23)cc(OC[C@@H](O)CCn2cc(-c3cccnc3F)nn2)c1F
REMARK SMILES IDX 19 1 18 2 17 3 16 4 3 5 4 6 35 7 5 8 15 9 36 10 2 11 1 12
REMARK SMILES IDX 6 13 7 14 14 15 8 16 13 17 10 18 9 19 12 20 11 21 20 23
REMARK SMILES IDX 21 25 22 26 23 27 24 28 34 29 25 30 33 31 26 32 27 33 31 34
REMARK SMILES IDX 28 35 30 36 29 37 32 38
REMARK H PARENT 11 22 20 24
ROOT
ATOM      1  C   UNL     1       1.424  -2.103  -1.967  1.00  0.00     0.154 C 
ENDROOT
BRANCH   1   2
ATOM      2  C   UNL     1       0.145  -1.526  -1.339  1.00  0.00     0.261 C 
BRANCH   2   3
ATOM      3  O   UNL     1      -0.998  -2.139  -1.932  1.00  0.00    -0.488 OA
BRANCH   3   4
ATOM      4  C   UNL     1      -2.327  -1.831  -1.602  1.00  0.00     0.156 A 
ATOM      5  C   UNL     1      -4.701  -2.244  -1.982  1.00  0.00     0.014 A 
ATOM      6  C   UNL     1      -5.012  -1.274  -1.010  1.00  0.00     0.020 A 
ATOM      7  C   UNL     1      -3.351  -2.502  -2.279  1.00  0.00     0.172 A 
ATOM      8  C   UNL     1      -3.995  -0.590  -0.324  1.00  0.00    -0.010 A 
ATOM      9  C   UNL     1      -2.654  -0.880  -0.620  1.00  0.00     0.058 A 
ATOM     10  F   UNL     1      -3.022  -3.424  -3.222  1.00  0.00    -0.202 F 
BRANCH   5  11
ATOM     11  C   UNL     1      -5.758  -2.971  -2.731  1.00  0.00     0.003 C 
ATOM     12  C   UNL     1      -7.002  -3.142  -2.283  1.00  0.00     0.009 C 
ENDBRANCH   5  11
BRANCH   8  13
ATOM     13  C   UNL     1      -4.337   0.427   0.702  1.00  0.00     0.032 A 
ATOM     14  C   UNL     1      -5.385   0.215   1.631  1.00  0.00     0.013 A 
ATOM     15  C   UNL     1      -3.647   1.642   0.799  1.00  0.00     0.212 A 
ATOM     16  C   UNL     1      -5.698   1.191   2.604  1.00  0.00     0.008 A 
ATOM     17  O   UNL     1      -2.663   2.099   0.060  1.00  0.00    -0.403 OA
ATOM     18  C   UNL     1      -3.953   2.580   1.741  1.00  0.00     0.249 A 
ATOM     19  C   UNL     1      -4.975   2.396   2.667  1.00  0.00     0.083 A 
ATOM     20  C   UNL     1      -2.362   3.295   0.540  1.00  0.00     0.521 A 
ATOM     21  N   UNL     1      -3.143   3.637   1.592  1.00  0.00    -0.176 N 
ATOM     22  H   UNL     1      -3.122   4.520   2.149  1.00  0.00     0.457 HD
ENDBRANCH   8  13
ENDBRANCH   3   4
ENDBRANCH   2   3
ENDBRANCH   1   2
BRANCH   1  23
ATOM     23  O   UNL     1       1.363  -2.002  -3.369  1.00  0.00    -0.390 OA
ATOM     24  H   UNL     1       1.314  -1.037  -3.598  1.00  0.00     0.211 HD
ENDBRANCH   1  23
BRANCH   1  25
ATOM     25  C   UNL     1       2.702  -1.410  -1.446  1.00  0.00     0.059 C 
BRANCH  25  26
ATOM     26  C   UNL     1       3.005  -1.744   0.020  1.00  0.00     0.149 C 
BRANCH  26  27
ATOM     27  N   UNL     1       4.286  -1.165   0.408  1.00  0.00    -0.252 N 
ATOM     28  C   UNL     1       4.501   0.085   0.851  1.00  0.00     0.139 A 
ATOM     29  N   UNL     1       5.452  -1.778   0.292  1.00  0.00    -0.067 NA
ATOM     30  C   UNL     1       5.869   0.205   1.021  1.00  0.00     0.117 A 
ATOM     31  N   UNL     1       6.433  -0.970   0.665  1.00  0.00    -0.130 NA
BRANCH  30  32
ATOM     32  C   UNL     1       6.622   1.395   1.494  1.00  0.00     0.059 A 
ATOM     33  C   UNL     1       5.951   2.576   1.859  1.00  0.00     0.017 A 
ATOM     34  C   UNL     1       8.029   1.375   1.591  1.00  0.00     0.222 A 
ATOM     35  C   UNL     1       6.669   3.687   2.303  1.00  0.00     0.021 A 
ATOM     36  N   UNL     1       8.701   2.474   2.027  1.00  0.00    -0.228 NA
ATOM     37  C   UNL     1       8.058   3.617   2.380  1.00  0.00     0.114 A 
ATOM     38  F   UNL     1       8.740   0.269   1.255  1.00  0.00    -0.184 F 
ENDBRANCH  30  32
ENDBRANCH  26  27
ENDBRANCH  25  26
ENDBRANCH   1  25
TORSDOF 10


