REMARK SMILES Nc1cc(F)c[n-]/c1=N\c1c[n-]c2nccc-2c1
REMARK SMILES IDX 8 1 7 2 6 3 4 4 5 5 3 6 2 7 9 8 10 9 15 10 14 11 16 12 13 13
REMARK SMILES IDX 17 14 12 15 18 16 11 17 1 18
REMARK H PARENT 1 19 1 20
ROOT
ATOM      1  C   UNL     1      -1.226  -0.295   0.906  1.00  0.00    -0.035 A 
ATOM      2  N   UNL     1       0.024   0.185   1.168  1.00  0.00    -0.438 NA
ATOM      3  C   UNL     1       0.560   0.169   2.416  1.00  0.00     0.018 A 
ATOM      4  C   UNL     1      -0.175  -0.343   3.485  1.00  0.00     0.121 A 
ATOM      5  F   UNL     1       0.353  -0.361   4.733  1.00  0.00    -0.207 F 
ATOM      6  C   UNL     1      -1.462  -0.832   3.256  1.00  0.00     0.064 A 
ATOM      7  C   UNL     1      -2.004  -0.809   1.964  1.00  0.00     0.033 A 
ENDROOT
BRANCH   1   8
ATOM      8  N   UNL     1      -1.722  -0.244  -0.298  1.00  0.00    -0.435 NA
BRANCH   8   9
ATOM      9  C   UNL     1      -1.055   0.200  -1.492  1.00  0.00    -0.045 A 
ATOM     10  C   UNL     1       1.989   0.865  -4.745  1.00  0.00    -0.022 A 
ATOM     11  N   UNL     1       0.746   1.361  -4.983  1.00  0.00    -0.442 NA
ATOM     12  C   UNL     1       2.090   0.230  -3.505  1.00  0.00     0.003 A 
ATOM     13  C   UNL     1       0.049   1.045  -3.881  1.00  0.00    -0.052 A 
ATOM     14  C   UNL     1       0.848   0.342  -2.937  1.00  0.00    -0.027 A 
ATOM     15  N   UNL     1      -1.259   1.299  -3.655  1.00  0.00    -0.442 NA
ATOM     16  C   UNL     1       0.308  -0.099  -1.740  1.00  0.00     0.011 A 
ATOM     17  C   UNL     1      -1.819   0.881  -2.478  1.00  0.00    -0.019 A 
ENDBRANCH   8   9
ENDBRANCH   1   8
BRANCH   7  18
ATOM     18  N   UNL     1      -3.329  -1.310   1.742  1.00  0.00    -0.399 N 
ATOM     19  H   UNL     1      -3.761  -1.312   0.791  1.00  0.00     0.156 HD
ATOM     20  H   UNL     1      -3.894  -1.688   2.535  1.00  0.00     0.156 HD
ENDBRANCH   7  18
TORSDOF 3


