MODEL 1
REMARK VINA RESULT:      -7.0      0.000      0.000
REMARK SMILES S/C(=[NH+]/c1ccccc1Cl)N1CCC[C@@H](Cc2cc3ccccc3[nH]2)C1
REMARK SMILES IDX 11 1 12 2 13 3 14 4 15 5 26 6 2 7 1 8 3 10 4 12 5 13 9 14
REMARK SMILES IDX 6 15 8 16 7 17 10 18 16 19 17 20 18 21 25 22 19 23 24 24
REMARK SMILES IDX 20 25 23 26 21 27 22 28
REMARK H PARENT 1 9 3 11 25 29
ROOT
ATOM      1  N   UNL     1      44.202 132.037  19.907  1.00  0.00    -0.256 N 
ATOM      2  C   UNL     1      42.919 132.396  20.521  1.00  0.00     0.237 C 
ATOM      3  C   UNL     1      41.780 131.709  19.764  1.00  0.00     0.046 C 
ATOM      4  C   UNL     1      41.867 132.001  18.259  1.00  0.00     0.012 C 
ATOM      5  C   UNL     1      43.242 131.593  17.688  1.00  0.00     0.037 C 
ATOM      6  C   UNL     1      44.365 132.300  18.475  1.00  0.00     0.241 C 
ENDROOT
BRANCH   1   7
ATOM      7  C   UNL     1      45.113 131.158  20.592  1.00  0.00     0.308 C 
BRANCH   7   8
ATOM      8  S   UNL     1      46.274 130.182  19.631  1.00  0.00    -0.056 SA
ATOM      9  H   UNL     1      47.331 131.062  19.925  1.00  0.00     0.116 HD
ENDBRANCH   7   8
BRANCH   7  10
ATOM     10  N   UNL     1      45.081 131.015  21.888  1.00  0.00    -0.234 N 
ATOM     11  H   UNL     1      45.498 131.767  22.482  1.00  0.00     0.313 HD
BRANCH  10  12
ATOM     12  C   UNL     1      44.503 129.884  22.565  1.00  0.00     0.144 A 
ATOM     13  C   UNL     1      44.993 128.585  22.333  1.00  0.00     0.053 A 
ATOM     14  C   UNL     1      43.403 130.061  23.425  1.00  0.00     0.087 A 
ATOM     15  C   UNL     1      44.416 127.488  22.976  1.00  0.00     0.004 A 
ATOM     16  C   UNL     1      42.830 128.955  24.065  1.00  0.00     0.025 A 
ATOM     17  C   UNL     1      43.337 127.673  23.843  1.00  0.00     0.002 A 
ATOM     18  Cl  UNL     1      42.750 131.662  23.746  1.00  0.00    -0.080 Cl
ENDBRANCH  10  12
ENDBRANCH   7  10
ENDBRANCH   1   7
BRANCH   5  19
ATOM     19  C   UNL     1      43.313 131.918  16.182  1.00  0.00     0.061 C 
BRANCH  19  20
ATOM     20  C   UNL     1      44.568 131.377  15.561  1.00  0.00     0.016 A 
ATOM     21  C   UNL     1      45.324 132.029  14.590  1.00  0.00     0.031 A 
ATOM     22  N   UNL     1      45.061 130.142  15.816  1.00  0.00    -0.358 N 
ATOM     23  C   UNL     1      46.320 131.137  14.260  1.00  0.00    -0.000 A 
ATOM     24  C   UNL     1      46.132 130.010  15.017  1.00  0.00     0.046 A 
ATOM     25  C   UNL     1      47.360 131.239  13.337  1.00  0.00     0.010 A 
ATOM     26  C   UNL     1      46.973 128.903  14.905  1.00  0.00     0.026 A 
ATOM     27  C   UNL     1      48.227 130.139  13.205  1.00  0.00     0.001 A 
ATOM     28  C   UNL     1      48.036 128.977  13.984  1.00  0.00     0.002 A 
ATOM     29  H   UNL     1      44.676 129.433  16.480  1.00  0.00     0.166 HD
ENDBRANCH  19  20
ENDBRANCH   5  19
TORSDOF 6
ENDMDL
MODEL 2
REMARK VINA RESULT:      -6.7      1.094      1.492
REMARK SMILES S/C(=[NH+]/c1ccccc1Cl)N1CCC[C@@H](Cc2cc3ccccc3[nH]2)C1
REMARK SMILES IDX 11 1 12 2 13 3 14 4 15 5 26 6 2 7 1 8 3 10 4 12 5 13 9 14
REMARK SMILES IDX 6 15 8 16 7 17 10 18 16 19 17 20 18 21 25 22 19 23 24 24
REMARK SMILES IDX 20 25 23 26 21 27 22 28
REMARK H PARENT 1 9 3 11 25 29
ROOT
ATOM      1  N   UNL     1      44.359 132.028  19.926  1.00  0.00    -0.256 N 
ATOM      2  C   UNL     1      43.256 132.716  20.604  1.00  0.00     0.237 C 
ATOM      3  C   UNL     1      41.921 132.217  20.046  1.00  0.00     0.046 C 
ATOM      4  C   UNL     1      41.892 132.329  18.514  1.00  0.00     0.012 C 
ATOM      5  C   UNL     1      43.079 131.578  17.875  1.00  0.00     0.037 C 
ATOM      6  C   UNL     1      44.406 132.103  18.463  1.00  0.00     0.241 C 
ENDROOT
BRANCH   1   7
ATOM      7  C   UNL     1      45.145 131.049  20.628  1.00  0.00     0.308 C 
BRANCH   7   8
ATOM      8  S   UNL     1      46.076 129.837  19.686  1.00  0.00    -0.056 SA
ATOM      9  H   UNL     1      47.196 129.973  20.527  1.00  0.00     0.116 HD
ENDBRANCH   7   8
BRANCH   7  10
ATOM     10  N   UNL     1      45.156 130.988  21.931  1.00  0.00    -0.234 N 
ATOM     11  H   UNL     1      45.943 131.446  22.444  1.00  0.00     0.313 HD
BRANCH  10  12
ATOM     12  C   UNL     1      44.148 130.330  22.720  1.00  0.00     0.144 A 
ATOM     13  C   UNL     1      43.143 131.076  23.364  1.00  0.00     0.053 A 
ATOM     14  C   UNL     1      44.192 128.935  22.902  1.00  0.00     0.087 A 
ATOM     15  C   UNL     1      42.179 130.435  24.146  1.00  0.00     0.004 A 
ATOM     16  C   UNL     1      43.223 128.300  23.688  1.00  0.00     0.025 A 
ATOM     17  C   UNL     1      42.217 129.048  24.306  1.00  0.00     0.002 A 
ATOM     18  Cl  UNL     1      45.429 127.956  22.123  1.00  0.00    -0.080 Cl
ENDBRANCH  10  12
ENDBRANCH   7  10
ENDBRANCH   1   7
BRANCH   5  19
ATOM     19  C   UNL     1      43.041 131.724  16.341  1.00  0.00     0.061 C 
BRANCH  19  20
ATOM     20  C   UNL     1      44.331 131.284  15.714  1.00  0.00     0.016 A 
ATOM     21  C   UNL     1      45.125 132.070  14.882  1.00  0.00     0.031 A 
ATOM     22  N   UNL     1      44.828 130.028  15.818  1.00  0.00    -0.358 N 
ATOM     23  C   UNL     1      46.148 131.238  14.481  1.00  0.00    -0.000 A 
ATOM     24  C   UNL     1      45.938 130.015  15.063  1.00  0.00     0.046 A 
ATOM     25  C   UNL     1      47.230 131.475  13.635  1.00  0.00     0.010 A 
ATOM     26  C   UNL     1      46.797 128.940  14.839  1.00  0.00     0.026 A 
ATOM     27  C   UNL     1      48.116 130.410  13.393  1.00  0.00     0.001 A 
ATOM     28  C   UNL     1      47.902 129.149  13.992  1.00  0.00     0.002 A 
ATOM     29  H   UNL     1      44.420 129.230  16.356  1.00  0.00     0.166 HD
ENDBRANCH  19  20
ENDBRANCH   5  19
TORSDOF 6
ENDMDL
MODEL 3
REMARK VINA RESULT:      -6.2      2.298      7.639
REMARK SMILES S/C(=[NH+]/c1ccccc1Cl)N1CCC[C@@H](Cc2cc3ccccc3[nH]2)C1
REMARK SMILES IDX 11 1 12 2 13 3 14 4 15 5 26 6 2 7 1 8 3 10 4 12 5 13 9 14
REMARK SMILES IDX 6 15 8 16 7 17 10 18 16 19 17 20 18 21 25 22 19 23 24 24
REMARK SMILES IDX 20 25 23 26 21 27 22 28
REMARK H PARENT 1 9 3 11 25 29
ROOT
ATOM      1  N   UNL     1      43.130 131.425  19.320  1.00  0.00    -0.256 N 
ATOM      2  C   UNL     1      41.971 132.140  18.774  1.00  0.00     0.237 C 
ATOM      3  C   UNL     1      41.654 133.349  19.657  1.00  0.00     0.046 C 
ATOM      4  C   UNL     1      41.506 132.930  21.127  1.00  0.00     0.012 C 
ATOM      5  C   UNL     1      42.764 132.189  21.628  1.00  0.00     0.037 C 
ATOM      6  C   UNL     1      43.056 130.981  20.714  1.00  0.00     0.241 C 
ENDROOT
BRANCH   1   7
ATOM      7  C   UNL     1      44.396 131.469  18.638  1.00  0.00     0.308 C 
BRANCH   7   8
ATOM      8  S   UNL     1      45.883 130.996  19.526  1.00  0.00    -0.056 SA
ATOM      9  H   UNL     1      45.871 129.709  18.958  1.00  0.00     0.116 HD
ENDBRANCH   7   8
BRANCH   7  10
ATOM     10  N   UNL     1      44.496 131.891  17.407  1.00  0.00    -0.234 N 
ATOM     11  H   UNL     1      44.052 132.803  17.157  1.00  0.00     0.313 HD
BRANCH  10  12
ATOM     12  C   UNL     1      45.184 131.182  16.361  1.00  0.00     0.144 A 
ATOM     13  C   UNL     1      46.381 130.494  16.630  1.00  0.00     0.053 A 
ATOM     14  C   UNL     1      44.693 131.218  15.042  1.00  0.00     0.087 A 
ATOM     15  C   UNL     1      47.056 129.824  15.607  1.00  0.00     0.004 A 
ATOM     16  C   UNL     1      45.377 130.545  14.022  1.00  0.00     0.025 A 
ATOM     17  C   UNL     1      46.554 129.847  14.305  1.00  0.00     0.002 A 
ATOM     18  Cl  UNL     1      43.204 132.067  14.650  1.00  0.00    -0.080 Cl
ENDBRANCH  10  12
ENDBRANCH   7  10
ENDBRANCH   1   7
BRANCH   5  19
ATOM     19  C   UNL     1      42.582 131.758  23.097  1.00  0.00     0.061 C 
BRANCH  19  20
ATOM     20  C   UNL     1      42.987 130.329  23.306  1.00  0.00     0.016 A 
ATOM     21  C   UNL     1      44.293 129.849  23.236  1.00  0.00     0.031 A 
ATOM     22  N   UNL     1      42.106 129.319  23.501  1.00  0.00    -0.358 N 
ATOM     23  C   UNL     1      44.179 128.488  23.408  1.00  0.00    -0.000 A 
ATOM     24  C   UNL     1      42.848 128.201  23.565  1.00  0.00     0.046 A 
ATOM     25  C   UNL     1      45.152 127.490  23.419  1.00  0.00     0.010 A 
ATOM     26  C   UNL     1      42.396 126.894  23.743  1.00  0.00     0.026 A 
ATOM     27  C   UNL     1      44.727 126.162  23.601  1.00  0.00     0.001 A 
ATOM     28  C   UNL     1      43.355 125.864  23.764  1.00  0.00     0.002 A 
ATOM     29  H   UNL     1      41.066 129.392  23.568  1.00  0.00     0.166 HD
ENDBRANCH  19  20
ENDBRANCH   5  19
TORSDOF 6
ENDMDL
MODEL 4
REMARK VINA RESULT:      -6.1      1.205      1.927
REMARK SMILES S/C(=[NH+]/c1ccccc1Cl)N1CCC[C@@H](Cc2cc3ccccc3[nH]2)C1
REMARK SMILES IDX 11 1 12 2 13 3 14 4 15 5 26 6 2 7 1 8 3 10 4 12 5 13 9 14
REMARK SMILES IDX 6 15 8 16 7 17 10 18 16 19 17 20 18 21 25 22 19 23 24 24
REMARK SMILES IDX 20 25 23 26 21 27 22 28
REMARK H PARENT 1 9 3 11 25 29
ROOT
ATOM      1  N   UNL     1      44.223 131.868  20.073  1.00  0.00    -0.256 N 
ATOM      2  C   UNL     1      42.977 132.195  20.772  1.00  0.00     0.237 C 
ATOM      3  C   UNL     1      41.792 131.584  20.020  1.00  0.00     0.046 C 
ATOM      4  C   UNL     1      41.815 131.991  18.539  1.00  0.00     0.012 C 
ATOM      5  C   UNL     1      43.155 131.611  17.874  1.00  0.00     0.037 C 
ATOM      6  C   UNL     1      44.324 132.240  18.659  1.00  0.00     0.241 C 
ENDROOT
BRANCH   1   7
ATOM      7  C   UNL     1      45.150 130.927  20.644  1.00  0.00     0.308 C 
BRANCH   7   8
ATOM      8  S   UNL     1      46.094 129.858  19.552  1.00  0.00    -0.056 SA
ATOM      9  H   UNL     1      46.802 129.300  20.632  1.00  0.00     0.116 HD
ENDBRANCH   7   8
BRANCH   7  10
ATOM     10  N   UNL     1      45.284 130.797  21.935  1.00  0.00    -0.234 N 
ATOM     11  H   UNL     1      46.229 130.944  22.355  1.00  0.00     0.313 HD
BRANCH  10  12
ATOM     12  C   UNL     1      44.208 130.463  22.831  1.00  0.00     0.144 A 
ATOM     13  C   UNL     1      43.361 131.466  23.337  1.00  0.00     0.053 A 
ATOM     14  C   UNL     1      44.029 129.133  23.255  1.00  0.00     0.087 A 
ATOM     15  C   UNL     1      42.331 131.140  24.223  1.00  0.00     0.004 A 
ATOM     16  C   UNL     1      42.995 128.815  24.143  1.00  0.00     0.025 A 
ATOM     17  C   UNL     1      42.146 129.815  24.623  1.00  0.00     0.002 A 
ATOM     18  Cl  UNL     1      45.062 127.841  22.656  1.00  0.00    -0.080 Cl
ENDBRANCH  10  12
ENDBRANCH   7  10
ENDBRANCH   1   7
BRANCH   5  19
ATOM     19  C   UNL     1      43.162 132.051  16.396  1.00  0.00     0.061 C 
BRANCH  19  20
ATOM     20  C   UNL     1      44.323 131.461  15.652  1.00  0.00     0.016 A 
ATOM     21  C   UNL     1      44.826 130.176  15.844  1.00  0.00     0.031 A 
ATOM     22  N   UNL     1      45.075 132.151  14.761  1.00  0.00    -0.358 N 
ATOM     23  C   UNL     1      45.926 130.101  15.018  1.00  0.00    -0.000 A 
ATOM     24  C   UNL     1      46.048 131.308  14.381  1.00  0.00     0.046 A 
ATOM     25  C   UNL     1      46.829 129.061  14.803  1.00  0.00     0.010 A 
ATOM     26  C   UNL     1      47.083 131.561  13.482  1.00  0.00     0.026 A 
ATOM     27  C   UNL     1      47.883 129.285  13.898  1.00  0.00     0.001 A 
ATOM     28  C   UNL     1      48.010 130.528  13.240  1.00  0.00     0.002 A 
ATOM     29  H   UNL     1      44.938 133.140  14.452  1.00  0.00     0.166 HD
ENDBRANCH  19  20
ENDBRANCH   5  19
TORSDOF 6
ENDMDL
MODEL 5
REMARK VINA RESULT:      -5.4      3.071      4.841
REMARK SMILES S/C(=[NH+]/c1ccccc1Cl)N1CCC[C@@H](Cc2cc3ccccc3[nH]2)C1
REMARK SMILES IDX 11 1 12 2 13 3 14 4 15 5 26 6 2 7 1 8 3 10 4 12 5 13 9 14
REMARK SMILES IDX 6 15 8 16 7 17 10 18 16 19 17 20 18 21 25 22 19 23 24 24
REMARK SMILES IDX 20 25 23 26 21 27 22 28
REMARK H PARENT 1 9 3 11 25 29
ROOT
ATOM      1  N   UNL     1      44.453 128.227  23.079  1.00  0.00    -0.256 N 
ATOM      2  C   UNL     1      43.616 128.610  24.221  1.00  0.00     0.237 C 
ATOM      3  C   UNL     1      42.535 129.589  23.757  1.00  0.00     0.046 C 
ATOM      4  C   UNL     1      43.156 130.773  23.000  1.00  0.00     0.012 C 
ATOM      5  C   UNL     1      44.018 130.290  21.814  1.00  0.00     0.037 C 
ATOM      6  C   UNL     1      45.092 129.304  22.317  1.00  0.00     0.241 C 
ENDROOT
BRANCH   1   7
ATOM      7  C   UNL     1      44.368 126.900  22.530  1.00  0.00     0.308 C 
BRANCH   7   8
ATOM      8  S   UNL     1      42.847 125.967  22.731  1.00  0.00    -0.056 SA
ATOM      9  H   UNL     1      43.341 125.319  23.879  1.00  0.00     0.116 HD
ENDBRANCH   7   8
BRANCH   7  10
ATOM     10  N   UNL     1      45.385 126.340  21.934  1.00  0.00    -0.234 N 
ATOM     11  H   UNL     1      45.396 126.312  20.889  1.00  0.00     0.313 HD
BRANCH  10  12
ATOM     12  C   UNL     1      46.505 125.755  22.622  1.00  0.00     0.144 A 
ATOM     13  C   UNL     1      47.789 125.775  22.046  1.00  0.00     0.053 A 
ATOM     14  C   UNL     1      46.315 125.105  23.856  1.00  0.00     0.087 A 
ATOM     15  C   UNL     1      48.869 125.188  22.708  1.00  0.00     0.004 A 
ATOM     16  C   UNL     1      47.403 124.517  24.512  1.00  0.00     0.025 A 
ATOM     17  C   UNL     1      48.678 124.561  23.941  1.00  0.00     0.002 A 
ATOM     18  Cl  UNL     1      44.730 125.047  24.618  1.00  0.00    -0.080 Cl
ENDBRANCH  10  12
ENDBRANCH   7  10
ENDBRANCH   1   7
BRANCH   5  19
ATOM     19  C   UNL     1      44.648 131.493  21.087  1.00  0.00     0.061 C 
BRANCH  19  20
ATOM     20  C   UNL     1      44.771 131.243  19.612  1.00  0.00     0.016 A 
ATOM     21  C   UNL     1      45.844 130.603  18.996  1.00  0.00     0.031 A 
ATOM     22  N   UNL     1      43.881 131.695  18.696  1.00  0.00    -0.358 N 
ATOM     23  C   UNL     1      45.570 130.673  17.648  1.00  0.00    -0.000 A 
ATOM     24  C   UNL     1      44.380 131.337  17.502  1.00  0.00     0.046 A 
ATOM     25  C   UNL     1      46.295 130.212  16.550  1.00  0.00     0.010 A 
ATOM     26  C   UNL     1      43.831 131.589  16.246  1.00  0.00     0.026 A 
ATOM     27  C   UNL     1      45.764 130.448  15.269  1.00  0.00     0.001 A 
ATOM     28  C   UNL     1      44.537 131.132  15.117  1.00  0.00     0.002 A 
ATOM     29  H   UNL     1      43.002 132.229  18.880  1.00  0.00     0.166 HD
ENDBRANCH  19  20
ENDBRANCH   5  19
TORSDOF 6
ENDMDL
MODEL 6
REMARK VINA RESULT:      -5.3      1.385      1.887
REMARK SMILES S/C(=[NH+]/c1ccccc1Cl)N1CCC[C@@H](Cc2cc3ccccc3[nH]2)C1
REMARK SMILES IDX 11 1 12 2 13 3 14 4 15 5 26 6 2 7 1 8 3 10 4 12 5 13 9 14
REMARK SMILES IDX 6 15 8 16 7 17 10 18 16 19 17 20 18 21 25 22 19 23 24 24
REMARK SMILES IDX 20 25 23 26 21 27 22 28
REMARK H PARENT 1 9 3 11 25 29
ROOT
ATOM      1  N   UNL     1      45.764 130.429  20.619  1.00  0.00    -0.256 N 
ATOM      2  C   UNL     1      46.419 131.694  20.963  1.00  0.00     0.237 C 
ATOM      3  C   UNL     1      45.460 132.857  20.695  1.00  0.00     0.046 C 
ATOM      4  C   UNL     1      44.912 132.795  19.262  1.00  0.00     0.012 C 
ATOM      5  C   UNL     1      44.236 131.437  18.978  1.00  0.00     0.037 C 
ATOM      6  C   UNL     1      45.228 130.291  19.262  1.00  0.00     0.241 C 
ENDROOT
BRANCH   1   7
ATOM      7  C   UNL     1      45.360 129.515  21.655  1.00  0.00     0.308 C 
BRANCH   7   8
ATOM      8  S   UNL     1      45.688 127.762  21.450  1.00  0.00    -0.056 SA
ATOM      9  H   UNL     1      46.010 127.614  22.812  1.00  0.00     0.116 HD
ENDBRANCH   7   8
BRANCH   7  10
ATOM     10  N   UNL     1      44.717 129.924  22.714  1.00  0.00    -0.234 N 
ATOM     11  H   UNL     1      44.995 130.834  23.145  1.00  0.00     0.313 HD
BRANCH  10  12
ATOM     12  C   UNL     1      43.637 129.202  23.334  1.00  0.00     0.144 A 
ATOM     13  C   UNL     1      43.713 127.807  23.503  1.00  0.00     0.053 A 
ATOM     14  C   UNL     1      42.468 129.879  23.728  1.00  0.00     0.087 A 
ATOM     15  C   UNL     1      42.654 127.107  24.087  1.00  0.00     0.004 A 
ATOM     16  C   UNL     1      41.411 129.171  24.312  1.00  0.00     0.025 A 
ATOM     17  C   UNL     1      41.506 127.789  24.494  1.00  0.00     0.002 A 
ATOM     18  Cl  UNL     1      42.320 131.622  23.536  1.00  0.00    -0.080 Cl
ENDBRANCH  10  12
ENDBRANCH   7  10
ENDBRANCH   1   7
BRANCH   5  19
ATOM     19  C   UNL     1      43.716 131.392  17.527  1.00  0.00     0.061 C 
BRANCH  19  20
ATOM     20  C   UNL     1      44.821 131.100  16.555  1.00  0.00     0.016 A 
ATOM     21  C   UNL     1      45.383 132.028  15.681  1.00  0.00     0.031 A 
ATOM     22  N   UNL     1      45.341 129.866  16.356  1.00  0.00    -0.358 N 
ATOM     23  C   UNL     1      46.287 131.307  14.934  1.00  0.00    -0.000 A 
ATOM     24  C   UNL     1      46.237 130.008  15.365  1.00  0.00     0.046 A 
ATOM     25  C   UNL     1      47.131 131.707  13.898  1.00  0.00     0.010 A 
ATOM     26  C   UNL     1      47.027 129.014  14.791  1.00  0.00     0.026 A 
ATOM     27  C   UNL     1      47.944 130.726  13.301  1.00  0.00     0.001 A 
ATOM     28  C   UNL     1      47.894 129.386  13.745  1.00  0.00     0.002 A 
ATOM     29  H   UNL     1      45.084 128.984  16.854  1.00  0.00     0.166 HD
ENDBRANCH  19  20
ENDBRANCH   5  19
TORSDOF 6
ENDMDL
MODEL 7
REMARK VINA RESULT:      -4.4      5.879      9.195
REMARK SMILES S/C(=[NH+]/c1ccccc1Cl)N1CCC[C@@H](Cc2cc3ccccc3[nH]2)C1
REMARK SMILES IDX 11 1 12 2 13 3 14 4 15 5 26 6 2 7 1 8 3 10 4 12 5 13 9 14
REMARK SMILES IDX 6 15 8 16 7 17 10 18 16 19 17 20 18 21 25 22 19 23 24 24
REMARK SMILES IDX 20 25 23 26 21 27 22 28
REMARK H PARENT 1 9 3 11 25 29
ROOT
ATOM      1  N   UNL     1      46.690 123.754  23.172  1.00  0.00    -0.256 N 
ATOM      2  C   UNL     1      45.670 122.818  22.690  1.00  0.00     0.237 C 
ATOM      3  C   UNL     1      44.587 123.589  21.930  1.00  0.00     0.046 C 
ATOM      4  C   UNL     1      44.038 124.744  22.779  1.00  0.00     0.012 C 
ATOM      5  C   UNL     1      45.170 125.685  23.245  1.00  0.00     0.037 C 
ATOM      6  C   UNL     1      46.243 124.876  24.003  1.00  0.00     0.241 C 
ENDROOT
BRANCH   1   7
ATOM      7  C   UNL     1      48.000 123.769  22.576  1.00  0.00     0.308 C 
BRANCH   7   8
ATOM      8  S   UNL     1      48.749 125.345  22.153  1.00  0.00    -0.056 SA
ATOM      9  H   UNL     1      48.909 125.688  23.508  1.00  0.00     0.116 HD
ENDBRANCH   7   8
BRANCH   7  10
ATOM     10  N   UNL     1      48.634 122.665  22.290  1.00  0.00    -0.234 N 
ATOM     11  H   UNL     1      48.073 121.806  22.094  1.00  0.00     0.313 HD
BRANCH  10  12
ATOM     12  C   UNL     1      50.066 122.548  22.222  1.00  0.00     0.144 A 
ATOM     13  C   UNL     1      50.834 122.469  23.399  1.00  0.00     0.053 A 
ATOM     14  C   UNL     1      50.719 122.569  20.975  1.00  0.00     0.087 A 
ATOM     15  C   UNL     1      52.227 122.376  23.329  1.00  0.00     0.004 A 
ATOM     16  C   UNL     1      52.115 122.476  20.914  1.00  0.00     0.025 A 
ATOM     17  C   UNL     1      52.866 122.377  22.088  1.00  0.00     0.002 A 
ATOM     18  Cl  UNL     1      49.807 122.670  19.475  1.00  0.00    -0.080 Cl
ENDBRANCH  10  12
ENDBRANCH   7  10
ENDBRANCH   1   7
BRANCH   5  19
ATOM     19  C   UNL     1      44.597 126.821  24.114  1.00  0.00     0.061 C 
BRANCH  19  20
ATOM     20  C   UNL     1      44.343 128.059  23.305  1.00  0.00     0.016 A 
ATOM     21  C   UNL     1      45.236 128.615  22.393  1.00  0.00     0.031 A 
ATOM     22  N   UNL     1      43.237 128.830  23.438  1.00  0.00    -0.358 N 
ATOM     23  C   UNL     1      44.624 129.770  21.958  1.00  0.00    -0.000 A 
ATOM     24  C   UNL     1      43.421 129.869  22.608  1.00  0.00     0.046 A 
ATOM     25  C   UNL     1      45.053 130.739  21.052  1.00  0.00     0.010 A 
ATOM     26  C   UNL     1      42.562 130.947  22.398  1.00  0.00     0.026 A 
ATOM     27  C   UNL     1      44.205 131.836  20.817  1.00  0.00     0.001 A 
ATOM     28  C   UNL     1      42.965 131.941  21.485  1.00  0.00     0.002 A 
ATOM     29  H   UNL     1      42.422 128.662  24.070  1.00  0.00     0.166 HD
ENDBRANCH  19  20
ENDBRANCH   5  19
TORSDOF 6
ENDMDL
MODEL 8
REMARK VINA RESULT:      -4.4      3.891      7.641
REMARK SMILES S/C(=[NH+]/c1ccccc1Cl)N1CCC[C@@H](Cc2cc3ccccc3[nH]2)C1
REMARK SMILES IDX 11 1 12 2 13 3 14 4 15 5 26 6 2 7 1 8 3 10 4 12 5 13 9 14
REMARK SMILES IDX 6 15 8 16 7 17 10 18 16 19 17 20 18 21 25 22 19 23 24 24
REMARK SMILES IDX 20 25 23 26 21 27 22 28
REMARK H PARENT 1 9 3 11 25 29
ROOT
ATOM      1  N   UNL     1      44.118 131.376  17.996  1.00  0.00    -0.256 N 
ATOM      2  C   UNL     1      42.730 131.553  18.437  1.00  0.00     0.237 C 
ATOM      3  C   UNL     1      42.659 132.695  19.455  1.00  0.00     0.046 C 
ATOM      4  C   UNL     1      43.664 132.476  20.595  1.00  0.00     0.012 C 
ATOM      5  C   UNL     1      45.098 132.302  20.052  1.00  0.00     0.037 C 
ATOM      6  C   UNL     1      45.133 131.149  19.029  1.00  0.00     0.241 C 
ENDROOT
BRANCH   1   7
ATOM      7  C   UNL     1      44.509 131.754  16.664  1.00  0.00     0.308 C 
BRANCH   7   8
ATOM      8  S   UNL     1      43.266 131.805  15.370  1.00  0.00    -0.056 SA
ATOM      9  H   UNL     1      42.233 132.005  16.304  1.00  0.00     0.116 HD
ENDBRANCH   7   8
BRANCH   7  10
ATOM     10  N   UNL     1      45.753 132.010  16.364  1.00  0.00    -0.234 N 
ATOM     11  H   UNL     1      46.248 132.763  16.893  1.00  0.00     0.313 HD
BRANCH  10  12
ATOM     12  C   UNL     1      46.498 131.320  15.345  1.00  0.00     0.144 A 
ATOM     13  C   UNL     1      46.983 132.012  14.219  1.00  0.00     0.053 A 
ATOM     14  C   UNL     1      46.702 129.930  15.437  1.00  0.00     0.087 A 
ATOM     15  C   UNL     1      47.689 131.334  13.223  1.00  0.00     0.004 A 
ATOM     16  C   UNL     1      47.410 129.258  14.433  1.00  0.00     0.025 A 
ATOM     17  C   UNL     1      47.905 129.959  13.330  1.00  0.00     0.002 A 
ATOM     18  Cl  UNL     1      46.114 129.016  16.820  1.00  0.00    -0.080 Cl
ENDBRANCH  10  12
ENDBRANCH   7  10
ENDBRANCH   1   7
BRANCH   5  19
ATOM     19  C   UNL     1      46.084 132.061  21.212  1.00  0.00     0.061 C 
BRANCH  19  20
ATOM     20  C   UNL     1      46.996 133.236  21.413  1.00  0.00     0.016 A 
ATOM     21  C   UNL     1      46.876 134.462  20.762  1.00  0.00     0.031 A 
ATOM     22  N   UNL     1      48.101 133.205  22.195  1.00  0.00    -0.358 N 
ATOM     23  C   UNL     1      47.961 135.195  21.187  1.00  0.00    -0.000 A 
ATOM     24  C   UNL     1      48.679 134.408  22.049  1.00  0.00     0.046 A 
ATOM     25  C   UNL     1      48.367 136.488  20.859  1.00  0.00     0.010 A 
ATOM     26  C   UNL     1      49.857 134.859  22.645  1.00  0.00     0.026 A 
ATOM     27  C   UNL     1      49.550 136.972  21.448  1.00  0.00     0.001 A 
ATOM     28  C   UNL     1      50.291 136.162  22.337  1.00  0.00     0.002 A 
ATOM     29  H   UNL     1      48.444 132.405  22.773  1.00  0.00     0.166 HD
ENDBRANCH  19  20
ENDBRANCH   5  19
TORSDOF 6
ENDMDL
MODEL 9
REMARK VINA RESULT:      -4.2      4.954      8.464
REMARK SMILES S/C(=[NH+]/c1ccccc1Cl)N1CCC[C@@H](Cc2cc3ccccc3[nH]2)C1
REMARK SMILES IDX 11 1 12 2 13 3 14 4 15 5 26 6 2 7 1 8 3 10 4 12 5 13 9 14
REMARK SMILES IDX 6 15 8 16 7 17 10 18 16 19 17 20 18 21 25 22 19 23 24 24
REMARK SMILES IDX 20 25 23 26 21 27 22 28
REMARK H PARENT 1 9 3 11 25 29
ROOT
ATOM      1  N   UNL     1      46.278 125.049  24.114  1.00  0.00    -0.256 N 
ATOM      2  C   UNL     1      45.361 123.926  24.337  1.00  0.00     0.237 C 
ATOM      3  C   UNL     1      43.983 124.272  23.769  1.00  0.00     0.046 C 
ATOM      4  C   UNL     1      43.485 125.617  24.318  1.00  0.00     0.012 C 
ATOM      5  C   UNL     1      44.501 126.746  24.043  1.00  0.00     0.037 C 
ATOM      6  C   UNL     1      45.877 126.363  24.624  1.00  0.00     0.241 C 
ENDROOT
BRANCH   1   7
ATOM      7  C   UNL     1      47.340 124.938  23.148  1.00  0.00     0.308 C 
BRANCH   7   8
ATOM      8  S   UNL     1      47.306 125.985  21.690  1.00  0.00    -0.056 SA
ATOM      9  H   UNL     1      48.486 125.405  21.188  1.00  0.00     0.116 HD
ENDBRANCH   7   8
BRANCH   7  10
ATOM     10  N   UNL     1      48.296 124.061  23.281  1.00  0.00    -0.234 N 
ATOM     11  H   UNL     1      48.182 123.303  23.991  1.00  0.00     0.313 HD
BRANCH  10  12
ATOM     12  C   UNL     1      49.511 124.064  22.509  1.00  0.00     0.144 A 
ATOM     13  C   UNL     1      50.626 124.811  22.933  1.00  0.00     0.053 A 
ATOM     14  C   UNL     1      49.575 123.364  21.290  1.00  0.00     0.087 A 
ATOM     15  C   UNL     1      51.796 124.827  22.170  1.00  0.00     0.004 A 
ATOM     16  C   UNL     1      50.751 123.386  20.531  1.00  0.00     0.025 A 
ATOM     17  C   UNL     1      51.860 124.113  20.971  1.00  0.00     0.002 A 
ATOM     18  Cl  UNL     1      48.208 122.419  20.713  1.00  0.00    -0.080 Cl
ENDBRANCH  10  12
ENDBRANCH   7  10
ENDBRANCH   1   7
BRANCH   5  19
ATOM     19  C   UNL     1      43.990 128.079  24.624  1.00  0.00     0.061 C 
BRANCH  19  20
ATOM     20  C   UNL     1      43.947 129.155  23.579  1.00  0.00     0.016 A 
ATOM     21  C   UNL     1      42.893 130.046  23.393  1.00  0.00     0.031 A 
ATOM     22  N   UNL     1      44.902 129.324  22.634  1.00  0.00    -0.358 N 
ATOM     23  C   UNL     1      43.248 130.785  22.286  1.00  0.00    -0.000 A 
ATOM     24  C   UNL     1      44.463 130.324  21.853  1.00  0.00     0.046 A 
ATOM     25  C   UNL     1      42.574 131.814  21.629  1.00  0.00     0.010 A 
ATOM     26  C   UNL     1      45.093 130.860  20.730  1.00  0.00     0.026 A 
ATOM     27  C   UNL     1      43.187 132.377  20.494  1.00  0.00     0.001 A 
ATOM     28  C   UNL     1      44.440 131.904  20.047  1.00  0.00     0.002 A 
ATOM     29  H   UNL     1      45.785 128.776  22.523  1.00  0.00     0.166 HD
ENDBRANCH  19  20
ENDBRANCH   5  19
TORSDOF 6
ENDMDL


