REMARK SMILES C=Cc1cccc(-c2ccc3c(c2)[C@@H](N)CC3)c1
REMARK SMILES IDX 8 1 9 2 10 3 11 4 12 5 13 6 14 7 16 8 17 9 7 10 3 11 4 12
REMARK SMILES IDX 18 13 5 14 6 15 2 16 1 17 15 18
REMARK H PARENT 15 19 15 20
ROOT
ATOM      1  C   UNL     1       0.138   1.056  -0.684  1.00  0.00    -0.018 A 
ATOM      2  C   UNL     1       0.267   2.293  -1.359  1.00  0.00     0.009 A 
ATOM      3  C   UNL     1      -0.123   3.489  -0.739  1.00  0.00     0.005 A 
ATOM      4  C   UNL     1      -0.643   3.438   0.554  1.00  0.00    -0.043 A 
ATOM      5  C   UNL     1      -0.769   2.247   1.221  1.00  0.00    -0.027 A 
ATOM      6  C   UNL     1      -0.389   1.041   0.625  1.00  0.00     0.014 A 
ATOM      7  C   UNL     1      -1.336   2.427   2.581  1.00  0.00     0.081 C 
ATOM      8  C   UNL     1      -1.667   3.939   2.647  1.00  0.00     0.028 C 
ATOM      9  C   UNL     1      -1.101   4.588   1.369  1.00  0.00     0.038 C 
ENDROOT
BRANCH   1  10
ATOM     10  C   UNL     1       0.553  -0.209  -1.342  1.00  0.00    -0.018 A 
ATOM     11  C   UNL     1       1.627  -2.409  -1.231  1.00  0.00    -0.026 A 
ATOM     12  C   UNL     1       1.349  -2.595  -2.594  1.00  0.00     0.008 A 
ATOM     13  C   UNL     1       1.235  -1.203  -0.614  1.00  0.00     0.016 A 
ATOM     14  C   UNL     1       0.673  -1.614  -3.321  1.00  0.00     0.001 A 
ATOM     15  C   UNL     1       0.274  -0.430  -2.702  1.00  0.00     0.009 A 
BRANCH  11  16
ATOM     16  C   UNL     1       2.355  -3.478  -0.504  1.00  0.00     0.000 C 
ATOM     17  C   UNL     1       2.375  -3.600   0.824  1.00  0.00     0.009 C 
ENDBRANCH  11  16
ENDBRANCH   1  10
BRANCH   7  18
ATOM     18  N   UNL     1      -0.355   2.035   3.596  1.00  0.00    -0.324 NA
ATOM     19  H   UNL     1       0.479   2.665   3.537  1.00  0.00     0.119 HD
ATOM     20  H   UNL     1      -0.786   2.174   4.539  1.00  0.00     0.119 HD
ENDBRANCH   7  18
TORSDOF 3


