REMARK SMILES c1cc2cc(-c3ncc4c(n3)CCCC4)ccc2[nH]1
REMARK SMILES IDX 1 1 2 2 3 3 4 4 5 5 16 6 17 7 18 8 19 9 6 11 7 12 11 13 8 14
REMARK SMILES IDX 10 15 9 16 12 17 15 18 13 19 14 20
REMARK H PARENT 19 10
ROOT
ATOM      1  C   UNL     1      -1.700  -5.674   1.108  1.00  0.00     0.083 A 
ATOM      2  C   UNL     1      -2.238  -4.399   0.964  1.00  0.00     0.028 A 
ATOM      3  C   UNL     1      -1.151  -3.560   0.852  1.00  0.00     0.000 A 
ATOM      4  C   UNL     1      -1.085  -2.179   0.689  1.00  0.00     0.022 A 
ATOM      5  C   UNL     1       0.193  -1.574   0.602  1.00  0.00     0.020 A 
ATOM      6  C   UNL     1       1.355  -2.390   0.685  1.00  0.00     0.014 A 
ATOM      7  C   UNL     1       1.248  -3.783   0.851  1.00  0.00     0.027 A 
ATOM      8  C   UNL     1      -0.027  -4.335   0.930  1.00  0.00     0.045 A 
ATOM      9  N   UNL     1      -0.348  -5.629   1.087  1.00  0.00    -0.361 N 
ATOM     10  H   UNL     1       0.307  -6.438   1.175  1.00  0.00     0.166 HD
ENDROOT
BRANCH   5  11
ATOM     11  C   UNL     1       0.316  -0.106   0.428  1.00  0.00     0.159 A 
ATOM     12  N   UNL     1       1.542   0.477   0.345  1.00  0.00    -0.236 NA
ATOM     13  N   UNL     1      -0.798   0.672   0.350  1.00  0.00    -0.233 NA
ATOM     14  C   UNL     1       1.679   1.818   0.192  1.00  0.00     0.119 A 
ATOM     15  C   UNL     1      -0.718   2.019   0.183  1.00  0.00     0.048 A 
ATOM     16  C   UNL     1       0.547   2.636   0.123  1.00  0.00    -0.008 A 
ATOM     17  C   UNL     1      -1.992   2.824   0.172  1.00  0.00     0.056 C 
ATOM     18  C   UNL     1       0.702   4.117  -0.124  1.00  0.00     0.039 C 
ATOM     19  C   UNL     1      -1.795   4.223  -0.423  1.00  0.00     0.007 C 
ATOM     20  C   UNL     1      -0.574   4.902   0.201  1.00  0.00     0.005 C 
ENDBRANCH   5  11
TORSDOF 1


