REMARK SMILES C[N-]S(=O)(=O)c1ccc([N-]C(=O)N(N)c2ccccc2-c2nc3ccccc3[nH]2)cc1
REMARK SMILES IDX 10 1 9 2 6 3 7 4 31 5 8 6 30 7 3 8 4 9 5 10 2 11 1 12 11 13
REMARK SMILES IDX 12 14 13 15 14 16 15 19 16 20 20 21 17 22 19 23 18 24 21 25
REMARK SMILES IDX 22 26 29 27 23 28 28 29 24 30 27 31 25 32 26 33
REMARK H PARENT 14 17 14 18 29 34
ROOT
ATOM      1  N   UNL     1       0.791   0.860   0.067  1.00  0.00    -0.400 NA
ENDROOT
BRANCH   1   2
ATOM      2  C   UNL     1      -0.205   0.208  -0.731  1.00  0.00    -0.039 A 
ATOM      3  C   UNL     1      -2.225  -1.019  -2.255  1.00  0.00     0.048 A 
ATOM      4  C   UNL     1      -0.877  -1.241  -2.564  1.00  0.00     0.019 A 
ATOM      5  C   UNL     1      -2.560  -0.174  -1.188  1.00  0.00     0.019 A 
ATOM      6  C   UNL     1       0.129  -0.626  -1.813  1.00  0.00     0.005 A 
ATOM      7  C   UNL     1      -1.554   0.443  -0.439  1.00  0.00     0.005 A 
BRANCH   3   8
ATOM      8  S   UNL     1      -3.484  -1.824  -3.188  1.00  0.00     0.101 S 
ATOM      9  O   UNL     1      -4.805  -1.137  -2.977  1.00  0.00    -0.244 OA
ATOM     10  O   UNL     1      -3.137  -1.746  -4.648  1.00  0.00    -0.244 OA
BRANCH   8  11
ATOM     11  N   UNL     1      -3.610  -3.492  -2.721  1.00  0.00    -0.547 NA
ATOM     12  C   UNL     1      -3.937  -3.583  -1.302  1.00  0.00    -0.153 C 
ENDBRANCH   8  11
ENDBRANCH   3   8
ENDBRANCH   1   2
BRANCH   1  13
ATOM     13  C   UNL     1       2.108   0.376   0.366  1.00  0.00     0.173 C 
ATOM     14  O   UNL     1       2.472  -0.767  -0.022  1.00  0.00    -0.297 OA
BRANCH  13  15
ATOM     15  N   UNL     1       2.999   1.166   1.172  1.00  0.00    -0.358 N 
BRANCH  15  16
ATOM     16  N   UNL     1       4.323   0.723   1.348  1.00  0.00    -0.312 NA
ATOM     17  H   UNL     1       4.642   1.011   2.301  1.00  0.00     0.122 HD
ATOM     18  H   UNL     1       4.920   1.215   0.646  1.00  0.00     0.122 HD
ENDBRANCH  15  16
BRANCH  15  19
ATOM     19  C   UNL     1       2.601   2.462   1.666  1.00  0.00    -0.015 A 
ATOM     20  C   UNL     1       3.320   3.597   1.256  1.00  0.00     0.005 A 
ATOM     21  C   UNL     1       1.488   2.620   2.532  1.00  0.00     0.022 A 
ATOM     22  C   UNL     1       2.933   4.872   1.671  1.00  0.00     0.000 A 
ATOM     23  C   UNL     1       1.105   3.913   2.929  1.00  0.00     0.012 A 
ATOM     24  C   UNL     1       1.824   5.030   2.501  1.00  0.00     0.001 A 
BRANCH  21  25
ATOM     25  C   UNL     1       0.724   1.459   3.042  1.00  0.00     0.138 A 
ATOM     26  N   UNL     1       1.295   0.255   3.322  1.00  0.00    -0.229 NA
ATOM     27  N   UNL     1      -0.621   1.476   3.228  1.00  0.00    -0.338 N 
ATOM     28  C   UNL     1       0.242  -0.498   3.688  1.00  0.00     0.089 A 
ATOM     29  C   UNL     1      -0.907   0.231   3.628  1.00  0.00     0.066 A 
ATOM     30  C   UNL     1       0.242  -1.840   4.059  1.00  0.00     0.030 A 
ATOM     31  C   UNL     1      -2.151  -0.318   3.927  1.00  0.00     0.028 A 
ATOM     32  C   UNL     1      -0.997  -2.431   4.374  1.00  0.00     0.002 A 
ATOM     33  C   UNL     1      -2.189  -1.673   4.308  1.00  0.00     0.002 A 
ATOM     34  H   UNL     1      -1.290   2.258   3.053  1.00  0.00     0.168 HD
ENDBRANCH  21  25
ENDBRANCH  15  19
ENDBRANCH  13  15
ENDBRANCH   1  13
TORSDOF 8


