REMARK SMILES CO[C@@H](C)CCOC(=O)N(c1ccc2cc[nH]c2c1)c1cc(F)c(O)cc1N
REMARK SMILES IDX 7 1 6 2 5 3 3 4 4 5 2 6 1 7 8 8 9 9 10 10 11 11 12 12 19 13
REMARK SMILES IDX 13 14 18 15 14 16 17 17 15 18 16 19 20 21 21 22 27 23 22 24
REMARK SMILES IDX 26 25 24 26 23 27 28 28 25 31
REMARK H PARENT 17 20 28 29 28 30 25 32
ROOT
ATOM      1  O   UNL     1      -0.798   1.705   0.606  1.00  0.00    -0.449 OA
ENDROOT
BRANCH   1   2
ATOM      2  C   UNL     1      -1.739   2.743   0.356  1.00  0.00     0.237 C 
BRANCH   2   3
ATOM      3  C   UNL     1      -1.018   4.053   0.016  1.00  0.00     0.073 C 
BRANCH   3   4
ATOM      4  C   UNL     1      -0.032   3.964  -1.174  1.00  0.00     0.118 C 
ATOM      5  C   UNL     1      -0.729   3.518  -2.461  1.00  0.00     0.038 C 
BRANCH   4   6
ATOM      6  O   UNL     1       1.018   3.054  -0.888  1.00  0.00    -0.382 OA
ATOM      7  C   UNL     1       2.143   3.730  -0.372  1.00  0.00     0.195 C 
ENDBRANCH   4   6
ENDBRANCH   3   4
ENDBRANCH   2   3
ENDBRANCH   1   2
BRANCH   1   8
ATOM      8  C   UNL     1      -1.175   0.403   0.948  1.00  0.00     0.419 C 
ATOM      9  O   UNL     1      -2.391   0.127   1.149  1.00  0.00    -0.224 OA
BRANCH   8  10
ATOM     10  N   UNL     1      -0.174  -0.627   1.034  1.00  0.00    -0.244 N 
BRANCH  10  11
ATOM     11  C   UNL     1      -0.434  -1.875   1.709  1.00  0.00     0.055 A 
ATOM     12  C   UNL     1      -1.131  -1.894   2.948  1.00  0.00     0.027 A 
ATOM     13  C   UNL     1       0.033  -3.089   1.155  1.00  0.00     0.053 A 
ATOM     14  C   UNL     1      -1.372  -3.106   3.619  1.00  0.00     0.012 A 
ATOM     15  C   UNL     1      -0.223  -4.271   1.847  1.00  0.00     0.047 A 
ATOM     16  C   UNL     1      -0.902  -4.277   3.035  1.00  0.00    -0.000 A 
ATOM     17  N   UNL     1       0.128  -5.517   1.492  1.00  0.00    -0.361 N 
ATOM     18  C   UNL     1      -0.986  -5.587   3.455  1.00  0.00     0.028 A 
ATOM     19  C   UNL     1      -0.336  -6.326   2.472  1.00  0.00     0.083 A 
ATOM     20  H   UNL     1       0.653  -5.807   0.636  1.00  0.00     0.166 HD
ENDBRANCH  10  11
BRANCH  10  21
ATOM     21  C   UNL     1       1.133  -0.381   0.486  1.00  0.00     0.078 A 
ATOM     22  C   UNL     1       2.240  -0.335   1.348  1.00  0.00     0.072 A 
ATOM     23  C   UNL     1       1.322  -0.176  -0.900  1.00  0.00     0.060 A 
ATOM     24  C   UNL     1       3.517  -0.069   0.850  1.00  0.00     0.167 A 
ATOM     25  C   UNL     1       2.609   0.097  -1.389  1.00  0.00     0.077 A 
ATOM     26  C   UNL     1       3.705   0.152  -0.517  1.00  0.00     0.153 A 
ATOM     27  F   UNL     1       4.573  -0.019   1.699  1.00  0.00    -0.203 F 
BRANCH  23  28
ATOM     28  N   UNL     1       0.229  -0.272  -1.822  1.00  0.00    -0.397 N 
ATOM     29  H   UNL     1      -0.716  -0.596  -1.522  1.00  0.00     0.156 HD
ATOM     30  H   UNL     1       0.370  -0.063  -2.836  1.00  0.00     0.156 HD
ENDBRANCH  23  28
BRANCH  26  31
ATOM     31  O   UNL     1       4.982   0.425  -1.003  1.00  0.00    -0.505 OA
ATOM     32  H   UNL     1       5.150   0.592  -1.988  1.00  0.00     0.293 HD
ENDBRANCH  26  31
ENDBRANCH  10  21
ENDBRANCH   8  10
ENDBRANCH   1   8
TORSDOF 10


