REMARK SMILES C=Cc1cc([S-])cc(-c2ccc3c(c2)CC3)c1
REMARK SMILES IDX 3 1 4 2 5 3 6 4 7 5 8 6 17 7 2 8 1 9 9 10 10 11 14 12 11 13
REMARK SMILES IDX 13 14 12 15 15 16 16 17
REMARK H PARENT
ROOT
ATOM      1  C   UNL     1       3.148   0.492  -0.650  1.00  0.00    -0.027 A 
ATOM      2  C   UNL     1       3.343   1.784  -0.138  1.00  0.00    -0.013 A 
ATOM      3  C   UNL     1       2.268   2.515   0.373  1.00  0.00    -0.174 A 
ATOM      4  S   UNL     1       2.541   4.167   1.042  1.00  0.00    -0.780 S 
ATOM      5  C   UNL     1       0.983   1.968   0.371  1.00  0.00    -0.012 A 
ATOM      6  C   UNL     1       0.759   0.682  -0.150  1.00  0.00    -0.019 A 
ATOM      7  C   UNL     1       1.846  -0.048  -0.664  1.00  0.00     0.016 A 
ENDROOT
BRANCH   1   8
ATOM      8  C   UNL     1       4.321  -0.239  -1.191  1.00  0.00     0.000 C 
ATOM      9  C   UNL     1       4.361  -1.560  -1.372  1.00  0.00     0.009 C 
ENDBRANCH   1   8
BRANCH   6  10
ATOM     10  C   UNL     1      -0.610   0.106  -0.164  1.00  0.00    -0.018 A 
ATOM     11  C   UNL     1      -0.807  -1.280   0.176  1.00  0.00     0.009 A 
ATOM     12  C   UNL     1      -1.719   0.930  -0.515  1.00  0.00     0.012 A 
ATOM     13  C   UNL     1      -2.090  -1.880   0.175  1.00  0.00     0.004 A 
ATOM     14  C   UNL     1      -2.953   0.315  -0.505  1.00  0.00    -0.044 A 
ATOM     15  C   UNL     1      -3.133  -1.049  -0.171  1.00  0.00    -0.044 A 
ATOM     16  C   UNL     1      -4.417   0.472  -0.730  1.00  0.00     0.040 C 
ATOM     17  C   UNL     1      -4.603  -0.926  -0.384  1.00  0.00     0.040 C 
ENDBRANCH   6  10
TORSDOF 2


