REMARK SMILES O=C(OCc1cc[nH]c1)c1cc(F)ccc1[NH2+]c1cc2ccccc2[nH]1
REMARK SMILES IDX 1 1 2 2 3 3 4 4 5 5 6 6 9 7 7 8 8 9 10 11 11 12 16 13 12 14
REMARK SMILES IDX 15 15 14 16 13 17 17 18 18 21 19 22 26 23 20 24 25 25 21 26
REMARK SMILES IDX 24 27 22 28 23 29
REMARK H PARENT 8 10 17 19 17 20 26 30
ROOT
ATOM      1  O   UNL     1      -2.245   0.813   0.837  1.00  0.00    -0.246 OA
ATOM      2  C   UNL     1      -1.605   0.758  -0.248  1.00  0.00     0.344 C 
ENDROOT
BRANCH   2   3
ATOM      3  O   UNL     1      -1.216  -0.472  -0.782  1.00  0.00    -0.457 OA
BRANCH   3   4
ATOM      4  C   UNL     1      -1.401  -1.702  -0.092  1.00  0.00     0.270 C 
BRANCH   4   5
ATOM      5  C   UNL     1      -0.739  -2.797  -0.860  1.00  0.00     0.007 A 
ATOM      6  C   UNL     1       0.607  -3.109  -0.840  1.00  0.00     0.026 A 
ATOM      7  C   UNL     1      -1.329  -3.607  -1.808  1.00  0.00     0.089 A 
ATOM      8  C   UNL     1       0.777  -4.117  -1.767  1.00  0.00     0.082 A 
ATOM      9  N   UNL     1      -0.399  -4.415  -2.350  1.00  0.00    -0.367 N 
ATOM     10  H   UNL     1      -0.558  -5.129  -3.095  1.00  0.00     0.165 HD
ENDBRANCH   4   5
ENDBRANCH   3   4
ENDBRANCH   2   3
BRANCH   2  11
ATOM     11  C   UNL     1      -1.251   1.995  -0.964  1.00  0.00     0.124 A 
ATOM     12  C   UNL     1      -1.583   2.093  -2.325  1.00  0.00     0.061 A 
ATOM     13  C   UNL     1      -0.539   3.053  -0.336  1.00  0.00     0.150 A 
ATOM     14  C   UNL     1      -1.253   3.235  -3.055  1.00  0.00     0.124 A 
ATOM     15  C   UNL     1      -0.214   4.195  -1.093  1.00  0.00     0.072 A 
ATOM     16  C   UNL     1      -0.575   4.286  -2.439  1.00  0.00     0.045 A 
ATOM     17  F   UNL     1      -1.589   3.322  -4.365  1.00  0.00    -0.207 F 
BRANCH  13  18
ATOM     18  N   UNL     1      -0.073   2.951   1.031  1.00  0.00    -0.266 N 
ATOM     19  H   UNL     1      -0.874   2.728   1.663  1.00  0.00     0.359 HD
ATOM     20  H   UNL     1       0.332   3.858   1.359  1.00  0.00     0.359 HD
BRANCH  18  21
ATOM     21  C   UNL     1       0.948   1.943   1.137  1.00  0.00     0.208 A 
ATOM     22  C   UNL     1       2.167   1.965   0.460  1.00  0.00     0.099 A 
ATOM     23  N   UNL     1       0.810   0.817   1.876  1.00  0.00    -0.310 N 
ATOM     24  C   UNL     1       2.776   0.778   0.808  1.00  0.00     0.006 A 
ATOM     25  C   UNL     1       1.933   0.112   1.661  1.00  0.00     0.050 A 
ATOM     26  C   UNL     1       3.998   0.238   0.414  1.00  0.00     0.010 A 
ATOM     27  C   UNL     1       2.257  -1.140   2.182  1.00  0.00     0.027 A 
ATOM     28  C   UNL     1       4.353  -1.025   0.925  1.00  0.00     0.001 A 
ATOM     29  C   UNL     1       3.486  -1.710   1.805  1.00  0.00     0.002 A 
ATOM     30  H   UNL     1      -0.003   0.542   2.469  1.00  0.00     0.172 HD
ENDBRANCH  18  21
ENDBRANCH  13  18
ENDBRANCH   2  11
TORSDOF 6


