REMARK SMILES CCOCCOC(=O)N(c1cc2ccccc2[n-]1)c1ccc(-c2ccc(C)cc2)cc1C=O
REMARK SMILES IDX 6 1 5 2 4 3 3 4 2 5 1 6 7 7 8 8 9 9 10 10 11 11 18 12 12 13
REMARK SMILES IDX 17 14 13 15 16 16 14 17 15 18 19 19 20 20 31 21 21 22 30 23
REMARK SMILES IDX 22 24 32 25 33 26 23 27 24 28 29 29 25 30 28 31 26 32 27 33
REMARK H PARENT
ROOT
ATOM      1  O   UNL     1       2.502   1.154  -0.975  1.00  0.00    -0.462 OA
ENDROOT
BRANCH   1   2
ATOM      2  C   UNL     1       3.085   2.448  -0.820  1.00  0.00     0.261 C 
BRANCH   2   3
ATOM      3  C   UNL     1       2.024   3.539  -0.959  1.00  0.00     0.201 C 
BRANCH   3   4
ATOM      4  O   UNL     1       1.349   3.378  -2.189  1.00  0.00    -0.378 OA
BRANCH   4   5
ATOM      5  C   UNL     1       0.270   4.285  -2.257  1.00  0.00     0.157 C 
ATOM      6  C   UNL     1      -0.423   4.131  -3.601  1.00  0.00     0.035 C 
ENDBRANCH   4   5
ENDBRANCH   3   4
ENDBRANCH   2   3
ENDBRANCH   1   2
BRANCH   1   7
ATOM      7  C   UNL     1       1.659   0.566  -0.023  1.00  0.00     0.333 C 
ATOM      8  O   UNL     1       1.531   1.093   1.117  1.00  0.00    -0.250 OA
BRANCH   7   9
ATOM      9  N   UNL     1       0.956  -0.650  -0.332  1.00  0.00    -0.354 N 
BRANCH   9  10
ATOM     10  C   UNL     1       0.884  -1.184  -1.667  1.00  0.00    -0.048 A 
ATOM     11  C   UNL     1       0.951  -0.438  -2.843  1.00  0.00     0.008 A 
ATOM     12  N   UNL     1       0.658  -2.500  -1.914  1.00  0.00    -0.435 NA
ATOM     13  C   UNL     1       0.780  -1.359  -3.846  1.00  0.00    -0.023 A 
ATOM     14  C   UNL     1       0.605  -2.583  -3.254  1.00  0.00    -0.034 A 
ATOM     15  C   UNL     1       0.745  -1.198  -5.228  1.00  0.00     0.008 A 
ATOM     16  C   UNL     1       0.375  -3.731  -4.011  1.00  0.00     0.004 A 
ATOM     17  C   UNL     1       0.529  -2.342  -6.018  1.00  0.00     0.001 A 
ATOM     18  C   UNL     1       0.338  -3.602  -5.411  1.00  0.00     0.000 A 
ENDBRANCH   9  10
BRANCH   9  19
ATOM     19  C   UNL     1       0.273  -1.351   0.720  1.00  0.00    -0.021 A 
ATOM     20  C   UNL     1       0.952  -2.350   1.427  1.00  0.00     0.005 A 
ATOM     21  C   UNL     1      -1.069  -1.052   1.037  1.00  0.00     0.019 A 
ATOM     22  C   UNL     1       0.310  -3.059   2.444  1.00  0.00     0.009 A 
ATOM     23  C   UNL     1      -1.707  -1.771   2.065  1.00  0.00     0.020 A 
ATOM     24  C   UNL     1      -1.026  -2.780   2.772  1.00  0.00    -0.018 A 
BRANCH  21  25
ATOM     25  C   UNL     1      -1.804  -0.000   0.300  1.00  0.00     0.260 C 
ATOM     26  O   UNL     1      -3.013   0.249   0.555  1.00  0.00    -0.298 OA
ENDBRANCH  21  25
BRANCH  24  27
ATOM     27  C   UNL     1      -1.714  -3.541   3.847  1.00  0.00    -0.018 A 
ATOM     28  C   UNL     1      -1.045  -3.853   5.045  1.00  0.00     0.009 A 
ATOM     29  C   UNL     1      -3.048  -3.956   3.685  1.00  0.00     0.009 A 
ATOM     30  C   UNL     1      -1.698  -4.562   6.058  1.00  0.00     0.004 A 
ATOM     31  C   UNL     1      -3.700  -4.663   4.699  1.00  0.00     0.004 A 
ATOM     32  C   UNL     1      -3.030  -4.969   5.891  1.00  0.00    -0.051 A 
ATOM     33  C   UNL     1      -3.747  -5.724   6.972  1.00  0.00     0.044 C 
ENDBRANCH  24  27
ENDBRANCH   9  19
ENDBRANCH   7   9
ENDBRANCH   1   7
TORSDOF 10


