MODEL 1
REMARK VINA RESULT:      -6.7      0.000      0.000
REMARK SMILES Cc1cc2ccc([C@@H]3O[C@H](C)NN3C(O)=C3C[NH2+]C3)cc2[nH]1
REMARK SMILES IDX 8 1 9 2 10 3 11 4 12 5 13 6 7 8 2 9 3 10 22 11 4 12 21 13
REMARK SMILES IDX 5 14 20 15 6 16 1 17 14 19 15 20 16 22 17 23 19 24 18 25
REMARK H PARENT 12 7 22 18 15 21 18 26 18 27
ROOT
ATOM      1  C   UNL     1      43.398 131.397  22.531  1.00  0.00     0.267 C 
ATOM      2  O   UNL     1      43.774 132.634  23.080  1.00  0.00    -0.333 OA
ATOM      3  C   UNL     1      44.292 132.361  24.371  1.00  0.00     0.204 C 
ATOM      4  C   UNL     1      45.535 133.217  24.624  1.00  0.00     0.058 C 
ATOM      5  N   UNL     1      44.574 130.927  24.508  1.00  0.00    -0.201 NA
ATOM      6  N   UNL     1      43.914 130.379  23.414  1.00  0.00    -0.243 N 
ATOM      7  H   UNL     1      45.593 130.738  24.361  1.00  0.00     0.151 HD
ENDROOT
BRANCH   1   8
ATOM      8  C   UNL     1      43.986 131.255  21.150  1.00  0.00     0.005 A 
ATOM      9  C   UNL     1      44.223 131.482  16.649  1.00  0.00     0.013 A 
ATOM     10  C   UNL     1      45.375 130.996  17.260  1.00  0.00     0.031 A 
ATOM     11  N   UNL     1      43.276 131.791  17.567  1.00  0.00    -0.359 N 
ATOM     12  C   UNL     1      45.089 131.000  18.608  1.00  0.00    -0.000 A 
ATOM     13  C   UNL     1      43.816 131.486  18.758  1.00  0.00     0.046 A 
ATOM     14  C   UNL     1      45.865 130.623  19.700  1.00  0.00     0.011 A 
ATOM     15  C   UNL     1      43.230 131.628  20.013  1.00  0.00     0.035 A 
ATOM     16  C   UNL     1      45.303 130.752  20.982  1.00  0.00     0.009 A 
ATOM     17  C   UNL     1      44.067 131.730  15.184  1.00  0.00     0.064 C 
ATOM     18  H   UNL     1      42.329 132.194  17.388  1.00  0.00     0.166 HD
ENDBRANCH   1   8
BRANCH   6  19
ATOM     19  C   UNL     1      43.623 128.977  23.282  1.00  0.00     0.214 C 
BRANCH  19  20
ATOM     20  O   UNL     1      44.573 128.133  22.706  1.00  0.00    -0.493 OA
ATOM     21  H   UNL     1      44.353 127.538  21.916  1.00  0.00     0.295 HD
ENDBRANCH  19  20
BRANCH  19  22
ATOM     22  C   UNL     1      42.462 128.470  23.702  1.00  0.00     0.099 C 
ATOM     23  C   UNL     1      41.647 127.214  23.501  1.00  0.00     0.304 C 
ATOM     24  C   UNL     1      41.298 128.830  24.598  1.00  0.00     0.304 C 
ATOM     25  N   UNL     1      40.560 127.609  24.368  1.00  0.00    -0.339 N 
ATOM     26  H   UNL     1      39.666 127.770  23.845  1.00  0.00     0.346 HD
ATOM     27  H   UNL     1      40.491 127.012  25.226  1.00  0.00     0.346 HD
ENDBRANCH  19  22
ENDBRANCH   6  19
TORSDOF 4
ENDMDL
MODEL 2
REMARK VINA RESULT:      -6.4      1.680      2.308
REMARK SMILES Cc1cc2ccc([C@@H]3O[C@H](C)NN3C(O)=C3C[NH2+]C3)cc2[nH]1
REMARK SMILES IDX 8 1 9 2 10 3 11 4 12 5 13 6 7 8 2 9 3 10 22 11 4 12 21 13
REMARK SMILES IDX 5 14 20 15 6 16 1 17 14 19 15 20 16 22 17 23 19 24 18 25
REMARK H PARENT 12 7 22 18 15 21 18 26 18 27
ROOT
ATOM      1  C   UNL     1      42.969 131.810  22.881  1.00  0.00     0.267 C 
ATOM      2  O   UNL     1      43.615 132.925  23.441  1.00  0.00    -0.333 OA
ATOM      3  C   UNL     1      44.338 132.449  24.564  1.00  0.00     0.204 C 
ATOM      4  C   UNL     1      45.713 133.119  24.619  1.00  0.00     0.058 C 
ATOM      5  N   UNL     1      44.440 130.986  24.515  1.00  0.00    -0.201 NA
ATOM      6  N   UNL     1      43.504 130.646  23.544  1.00  0.00    -0.243 N 
ATOM      7  H   UNL     1      45.373 130.696  24.139  1.00  0.00     0.151 HD
ENDROOT
BRANCH   1   8
ATOM      8  C   UNL     1      43.243 131.755  21.400  1.00  0.00     0.005 A 
ATOM      9  C   UNL     1      45.444 130.815  17.574  1.00  0.00     0.013 A 
ATOM     10  C   UNL     1      44.218 131.449  17.390  1.00  0.00     0.031 A 
ATOM     11  N   UNL     1      45.697 130.613  18.889  1.00  0.00    -0.359 N 
ATOM     12  C   UNL     1      43.729 131.649  18.662  1.00  0.00    -0.000 A 
ATOM     13  C   UNL     1      44.644 131.133  19.542  1.00  0.00     0.046 A 
ATOM     14  C   UNL     1      42.542 132.234  19.095  1.00  0.00     0.011 A 
ATOM     15  C   UNL     1      44.436 131.168  20.919  1.00  0.00     0.035 A 
ATOM     16  C   UNL     1      42.303 132.288  20.479  1.00  0.00     0.009 A 
ATOM     17  C   UNL     1      46.331 130.327  16.476  1.00  0.00     0.064 C 
ATOM     18  H   UNL     1      46.529 130.142  19.308  1.00  0.00     0.166 HD
ENDBRANCH   1   8
BRANCH   6  19
ATOM     19  C   UNL     1      43.001 129.312  23.359  1.00  0.00     0.214 C 
BRANCH  19  20
ATOM     20  O   UNL     1      41.624 129.110  23.252  1.00  0.00    -0.493 OA
ATOM     21  H   UNL     1      41.061 129.608  22.574  1.00  0.00     0.295 HD
ENDBRANCH  19  20
BRANCH  19  22
ATOM     22  C   UNL     1      43.827 128.266  23.287  1.00  0.00     0.099 C 
ATOM     23  C   UNL     1      45.057 127.857  22.511  1.00  0.00     0.304 C 
ATOM     24  C   UNL     1      44.026 126.903  23.912  1.00  0.00     0.304 C 
ATOM     25  N   UNL     1      45.199 126.564  23.139  1.00  0.00    -0.339 N 
ATOM     26  H   UNL     1      45.029 125.772  22.475  1.00  0.00     0.346 HD
ATOM     27  H   UNL     1      46.062 126.495  23.728  1.00  0.00     0.346 HD
ENDBRANCH  19  22
ENDBRANCH   6  19
TORSDOF 4
ENDMDL
MODEL 3
REMARK VINA RESULT:      -5.0      2.050      3.451
REMARK SMILES Cc1cc2ccc([C@@H]3O[C@H](C)NN3C(O)=C3C[NH2+]C3)cc2[nH]1
REMARK SMILES IDX 8 1 9 2 10 3 11 4 12 5 13 6 7 8 2 9 3 10 22 11 4 12 21 13
REMARK SMILES IDX 5 14 20 15 6 16 1 17 14 19 15 20 16 22 17 23 19 24 18 25
REMARK H PARENT 12 7 22 18 15 21 18 26 18 27
ROOT
ATOM      1  C   UNL     1      44.267 128.839  23.795  1.00  0.00     0.267 C 
ATOM      2  O   UNL     1      45.474 128.123  23.733  1.00  0.00    -0.333 OA
ATOM      3  C   UNL     1      45.145 126.758  23.933  1.00  0.00     0.204 C 
ATOM      4  C   UNL     1      45.955 125.882  22.975  1.00  0.00     0.058 C 
ATOM      5  N   UNL     1      43.699 126.560  23.771  1.00  0.00    -0.201 NA
ATOM      6  N   UNL     1      43.207 127.860  23.800  1.00  0.00    -0.243 N 
ATOM      7  H   UNL     1      43.485 126.186  22.817  1.00  0.00     0.151 HD
ENDROOT
BRANCH   1   8
ATOM      8  C   UNL     1      44.152 129.746  22.597  1.00  0.00     0.005 A 
ATOM      9  C   UNL     1      45.052 131.424  18.505  1.00  0.00     0.013 A 
ATOM     10  C   UNL     1      44.019 132.072  19.177  1.00  0.00     0.031 A 
ATOM     11  N   UNL     1      45.555 130.409  19.247  1.00  0.00    -0.359 N 
ATOM     12  C   UNL     1      43.919 131.419  20.385  1.00  0.00    -0.000 A 
ATOM     13  C   UNL     1      44.858 130.422  20.395  1.00  0.00     0.046 A 
ATOM     14  C   UNL     1      43.060 131.630  21.461  1.00  0.00     0.011 A 
ATOM     15  C   UNL     1      45.005 129.565  21.483  1.00  0.00     0.035 A 
ATOM     16  C   UNL     1      43.183 130.783  22.576  1.00  0.00     0.009 A 
ATOM     17  C   UNL     1      45.494 131.730  17.112  1.00  0.00     0.064 C 
ATOM     18  H   UNL     1      46.318 129.747  18.979  1.00  0.00     0.166 HD
ENDBRANCH   1   8
BRANCH   6  19
ATOM     19  C   UNL     1      41.819 128.179  24.000  1.00  0.00     0.214 C 
BRANCH  19  20
ATOM     20  O   UNL     1      41.471 129.440  24.487  1.00  0.00    -0.493 OA
ATOM     21  H   UNL     1      40.509 129.693  24.680  1.00  0.00     0.295 HD
ENDBRANCH  19  20
BRANCH  19  22
ATOM     22  C   UNL     1      40.860 127.292  23.728  1.00  0.00     0.099 C 
ATOM     23  C   UNL     1      39.452 127.292  23.182  1.00  0.00     0.304 C 
ATOM     24  C   UNL     1      40.607 125.802  23.800  1.00  0.00     0.304 C 
ATOM     25  N   UNL     1      39.262 125.863  23.274  1.00  0.00    -0.339 N 
ATOM     26  H   UNL     1      38.539 125.597  23.984  1.00  0.00     0.346 HD
ATOM     27  H   UNL     1      39.177 125.406  22.335  1.00  0.00     0.346 HD
ENDBRANCH  19  22
ENDBRANCH   6  19
TORSDOF 4
ENDMDL
MODEL 4
REMARK VINA RESULT:      -5.0      2.849      4.268
REMARK SMILES Cc1cc2ccc([C@@H]3O[C@H](C)NN3C(O)=C3C[NH2+]C3)cc2[nH]1
REMARK SMILES IDX 8 1 9 2 10 3 11 4 12 5 13 6 7 8 2 9 3 10 22 11 4 12 21 13
REMARK SMILES IDX 5 14 20 15 6 16 1 17 14 19 15 20 16 22 17 23 19 24 18 25
REMARK H PARENT 12 7 22 18 15 21 18 26 18 27
ROOT
ATOM      1  C   UNL     1      43.677 130.704  18.875  1.00  0.00     0.267 C 
ATOM      2  O   UNL     1      42.518 131.488  18.756  1.00  0.00    -0.333 OA
ATOM      3  C   UNL     1      42.356 132.160  19.994  1.00  0.00     0.204 C 
ATOM      4  C   UNL     1      41.924 133.607  19.747  1.00  0.00     0.058 C 
ATOM      5  N   UNL     1      43.595 132.080  20.776  1.00  0.00    -0.201 NA
ATOM      6  N   UNL     1      44.318 131.099  20.106  1.00  0.00    -0.243 N 
ATOM      7  H   UNL     1      44.145 132.966  20.682  1.00  0.00     0.151 HD
ENDROOT
BRANCH   1   8
ATOM      8  C   UNL     1      44.583 130.952  17.696  1.00  0.00     0.005 A 
ATOM      9  C   UNL     1      47.476 130.020  14.361  1.00  0.00     0.013 A 
ATOM     10  C   UNL     1      47.104 131.359  14.440  1.00  0.00     0.031 A 
ATOM     11  N   UNL     1      46.864 129.285  15.319  1.00  0.00    -0.359 N 
ATOM     12  C   UNL     1      46.241 131.423  15.512  1.00  0.00    -0.000 A 
ATOM     13  C   UNL     1      46.118 130.156  16.019  1.00  0.00     0.046 A 
ATOM     14  C   UNL     1      45.554 132.504  16.059  1.00  0.00     0.011 A 
ATOM     15  C   UNL     1      45.298 129.881  17.111  1.00  0.00     0.035 A 
ATOM     16  C   UNL     1      44.720 132.261  17.164  1.00  0.00     0.009 A 
ATOM     17  C   UNL     1      48.356 129.435  13.305  1.00  0.00     0.064 C 
ATOM     18  H   UNL     1      46.944 128.256  15.476  1.00  0.00     0.166 HD
ENDBRANCH   1   8
BRANCH   6  19
ATOM     19  C   UNL     1      45.462 130.434  20.667  1.00  0.00     0.214 C 
BRANCH  19  20
ATOM     20  O   UNL     1      46.742 130.885  20.342  1.00  0.00    -0.493 OA
ATOM     21  H   UNL     1      47.570 130.525  20.802  1.00  0.00     0.295 HD
ENDBRANCH  19  20
BRANCH  19  22
ATOM     22  C   UNL     1      45.321 129.394  21.493  1.00  0.00     0.099 C 
ATOM     23  C   UNL     1      44.633 129.085  22.801  1.00  0.00     0.304 C 
ATOM     24  C   UNL     1      45.750 127.949  21.618  1.00  0.00     0.304 C 
ATOM     25  N   UNL     1      45.073 127.710  22.872  1.00  0.00    -0.339 N 
ATOM     26  H   UNL     1      45.738 127.540  23.663  1.00  0.00     0.346 HD
ATOM     27  H   UNL     1      44.283 127.029  22.779  1.00  0.00     0.346 HD
ENDBRANCH  19  22
ENDBRANCH   6  19
TORSDOF 4
ENDMDL
MODEL 5
REMARK VINA RESULT:      -5.0      1.483      1.994
REMARK SMILES Cc1cc2ccc([C@@H]3O[C@H](C)NN3C(O)=C3C[NH2+]C3)cc2[nH]1
REMARK SMILES IDX 8 1 9 2 10 3 11 4 12 5 13 6 7 8 2 9 3 10 22 11 4 12 21 13
REMARK SMILES IDX 5 14 20 15 6 16 1 17 14 19 15 20 16 22 17 23 19 24 18 25
REMARK H PARENT 12 7 22 18 15 21 18 26 18 27
ROOT
ATOM      1  C   UNL     1      42.415 131.331  22.161  1.00  0.00     0.267 C 
ATOM      2  O   UNL     1      42.444 132.600  22.763  1.00  0.00    -0.333 OA
ATOM      3  C   UNL     1      42.735 132.388  24.135  1.00  0.00     0.204 C 
ATOM      4  C   UNL     1      43.726 133.446  24.625  1.00  0.00     0.058 C 
ATOM      5  N   UNL     1      43.238 131.025  24.338  1.00  0.00    -0.201 NA
ATOM      6  N   UNL     1      42.919 130.398  23.139  1.00  0.00    -0.243 N 
ATOM      7  H   UNL     1      44.283 131.025  24.401  1.00  0.00     0.151 HD
ENDROOT
BRANCH   1   8
ATOM      8  C   UNL     1      43.282 131.335  20.928  1.00  0.00     0.005 A 
ATOM      9  C   UNL     1      44.352 131.640  16.554  1.00  0.00     0.013 A 
ATOM     10  C   UNL     1      45.439 131.421  17.397  1.00  0.00     0.031 A 
ATOM     11  N   UNL     1      43.198 131.721  17.257  1.00  0.00    -0.359 N 
ATOM     12  C   UNL     1      44.897 131.352  18.661  1.00  0.00    -0.000 A 
ATOM     13  C   UNL     1      43.545 131.537  18.542  1.00  0.00     0.046 A 
ATOM     14  C   UNL     1      45.505 131.152  19.898  1.00  0.00     0.011 A 
ATOM     15  C   UNL     1      42.704 131.535  19.652  1.00  0.00     0.035 A 
ATOM     16  C   UNL     1      44.684 131.142  21.039  1.00  0.00     0.009 A 
ATOM     17  C   UNL     1      44.441 131.856  15.079  1.00  0.00     0.064 C 
ATOM     18  H   UNL     1      42.240 131.901  16.882  1.00  0.00     0.166 HD
ENDBRANCH   1   8
BRANCH   6  19
ATOM     19  C   UNL     1      42.919 128.971  22.964  1.00  0.00     0.214 C 
BRANCH  19  20
ATOM     20  O   UNL     1      41.734 128.327  22.604  1.00  0.00    -0.493 OA
ATOM     21  H   UNL     1      40.829 128.768  22.716  1.00  0.00     0.295 HD
ENDBRANCH  19  20
BRANCH  19  22
ATOM     22  C   UNL     1      44.029 128.252  23.141  1.00  0.00     0.099 C 
ATOM     23  C   UNL     1      44.865 127.740  24.290  1.00  0.00     0.304 C 
ATOM     24  C   UNL     1      45.089 127.542  22.329  1.00  0.00     0.304 C 
ATOM     25  N   UNL     1      45.851 127.079  23.467  1.00  0.00    -0.339 N 
ATOM     26  H   UNL     1      46.795 127.530  23.529  1.00  0.00     0.346 HD
ATOM     27  H   UNL     1      45.829 126.037  23.569  1.00  0.00     0.346 HD
ENDBRANCH  19  22
ENDBRANCH   6  19
TORSDOF 4
ENDMDL
MODEL 6
REMARK VINA RESULT:      -5.0      3.017      4.553
REMARK SMILES Cc1cc2ccc([C@@H]3O[C@H](C)NN3C(O)=C3C[NH2+]C3)cc2[nH]1
REMARK SMILES IDX 8 1 9 2 10 3 11 4 12 5 13 6 7 8 2 9 3 10 22 11 4 12 21 13
REMARK SMILES IDX 5 14 20 15 6 16 1 17 14 19 15 20 16 22 17 23 19 24 18 25
REMARK H PARENT 12 7 22 18 15 21 18 26 18 27
ROOT
ATOM      1  C   UNL     1      44.549 127.550  24.376  1.00  0.00     0.267 C 
ATOM      2  O   UNL     1      45.909 127.296  24.621  1.00  0.00    -0.333 OA
ATOM      3  C   UNL     1      46.065 125.887  24.604  1.00  0.00     0.204 C 
ATOM      4  C   UNL     1      47.354 125.516  23.867  1.00  0.00     0.058 C 
ATOM      5  N   UNL     1      44.885 125.256  24.001  1.00  0.00    -0.201 NA
ATOM      6  N   UNL     1      43.958 126.293  23.985  1.00  0.00    -0.243 N 
ATOM      7  H   UNL     1      45.070 125.013  23.000  1.00  0.00     0.151 HD
ENDROOT
BRANCH   1   8
ATOM      8  C   UNL     1      44.414 128.570  23.274  1.00  0.00     0.005 A 
ATOM      9  C   UNL     1      42.690 132.041  20.962  1.00  0.00     0.013 A 
ATOM     10  C   UNL     1      43.836 131.488  20.397  1.00  0.00     0.031 A 
ATOM     11  N   UNL     1      42.352 131.402  22.107  1.00  0.00    -0.359 N 
ATOM     12  C   UNL     1      44.184 130.457  21.242  1.00  0.00    -0.000 A 
ATOM     13  C   UNL     1      43.269 130.432  22.262  1.00  0.00     0.046 A 
ATOM     14  C   UNL     1      45.244 129.556  21.184  1.00  0.00     0.011 A 
ATOM     15  C   UNL     1      43.351 129.504  23.297  1.00  0.00     0.035 A 
ATOM     16  C   UNL     1      45.354 128.604  22.212  1.00  0.00     0.009 A 
ATOM     17  C   UNL     1      41.971 133.242  20.441  1.00  0.00     0.064 C 
ATOM     18  H   UNL     1      41.553 131.622  22.743  1.00  0.00     0.166 HD
ENDBRANCH   1   8
BRANCH   6  19
ATOM     19  C   UNL     1      42.548 126.095  23.785  1.00  0.00     0.214 C 
BRANCH  19  20
ATOM     20  O   UNL     1      41.640 126.858  24.519  1.00  0.00    -0.493 OA
ATOM     21  H   UNL     1      41.943 127.535  25.209  1.00  0.00     0.295 HD
ENDBRANCH  19  20
BRANCH  19  22
ATOM     22  C   UNL     1      42.094 125.195  22.909  1.00  0.00     0.099 C 
ATOM     23  C   UNL     1      42.506 124.620  21.575  1.00  0.00     0.304 C 
ATOM     24  C   UNL     1      40.935 124.241  22.726  1.00  0.00     0.304 C 
ATOM     25  N   UNL     1      41.376 123.728  21.449  1.00  0.00    -0.339 N 
ATOM     26  H   UNL     1      40.737 123.996  20.664  1.00  0.00     0.346 HD
ATOM     27  H   UNL     1      41.652 122.719  21.495  1.00  0.00     0.346 HD
ENDBRANCH  19  22
ENDBRANCH   6  19
TORSDOF 4
ENDMDL
MODEL 7
REMARK VINA RESULT:      -4.8      3.523      5.852
REMARK SMILES Cc1cc2ccc([C@@H]3O[C@H](C)NN3C(O)=C3C[NH2+]C3)cc2[nH]1
REMARK SMILES IDX 8 1 9 2 10 3 11 4 12 5 13 6 7 8 2 9 3 10 22 11 4 12 21 13
REMARK SMILES IDX 5 14 20 15 6 16 1 17 14 19 15 20 16 22 17 23 19 24 18 25
REMARK H PARENT 12 7 22 18 15 21 18 26 18 27
ROOT
ATOM      1  C   UNL     1      44.467 125.283  24.197  1.00  0.00     0.267 C 
ATOM      2  O   UNL     1      45.806 125.070  24.565  1.00  0.00    -0.333 OA
ATOM      3  C   UNL     1      46.241 123.922  23.856  1.00  0.00     0.204 C 
ATOM      4  C   UNL     1      47.662 124.140  23.335  1.00  0.00     0.058 C 
ATOM      5  N   UNL     1      45.299 123.611  22.774  1.00  0.00    -0.201 NA
ATOM      6  N   UNL     1      44.195 124.393  23.095  1.00  0.00    -0.243 N 
ATOM      7  H   UNL     1      45.659 123.972  21.860  1.00  0.00     0.151 HD
ENDROOT
BRANCH   1   8
ATOM      8  C   UNL     1      44.277 126.720  23.783  1.00  0.00     0.005 A 
ATOM      9  C   UNL     1      44.962 130.554  21.503  1.00  0.00     0.013 A 
ATOM     10  C   UNL     1      43.937 130.621  22.443  1.00  0.00     0.031 A 
ATOM     11  N   UNL     1      45.526 129.323  21.482  1.00  0.00    -0.359 N 
ATOM     12  C   UNL     1      43.905 129.370  23.020  1.00  0.00    -0.000 A 
ATOM     13  C   UNL     1      44.875 128.612  22.418  1.00  0.00     0.046 A 
ATOM     14  C   UNL     1      43.083 128.854  24.018  1.00  0.00     0.011 A 
ATOM     15  C   UNL     1      45.091 127.283  22.772  1.00  0.00     0.035 A 
ATOM     16  C   UNL     1      43.276 127.515  24.401  1.00  0.00     0.009 A 
ATOM     17  C   UNL     1      45.340 131.653  20.566  1.00  0.00     0.064 C 
ATOM     18  H   UNL     1      46.297 128.990  20.861  1.00  0.00     0.166 HD
ENDBRANCH   1   8
BRANCH   6  19
ATOM     19  C   UNL     1      42.891 124.200  22.519  1.00  0.00     0.214 C 
BRANCH  19  20
ATOM     20  O   UNL     1      42.757 124.157  21.131  1.00  0.00    -0.493 OA
ATOM     21  H   UNL     1      41.889 124.399  20.668  1.00  0.00     0.295 HD
ENDBRANCH  19  20
BRANCH  19  22
ATOM     22  C   UNL     1      41.809 124.061  23.289  1.00  0.00     0.099 C 
ATOM     23  C   UNL     1      41.307 124.564  24.621  1.00  0.00     0.304 C 
ATOM     24  C   UNL     1      40.479 123.342  23.296  1.00  0.00     0.304 C 
ATOM     25  N   UNL     1      40.050 123.853  24.578  1.00  0.00    -0.339 N 
ATOM     26  H   UNL     1      39.985 123.105  25.309  1.00  0.00     0.346 HD
ATOM     27  H   UNL     1      39.226 124.495  24.500  1.00  0.00     0.346 HD
ENDBRANCH  19  22
ENDBRANCH   6  19
TORSDOF 4
ENDMDL
MODEL 8
REMARK VINA RESULT:      -4.8      7.892     10.189
REMARK SMILES Cc1cc2ccc([C@@H]3O[C@H](C)NN3C(O)=C3C[NH2+]C3)cc2[nH]1
REMARK SMILES IDX 8 1 9 2 10 3 11 4 12 5 13 6 7 8 2 9 3 10 22 11 4 12 21 13
REMARK SMILES IDX 5 14 20 15 6 16 1 17 14 19 15 20 16 22 17 23 19 24 18 25
REMARK H PARENT 12 7 22 18 15 21 18 26 18 27
ROOT
ATOM      1  C   UNL     1      50.380 123.997  22.108  1.00  0.00     0.267 C 
ATOM      2  O   UNL     1      51.030 124.706  23.131  1.00  0.00    -0.333 OA
ATOM      3  C   UNL     1      52.054 125.464  22.509  1.00  0.00     0.204 C 
ATOM      4  C   UNL     1      52.115 126.862  23.128  1.00  0.00     0.058 C 
ATOM      5  N   UNL     1      51.834 125.513  21.059  1.00  0.00    -0.201 NA
ATOM      6  N   UNL     1      50.879 124.522  20.860  1.00  0.00    -0.243 N 
ATOM      7  H   UNL     1      51.380 126.417  20.787  1.00  0.00     0.151 HD
ENDROOT
BRANCH   1   8
ATOM      8  C   UNL     1      48.890 124.199  22.216  1.00  0.00     0.005 A 
ATOM      9  C   UNL     1      44.527 123.112  22.600  1.00  0.00     0.013 A 
ATOM     10  C   UNL     1      44.775 124.481  22.556  1.00  0.00     0.031 A 
ATOM     11  N   UNL     1      45.679 122.404  22.524  1.00  0.00    -0.359 N 
ATOM     12  C   UNL     1      46.143 124.588  22.430  1.00  0.00    -0.000 A 
ATOM     13  C   UNL     1      46.657 123.318  22.414  1.00  0.00     0.046 A 
ATOM     14  C   UNL     1      46.960 125.712  22.342  1.00  0.00     0.011 A 
ATOM     15  C   UNL     1      48.026 123.083  22.309  1.00  0.00     0.035 A 
ATOM     16  C   UNL     1      48.346 125.510  22.232  1.00  0.00     0.009 A 
ATOM     17  C   UNL     1      43.185 122.490  22.801  1.00  0.00     0.064 C 
ATOM     18  H   UNL     1      45.786 121.365  22.556  1.00  0.00     0.166 HD
ENDBRANCH   1   8
BRANCH   6  19
ATOM     19  C   UNL     1      50.568 123.966  19.571  1.00  0.00     0.214 C 
BRANCH  19  20
ATOM     20  O   UNL     1      49.235 123.727  19.233  1.00  0.00    -0.493 OA
ATOM     21  H   UNL     1      48.873 123.926  18.308  1.00  0.00     0.295 HD
ENDBRANCH  19  20
BRANCH  19  22
ATOM     22  C   UNL     1      51.531 123.674  18.694  1.00  0.00     0.099 C 
ATOM     23  C   UNL     1      52.238 122.447  18.169  1.00  0.00     0.304 C 
ATOM     24  C   UNL     1      52.467 124.368  17.729  1.00  0.00     0.304 C 
ATOM     25  N   UNL     1      53.111 123.160  17.265  1.00  0.00    -0.339 N 
ATOM     26  H   UNL     1      54.118 123.106  17.549  1.00  0.00     0.346 HD
ATOM     27  H   UNL     1      52.904 122.955  16.259  1.00  0.00     0.346 HD
ENDBRANCH  19  22
ENDBRANCH   6  19
TORSDOF 4
ENDMDL
MODEL 9
REMARK VINA RESULT:      -4.6      2.646      5.971
REMARK SMILES Cc1cc2ccc([C@@H]3O[C@H](C)NN3C(O)=C3C[NH2+]C3)cc2[nH]1
REMARK SMILES IDX 8 1 9 2 10 3 11 4 12 5 13 6 7 8 2 9 3 10 22 11 4 12 21 13
REMARK SMILES IDX 5 14 20 15 6 16 1 17 14 19 15 20 16 22 17 23 19 24 18 25
REMARK H PARENT 12 7 22 18 15 21 18 26 18 27
ROOT
ATOM      1  C   UNL     1      44.672 130.230  23.114  1.00  0.00     0.267 C 
ATOM      2  O   UNL     1      43.966 130.808  24.182  1.00  0.00    -0.333 OA
ATOM      3  C   UNL     1      43.310 131.952  23.661  1.00  0.00     0.204 C 
ATOM      4  C   UNL     1      41.895 132.045  24.233  1.00  0.00     0.058 C 
ATOM      5  N   UNL     1      43.310 131.906  22.193  1.00  0.00    -0.201 NA
ATOM      6  N   UNL     1      44.238 130.909  21.917  1.00  0.00    -0.243 N 
ATOM      7  H   UNL     1      42.389 131.557  21.838  1.00  0.00     0.151 HD
ENDROOT
BRANCH   1   8
ATOM      8  C   UNL     1      44.360 128.757  23.036  1.00  0.00     0.005 A 
ATOM      9  C   UNL     1      45.056 124.355  22.329  1.00  0.00     0.013 A 
ATOM     10  C   UNL     1      43.773 124.669  22.770  1.00  0.00     0.031 A 
ATOM     11  N   UNL     1      45.822 125.467  22.219  1.00  0.00    -0.359 N 
ATOM     12  C   UNL     1      43.774 126.040  22.911  1.00  0.00    -0.000 A 
ATOM     13  C   UNL     1      45.024 126.489  22.571  1.00  0.00     0.046 A 
ATOM     14  C   UNL     1      42.769 126.909  23.324  1.00  0.00     0.011 A 
ATOM     15  C   UNL     1      45.355 127.841  22.622  1.00  0.00     0.035 A 
ATOM     16  C   UNL     1      43.069 128.281  23.384  1.00  0.00     0.009 A 
ATOM     17  C   UNL     1      45.568 122.972  22.097  1.00  0.00     0.064 C 
ATOM     18  H   UNL     1      46.824 125.519  21.933  1.00  0.00     0.166 HD
ENDBRANCH   1   8
BRANCH   6  19
ATOM     19  C   UNL     1      44.828 130.710  20.621  1.00  0.00     0.214 C 
BRANCH  19  20
ATOM     20  O   UNL     1      46.019 129.991  20.515  1.00  0.00    -0.493 OA
ATOM     21  H   UNL     1      46.794 130.318  19.951  1.00  0.00     0.295 HD
ENDBRANCH  19  20
BRANCH  19  22
ATOM     22  C   UNL     1      44.256 131.201  19.519  1.00  0.00     0.099 C 
ATOM     23  C   UNL     1      42.922 131.777  19.107  1.00  0.00     0.304 C 
ATOM     24  C   UNL     1      44.582 131.467  18.066  1.00  0.00     0.304 C 
ATOM     25  N   UNL     1      43.285 132.009  17.728  1.00  0.00    -0.339 N 
ATOM     26  H   UNL     1      42.755 131.397  17.063  1.00  0.00     0.346 HD
ATOM     27  H   UNL     1      43.325 133.027  17.487  1.00  0.00     0.346 HD
ENDBRANCH  19  22
ENDBRANCH   6  19
TORSDOF 4
ENDMDL


