REMARK SMILES CNCCC[N-]C(=O)Sc1cccc(-c2ccc3c(c2)CC3)c1
REMARK SMILES IDX 5 1 4 2 3 3 2 4 1 5 6 7 7 8 8 9 9 10 10 11 11 12 23 13 12 14
REMARK SMILES IDX 14 15 13 16 15 17 16 18 20 19 17 20 19 21 18 22 21 23 22 24
REMARK H PARENT 2 6
ROOT
ATOM      1  C   UNL     1       1.107   1.184   3.426  1.00  0.00    -0.116 C 
ENDROOT
BRANCH   1   2
ATOM      2  C   UNL     1       1.686   1.294   2.009  1.00  0.00    -0.004 C 
BRANCH   2   3
ATOM      3  C   UNL     1       1.795  -0.054   1.284  1.00  0.00     0.079 C 
BRANCH   3   4
ATOM      4  N   UNL     1       2.668  -0.973   2.023  1.00  0.00    -0.320 NA
ATOM      5  C   UNL     1       2.630  -2.304   1.415  1.00  0.00     0.101 C 
ATOM      6  H   UNL     1       3.650  -0.619   1.947  1.00  0.00     0.122 HD
ENDBRANCH   3   4
ENDBRANCH   2   3
ENDBRANCH   1   2
BRANCH   1   7
ATOM      7  N   UNL     1      -0.264   0.684   3.394  1.00  0.00    -0.643 NA
BRANCH   7   8
ATOM      8  C   UNL     1      -0.622  -0.681   3.633  1.00  0.00     0.114 C 
ATOM      9  O   UNL     1       0.230  -1.509   4.053  1.00  0.00    -0.308 OA
BRANCH   8  10
ATOM     10  S   UNL     1      -2.296  -1.220   3.312  1.00  0.00    -0.071 SA
BRANCH  10  11
ATOM     11  C   UNL     1      -1.901  -1.657   1.620  1.00  0.00     0.014 A 
ATOM     12  C   UNL     1      -1.490  -2.958   1.310  1.00  0.00     0.015 A 
ATOM     13  C   UNL     1      -1.965  -0.686   0.614  1.00  0.00     0.024 A 
ATOM     14  C   UNL     1      -1.133  -3.284   0.000  1.00  0.00     0.002 A 
ATOM     15  C   UNL     1      -1.590  -1.000  -0.705  1.00  0.00    -0.017 A 
ATOM     16  C   UNL     1      -1.178  -2.312  -1.003  1.00  0.00     0.009 A 
BRANCH  15  17
ATOM     17  C   UNL     1      -1.596   0.045  -1.758  1.00  0.00    -0.018 A 
ATOM     18  C   UNL     1      -2.080  -0.268  -3.077  1.00  0.00     0.009 A 
ATOM     19  C   UNL     1      -1.110   1.350  -1.455  1.00  0.00     0.012 A 
ATOM     20  C   UNL     1      -2.098   0.692  -4.119  1.00  0.00     0.004 A 
ATOM     21  C   UNL     1      -1.141   2.260  -2.491  1.00  0.00    -0.044 A 
ATOM     22  C   UNL     1      -1.620   1.940  -3.784  1.00  0.00    -0.044 A 
ATOM     23  C   UNL     1      -0.842   3.652  -2.926  1.00  0.00     0.040 C 
ATOM     24  C   UNL     1      -1.337   3.326  -4.251  1.00  0.00     0.040 C 
ENDBRANCH  15  17
ENDBRANCH  10  11
ENDBRANCH   8  10
ENDBRANCH   7   8
ENDBRANCH   1   7
TORSDOF 8


