REMARK SMILES NC(=O)c1ccc(-c2cc(F)c(Nc3ccc4cc[nH]c4c3)c(F)c2O)cc1
REMARK SMILES IDX 8 1 9 2 10 3 11 4 12 5 23 6 24 7 25 8 7 9 4 10 5 11 28 12
REMARK SMILES IDX 6 13 27 14 2 15 1 16 3 19 26 20 13 22 14 24 15 25 22 26
REMARK SMILES IDX 16 27 21 28 17 29 20 30 18 31 19 32
REMARK H PARENT 1 17 1 18 26 21 13 23 20 33
ROOT
ATOM      1  C   UNL     1       0.930  -2.031   0.013  1.00  0.00     0.030 A 
ATOM      2  C   UNL     1      -0.444  -1.835   0.231  1.00  0.00     0.054 A 
ATOM      3  C   UNL     1      -1.251  -1.279  -0.762  1.00  0.00     0.150 A 
ATOM      4  F   UNL     1      -2.582  -1.143  -0.532  1.00  0.00    -0.205 F 
ATOM      5  C   UNL     1      -0.694  -0.896  -1.994  1.00  0.00     0.115 A 
ATOM      6  C   UNL     1       0.669  -1.122  -2.233  1.00  0.00     0.191 A 
ATOM      7  F   UNL     1       1.206  -0.782  -3.433  1.00  0.00    -0.200 F 
ATOM      8  C   UNL     1       1.484  -1.685  -1.237  1.00  0.00     0.161 A 
ENDROOT
BRANCH   1   9
ATOM      9  C   UNL     1       1.767  -2.611   1.091  1.00  0.00    -0.014 A 
ATOM     10  C   UNL     1       3.341  -3.705   3.166  1.00  0.00     0.039 A 
ATOM     11  C   UNL     1       2.138  -4.323   2.779  1.00  0.00     0.014 A 
ATOM     12  C   UNL     1       3.750  -2.540   2.495  1.00  0.00     0.014 A 
ATOM     13  C   UNL     1       1.357  -3.778   1.756  1.00  0.00     0.010 A 
ATOM     14  C   UNL     1       2.969  -1.995   1.473  1.00  0.00     0.010 A 
BRANCH  10  15
ATOM     15  C   UNL     1       4.185  -4.273   4.247  1.00  0.00     0.248 C 
ATOM     16  N   UNL     1       3.638  -5.134   5.249  1.00  0.00    -0.366 N 
ATOM     17  H   UNL     1       2.610  -5.278   5.349  1.00  0.00     0.159 HD
ATOM     18  H   UNL     1       4.266  -5.566   5.963  1.00  0.00     0.159 HD
ATOM     19  O   UNL     1       5.411  -3.984   4.297  1.00  0.00    -0.270 OA
ENDBRANCH  10  15
ENDBRANCH   1   9
BRANCH   8  20
ATOM     20  O   UNL     1       2.837  -1.921  -1.490  1.00  0.00    -0.504 OA
ATOM     21  H   UNL     1       3.267  -1.690  -2.377  1.00  0.00     0.293 HD
ENDBRANCH   8  20
BRANCH   5  22
ATOM     22  N   UNL     1      -1.513  -0.336  -3.035  1.00  0.00    -0.351 N 
ATOM     23  H   UNL     1      -1.355  -0.669  -4.013  1.00  0.00     0.167 HD
BRANCH  22  24
ATOM     24  C   UNL     1      -2.486   0.702  -2.824  1.00  0.00     0.041 A 
ATOM     25  C   UNL     1      -3.540   0.863  -3.758  1.00  0.00     0.027 A 
ATOM     26  C   UNL     1      -2.380   1.595  -1.730  1.00  0.00     0.052 A 
ATOM     27  C   UNL     1      -4.498   1.881  -3.597  1.00  0.00     0.012 A 
ATOM     28  C   UNL     1      -3.346   2.591  -1.600  1.00  0.00     0.047 A 
ATOM     29  C   UNL     1      -4.368   2.726  -2.499  1.00  0.00    -0.001 A 
ATOM     30  N   UNL     1      -3.429   3.528  -0.641  1.00  0.00    -0.361 N 
ATOM     31  C   UNL     1      -5.136   3.796  -2.094  1.00  0.00     0.028 A 
ATOM     32  C   UNL     1      -4.522   4.266  -0.938  1.00  0.00     0.083 A 
ATOM     33  H   UNL     1      -2.783   3.662   0.169  1.00  0.00     0.166 HD
ENDBRANCH  22  24
ENDBRANCH   5  22
TORSDOF 5


