REMARK SMILES C[C@@H]1C[C@H](c2cccc3ncoc23)[C@@H]([NH2+]c2cccc(N)c2O)[C@H](O)[C@H]1F
REMARK SMILES IDX 15 1 14 4 2 5 3 6 26 7 4 8 24 9 1 10 27 11 5 12 6 13 13 14
REMARK SMILES IDX 7 15 12 16 9 17 8 18 11 19 10 20 25 21 16 23 17 24 22 25
REMARK SMILES IDX 18 26 20 27 19 28 23 29 21 31
REMARK H PARENT 15 2 15 3 25 22 23 30 21 32 21 33
ROOT
ATOM      1  N   UNL     1      -1.315   0.325  -0.762  1.00  0.00    -0.305 N 
ATOM      2  H   UNL     1      -2.229   0.088  -1.211  1.00  0.00     0.352 HD
ATOM      3  H   UNL     1      -0.864   1.031  -1.391  1.00  0.00     0.352 HD
ENDROOT
BRANCH   1   4
ATOM      4  C   UNL     1      -0.442  -0.880  -0.664  1.00  0.00     0.227 C 
ATOM      5  C   UNL     1       1.756  -2.581  -1.808  1.00  0.00     0.024 C 
ATOM      6  C   UNL     1       1.973  -1.748  -0.537  1.00  0.00     0.021 C 
ATOM      7  C   UNL     1       0.280  -3.000  -1.914  1.00  0.00     0.204 C 
ATOM      8  C   UNL     1       1.070  -0.499  -0.521  1.00  0.00     0.085 C 
ATOM      9  C   UNL     1      -0.648  -1.771  -1.922  1.00  0.00     0.207 C 
ATOM     10  C   UNL     1       2.674  -3.811  -1.800  1.00  0.00     0.011 C 
ATOM     11  F   UNL     1       0.085  -3.720  -3.083  1.00  0.00    -0.244 F 
BRANCH   8  12
ATOM     12  C   UNL     1       1.380   0.308   0.728  1.00  0.00     0.006 A 
ATOM     13  C   UNL     1       2.064   1.544   0.637  1.00  0.00     0.008 A 
ATOM     14  C   UNL     1       1.053  -0.135   2.019  1.00  0.00     0.158 A 
ATOM     15  C   UNL     1       2.357   2.296   1.797  1.00  0.00     0.003 A 
ATOM     16  O   UNL     1       0.449  -1.232   2.390  1.00  0.00    -0.443 OA
ATOM     17  C   UNL     1       1.337   0.594   3.134  1.00  0.00     0.109 A 
ATOM     18  C   UNL     1       1.986   1.822   3.067  1.00  0.00     0.032 A 
ATOM     19  C   UNL     1       0.359  -1.175   3.708  1.00  0.00     0.309 A 
ATOM     20  N   UNL     1       0.901  -0.046   4.232  1.00  0.00    -0.217 NA
ENDBRANCH   8  12
BRANCH   9  21
ATOM     21  O   UNL     1      -1.982  -2.213  -1.966  1.00  0.00    -0.384 OA
ATOM     22  H   UNL     1      -2.189  -2.418  -2.915  1.00  0.00     0.211 HD
ENDBRANCH   9  21
ENDBRANCH   1   4
BRANCH   1  23
ATOM     23  C   UNL     1      -1.627   0.910   0.525  1.00  0.00     0.174 A 
ATOM     24  C   UNL     1      -1.155   2.196   0.843  1.00  0.00     0.072 A 
ATOM     25  C   UNL     1      -2.453   0.230   1.452  1.00  0.00     0.200 A 
ATOM     26  C   UNL     1      -1.427   2.766   2.084  1.00  0.00     0.009 A 
ATOM     27  C   UNL     1      -2.696   0.798   2.727  1.00  0.00     0.080 A 
ATOM     28  C   UNL     1      -2.181   2.068   3.024  1.00  0.00     0.030 A 
BRANCH  25  29
ATOM     29  O   UNL     1      -3.027  -0.985   1.066  1.00  0.00    -0.501 OA
ATOM     30  H   UNL     1      -3.711  -1.486   1.617  1.00  0.00     0.293 HD
ENDBRANCH  25  29
BRANCH  27  31
ATOM     31  N   UNL     1      -3.438   0.103   3.738  1.00  0.00    -0.396 N 
ATOM     32  H   UNL     1      -3.656  -0.913   3.676  1.00  0.00     0.156 HD
ATOM     33  H   UNL     1      -3.687   0.584   4.631  1.00  0.00     0.156 HD
ENDBRANCH  27  31
ENDBRANCH   1  23
TORSDOF 6


