REMARK SMILES Cc1ccc(-c2cc(C=O)c(NC(=O)N[C@@H](c3ccc(F)cc3)C(C)C)cc2F)cc1
REMARK SMILES IDX 12 1 13 2 14 3 15 4 11 7 6 8 7 9 28 10 8 11 27 12 29 13 5 14
REMARK SMILES IDX 2 15 3 16 31 17 4 18 30 19 1 20 9 21 10 22 16 23 17 24 18 25
REMARK SMILES IDX 23 26 19 27 22 28 20 29 21 30 24 31 25 32 26 33
REMARK H PARENT 12 5 15 6
ROOT
ATOM      1  N   UNL     1      -0.153  -0.852  -1.683  1.00  0.00    -0.307 N 
ATOM      2  C   UNL     1      -1.128   0.149  -1.361  1.00  0.00     0.319 C 
ATOM      3  O   UNL     1      -1.332   0.470  -0.158  1.00  0.00    -0.248 OA
ATOM      4  N   UNL     1      -1.861   0.793  -2.411  1.00  0.00    -0.331 N 
ATOM      5  H   UNL     1      -0.174  -1.276  -2.637  1.00  0.00     0.171 HD
ATOM      6  H   UNL     1      -1.662   0.507  -3.397  1.00  0.00     0.166 HD
ENDROOT
BRANCH   1   7
ATOM      7  C   UNL     1       0.671  -1.465  -0.682  1.00  0.00     0.056 A 
ATOM      8  C   UNL     1       2.139  -2.743   1.359  1.00  0.00     0.018 A 
ATOM      9  C   UNL     1       2.279  -1.362   1.140  1.00  0.00     0.025 A 
ATOM     10  C   UNL     1       1.274  -3.482   0.534  1.00  0.00     0.133 A 
ATOM     11  C   UNL     1       1.574  -0.715   0.112  1.00  0.00     0.039 A 
ATOM     12  C   UNL     1       0.553  -2.845  -0.477  1.00  0.00     0.066 A 
ATOM     13  F   UNL     1       1.087  -4.811   0.736  1.00  0.00    -0.206 F 
BRANCH   8  14
ATOM     14  C   UNL     1       2.905  -3.401   2.446  1.00  0.00    -0.015 A 
ATOM     15  C   UNL     1       4.360  -4.644   4.515  1.00  0.00    -0.051 A 
ATOM     16  C   UNL     1       4.342  -5.202   3.228  1.00  0.00     0.004 A 
ATOM     17  C   UNL     1       3.671  -3.446   4.755  1.00  0.00     0.004 A 
ATOM     18  C   UNL     1       3.616  -4.589   2.203  1.00  0.00     0.009 A 
ATOM     19  C   UNL     1       2.946  -2.832   3.730  1.00  0.00     0.009 A 
ATOM     20  C   UNL     1       5.170  -5.280   5.605  1.00  0.00     0.044 C 
ENDBRANCH   8  14
BRANCH  11  21
ATOM     21  C   UNL     1       1.853   0.720  -0.121  1.00  0.00     0.262 C 
ATOM     22  O   UNL     1       1.557   1.285  -1.207  1.00  0.00    -0.298 OA
ENDBRANCH  11  21
ENDBRANCH   1   7
BRANCH   4  23
ATOM     23  C   UNL     1      -2.699   1.972  -2.161  1.00  0.00     0.116 C 
BRANCH  23  24
ATOM     24  C   UNL     1      -1.800   3.172  -1.931  1.00  0.00    -0.025 A 
ATOM     25  C   UNL     1      -1.933   3.944  -0.763  1.00  0.00     0.009 A 
ATOM     26  C   UNL     1      -0.825   3.530  -2.880  1.00  0.00     0.009 A 
ATOM     27  C   UNL     1      -1.103   5.048  -0.548  1.00  0.00     0.039 A 
ATOM     28  C   UNL     1       0.003   4.635  -2.660  1.00  0.00     0.039 A 
ATOM     29  C   UNL     1      -0.135   5.393  -1.495  1.00  0.00     0.123 A 
ATOM     30  F   UNL     1       0.670   6.463  -1.283  1.00  0.00    -0.207 F 
ENDBRANCH  23  24
BRANCH  23  31
ATOM     31  C   UNL     1      -3.691   2.209  -3.335  1.00  0.00     0.010 C 
ATOM     32  C   UNL     1      -4.611   0.993  -3.532  1.00  0.00     0.010 C 
ATOM     33  C   UNL     1      -4.552   3.463  -3.102  1.00  0.00     0.010 C 
ENDBRANCH  23  31
ENDBRANCH   4  23
TORSDOF 6


