MODEL 1
REMARK VINA RESULT:      -5.8      0.000      0.000
REMARK SMILES Cc1cc(F)ncc1-c1ccc2cc[nH]c2c1[N-]C(=O)c1cc(F)c[nH]1
REMARK SMILES IDX 18 1 17 2 9 3 10 4 11 5 16 6 12 7 15 8 13 9 14 10 8 12 2 13
REMARK SMILES IDX 3 14 4 15 7 16 6 17 1 18 5 19 19 20 20 21 21 22 22 23 26 24
REMARK SMILES IDX 23 25 25 26 24 28
REMARK H PARENT 15 11 26 27
ROOT
ATOM      1  N   UNL     1      45.601 130.608  19.135  1.00  0.00    -0.619 NA
ENDROOT
BRANCH   1   2
ATOM      2  C   UNL     1      44.430 131.182  18.534  1.00  0.00    -0.101 A 
ATOM      3  C   UNL     1      44.200 131.191  17.125  1.00  0.00    -0.029 A 
ATOM      4  C   UNL     1      42.996 131.742  16.617  1.00  0.00     0.008 A 
ATOM      5  C   UNL     1      42.043 132.313  17.477  1.00  0.00     0.011 A 
ATOM      6  C   UNL     1      43.470 131.786  19.349  1.00  0.00     0.031 A 
ATOM      7  C   UNL     1      42.320 132.324  18.838  1.00  0.00    -0.002 A 
ATOM      8  N   UNL     1      43.494 131.906  20.689  1.00  0.00    -0.362 N 
ATOM      9  C   UNL     1      41.583 132.810  19.896  1.00  0.00     0.028 A 
ATOM     10  C   UNL     1      42.344 132.533  21.026  1.00  0.00     0.083 A 
ATOM     11  H   UNL     1      44.240 131.580  21.341  1.00  0.00     0.166 HD
BRANCH   3  12
ATOM     12  C   UNL     1      45.199 130.679  16.160  1.00  0.00     0.002 A 
ATOM     13  C   UNL     1      46.048 131.537  15.420  1.00  0.00    -0.037 A 
ATOM     14  C   UNL     1      47.009 130.973  14.568  1.00  0.00     0.064 A 
ATOM     15  C   UNL     1      47.081 129.588  14.422  1.00  0.00     0.213 A 
ATOM     16  C   UNL     1      45.293 129.293  15.951  1.00  0.00     0.123 A 
ATOM     17  N   UNL     1      46.224 128.786  15.104  1.00  0.00    -0.228 NA
ATOM     18  C   UNL     1      45.969 133.037  15.535  1.00  0.00     0.045 C 
ATOM     19  F   UNL     1      48.002 129.039  13.593  1.00  0.00    -0.185 F 
ENDBRANCH   3  12
ENDBRANCH   1   2
BRANCH   1  20
ATOM     20  C   UNL     1      45.929 130.619  20.530  1.00  0.00     0.102 C 
ATOM     21  O   UNL     1      46.575 131.595  20.992  1.00  0.00    -0.313 OA
BRANCH  20  22
ATOM     22  C   UNL     1      45.495 129.546  21.446  1.00  0.00     0.066 A 
ATOM     23  C   UNL     1      45.757 128.193  21.306  1.00  0.00     0.069 A 
ATOM     24  N   UNL     1      44.751 129.766  22.549  1.00  0.00    -0.357 N 
ATOM     25  C   UNL     1      45.151 127.586  22.384  1.00  0.00     0.141 A 
ATOM     26  C   UNL     1      44.543 128.571  23.131  1.00  0.00     0.122 A 
ATOM     27  H   UNL     1      44.409 130.688  22.900  1.00  0.00     0.166 HD
ATOM     28  F   UNL     1      45.146 126.259  22.657  1.00  0.00    -0.205 F 
ENDBRANCH  20  22
ENDBRANCH   1  20
TORSDOF 4
ENDMDL
MODEL 2
REMARK VINA RESULT:      -5.7      0.791      1.402
REMARK SMILES Cc1cc(F)ncc1-c1ccc2cc[nH]c2c1[N-]C(=O)c1cc(F)c[nH]1
REMARK SMILES IDX 18 1 17 2 9 3 10 4 11 5 16 6 12 7 15 8 13 9 14 10 8 12 2 13
REMARK SMILES IDX 3 14 4 15 7 16 6 17 1 18 5 19 19 20 20 21 21 22 22 23 26 24
REMARK SMILES IDX 23 25 25 26 24 28
REMARK H PARENT 15 11 26 27
ROOT
ATOM      1  N   UNL     1      45.740 130.904  18.974  1.00  0.00    -0.619 NA
ENDROOT
BRANCH   1   2
ATOM      2  C   UNL     1      44.509 131.383  18.408  1.00  0.00    -0.101 A 
ATOM      3  C   UNL     1      44.269 131.447  17.002  1.00  0.00    -0.029 A 
ATOM      4  C   UNL     1      43.009 131.893  16.528  1.00  0.00     0.008 A 
ATOM      5  C   UNL     1      42.007 132.310  17.420  1.00  0.00     0.011 A 
ATOM      6  C   UNL     1      43.497 131.834  19.258  1.00  0.00     0.031 A 
ATOM      7  C   UNL     1      42.292 132.273  18.780  1.00  0.00    -0.002 A 
ATOM      8  N   UNL     1      43.517 131.880  20.602  1.00  0.00    -0.362 N 
ATOM      9  C   UNL     1      41.515 132.617  19.865  1.00  0.00     0.028 A 
ATOM     10  C   UNL     1      42.309 132.360  20.976  1.00  0.00     0.083 A 
ATOM     11  H   UNL     1      44.299 131.598  21.234  1.00  0.00     0.166 HD
BRANCH   3  12
ATOM     12  C   UNL     1      45.309 131.099  16.008  1.00  0.00     0.002 A 
ATOM     13  C   UNL     1      45.535 129.769  15.580  1.00  0.00    -0.037 A 
ATOM     14  C   UNL     1      46.500 129.527  14.591  1.00  0.00     0.064 A 
ATOM     15  C   UNL     1      47.254 130.585  14.083  1.00  0.00     0.213 A 
ATOM     16  C   UNL     1      46.119 132.122  15.487  1.00  0.00     0.123 A 
ATOM     17  N   UNL     1      47.055 131.846  14.544  1.00  0.00    -0.228 NA
ATOM     18  C   UNL     1      44.756 128.605  16.134  1.00  0.00     0.045 C 
ATOM     19  F   UNL     1      48.194 130.355  13.134  1.00  0.00    -0.185 F 
ENDBRANCH   3  12
ENDBRANCH   1   2
BRANCH   1  20
ATOM     20  C   UNL     1      46.063 130.843  20.369  1.00  0.00     0.102 C 
ATOM     21  O   UNL     1      46.727 131.783  20.878  1.00  0.00    -0.313 OA
BRANCH  20  22
ATOM     22  C   UNL     1      45.604 129.737  21.231  1.00  0.00     0.066 A 
ATOM     23  C   UNL     1      45.817 128.386  21.015  1.00  0.00     0.069 A 
ATOM     24  N   UNL     1      44.882 129.922  22.356  1.00  0.00    -0.357 N 
ATOM     25  C   UNL     1      45.205 127.742  22.068  1.00  0.00     0.141 A 
ATOM     26  C   UNL     1      44.640 128.705  22.875  1.00  0.00     0.122 A 
ATOM     27  H   UNL     1      44.576 130.835  22.761  1.00  0.00     0.166 HD
ATOM     28  F   UNL     1      45.158 126.403  22.269  1.00  0.00    -0.205 F 
ENDBRANCH  20  22
ENDBRANCH   1  20
TORSDOF 4
ENDMDL
MODEL 3
REMARK VINA RESULT:      -5.6      4.225      7.735
REMARK SMILES Cc1cc(F)ncc1-c1ccc2cc[nH]c2c1[N-]C(=O)c1cc(F)c[nH]1
REMARK SMILES IDX 18 1 17 2 9 3 10 4 11 5 16 6 12 7 15 8 13 9 14 10 8 12 2 13
REMARK SMILES IDX 3 14 4 15 7 16 6 17 1 18 5 19 19 20 20 21 21 22 22 23 26 24
REMARK SMILES IDX 23 25 25 26 24 28
REMARK H PARENT 15 11 26 27
ROOT
ATOM      1  N   UNL     1      44.821 127.947  23.150  1.00  0.00    -0.619 NA
ENDROOT
BRANCH   1   2
ATOM      2  C   UNL     1      44.116 126.791  23.629  1.00  0.00    -0.101 A 
ATOM      3  C   UNL     1      44.747 125.534  23.868  1.00  0.00    -0.029 A 
ATOM      4  C   UNL     1      43.983 124.455  24.382  1.00  0.00     0.008 A 
ATOM      5  C   UNL     1      42.607 124.593  24.625  1.00  0.00     0.011 A 
ATOM      6  C   UNL     1      42.740 126.877  23.856  1.00  0.00     0.031 A 
ATOM      7  C   UNL     1      42.018 125.820  24.341  1.00  0.00    -0.002 A 
ATOM      8  N   UNL     1      41.948 127.949  23.681  1.00  0.00    -0.362 N 
ATOM      9  C   UNL     1      40.711 126.236  24.475  1.00  0.00     0.028 A 
ATOM     10  C   UNL     1      40.707 127.561  24.055  1.00  0.00     0.083 A 
ATOM     11  H   UNL     1      42.226 128.893  23.333  1.00  0.00     0.166 HD
BRANCH   3  12
ATOM     12  C   UNL     1      46.175 125.297  23.558  1.00  0.00     0.002 A 
ATOM     13  C   UNL     1      46.596 124.329  22.615  1.00  0.00    -0.037 A 
ATOM     14  C   UNL     1      47.965 124.204  22.333  1.00  0.00     0.064 A 
ATOM     15  C   UNL     1      48.889 124.993  23.017  1.00  0.00     0.213 A 
ATOM     16  C   UNL     1      47.150 126.042  24.241  1.00  0.00     0.123 A 
ATOM     17  N   UNL     1      48.467 125.881  23.953  1.00  0.00    -0.228 NA
ATOM     18  C   UNL     1      45.621 123.443  21.886  1.00  0.00     0.045 C 
ATOM     19  F   UNL     1      50.213 124.870  22.755  1.00  0.00    -0.185 F 
ENDBRANCH   3  12
ENDBRANCH   1   2
BRANCH   1  20
ATOM     20  C   UNL     1      44.458 129.314  23.374  1.00  0.00     0.102 C 
ATOM     21  O   UNL     1      44.468 129.758  24.552  1.00  0.00    -0.313 OA
BRANCH  20  22
ATOM     22  C   UNL     1      44.115 130.226  22.266  1.00  0.00     0.066 A 
ATOM     23  C   UNL     1      45.000 130.772  21.350  1.00  0.00     0.069 A 
ATOM     24  N   UNL     1      42.862 130.663  22.022  1.00  0.00    -0.357 N 
ATOM     25  C   UNL     1      44.232 131.558  20.518  1.00  0.00     0.141 A 
ATOM     26  C   UNL     1      42.927 131.473  20.950  1.00  0.00     0.122 A 
ATOM     27  H   UNL     1      41.998 130.413  22.553  1.00  0.00     0.166 HD
ATOM     28  F   UNL     1      44.680 132.289  19.469  1.00  0.00    -0.205 F 
ENDBRANCH  20  22
ENDBRANCH   1  20
TORSDOF 4
ENDMDL
MODEL 4
REMARK VINA RESULT:      -5.5      1.023      1.190
REMARK SMILES Cc1cc(F)ncc1-c1ccc2cc[nH]c2c1[N-]C(=O)c1cc(F)c[nH]1
REMARK SMILES IDX 18 1 17 2 9 3 10 4 11 5 16 6 12 7 15 8 13 9 14 10 8 12 2 13
REMARK SMILES IDX 3 14 4 15 7 16 6 17 1 18 5 19 19 20 20 21 21 22 22 23 26 24
REMARK SMILES IDX 23 25 25 26 24 28
REMARK H PARENT 15 11 26 27
ROOT
ATOM      1  N   UNL     1      45.556 130.648  19.281  1.00  0.00    -0.619 NA
ENDROOT
BRANCH   1   2
ATOM      2  C   UNL     1      44.366 131.228  18.722  1.00  0.00    -0.101 A 
ATOM      3  C   UNL     1      44.102 131.272  17.320  1.00  0.00    -0.029 A 
ATOM      4  C   UNL     1      42.882 131.826  16.855  1.00  0.00     0.008 A 
ATOM      5  C   UNL     1      41.946 132.368  17.752  1.00  0.00     0.011 A 
ATOM      6  C   UNL     1      43.422 131.805  19.575  1.00  0.00     0.031 A 
ATOM      7  C   UNL     1      42.256 132.346  19.106  1.00  0.00    -0.002 A 
ATOM      8  N   UNL     1      43.477 131.891  20.917  1.00  0.00    -0.362 N 
ATOM      9  C   UNL     1      41.542 132.800  20.193  1.00  0.00     0.028 A 
ATOM     10  C   UNL     1      42.331 132.500  21.297  1.00  0.00     0.083 A 
ATOM     11  H   UNL     1      44.241 131.553  21.543  1.00  0.00     0.166 HD
BRANCH   3  12
ATOM     12  C   UNL     1      45.081 130.791  16.319  1.00  0.00     0.002 A 
ATOM     13  C   UNL     1      44.929 131.036  14.932  1.00  0.00    -0.037 A 
ATOM     14  C   UNL     1      45.930 130.599  14.051  1.00  0.00     0.064 A 
ATOM     15  C   UNL     1      47.026 129.890  14.542  1.00  0.00     0.213 A 
ATOM     16  C   UNL     1      46.188 130.045  16.755  1.00  0.00     0.123 A 
ATOM     17  N   UNL     1      47.127 129.624  15.869  1.00  0.00    -0.228 NA
ATOM     18  C   UNL     1      43.740 131.771  14.373  1.00  0.00     0.045 C 
ATOM     19  F   UNL     1      47.990 129.458  13.693  1.00  0.00    -0.185 F 
ENDBRANCH   3  12
ENDBRANCH   1   2
BRANCH   1  20
ATOM     20  C   UNL     1      45.887 130.571  20.673  1.00  0.00     0.102 C 
ATOM     21  O   UNL     1      46.530 131.519  21.195  1.00  0.00    -0.313 OA
BRANCH  20  22
ATOM     22  C   UNL     1      45.461 129.440  21.518  1.00  0.00     0.066 A 
ATOM     23  C   UNL     1      44.595 129.503  22.598  1.00  0.00     0.069 A 
ATOM     24  N   UNL     1      45.897 128.175  21.344  1.00  0.00    -0.357 N 
ATOM     25  C   UNL     1      44.505 128.214  23.076  1.00  0.00     0.141 A 
ATOM     26  C   UNL     1      45.310 127.420  22.290  1.00  0.00     0.122 A 
ATOM     27  H   UNL     1      46.555 127.836  20.607  1.00  0.00     0.166 HD
ATOM     28  F   UNL     1      43.764 127.802  24.133  1.00  0.00    -0.205 F 
ENDBRANCH  20  22
ENDBRANCH   1  20
TORSDOF 4
ENDMDL
MODEL 5
REMARK VINA RESULT:      -5.4      2.359      6.707
REMARK SMILES Cc1cc(F)ncc1-c1ccc2cc[nH]c2c1[N-]C(=O)c1cc(F)c[nH]1
REMARK SMILES IDX 18 1 17 2 9 3 10 4 11 5 16 6 12 7 15 8 13 9 14 10 8 12 2 13
REMARK SMILES IDX 3 14 4 15 7 16 6 17 1 18 5 19 19 20 20 21 21 22 22 23 26 24
REMARK SMILES IDX 23 25 25 26 24 28
REMARK H PARENT 15 11 26 27
ROOT
ATOM      1  N   UNL     1      45.174 129.389  21.200  1.00  0.00    -0.619 NA
ENDROOT
BRANCH   1   2
ATOM      2  C   UNL     1      44.315 129.308  22.349  1.00  0.00    -0.101 A 
ATOM      3  C   UNL     1      44.220 128.146  23.173  1.00  0.00    -0.029 A 
ATOM      4  C   UNL     1      43.378 128.165  24.314  1.00  0.00     0.008 A 
ATOM      5  C   UNL     1      42.607 129.298  24.625  1.00  0.00     0.011 A 
ATOM      6  C   UNL     1      43.509 130.400  22.678  1.00  0.00     0.031 A 
ATOM      7  C   UNL     1      42.694 130.395  23.777  1.00  0.00    -0.002 A 
ATOM      8  N   UNL     1      43.427 131.578  22.034  1.00  0.00    -0.362 N 
ATOM      9  C   UNL     1      42.062 131.618  23.831  1.00  0.00     0.028 A 
ATOM     10  C   UNL     1      42.542 132.324  22.734  1.00  0.00     0.083 A 
ATOM     11  H   UNL     1      43.941 131.868  21.173  1.00  0.00     0.166 HD
BRANCH   3  12
ATOM     12  C   UNL     1      44.944 126.894  22.856  1.00  0.00     0.002 A 
ATOM     13  C   UNL     1      44.403 125.615  23.131  1.00  0.00    -0.037 A 
ATOM     14  C   UNL     1      45.124 124.474  22.748  1.00  0.00     0.064 A 
ATOM     15  C   UNL     1      46.377 124.613  22.152  1.00  0.00     0.213 A 
ATOM     16  C   UNL     1      46.224 126.975  22.283  1.00  0.00     0.123 A 
ATOM     17  N   UNL     1      46.899 125.848  21.942  1.00  0.00    -0.228 NA
ATOM     18  C   UNL     1      43.066 125.438  23.802  1.00  0.00     0.045 C 
ATOM     19  F   UNL     1      47.082 123.514  21.789  1.00  0.00    -0.185 F 
ENDBRANCH   3  12
ENDBRANCH   1   2
BRANCH   1  20
ATOM     20  C   UNL     1      45.570 130.588  20.522  1.00  0.00     0.102 C 
ATOM     21  O   UNL     1      46.101 131.513  21.189  1.00  0.00    -0.313 OA
BRANCH  20  22
ATOM     22  C   UNL     1      45.414 130.751  19.064  1.00  0.00     0.066 A 
ATOM     23  C   UNL     1      44.532 131.606  18.424  1.00  0.00     0.069 A 
ATOM     24  N   UNL     1      46.123 130.048  18.157  1.00  0.00    -0.357 N 
ATOM     25  C   UNL     1      44.738 131.409  17.076  1.00  0.00     0.141 A 
ATOM     26  C   UNL     1      45.718 130.451  16.939  1.00  0.00     0.122 A 
ATOM     27  H   UNL     1      46.859 129.333  18.355  1.00  0.00     0.166 HD
ATOM     28  F   UNL     1      44.088 132.038  16.067  1.00  0.00    -0.205 F 
ENDBRANCH  20  22
ENDBRANCH   1  20
TORSDOF 4
ENDMDL
MODEL 6
REMARK VINA RESULT:      -3.8      2.292      6.635
REMARK SMILES Cc1cc(F)ncc1-c1ccc2cc[nH]c2c1[N-]C(=O)c1cc(F)c[nH]1
REMARK SMILES IDX 18 1 17 2 9 3 10 4 11 5 16 6 12 7 15 8 13 9 14 10 8 12 2 13
REMARK SMILES IDX 3 14 4 15 7 16 6 17 1 18 5 19 19 20 20 21 21 22 22 23 26 24
REMARK SMILES IDX 23 25 25 26 24 28
REMARK H PARENT 15 11 26 27
ROOT
ATOM      1  N   UNL     1      45.261 129.246  21.366  1.00  0.00    -0.619 NA
ENDROOT
BRANCH   1   2
ATOM      2  C   UNL     1      44.330 129.162  22.457  1.00  0.00    -0.101 A 
ATOM      3  C   UNL     1      44.141 127.980  23.234  1.00  0.00    -0.029 A 
ATOM      4  C   UNL     1      43.232 127.995  24.321  1.00  0.00     0.008 A 
ATOM      5  C   UNL     1      42.485 129.146  24.623  1.00  0.00     0.011 A 
ATOM      6  C   UNL     1      43.547 130.274  22.774  1.00  0.00     0.031 A 
ATOM      7  C   UNL     1      42.664 130.266  23.820  1.00  0.00    -0.002 A 
ATOM      8  N   UNL     1      43.548 131.475  22.166  1.00  0.00    -0.362 N 
ATOM      9  C   UNL     1      42.077 131.510  23.878  1.00  0.00     0.028 A 
ATOM     10  C   UNL     1      42.649 132.232  22.837  1.00  0.00     0.083 A 
ATOM     11  H   UNL     1      44.125 131.771  21.349  1.00  0.00     0.166 HD
BRANCH   3  12
ATOM     12  C   UNL     1      44.836 126.711  22.919  1.00  0.00     0.002 A 
ATOM     13  C   UNL     1      46.023 126.312  23.579  1.00  0.00    -0.037 A 
ATOM     14  C   UNL     1      46.591 125.068  23.266  1.00  0.00     0.064 A 
ATOM     15  C   UNL     1      46.012 124.269  22.280  1.00  0.00     0.213 A 
ATOM     16  C   UNL     1      44.313 125.882  21.912  1.00  0.00     0.123 A 
ATOM     17  N   UNL     1      44.901 124.692  21.625  1.00  0.00    -0.228 NA
ATOM     18  C   UNL     1      46.687 127.170  24.624  1.00  0.00     0.045 C 
ATOM     19  F   UNL     1      46.562 123.070  21.968  1.00  0.00    -0.185 F 
ENDBRANCH   3  12
ENDBRANCH   1   2
BRANCH   1  20
ATOM     20  C   UNL     1      45.667 130.442  20.690  1.00  0.00     0.102 C 
ATOM     21  O   UNL     1      46.272 131.331  21.343  1.00  0.00    -0.313 OA
BRANCH  20  22
ATOM     22  C   UNL     1      45.436 130.644  19.246  1.00  0.00     0.066 A 
ATOM     23  C   UNL     1      46.025 129.931  18.214  1.00  0.00     0.069 A 
ATOM     24  N   UNL     1      44.613 131.590  18.749  1.00  0.00    -0.357 N 
ATOM     25  C   UNL     1      45.516 130.472  17.054  1.00  0.00     0.141 A 
ATOM     26  C   UNL     1      44.653 131.486  17.409  1.00  0.00     0.122 A 
ATOM     27  H   UNL     1      44.039 132.270  19.296  1.00  0.00     0.166 HD
ATOM     28  F   UNL     1      45.816 130.084  15.791  1.00  0.00    -0.205 F 
ENDBRANCH  20  22
ENDBRANCH   1  20
TORSDOF 4
ENDMDL
MODEL 7
REMARK VINA RESULT:      -3.3      2.467      3.132
REMARK SMILES Cc1cc(F)ncc1-c1ccc2cc[nH]c2c1[N-]C(=O)c1cc(F)c[nH]1
REMARK SMILES IDX 18 1 17 2 9 3 10 4 11 5 16 6 12 7 15 8 13 9 14 10 8 12 2 13
REMARK SMILES IDX 3 14 4 15 7 16 6 17 1 18 5 19 19 20 20 21 21 22 22 23 26 24
REMARK SMILES IDX 23 25 25 26 24 28
REMARK H PARENT 15 11 26 27
ROOT
ATOM      1  N   UNL     1      45.826 131.031  18.893  1.00  0.00    -0.619 NA
ENDROOT
BRANCH   1   2
ATOM      2  C   UNL     1      44.564 131.430  18.336  1.00  0.00    -0.101 A 
ATOM      3  C   UNL     1      44.303 131.459  16.933  1.00  0.00    -0.029 A 
ATOM      4  C   UNL     1      43.014 131.827  16.469  1.00  0.00     0.008 A 
ATOM      5  C   UNL     1      42.000 132.198  17.368  1.00  0.00     0.011 A 
ATOM      6  C   UNL     1      43.537 131.835  19.192  1.00  0.00     0.031 A 
ATOM      7  C   UNL     1      42.303 132.198  18.724  1.00  0.00    -0.002 A 
ATOM      8  N   UNL     1      43.572 131.902  20.535  1.00  0.00    -0.362 N 
ATOM      9  C   UNL     1      41.522 132.513  19.814  1.00  0.00     0.028 A 
ATOM     10  C   UNL     1      42.343 132.318  20.919  1.00  0.00     0.083 A 
ATOM     11  H   UNL     1      44.376 131.675  21.161  1.00  0.00     0.166 HD
BRANCH   3  12
ATOM     12  C   UNL     1      45.349 131.157  15.930  1.00  0.00     0.002 A 
ATOM     13  C   UNL     1      45.609 129.841  15.478  1.00  0.00    -0.037 A 
ATOM     14  C   UNL     1      46.577 129.643  14.482  1.00  0.00     0.064 A 
ATOM     15  C   UNL     1      47.302 130.729  13.992  1.00  0.00     0.213 A 
ATOM     16  C   UNL     1      46.130 132.210  15.425  1.00  0.00     0.123 A 
ATOM     17  N   UNL     1      47.071 131.976  14.475  1.00  0.00    -0.228 NA
ATOM     18  C   UNL     1      44.863 128.648  16.013  1.00  0.00     0.045 C 
ATOM     19  F   UNL     1      48.245 130.540  13.037  1.00  0.00    -0.185 F 
ENDBRANCH   3  12
ENDBRANCH   1   2
BRANCH   1  20
ATOM     20  C   UNL     1      46.136 130.909  20.286  1.00  0.00     0.102 C 
ATOM     21  O   UNL     1      46.000 129.788  20.841  1.00  0.00    -0.313 OA
BRANCH  20  22
ATOM     22  C   UNL     1      46.651 132.044  21.076  1.00  0.00     0.066 A 
ATOM     23  C   UNL     1      47.910 132.614  20.970  1.00  0.00     0.069 A 
ATOM     24  N   UNL     1      45.938 132.665  22.039  1.00  0.00    -0.357 N 
ATOM     25  C   UNL     1      47.937 133.626  21.905  1.00  0.00     0.141 A 
ATOM     26  C   UNL     1      46.717 133.638  22.544  1.00  0.00     0.122 A 
ATOM     27  H   UNL     1      44.960 132.446  22.333  1.00  0.00     0.166 HD
ATOM     28  F   UNL     1      48.978 134.456  22.155  1.00  0.00    -0.205 F 
ENDBRANCH  20  22
ENDBRANCH   1  20
TORSDOF 4
ENDMDL
MODEL 8
REMARK VINA RESULT:      -3.1      1.496      1.973
REMARK SMILES Cc1cc(F)ncc1-c1ccc2cc[nH]c2c1[N-]C(=O)c1cc(F)c[nH]1
REMARK SMILES IDX 18 1 17 2 9 3 10 4 11 5 16 6 12 7 15 8 13 9 14 10 8 12 2 13
REMARK SMILES IDX 3 14 4 15 7 16 6 17 1 18 5 19 19 20 20 21 21 22 22 23 26 24
REMARK SMILES IDX 23 25 25 26 24 28
REMARK H PARENT 15 11 26 27
ROOT
ATOM      1  N   UNL     1      45.517 131.255  19.177  1.00  0.00    -0.619 NA
ENDROOT
BRANCH   1   2
ATOM      2  C   UNL     1      44.283 131.626  18.542  1.00  0.00    -0.101 A 
ATOM      3  C   UNL     1      44.087 131.582  17.129  1.00  0.00    -0.029 A 
ATOM      4  C   UNL     1      42.823 131.926  16.587  1.00  0.00     0.008 A 
ATOM      5  C   UNL     1      41.770 132.346  17.417  1.00  0.00     0.011 A 
ATOM      6  C   UNL     1      43.219 132.077  19.327  1.00  0.00     0.031 A 
ATOM      7  C   UNL     1      42.010 132.417  18.784  1.00  0.00    -0.002 A 
ATOM      8  N   UNL     1      43.192 132.215  20.665  1.00  0.00    -0.362 N 
ATOM      9  C   UNL     1      41.180 132.791  19.818  1.00  0.00     0.028 A 
ATOM     10  C   UNL     1      41.948 132.653  20.968  1.00  0.00     0.083 A 
ATOM     11  H   UNL     1      43.965 132.020  21.338  1.00  0.00     0.166 HD
BRANCH   3  12
ATOM     12  C   UNL     1      45.178 131.225  16.193  1.00  0.00     0.002 A 
ATOM     13  C   UNL     1      45.482 129.884  15.858  1.00  0.00    -0.037 A 
ATOM     14  C   UNL     1      46.492 129.629  14.918  1.00  0.00     0.064 A 
ATOM     15  C   UNL     1      47.213 130.690  14.370  1.00  0.00     0.213 A 
ATOM     16  C   UNL     1      45.957 132.253  15.635  1.00  0.00     0.123 A 
ATOM     17  N   UNL     1      46.938 131.966  14.742  1.00  0.00    -0.228 NA
ATOM     18  C   UNL     1      44.740 128.720  16.460  1.00  0.00     0.045 C 
ATOM     19  F   UNL     1      48.196 130.448  13.469  1.00  0.00    -0.185 F 
ENDBRANCH   3  12
ENDBRANCH   1   2
BRANCH   1  20
ATOM     20  C   UNL     1      45.679 130.260  20.196  1.00  0.00     0.102 C 
ATOM     21  O   UNL     1      46.337 129.221  19.928  1.00  0.00    -0.313 OA
BRANCH  20  22
ATOM     22  C   UNL     1      45.136 130.436  21.557  1.00  0.00     0.066 A 
ATOM     23  C   UNL     1      44.492 129.470  22.314  1.00  0.00     0.069 A 
ATOM     24  N   UNL     1      45.187 131.602  22.233  1.00  0.00    -0.357 N 
ATOM     25  C   UNL     1      44.160 130.091  23.499  1.00  0.00     0.141 A 
ATOM     26  C   UNL     1      44.597 131.395  23.424  1.00  0.00     0.122 A 
ATOM     27  H   UNL     1      45.614 132.497  21.906  1.00  0.00     0.166 HD
ATOM     28  F   UNL     1      43.513 129.524  24.545  1.00  0.00    -0.205 F 
ENDBRANCH  20  22
ENDBRANCH   1  20
TORSDOF 4
ENDMDL
MODEL 9
REMARK VINA RESULT:      -3.1      1.136      1.255
REMARK SMILES Cc1cc(F)ncc1-c1ccc2cc[nH]c2c1[N-]C(=O)c1cc(F)c[nH]1
REMARK SMILES IDX 18 1 17 2 9 3 10 4 11 5 16 6 12 7 15 8 13 9 14 10 8 12 2 13
REMARK SMILES IDX 3 14 4 15 7 16 6 17 1 18 5 19 19 20 20 21 21 22 22 23 26 24
REMARK SMILES IDX 23 25 25 26 24 28
REMARK H PARENT 15 11 26 27
ROOT
ATOM      1  N   UNL     1      45.462 131.128  19.475  1.00  0.00    -0.619 NA
ENDROOT
BRANCH   1   2
ATOM      2  C   UNL     1      44.247 131.525  18.819  1.00  0.00    -0.101 A 
ATOM      3  C   UNL     1      44.017 131.343  17.423  1.00  0.00    -0.029 A 
ATOM      4  C   UNL     1      42.772 131.726  16.863  1.00  0.00     0.008 A 
ATOM      5  C   UNL     1      41.774 132.316  17.656  1.00  0.00     0.011 A 
ATOM      6  C   UNL     1      43.239 132.142  19.564  1.00  0.00     0.031 A 
ATOM      7  C   UNL     1      42.048 132.516  19.003  1.00  0.00    -0.002 A 
ATOM      8  N   UNL     1      43.252 132.426  20.879  1.00  0.00    -0.362 N 
ATOM      9  C   UNL     1      41.273 133.065  20.001  1.00  0.00     0.028 A 
ATOM     10  C   UNL     1      42.053 132.992  21.149  1.00  0.00     0.083 A 
ATOM     11  H   UNL     1      44.022 132.245  21.560  1.00  0.00     0.166 HD
BRANCH   3  12
ATOM     12  C   UNL     1      45.056 130.801  16.517  1.00  0.00     0.002 A 
ATOM     13  C   UNL     1      45.901 131.636  15.747  1.00  0.00    -0.037 A 
ATOM     14  C   UNL     1      46.901 131.049  14.957  1.00  0.00     0.064 A 
ATOM     15  C   UNL     1      47.015 129.660  14.900  1.00  0.00     0.213 A 
ATOM     16  C   UNL     1      45.194 129.408  16.398  1.00  0.00     0.123 A 
ATOM     17  N   UNL     1      46.163 128.877  15.609  1.00  0.00    -0.228 NA
ATOM     18  C   UNL     1      45.778 133.137  15.766  1.00  0.00     0.045 C 
ATOM     19  F   UNL     1      47.973 129.089  14.131  1.00  0.00    -0.185 F 
ENDBRANCH   3  12
ENDBRANCH   1   2
BRANCH   1  20
ATOM     20  C   UNL     1      45.616 130.023  20.375  1.00  0.00     0.102 C 
ATOM     21  O   UNL     1      46.308 129.037  20.011  1.00  0.00    -0.313 OA
BRANCH  20  22
ATOM     22  C   UNL     1      45.026 130.027  21.728  1.00  0.00     0.066 A 
ATOM     23  C   UNL     1      44.556 128.923  22.421  1.00  0.00     0.069 A 
ATOM     24  N   UNL     1      44.853 131.146  22.461  1.00  0.00    -0.357 N 
ATOM     25  C   UNL     1      44.096 129.411  23.624  1.00  0.00     0.141 A 
ATOM     26  C   UNL     1      44.290 130.774  23.625  1.00  0.00     0.122 A 
ATOM     27  H   UNL     1      45.116 132.120  22.189  1.00  0.00     0.166 HD
ATOM     28  F   UNL     1      43.544 128.682  24.624  1.00  0.00    -0.205 F 
ENDBRANCH  20  22
ENDBRANCH   1  20
TORSDOF 4
ENDMDL


