MODEL 1
REMARK VINA RESULT:      -9.7      0.000      0.000
REMARK SMILES Cn1cc2cc(F)c(-c3ccc4[nH]ccc4c3)c(F)c2[nH+]1
REMARK SMILES IDX 1 1 2 2 3 3 4 4 5 5 6 6 7 7 8 8 18 9 19 10 20 11 21 12 9 14
REMARK SMILES IDX 10 15 17 16 11 17 16 18 12 19 15 20 13 21 14 22
REMARK H PARENT 21 13 13 23
ROOT
ATOM      1  C   UNL     1      43.752 131.837  24.092  1.00  0.00     0.223 C 
ATOM      2  N   UNL     1      43.721 131.703  22.642  1.00  0.00    -0.165 N 
ATOM      3  C   UNL     1      42.734 132.149  21.827  1.00  0.00     0.165 A 
ATOM      4  C   UNL     1      43.131 131.898  20.531  1.00  0.00     0.076 A 
ATOM      5  C   UNL     1      42.520 132.144  19.307  1.00  0.00     0.057 A 
ATOM      6  C   UNL     1      43.213 131.766  18.142  1.00  0.00     0.135 A 
ATOM      7  F   UNL     1      42.648 132.022  16.934  1.00  0.00    -0.206 F 
ATOM      8  C   UNL     1      44.498 131.154  18.224  1.00  0.00     0.060 A 
ATOM      9  C   UNL     1      45.084 130.928  19.495  1.00  0.00     0.208 A 
ATOM     10  F   UNL     1      46.294 130.327  19.626  1.00  0.00    -0.199 F 
ATOM     11  C   UNL     1      44.364 131.313  20.623  1.00  0.00     0.272 A 
ATOM     12  N   UNL     1      44.715 131.205  21.915  1.00  0.00    -0.121 N 
ATOM     13  H   UNL     1      45.607 130.817  22.297  1.00  0.00     0.489 HD
ENDROOT
BRANCH   8  14
ATOM     14  C   UNL     1      45.219 130.761  16.992  1.00  0.00    -0.011 A 
ATOM     15  C   UNL     1      45.306 129.392  16.620  1.00  0.00     0.011 A 
ATOM     16  C   UNL     1      45.826 131.745  16.178  1.00  0.00     0.019 A 
ATOM     17  C   UNL     1      45.989 129.006  15.452  1.00  0.00     0.027 A 
ATOM     18  C   UNL     1      46.493 131.326  15.030  1.00  0.00    -0.000 A 
ATOM     19  C   UNL     1      46.572 130.006  14.679  1.00  0.00     0.045 A 
ATOM     20  C   UNL     1      47.162 132.050  14.067  1.00  0.00     0.028 A 
ATOM     21  N   UNL     1      47.261 129.856  13.536  1.00  0.00    -0.361 N 
ATOM     22  C   UNL     1      47.625 131.104  13.158  1.00  0.00     0.083 A 
ATOM     23  H   UNL     1      47.476 128.963  13.039  1.00  0.00     0.166 HD
ENDBRANCH   8  14
TORSDOF 1
ENDMDL
MODEL 2
REMARK VINA RESULT:      -9.5      0.724      1.449
REMARK SMILES Cn1cc2cc(F)c(-c3ccc4[nH]ccc4c3)c(F)c2[nH+]1
REMARK SMILES IDX 1 1 2 2 3 3 4 4 5 5 6 6 7 7 8 8 18 9 19 10 20 11 21 12 9 14
REMARK SMILES IDX 10 15 17 16 11 17 16 18 12 19 15 20 13 21 14 22
REMARK H PARENT 21 13 13 23
ROOT
ATOM      1  C   UNL     1      43.810 131.450  24.070  1.00  0.00     0.223 C 
ATOM      2  N   UNL     1      43.795 131.406  22.614  1.00  0.00    -0.165 N 
ATOM      3  C   UNL     1      42.703 131.573  21.829  1.00  0.00     0.165 A 
ATOM      4  C   UNL     1      43.135 131.542  20.520  1.00  0.00     0.076 A 
ATOM      5  C   UNL     1      42.455 131.663  19.313  1.00  0.00     0.057 A 
ATOM      6  C   UNL     1      43.209 131.596  18.127  1.00  0.00     0.135 A 
ATOM      7  F   UNL     1      42.570 131.740  16.938  1.00  0.00    -0.206 F 
ATOM      8  C   UNL     1      44.622 131.414  18.172  1.00  0.00     0.060 A 
ATOM      9  C   UNL     1      45.273 131.301  19.426  1.00  0.00     0.208 A 
ATOM     10  F   UNL     1      46.613 131.102  19.519  1.00  0.00    -0.199 F 
ATOM     11  C   UNL     1      44.490 131.368  20.575  1.00  0.00     0.272 A 
ATOM     12  N   UNL     1      44.882 131.293  21.859  1.00  0.00    -0.121 N 
ATOM     13  H   UNL     1      45.857 131.179  22.215  1.00  0.00     0.489 HD
ENDROOT
BRANCH   8  14
ATOM     14  C   UNL     1      45.407 131.346  16.918  1.00  0.00    -0.011 A 
ATOM     15  C   UNL     1      45.692 132.531  16.186  1.00  0.00     0.011 A 
ATOM     16  C   UNL     1      45.876 130.101  16.440  1.00  0.00     0.019 A 
ATOM     17  C   UNL     1      46.436 132.477  14.994  1.00  0.00     0.027 A 
ATOM     18  C   UNL     1      46.609 130.087  15.256  1.00  0.00    -0.000 A 
ATOM     19  C   UNL     1      46.880 131.232  14.557  1.00  0.00     0.045 A 
ATOM     20  C   UNL     1      47.183 129.039  14.568  1.00  0.00     0.028 A 
ATOM     21  N   UNL     1      47.599 130.962  13.457  1.00  0.00    -0.361 N 
ATOM     22  C   UNL     1      47.788 129.621  13.458  1.00  0.00     0.083 A 
ATOM     23  H   UNL     1      47.945 131.642  12.743  1.00  0.00     0.166 HD
ENDBRANCH   8  14
TORSDOF 1
ENDMDL
MODEL 3
REMARK VINA RESULT:      -9.4      1.005      1.372
REMARK SMILES Cn1cc2cc(F)c(-c3ccc4[nH]ccc4c3)c(F)c2[nH+]1
REMARK SMILES IDX 1 1 2 2 3 3 4 4 5 5 6 6 7 7 8 8 18 9 19 10 20 11 21 12 9 14
REMARK SMILES IDX 10 15 17 16 11 17 16 18 12 19 15 20 13 21 14 22
REMARK H PARENT 21 13 13 23
ROOT
ATOM      1  C   UNL     1      44.264 131.159  24.529  1.00  0.00     0.223 C 
ATOM      2  N   UNL     1      44.011 131.246  23.097  1.00  0.00    -0.165 N 
ATOM      3  C   UNL     1      42.895 131.754  22.521  1.00  0.00     0.165 A 
ATOM      4  C   UNL     1      43.093 131.727  21.156  1.00  0.00     0.076 A 
ATOM      5  C   UNL     1      42.291 132.121  20.092  1.00  0.00     0.057 A 
ATOM      6  C   UNL     1      42.805 131.966  18.792  1.00  0.00     0.135 A 
ATOM      7  F   UNL     1      42.050 132.371  17.739  1.00  0.00    -0.206 F 
ATOM      8  C   UNL     1      44.107 131.425  18.584  1.00  0.00     0.060 A 
ATOM      9  C   UNL     1      44.892 131.041  19.700  1.00  0.00     0.208 A 
ATOM     10  F   UNL     1      46.127 130.499  19.551  1.00  0.00    -0.199 F 
ATOM     11  C   UNL     1      44.344 131.207  20.969  1.00  0.00     0.272 A 
ATOM     12  N   UNL     1      44.897 130.923  22.161  1.00  0.00    -0.121 N 
ATOM     13  H   UNL     1      45.849 130.533  22.338  1.00  0.00     0.489 HD
ENDROOT
BRANCH   8  14
ATOM     14  C   UNL     1      44.640 131.267  17.211  1.00  0.00    -0.011 A 
ATOM     15  C   UNL     1      43.951 131.835  16.105  1.00  0.00     0.011 A 
ATOM     16  C   UNL     1      45.837 130.547  16.991  1.00  0.00     0.019 A 
ATOM     17  C   UNL     1      44.447 131.690  14.797  1.00  0.00     0.027 A 
ATOM     18  C   UNL     1      46.298 130.424  15.683  1.00  0.00    -0.000 A 
ATOM     19  C   UNL     1      45.629 130.975  14.624  1.00  0.00     0.045 A 
ATOM     20  C   UNL     1      47.415 129.793  15.181  1.00  0.00     0.028 A 
ATOM     21  N   UNL     1      46.269 130.723  13.471  1.00  0.00    -0.361 N 
ATOM     22  C   UNL     1      47.363 130.000  13.806  1.00  0.00     0.083 A 
ATOM     23  H   UNL     1      45.985 131.021  12.511  1.00  0.00     0.166 HD
ENDBRANCH   8  14
TORSDOF 1
ENDMDL
MODEL 4
REMARK VINA RESULT:      -9.3      1.264      6.751
REMARK SMILES Cn1cc2cc(F)c(-c3ccc4[nH]ccc4c3)c(F)c2[nH+]1
REMARK SMILES IDX 1 1 2 2 3 3 4 4 5 5 6 6 7 7 8 8 18 9 19 10 20 11 21 12 9 14
REMARK SMILES IDX 10 15 17 16 11 17 16 18 12 19 15 20 13 21 14 22
REMARK H PARENT 21 13 13 23
ROOT
ATOM      1  C   UNL     1      48.599 129.258  13.482  1.00  0.00     0.223 C 
ATOM      2  N   UNL     1      47.517 129.868  14.244  1.00  0.00    -0.165 N 
ATOM      3  C   UNL     1      46.416 130.459  13.720  1.00  0.00     0.165 A 
ATOM      4  C   UNL     1      45.610 130.827  14.777  1.00  0.00     0.076 A 
ATOM      5  C   UNL     1      44.374 131.460  14.826  1.00  0.00     0.057 A 
ATOM      6  C   UNL     1      43.804 131.685  16.093  1.00  0.00     0.135 A 
ATOM      7  F   UNL     1      42.584 132.277  16.164  1.00  0.00    -0.206 F 
ATOM      8  C   UNL     1      44.478 131.271  17.279  1.00  0.00     0.060 A 
ATOM      9  C   UNL     1      45.735 130.624  17.179  1.00  0.00     0.208 A 
ATOM     10  F   UNL     1      46.426 130.233  18.280  1.00  0.00    -0.199 F 
ATOM     11  C   UNL     1      46.265 130.424  15.907  1.00  0.00     0.272 A 
ATOM     12  N   UNL     1      47.425 129.835  15.569  1.00  0.00    -0.121 N 
ATOM     13  H   UNL     1      48.130 129.412  16.214  1.00  0.00     0.489 HD
ENDROOT
BRANCH   8  14
ATOM     14  C   UNL     1      43.869 131.512  18.607  1.00  0.00    -0.011 A 
ATOM     15  C   UNL     1      42.571 132.082  18.708  1.00  0.00     0.011 A 
ATOM     16  C   UNL     1      44.577 131.178  19.785  1.00  0.00     0.019 A 
ATOM     17  C   UNL     1      41.984 132.316  19.964  1.00  0.00     0.027 A 
ATOM     18  C   UNL     1      43.964 131.423  21.011  1.00  0.00    -0.000 A 
ATOM     19  C   UNL     1      42.714 131.972  21.099  1.00  0.00     0.045 A 
ATOM     20  C   UNL     1      44.408 131.201  22.296  1.00  0.00     0.028 A 
ATOM     21  N   UNL     1      42.341 132.109  22.381  1.00  0.00    -0.361 N 
ATOM     22  C   UNL     1      43.374 131.638  23.118  1.00  0.00     0.083 A 
ATOM     23  H   UNL     1      41.441 132.498  22.741  1.00  0.00     0.166 HD
ENDBRANCH   8  14
TORSDOF 1
ENDMDL
MODEL 5
REMARK VINA RESULT:      -7.9      1.424      6.900
REMARK SMILES Cn1cc2cc(F)c(-c3ccc4[nH]ccc4c3)c(F)c2[nH+]1
REMARK SMILES IDX 1 1 2 2 3 3 4 4 5 5 6 6 7 7 8 8 18 9 19 10 20 11 21 12 9 14
REMARK SMILES IDX 10 15 17 16 11 17 16 18 12 19 15 20 13 21 14 22
REMARK H PARENT 21 13 13 23
ROOT
ATOM      1  C   UNL     1      47.655 130.023  14.191  1.00  0.00     0.223 C 
ATOM      2  N   UNL     1      46.663 130.468  15.160  1.00  0.00    -0.165 N 
ATOM      3  C   UNL     1      45.441 130.976  14.866  1.00  0.00     0.165 A 
ATOM      4  C   UNL     1      44.790 131.190  16.062  1.00  0.00     0.076 A 
ATOM      5  C   UNL     1      43.527 131.689  16.357  1.00  0.00     0.057 A 
ATOM      6  C   UNL     1      43.155 131.772  17.711  1.00  0.00     0.135 A 
ATOM      7  F   UNL     1      41.915 132.229  18.021  1.00  0.00    -0.206 F 
ATOM      8  C   UNL     1      44.050 131.353  18.739  1.00  0.00     0.060 A 
ATOM      9  C   UNL     1      45.327 130.846  18.390  1.00  0.00     0.208 A 
ATOM     10  F   UNL     1      46.222 130.457  19.333  1.00  0.00    -0.199 F 
ATOM     11  C   UNL     1      45.657 130.785  17.039  1.00  0.00     0.272 A 
ATOM     12  N   UNL     1      46.794 130.340  16.476  1.00  0.00    -0.121 N 
ATOM     13  H   UNL     1      47.630 129.951  16.966  1.00  0.00     0.489 HD
ENDROOT
BRANCH   8  14
ATOM     14  C   UNL     1      43.649 131.443  20.161  1.00  0.00    -0.011 A 
ATOM     15  C   UNL     1      42.634 132.354  20.563  1.00  0.00     0.011 A 
ATOM     16  C   UNL     1      44.274 130.625  21.130  1.00  0.00     0.019 A 
ATOM     17  C   UNL     1      42.245 132.449  21.911  1.00  0.00     0.027 A 
ATOM     18  C   UNL     1      43.864 130.746  22.455  1.00  0.00    -0.000 A 
ATOM     19  C   UNL     1      42.886 131.625  22.833  1.00  0.00     0.045 A 
ATOM     20  C   UNL     1      44.287 130.087  23.589  1.00  0.00     0.028 A 
ATOM     21  N   UNL     1      42.667 131.556  24.156  1.00  0.00    -0.361 N 
ATOM     22  C   UNL     1      43.522 130.617  24.624  1.00  0.00     0.083 A 
ATOM     23  H   UNL     1      41.980 132.111  24.714  1.00  0.00     0.166 HD
ENDBRANCH   8  14
TORSDOF 1
ENDMDL
MODEL 6
REMARK VINA RESULT:      -7.8      1.345      2.435
REMARK SMILES Cn1cc2cc(F)c(-c3ccc4[nH]ccc4c3)c(F)c2[nH+]1
REMARK SMILES IDX 1 1 2 2 3 3 4 4 5 5 6 6 7 7 8 8 18 9 19 10 20 11 21 12 9 14
REMARK SMILES IDX 10 15 17 16 11 17 16 18 12 19 15 20 13 21 14 22
REMARK H PARENT 21 13 13 23
ROOT
ATOM      1  C   UNL     1      40.516 133.527  21.168  1.00  0.00     0.223 C 
ATOM      2  N   UNL     1      41.706 132.949  20.558  1.00  0.00    -0.165 N 
ATOM      3  C   UNL     1      42.755 132.409  21.225  1.00  0.00     0.165 A 
ATOM      4  C   UNL     1      43.622 131.905  20.279  1.00  0.00     0.076 A 
ATOM      5  C   UNL     1      44.842 131.249  20.393  1.00  0.00     0.057 A 
ATOM      6  C   UNL     1      45.483 130.847  19.207  1.00  0.00     0.135 A 
ATOM      7  F   UNL     1      46.661 130.179  19.295  1.00  0.00    -0.206 F 
ATOM      8  C   UNL     1      44.890 131.104  17.936  1.00  0.00     0.060 A 
ATOM      9  C   UNL     1      43.641 131.772  17.869  1.00  0.00     0.208 A 
ATOM     10  F   UNL     1      43.049 132.061  16.683  1.00  0.00    -0.199 F 
ATOM     11  C   UNL     1      43.044 132.157  19.067  1.00  0.00     0.272 A 
ATOM     12  N   UNL     1      41.872 132.789  19.250  1.00  0.00    -0.121 N 
ATOM     13  H   UNL     1      41.198 133.094  18.513  1.00  0.00     0.489 HD
ENDROOT
BRANCH   8  14
ATOM     14  C   UNL     1      45.571 130.676  16.693  1.00  0.00    -0.011 A 
ATOM     15  C   UNL     1      45.632 129.299  16.347  1.00  0.00     0.011 A 
ATOM     16  C   UNL     1      46.168 131.635  15.842  1.00  0.00     0.019 A 
ATOM     17  C   UNL     1      46.278 128.881  15.170  1.00  0.00     0.027 A 
ATOM     18  C   UNL     1      46.797 131.185  14.685  1.00  0.00    -0.000 A 
ATOM     19  C   UNL     1      46.851 129.857  14.360  1.00  0.00     0.045 A 
ATOM     20  C   UNL     1      47.448 131.880  13.689  1.00  0.00     0.028 A 
ATOM     21  N   UNL     1      47.507 129.675  13.202  1.00  0.00    -0.361 N 
ATOM     22  C   UNL     1      47.874 130.909  12.787  1.00  0.00     0.083 A 
ATOM     23  H   UNL     1      47.697 128.769  12.718  1.00  0.00     0.166 HD
ENDBRANCH   8  14
TORSDOF 1
ENDMDL
MODEL 7
REMARK VINA RESULT:      -7.7      0.995      1.089
REMARK SMILES Cn1cc2cc(F)c(-c3ccc4[nH]ccc4c3)c(F)c2[nH+]1
REMARK SMILES IDX 1 1 2 2 3 3 4 4 5 5 6 6 7 7 8 8 18 9 19 10 20 11 21 12 9 14
REMARK SMILES IDX 10 15 17 16 11 17 16 18 12 19 15 20 13 21 14 22
REMARK H PARENT 21 13 13 23
ROOT
ATOM      1  C   UNL     1      42.645 132.527  22.897  1.00  0.00     0.223 C 
ATOM      2  N   UNL     1      42.914 132.228  21.497  1.00  0.00    -0.165 N 
ATOM      3  C   UNL     1      42.094 132.513  20.456  1.00  0.00     0.165 A 
ATOM      4  C   UNL     1      42.755 132.143  19.304  1.00  0.00     0.076 A 
ATOM      5  C   UNL     1      42.395 132.208  17.963  1.00  0.00     0.057 A 
ATOM      6  C   UNL     1      43.323 131.747  17.012  1.00  0.00     0.135 A 
ATOM      7  F   UNL     1      43.004 131.827  15.695  1.00  0.00    -0.206 F 
ATOM      8  C   UNL     1      44.590 131.235  17.420  1.00  0.00     0.060 A 
ATOM      9  C   UNL     1      44.916 131.193  18.799  1.00  0.00     0.208 A 
ATOM     10  F   UNL     1      46.099 130.692  19.238  1.00  0.00    -0.199 F 
ATOM     11  C   UNL     1      43.967 131.655  19.707  1.00  0.00     0.272 A 
ATOM     12  N   UNL     1      44.055 131.718  21.047  1.00  0.00    -0.121 N 
ATOM     13  H   UNL     1      44.866 131.435  21.640  1.00  0.00     0.489 HD
ENDROOT
BRANCH   8  14
ATOM     14  C   UNL     1      45.561 130.753  16.412  1.00  0.00    -0.011 A 
ATOM     15  C   UNL     1      46.049 129.419  16.467  1.00  0.00     0.011 A 
ATOM     16  C   UNL     1      46.011 131.617  15.387  1.00  0.00     0.019 A 
ATOM     17  C   UNL     1      46.971 128.950  15.514  1.00  0.00     0.027 A 
ATOM     18  C   UNL     1      46.924 131.119  14.462  1.00  0.00    -0.000 A 
ATOM     19  C   UNL     1      47.388 129.833  14.522  1.00  0.00     0.045 A 
ATOM     20  C   UNL     1      47.521 131.722  13.376  1.00  0.00     0.028 A 
ATOM     21  N   UNL     1      48.253 129.590  13.525  1.00  0.00    -0.361 N 
ATOM     22  C   UNL     1      48.339 130.743  12.821  1.00  0.00     0.083 A 
ATOM     23  H   UNL     1      48.760 128.698  13.329  1.00  0.00     0.166 HD
ENDBRANCH   8  14
TORSDOF 1
ENDMDL
MODEL 8
REMARK VINA RESULT:      -7.7      1.325      2.445
REMARK SMILES Cn1cc2cc(F)c(-c3ccc4[nH]ccc4c3)c(F)c2[nH+]1
REMARK SMILES IDX 1 1 2 2 3 3 4 4 5 5 6 6 7 7 8 8 18 9 19 10 20 11 21 12 9 14
REMARK SMILES IDX 10 15 17 16 11 17 16 18 12 19 15 20 13 21 14 22
REMARK H PARENT 21 13 13 23
ROOT
ATOM      1  C   UNL     1      41.648 132.185  23.929  1.00  0.00     0.223 C 
ATOM      2  N   UNL     1      42.549 131.928  22.813  1.00  0.00    -0.165 N 
ATOM      3  C   UNL     1      43.767 131.339  22.898  1.00  0.00     0.165 A 
ATOM      4  C   UNL     1      44.248 131.212  21.613  1.00  0.00     0.076 A 
ATOM      5  C   UNL     1      45.432 130.684  21.111  1.00  0.00     0.057 A 
ATOM      6  C   UNL     1      45.616 130.696  19.716  1.00  0.00     0.135 A 
ATOM      7  F   UNL     1      46.752 130.160  19.203  1.00  0.00    -0.206 F 
ATOM      8  C   UNL     1      44.614 131.231  18.855  1.00  0.00     0.060 A 
ATOM      9  C   UNL     1      43.420 131.754  19.411  1.00  0.00     0.208 A 
ATOM     10  F   UNL     1      42.448 132.296  18.634  1.00  0.00    -0.199 F 
ATOM     11  C   UNL     1      43.280 131.727  20.796  1.00  0.00     0.272 A 
ATOM     12  N   UNL     1      42.245 132.155  21.540  1.00  0.00    -0.121 N 
ATOM     13  H   UNL     1      41.354 132.579  21.197  1.00  0.00     0.489 HD
ENDROOT
BRANCH   8  14
ATOM     14  C   UNL     1      44.817 131.239  17.388  1.00  0.00    -0.011 A 
ATOM     15  C   UNL     1      43.770 131.659  16.522  1.00  0.00     0.011 A 
ATOM     16  C   UNL     1      46.052 130.826  16.839  1.00  0.00     0.019 A 
ATOM     17  C   UNL     1      43.951 131.670  15.128  1.00  0.00     0.027 A 
ATOM     18  C   UNL     1      46.196 130.850  15.454  1.00  0.00    -0.000 A 
ATOM     19  C   UNL     1      45.183 131.257  14.628  1.00  0.00     0.045 A 
ATOM     20  C   UNL     1      47.268 130.513  14.657  1.00  0.00     0.028 A 
ATOM     21  N   UNL     1      45.562 131.193  13.341  1.00  0.00    -0.361 N 
ATOM     22  C   UNL     1      46.836 130.738  13.353  1.00  0.00     0.083 A 
ATOM     23  H   UNL     1      44.993 131.441  12.501  1.00  0.00     0.166 HD
ENDBRANCH   8  14
TORSDOF 1
ENDMDL
MODEL 9
REMARK VINA RESULT:      -7.4      1.258      6.779
REMARK SMILES Cn1cc2cc(F)c(-c3ccc4[nH]ccc4c3)c(F)c2[nH+]1
REMARK SMILES IDX 1 1 2 2 3 3 4 4 5 5 6 6 7 7 8 8 18 9 19 10 20 11 21 12 9 14
REMARK SMILES IDX 10 15 17 16 11 17 16 18 12 19 15 20 13 21 14 22
REMARK H PARENT 21 13 13 23
ROOT
ATOM      1  C   UNL     1      48.178 129.602  13.160  1.00  0.00     0.223 C 
ATOM      2  N   UNL     1      47.246 130.106  14.160  1.00  0.00    -0.165 N 
ATOM      3  C   UNL     1      46.069 130.727  13.903  1.00  0.00     0.165 A 
ATOM      4  C   UNL     1      45.461 130.966  15.117  1.00  0.00     0.076 A 
ATOM      5  C   UNL     1      44.252 131.565  15.449  1.00  0.00     0.057 A 
ATOM      6  C   UNL     1      43.913 131.644  16.813  1.00  0.00     0.135 A 
ATOM      7  F   UNL     1      42.724 132.200  17.159  1.00  0.00    -0.206 F 
ATOM      8  C   UNL     1      44.786 131.122  17.811  1.00  0.00     0.060 A 
ATOM      9  C   UNL     1      46.007 130.514  17.424  1.00  0.00     0.208 A 
ATOM     10  F   UNL     1      46.881 130.024  18.340  1.00  0.00    -0.199 F 
ATOM     11  C   UNL     1      46.306 130.460  16.066  1.00  0.00     0.272 A 
ATOM     12  N   UNL     1      47.389 129.933  15.469  1.00  0.00    -0.121 N 
ATOM     13  H   UNL     1      48.196 129.459  15.932  1.00  0.00     0.489 HD
ENDROOT
BRANCH   8  14
ATOM     14  C   UNL     1      44.420 131.209  19.244  1.00  0.00    -0.011 A 
ATOM     15  C   UNL     1      45.259 130.630  20.234  1.00  0.00     0.011 A 
ATOM     16  C   UNL     1      43.232 131.869  19.635  1.00  0.00     0.019 A 
ATOM     17  C   UNL     1      44.921 130.707  21.597  1.00  0.00     0.027 A 
ATOM     18  C   UNL     1      42.929 131.925  20.993  1.00  0.00    -0.000 A 
ATOM     19  C   UNL     1      43.743 131.365  21.940  1.00  0.00     0.045 A 
ATOM     20  C   UNL     1      41.861 132.494  21.651  1.00  0.00     0.028 A 
ATOM     21  N   UNL     1      43.241 131.552  23.171  1.00  0.00    -0.361 N 
ATOM     22  C   UNL     1      42.089 132.242  23.000  1.00  0.00     0.083 A 
ATOM     23  H   UNL     1      43.651 131.232  24.077  1.00  0.00     0.166 HD
ENDBRANCH   8  14
TORSDOF 1
ENDMDL


