MODEL 1
REMARK VINA RESULT:      -9.8      0.000      0.000
REMARK SMILES O=c1[nH]ccc2cc(F)c(-c3c[nH]c4[nH+]ccc-4c3)c(F)c12
REMARK SMILES IDX 1 1 2 2 3 3 4 4 5 5 6 6 7 7 8 8 9 9 10 10 20 11 21 12 22 13
REMARK SMILES IDX 11 15 12 16 19 17 13 18 18 19 14 20 17 21 15 22 16 23
REMARK H PARENT 3 14 13 24 15 25
ROOT
ATOM      1  O   UNL     1      45.500 130.800  21.604  1.00  0.00    -0.269 OA
ATOM      2  C   UNL     1      44.404 131.329  21.273  1.00  0.00     0.258 A 
ATOM      3  N   UNL     1      43.566 131.781  22.249  1.00  0.00    -0.328 N 
ATOM      4  C   UNL     1      42.373 132.363  21.957  1.00  0.00     0.086 A 
ATOM      5  C   UNL     1      41.967 132.512  20.632  1.00  0.00     0.027 A 
ATOM      6  C   UNL     1      42.799 132.061  19.601  1.00  0.00    -0.005 A 
ATOM      7  C   UNL     1      42.404 132.204  18.266  1.00  0.00     0.049 A 
ATOM      8  C   UNL     1      43.227 131.756  17.232  1.00  0.00     0.134 A 
ATOM      9  F   UNL     1      42.828 131.938  15.948  1.00  0.00    -0.206 F 
ATOM     10  C   UNL     1      44.466 131.154  17.519  1.00  0.00     0.058 A 
ATOM     11  C   UNL     1      44.870 131.005  18.860  1.00  0.00     0.147 A 
ATOM     12  F   UNL     1      46.054 130.394  19.131  1.00  0.00    -0.205 F 
ATOM     13  C   UNL     1      44.041 131.457  19.912  1.00  0.00     0.084 A 
ATOM     14  H   UNL     1      43.843 131.683  23.251  1.00  0.00     0.169 HD
ENDROOT
BRANCH  10  15
ATOM     15  C   UNL     1      45.337 130.683  16.418  1.00  0.00     0.028 A 
ATOM     16  C   UNL     1      45.497 129.287  16.180  1.00  0.00     0.206 A 
ATOM     17  C   UNL     1      46.010 131.620  15.598  1.00  0.00     0.029 A 
ATOM     18  N   UNL     1      46.294 128.821  15.169  1.00  0.00    -0.246 N 
ATOM     19  C   UNL     1      46.809 131.121  14.584  1.00  0.00     0.068 A 
ATOM     20  C   UNL     1      46.938 129.717  14.385  1.00  0.00     0.284 A 
ATOM     21  C   UNL     1      47.587 131.716  13.616  1.00  0.00     0.060 A 
ATOM     22  N   UNL     1      47.751 129.455  13.353  1.00  0.00    -0.247 N 
ATOM     23  C   UNL     1      48.148 130.664  12.884  1.00  0.00     0.198 A 
ATOM     24  H   UNL     1      46.403 127.796  15.008  1.00  0.00     0.312 HD
ATOM     25  H   UNL     1      48.024 128.517  12.984  1.00  0.00     0.311 HD
ENDBRANCH  10  15
TORSDOF 1
ENDMDL
MODEL 2
REMARK VINA RESULT:      -9.1      1.027      1.453
REMARK SMILES O=c1[nH]ccc2cc(F)c(-c3c[nH]c4[nH+]ccc-4c3)c(F)c12
REMARK SMILES IDX 1 1 2 2 3 3 4 4 5 5 6 6 7 7 8 8 9 9 10 10 20 11 21 12 22 13
REMARK SMILES IDX 11 15 12 16 19 17 13 18 18 19 14 20 17 21 15 22 16 23
REMARK H PARENT 3 14 13 24 15 25
ROOT
ATOM      1  O   UNL     1      45.991 130.991  21.747  1.00  0.00    -0.269 OA
ATOM      2  C   UNL     1      44.784 131.293  21.542  1.00  0.00     0.258 A 
ATOM      3  N   UNL     1      43.951 131.452  22.609  1.00  0.00    -0.328 N 
ATOM      4  C   UNL     1      42.641 131.779  22.455  1.00  0.00     0.086 A 
ATOM      5  C   UNL     1      42.106 131.962  21.181  1.00  0.00     0.027 A 
ATOM      6  C   UNL     1      42.928 131.809  20.059  1.00  0.00    -0.005 A 
ATOM      7  C   UNL     1      42.404 131.990  18.774  1.00  0.00     0.049 A 
ATOM      8  C   UNL     1      43.218 131.838  17.650  1.00  0.00     0.134 A 
ATOM      9  F   UNL     1      42.685 132.049  16.420  1.00  0.00    -0.206 F 
ATOM     10  C   UNL     1      44.576 131.501  17.795  1.00  0.00     0.058 A 
ATOM     11  C   UNL     1      45.110 131.316  19.085  1.00  0.00     0.147 A 
ATOM     12  F   UNL     1      46.416 130.959  19.216  1.00  0.00    -0.205 F 
ATOM     13  C   UNL     1      44.292 131.469  20.227  1.00  0.00     0.084 A 
ATOM     14  H   UNL     1      44.324 131.321  23.577  1.00  0.00     0.169 HD
ENDROOT
BRANCH  10  15
ATOM     15  C   UNL     1      45.434 131.343  16.599  1.00  0.00     0.028 A 
ATOM     16  C   UNL     1      45.726 132.470  15.775  1.00  0.00     0.206 A 
ATOM     17  C   UNL     1      45.969 130.074  16.273  1.00  0.00     0.029 A 
ATOM     18  N   UNL     1      46.519 132.356  14.664  1.00  0.00    -0.246 N 
ATOM     19  C   UNL     1      46.765 129.988  15.144  1.00  0.00     0.068 A 
ATOM     20  C   UNL     1      47.029 131.142  14.352  1.00  0.00     0.284 A 
ATOM     21  C   UNL     1      47.439 128.950  14.542  1.00  0.00     0.060 A 
ATOM     22  N   UNL     1      47.822 130.837  13.316  1.00  0.00    -0.247 N 
ATOM     23  C   UNL     1      48.072 129.508  13.426  1.00  0.00     0.198 A 
ATOM     24  H   UNL     1      46.722 133.189  14.069  1.00  0.00     0.312 HD
ATOM     25  H   UNL     1      48.174 131.484  12.576  1.00  0.00     0.311 HD
ENDBRANCH  10  15
TORSDOF 1
ENDMDL
MODEL 3
REMARK VINA RESULT:      -9.0      1.734      2.852
REMARK SMILES O=c1[nH]ccc2cc(F)c(-c3c[nH]c4[nH+]ccc-4c3)c(F)c12
REMARK SMILES IDX 1 1 2 2 3 3 4 4 5 5 6 6 7 7 8 8 9 9 10 10 20 11 21 12 22 13
REMARK SMILES IDX 11 15 12 16 19 17 13 18 18 19 14 20 17 21 15 22 16 23
REMARK H PARENT 3 14 13 24 15 25
ROOT
ATOM      1  O   UNL     1      41.428 132.937  19.791  1.00  0.00    -0.269 OA
ATOM      2  C   UNL     1      42.171 132.403  20.659  1.00  0.00     0.258 A 
ATOM      3  N   UNL     1      41.762 132.387  21.960  1.00  0.00    -0.328 N 
ATOM      4  C   UNL     1      42.515 131.825  22.942  1.00  0.00     0.086 A 
ATOM      5  C   UNL     1      43.745 131.243  22.641  1.00  0.00     0.027 A 
ATOM      6  C   UNL     1      44.200 131.238  21.318  1.00  0.00    -0.005 A 
ATOM      7  C   UNL     1      45.434 130.657  21.001  1.00  0.00     0.049 A 
ATOM      8  C   UNL     1      45.895 130.649  19.684  1.00  0.00     0.134 A 
ATOM      9  F   UNL     1      47.081 130.051  19.406  1.00  0.00    -0.206 F 
ATOM     10  C   UNL     1      45.125 131.225  18.657  1.00  0.00     0.058 A 
ATOM     11  C   UNL     1      43.884 131.813  18.968  1.00  0.00     0.147 A 
ATOM     12  F   UNL     1      43.160 132.396  17.975  1.00  0.00    -0.205 F 
ATOM     13  C   UNL     1      43.410 131.824  20.299  1.00  0.00     0.084 A 
ATOM     14  H   UNL     1      40.844 132.816  22.216  1.00  0.00     0.169 HD
ENDROOT
BRANCH  10  15
ATOM     15  C   UNL     1      45.618 131.212  17.261  1.00  0.00     0.028 A 
ATOM     16  C   UNL     1      45.465 132.365  16.436  1.00  0.00     0.206 A 
ATOM     17  C   UNL     1      46.246 130.054  16.743  1.00  0.00     0.029 A 
ATOM     18  N   UNL     1      45.912 132.382  15.143  1.00  0.00    -0.246 N 
ATOM     19  C   UNL     1      46.688 130.100  15.432  1.00  0.00     0.068 A 
ATOM     20  C   UNL     1      46.512 131.275  14.647  1.00  0.00     0.284 A 
ATOM     21  C   UNL     1      47.328 129.191  14.619  1.00  0.00     0.060 A 
ATOM     22  N   UNL     1      47.013 131.105  13.416  1.00  0.00    -0.247 N 
ATOM     23  C   UNL     1      47.508 129.842  13.395  1.00  0.00     0.198 A 
ATOM     24  H   UNL     1      45.791 133.233  14.550  1.00  0.00     0.312 HD
ATOM     25  H   UNL     1      47.023 131.798  12.635  1.00  0.00     0.311 HD
ENDBRANCH  10  15
TORSDOF 1
ENDMDL
MODEL 4
REMARK VINA RESULT:      -8.4      1.534      2.498
REMARK SMILES O=c1[nH]ccc2cc(F)c(-c3c[nH]c4[nH+]ccc-4c3)c(F)c12
REMARK SMILES IDX 1 1 2 2 3 3 4 4 5 5 6 6 7 7 8 8 9 9 10 10 20 11 21 12 22 13
REMARK SMILES IDX 11 15 12 16 19 17 13 18 18 19 14 20 17 21 15 22 16 23
REMARK H PARENT 3 14 13 24 15 25
ROOT
ATOM      1  O   UNL     1      41.210 132.898  18.698  1.00  0.00    -0.269 OA
ATOM      2  C   UNL     1      41.864 132.592  19.732  1.00  0.00     0.258 A 
ATOM      3  N   UNL     1      41.345 132.891  20.957  1.00  0.00    -0.328 N 
ATOM      4  C   UNL     1      42.000 132.586  22.108  1.00  0.00     0.086 A 
ATOM      5  C   UNL     1      43.240 131.950  22.066  1.00  0.00     0.027 A 
ATOM      6  C   UNL     1      43.807 131.626  20.829  1.00  0.00    -0.005 A 
ATOM      7  C   UNL     1      45.052 130.989  20.771  1.00  0.00     0.049 A 
ATOM      8  C   UNL     1      45.624 130.663  19.541  1.00  0.00     0.134 A 
ATOM      9  F   UNL     1      46.819 130.019  19.522  1.00  0.00    -0.206 F 
ATOM     10  C   UNL     1      44.957 130.971  18.342  1.00  0.00     0.058 A 
ATOM     11  C   UNL     1      43.705 131.614  18.391  1.00  0.00     0.147 A 
ATOM     12  F   UNL     1      43.081 131.938  17.227  1.00  0.00    -0.205 F 
ATOM     13  C   UNL     1      43.119 131.947  19.633  1.00  0.00     0.084 A 
ATOM     14  H   UNL     1      40.417 133.367  21.020  1.00  0.00     0.169 HD
ENDROOT
BRANCH  10  15
ATOM     15  C   UNL     1      45.568 130.621  17.039  1.00  0.00     0.028 A 
ATOM     16  C   UNL     1      45.632 129.259  16.623  1.00  0.00     0.206 A 
ATOM     17  C   UNL     1      46.089 131.638  16.205  1.00  0.00     0.029 A 
ATOM     18  N   UNL     1      46.189 128.904  15.424  1.00  0.00    -0.246 N 
ATOM     19  C   UNL     1      46.647 131.251  14.999  1.00  0.00     0.068 A 
ATOM     20  C   UNL     1      46.687 129.877  14.626  1.00  0.00     0.284 A 
ATOM     21  C   UNL     1      47.229 131.945  13.962  1.00  0.00     0.060 A 
ATOM     22  N   UNL     1      47.263 129.727  13.425  1.00  0.00    -0.247 N 
ATOM     23  C   UNL     1      47.594 130.979  13.019  1.00  0.00     0.198 A 
ATOM     24  H   UNL     1      46.230 127.903  15.132  1.00  0.00     0.312 HD
ATOM     25  H   UNL     1      47.425 128.835  12.907  1.00  0.00     0.311 HD
ENDBRANCH  10  15
TORSDOF 1
ENDMDL
MODEL 5
REMARK VINA RESULT:      -7.8      2.133      7.240
REMARK SMILES O=c1[nH]ccc2cc(F)c(-c3c[nH]c4[nH+]ccc-4c3)c(F)c12
REMARK SMILES IDX 1 1 2 2 3 3 4 4 5 5 6 6 7 7 8 8 9 9 10 10 20 11 21 12 22 13
REMARK SMILES IDX 11 15 12 16 19 17 13 18 18 19 14 20 17 21 15 22 16 23
REMARK H PARENT 3 14 13 24 15 25
ROOT
ATOM      1  O   UNL     1      43.177 132.051  14.744  1.00  0.00    -0.269 OA
ATOM      2  C   UNL     1      44.285 131.469  14.903  1.00  0.00     0.258 A 
ATOM      3  N   UNL     1      45.023 131.138  13.806  1.00  0.00    -0.328 N 
ATOM      4  C   UNL     1      46.225 130.513  13.911  1.00  0.00     0.086 A 
ATOM      5  C   UNL     1      46.743 130.188  15.163  1.00  0.00     0.027 A 
ATOM      6  C   UNL     1      46.017 130.511  16.314  1.00  0.00    -0.005 A 
ATOM      7  C   UNL     1      46.525 130.189  17.579  1.00  0.00     0.049 A 
ATOM      8  C   UNL     1      45.806 130.508  18.732  1.00  0.00     0.134 A 
ATOM      9  F   UNL     1      46.341 130.209  19.943  1.00  0.00    -0.206 F 
ATOM     10  C   UNL     1      44.561 131.156  18.639  1.00  0.00     0.058 A 
ATOM     11  C   UNL     1      44.043 131.482  17.370  1.00  0.00     0.147 A 
ATOM     12  F   UNL     1      42.824 132.080  17.286  1.00  0.00    -0.205 F 
ATOM     13  C   UNL     1      44.765 131.163  16.198  1.00  0.00     0.084 A 
ATOM     14  H   UNL     1      44.660 131.370  12.853  1.00  0.00     0.169 HD
ENDROOT
BRANCH  10  15
ATOM     15  C   UNL     1      43.805 131.494  19.866  1.00  0.00     0.028 A 
ATOM     16  C   UNL     1      42.635 132.305  19.785  1.00  0.00     0.206 A 
ATOM     17  C   UNL     1      44.240 131.008  21.122  1.00  0.00     0.029 A 
ATOM     18  N   UNL     1      41.914 132.632  20.902  1.00  0.00    -0.246 N 
ATOM     19  C   UNL     1      43.493 131.356  22.234  1.00  0.00     0.068 A 
ATOM     20  C   UNL     1      42.331 132.169  22.103  1.00  0.00     0.284 A 
ATOM     21  C   UNL     1      43.609 131.071  23.576  1.00  0.00     0.060 A 
ATOM     22  N   UNL     1      41.759 132.378  23.297  1.00  0.00    -0.247 N 
ATOM     23  C   UNL     1      42.532 131.715  24.193  1.00  0.00     0.198 A 
ATOM     24  H   UNL     1      41.061 133.229  20.827  1.00  0.00     0.312 HD
ATOM     25  H   UNL     1      40.899 132.935  23.498  1.00  0.00     0.311 HD
ENDBRANCH  10  15
TORSDOF 1
ENDMDL
MODEL 6
REMARK VINA RESULT:      -7.3      1.332      1.813
REMARK SMILES O=c1[nH]ccc2cc(F)c(-c3c[nH]c4[nH+]ccc-4c3)c(F)c12
REMARK SMILES IDX 1 1 2 2 3 3 4 4 5 5 6 6 7 7 8 8 9 9 10 10 20 11 21 12 22 13
REMARK SMILES IDX 11 15 12 16 19 17 13 18 18 19 14 20 17 21 15 22 16 23
REMARK H PARENT 3 14 13 24 15 25
ROOT
ATOM      1  O   UNL     1      45.541 130.141  22.068  1.00  0.00    -0.269 OA
ATOM      2  C   UNL     1      44.457 130.785  22.118  1.00  0.00     0.258 A 
ATOM      3  N   UNL     1      43.874 131.005  23.330  1.00  0.00    -0.328 N 
ATOM      4  C   UNL     1      42.707 131.693  23.451  1.00  0.00     0.086 A 
ATOM      5  C   UNL     1      42.067 132.198  22.321  1.00  0.00     0.027 A 
ATOM      6  C   UNL     1      42.634 131.993  21.058  1.00  0.00    -0.005 A 
ATOM      7  C   UNL     1      42.001 132.494  19.914  1.00  0.00     0.049 A 
ATOM      8  C   UNL     1      42.559 132.294  18.651  1.00  0.00     0.134 A 
ATOM      9  F   UNL     1      41.936 132.819  17.566  1.00  0.00    -0.206 F 
ATOM     10  C   UNL     1      43.766 131.585  18.511  1.00  0.00     0.058 A 
ATOM     11  C   UNL     1      44.409 131.077  19.657  1.00  0.00     0.147 A 
ATOM     12  F   UNL     1      45.558 130.366  19.511  1.00  0.00    -0.205 F 
ATOM     13  C   UNL     1      43.849 131.276  20.939  1.00  0.00     0.084 A 
ATOM     14  H   UNL     1      44.331 130.639  24.195  1.00  0.00     0.169 HD
ENDROOT
BRANCH  10  15
ATOM     15  C   UNL     1      44.356 131.378  17.168  1.00  0.00     0.028 A 
ATOM     16  C   UNL     1      43.677 131.854  16.008  1.00  0.00     0.206 A 
ATOM     17  C   UNL     1      45.596 130.709  17.035  1.00  0.00     0.029 A 
ATOM     18  N   UNL     1      44.198 131.679  14.755  1.00  0.00    -0.246 N 
ATOM     19  C   UNL     1      46.097 130.546  15.756  1.00  0.00     0.068 A 
ATOM     20  C   UNL     1      45.383 131.039  14.627  1.00  0.00     0.284 A 
ATOM     21  C   UNL     1      47.243 129.966  15.258  1.00  0.00     0.060 A 
ATOM     22  N   UNL     1      46.047 130.779  13.492  1.00  0.00    -0.247 N 
ATOM     23  C   UNL     1      47.176 130.127  13.871  1.00  0.00     0.198 A 
ATOM     24  H   UNL     1      43.689 132.032  13.914  1.00  0.00     0.312 HD
ATOM     25  H   UNL     1      45.759 131.024  12.519  1.00  0.00     0.311 HD
ENDBRANCH  10  15
TORSDOF 1
ENDMDL
MODEL 7
REMARK VINA RESULT:      -7.2      2.027      6.827
REMARK SMILES O=c1[nH]ccc2cc(F)c(-c3c[nH]c4[nH+]ccc-4c3)c(F)c12
REMARK SMILES IDX 1 1 2 2 3 3 4 4 5 5 6 6 7 7 8 8 9 9 10 10 20 11 21 12 22 13
REMARK SMILES IDX 11 15 12 16 19 17 13 18 18 19 14 20 17 21 15 22 16 23
REMARK H PARENT 3 14 13 24 15 25
ROOT
ATOM      1  O   UNL     1      47.191 129.853  16.400  1.00  0.00    -0.269 OA
ATOM      2  C   UNL     1      46.158 130.337  15.860  1.00  0.00     0.258 A 
ATOM      3  N   UNL     1      46.047 130.309  14.502  1.00  0.00    -0.328 N 
ATOM      4  C   UNL     1      44.959 130.812  13.861  1.00  0.00     0.086 A 
ATOM      5  C   UNL     1      43.913 131.380  14.586  1.00  0.00     0.027 A 
ATOM      6  C   UNL     1      43.989 131.427  15.983  1.00  0.00    -0.005 A 
ATOM      7  C   UNL     1      42.946 131.995  16.725  1.00  0.00     0.049 A 
ATOM      8  C   UNL     1      43.015 132.046  18.117  1.00  0.00     0.134 A 
ATOM      9  F   UNL     1      41.974 132.576  18.808  1.00  0.00    -0.206 F 
ATOM     10  C   UNL     1      44.134 131.528  18.795  1.00  0.00     0.058 A 
ATOM     11  C   UNL     1      45.188 130.957  18.055  1.00  0.00     0.147 A 
ATOM     12  F   UNL     1      46.280 130.487  18.715  1.00  0.00    -0.205 F 
ATOM     13  C   UNL     1      45.125 130.901  16.645  1.00  0.00     0.084 A 
ATOM     14  H   UNL     1      46.815 129.890  13.931  1.00  0.00     0.169 HD
ENDROOT
BRANCH  10  15
ATOM     15  C   UNL     1      44.200 131.583  20.273  1.00  0.00     0.028 A 
ATOM     16  C   UNL     1      45.443 131.833  20.925  1.00  0.00     0.206 A 
ATOM     17  C   UNL     1      43.028 131.390  21.042  1.00  0.00     0.029 A 
ATOM     18  N   UNL     1      45.535 131.892  22.289  1.00  0.00    -0.246 N 
ATOM     19  C   UNL     1      43.150 131.454  22.419  1.00  0.00     0.068 A 
ATOM     20  C   UNL     1      44.414 131.706  23.024  1.00  0.00     0.284 A 
ATOM     21  C   UNL     1      42.251 131.324  23.453  1.00  0.00     0.060 A 
ATOM     22  N   UNL     1      44.306 131.731  24.360  1.00  0.00    -0.247 N 
ATOM     23  C   UNL     1      42.996 131.498  24.624  1.00  0.00     0.198 A 
ATOM     24  H   UNL     1      46.453 132.073  22.752  1.00  0.00     0.312 HD
ATOM     25  H   UNL     1      45.068 131.894  25.054  1.00  0.00     0.311 HD
ENDBRANCH  10  15
TORSDOF 1
ENDMDL
MODEL 8
REMARK VINA RESULT:      -7.0      1.311      1.771
REMARK SMILES O=c1[nH]ccc2cc(F)c(-c3c[nH]c4[nH+]ccc-4c3)c(F)c12
REMARK SMILES IDX 1 1 2 2 3 3 4 4 5 5 6 6 7 7 8 8 9 9 10 10 20 11 21 12 22 13
REMARK SMILES IDX 11 15 12 16 19 17 13 18 18 19 14 20 17 21 15 22 16 23
REMARK H PARENT 3 14 13 24 15 25
ROOT
ATOM      1  O   UNL     1      45.187 130.183  23.025  1.00  0.00    -0.269 OA
ATOM      2  C   UNL     1      44.145 130.866  22.827  1.00  0.00     0.258 A 
ATOM      3  N   UNL     1      43.374 131.221  23.894  1.00  0.00    -0.328 N 
ATOM      4  C   UNL     1      42.241 131.958  23.746  1.00  0.00     0.086 A 
ATOM      5  C   UNL     1      41.831 132.375  22.482  1.00  0.00     0.027 A 
ATOM      6  C   UNL     1      42.595 132.030  21.361  1.00  0.00    -0.005 A 
ATOM      7  C   UNL     1      42.194 132.441  20.084  1.00  0.00     0.049 A 
ATOM      8  C   UNL     1      42.951 132.102  18.961  1.00  0.00     0.134 A 
ATOM      9  F   UNL     1      42.550 132.542  17.742  1.00  0.00    -0.206 F 
ATOM     10  C   UNL     1      44.126 131.341  19.099  1.00  0.00     0.058 A 
ATOM     11  C   UNL     1      44.535 130.923  20.380  1.00  0.00     0.147 A 
ATOM     12  F   UNL     1      45.655 130.161  20.502  1.00  0.00    -0.205 F 
ATOM     13  C   UNL     1      43.774 131.263  21.521  1.00  0.00     0.084 A 
ATOM     14  H   UNL     1      43.656 130.923  24.855  1.00  0.00     0.169 HD
ENDROOT
BRANCH  10  15
ATOM     15  C   UNL     1      44.926 130.986  17.904  1.00  0.00     0.028 A 
ATOM     16  C   UNL     1      46.025 130.085  18.021  1.00  0.00     0.206 A 
ATOM     17  C   UNL     1      44.599 131.539  16.643  1.00  0.00     0.029 A 
ATOM     18  N   UNL     1      46.781 129.737  16.935  1.00  0.00    -0.246 N 
ATOM     19  C   UNL     1      45.381 131.170  15.563  1.00  0.00     0.068 A 
ATOM     20  C   UNL     1      46.469 130.266  15.729  1.00  0.00     0.284 A 
ATOM     21  C   UNL     1      45.357 131.494  14.225  1.00  0.00     0.060 A 
ATOM     22  N   UNL     1      47.086 130.043  14.560  1.00  0.00    -0.247 N 
ATOM     23  C   UNL     1      46.415 130.787  13.645  1.00  0.00     0.198 A 
ATOM     24  H   UNL     1      47.584 129.077  17.036  1.00  0.00     0.312 HD
ATOM     25  H   UNL     1      47.910 129.426  14.387  1.00  0.00     0.311 HD
ENDBRANCH  10  15
TORSDOF 1
ENDMDL


