REMARK SMILES F[C@@]12CC=[NH+][C@@H]1CC[C@@H](c1cnc3oc[nH+]c3c1)[C@H]2Cl
REMARK SMILES IDX 1 1 2 2 3 3 4 4 5 5 6 6 7 7 8 8 9 9 19 10 20 11 10 13 11 14
REMARK SMILES IDX 18 15 12 16 17 17 13 18 16 19 14 20 15 21
REMARK H PARENT 5 12 16 22
ROOT
ATOM      1  F   UNL     1      -0.501   3.356  -2.028  1.00  0.00    -0.234 F 
ATOM      2  C   UNL     1      -0.982   2.264  -1.315  1.00  0.00     0.197 C 
ATOM      3  C   UNL     1      -2.225   2.751  -0.553  1.00  0.00     0.148 C 
ATOM      4  C   UNL     1      -3.304   2.486  -1.546  1.00  0.00     0.275 C 
ATOM      5  N   UNL     1      -2.925   1.718  -2.496  1.00  0.00    -0.246 N 
ATOM      6  C   UNL     1      -1.572   1.254  -2.335  1.00  0.00     0.297 C 
ATOM      7  C   UNL     1      -1.620  -0.213  -1.847  1.00  0.00     0.080 C 
ATOM      8  C   UNL     1      -0.346  -0.641  -1.126  1.00  0.00     0.017 C 
ATOM      9  C   UNL     1      -0.094   0.284   0.076  1.00  0.00     0.043 C 
ATOM     10  C   UNL     1       0.158   1.729  -0.404  1.00  0.00     0.133 C 
ATOM     11  Cl  UNL     1       1.737   1.858  -1.257  1.00  0.00    -0.119 Cl
ATOM     12  H   UNL     1      -3.559   1.390  -3.240  1.00  0.00     0.445 HD
ENDROOT
BRANCH   9  13
ATOM     13  C   UNL     1       1.010  -0.206   1.002  1.00  0.00    -0.018 A 
ATOM     14  C   UNL     1       0.921   0.080   2.396  1.00  0.00     0.119 A 
ATOM     15  C   UNL     1       2.158  -0.886   0.519  1.00  0.00     0.091 A 
ATOM     16  N   UNL     1       1.907  -0.311   3.260  1.00  0.00    -0.215 NA
ATOM     17  C   UNL     1       3.120  -1.256   1.450  1.00  0.00     0.269 A 
ATOM     18  C   UNL     1       2.980  -0.971   2.765  1.00  0.00     0.297 A 
ATOM     19  N   UNL     1       4.279  -1.902   1.265  1.00  0.00    -0.175 N 
ATOM     20  O   UNL     1       4.017  -1.418   3.427  1.00  0.00    -0.384 OA
ATOM     21  C   UNL     1       4.800  -1.981   2.517  1.00  0.00     0.522 A 
ATOM     22  H   UNL     1       4.688  -2.260   0.374  1.00  0.00     0.457 HD
ENDBRANCH   9  13
TORSDOF 1


