REMARK SMILES C#Cc1cncc(Nc2cc(C)cc(-n3nc4ccccc4[nH+]3)c2N=[N+]=[N-])c1
REMARK SMILES IDX 9 1 10 2 11 3 12 4 13 5 14 6 24 7 8 8 7 10 3 11 4 12 28 13
REMARK SMILES IDX 5 14 6 15 2 16 1 17 25 18 26 19 27 20 15 21 16 22 23 23
REMARK SMILES IDX 17 24 22 25 18 26 21 27 19 28 20 29
REMARK H PARENT 8 9 23 30
ROOT
ATOM      1  C   UNL     1       0.535   0.760   0.848  1.00  0.00     0.051 A 
ATOM      2  C   UNL     1       1.289   1.748   0.196  1.00  0.00     0.030 A 
ATOM      3  C   UNL     1       1.381   1.773  -1.199  1.00  0.00    -0.047 A 
ATOM      4  C   UNL     1       2.236   2.800  -1.881  1.00  0.00     0.044 C 
ATOM      5  C   UNL     1       0.703   0.808  -1.952  1.00  0.00     0.038 A 
ATOM      6  C   UNL     1      -0.091  -0.164  -1.326  1.00  0.00     0.140 A 
ATOM      7  C   UNL     1      -0.153  -0.211   0.091  1.00  0.00     0.093 A 
ENDROOT
BRANCH   1   8
ATOM      8  N   UNL     1       0.440   0.749   2.284  1.00  0.00    -0.354 N 
ATOM      9  H   UNL     1      -0.483   0.509   2.713  1.00  0.00     0.167 HD
BRANCH   8  10
ATOM     10  C   UNL     1       1.531   1.060   3.168  1.00  0.00     0.058 A 
ATOM     11  C   UNL     1       3.901   1.123   3.693  1.00  0.00     0.045 A 
ATOM     12  C   UNL     1       3.586   1.631   4.958  1.00  0.00     0.128 A 
ATOM     13  C   UNL     1       2.867   0.829   2.799  1.00  0.00     0.046 A 
ATOM     14  N   UNL     1       2.288   1.827   5.307  1.00  0.00    -0.261 NA
ATOM     15  C   UNL     1       1.266   1.550   4.454  1.00  0.00     0.137 A 
BRANCH  11  16
ATOM     16  C   UNL     1       5.273   0.897   3.320  1.00  0.00    -0.069 C 
ATOM     17  C   UNL     1       6.422   0.708   3.007  1.00  0.00     0.010 C 
ENDBRANCH  11  16
ENDBRANCH   8  10
ENDBRANCH   1   8
BRANCH   7  18
ATOM     18  N   UNL     1      -0.843  -1.256   0.794  1.00  0.00    -0.056 NA
BRANCH  18  19
ATOM     19  N   UNL     1      -0.942  -2.402   0.351  1.00  0.00     0.006 N 
ATOM     20  N   UNL     1      -1.039  -3.547  -0.086  1.00  0.00    -0.003 NA
ENDBRANCH  18  19
ENDBRANCH   7  18
BRANCH   6  21
ATOM     21  N   UNL     1      -0.885  -1.037  -2.143  1.00  0.00    -0.012 N 
ATOM     22  N   UNL     1      -2.188  -1.244  -1.952  1.00  0.00     0.054 NA
ATOM     23  N   UNL     1      -0.428  -1.663  -3.225  1.00  0.00    -0.161 N 
ATOM     24  C   UNL     1      -2.559  -2.058  -2.956  1.00  0.00     0.249 A 
ATOM     25  C   UNL     1      -1.476  -2.317  -3.741  1.00  0.00     0.198 A 
ATOM     26  C   UNL     1      -3.814  -2.592  -3.230  1.00  0.00     0.064 A 
ATOM     27  C   UNL     1      -1.547  -3.129  -4.868  1.00  0.00     0.058 A 
ATOM     28  C   UNL     1      -3.930  -3.423  -4.363  1.00  0.00     0.005 A 
ATOM     29  C   UNL     1      -2.802  -3.691  -5.178  1.00  0.00     0.005 A 
ATOM     30  H   UNL     1       0.554  -1.642  -3.583  1.00  0.00     0.340 HD
ENDBRANCH   6  21
TORSDOF 6


