REMARK SMILES NN(/C(O)=C\Cc1ccco1)c1ccc2cc3ccccc3cc2c1
REMARK SMILES IDX 3 1 4 2 5 4 6 5 7 6 11 7 8 8 10 9 9 10 2 11 12 12 13 13
REMARK SMILES IDX 25 14 14 15 24 16 15 17 23 18 16 19 22 20 17 21 21 22 18 23
REMARK SMILES IDX 20 24 19 25 1 26
REMARK H PARENT 4 3 1 27 1 28
ROOT
ATOM      1  C   UNL     1       0.187  -3.425  -0.627  1.00  0.00     0.202 C 
ENDROOT
BRANCH   1   2
ATOM      2  O   UNL     1      -0.543  -4.253   0.225  1.00  0.00    -0.494 OA
ATOM      3  H   UNL     1      -1.431  -4.658  -0.050  1.00  0.00     0.295 HD
ENDBRANCH   1   2
BRANCH   1   4
ATOM      4  C   UNL     1      -0.279  -3.158  -1.861  1.00  0.00     0.049 C 
BRANCH   4   5
ATOM      5  C   UNL     1       0.472  -2.360  -2.892  1.00  0.00     0.108 C 
BRANCH   5   6
ATOM      6  C   UNL     1       0.095  -0.911  -2.838  1.00  0.00     0.107 A 
ATOM      7  O   UNL     1      -1.120  -0.468  -2.610  1.00  0.00    -0.469 OA
ATOM      8  C   UNL     1       0.952   0.150  -3.051  1.00  0.00     0.046 A 
ATOM      9  C   UNL     1      -1.101   0.845  -2.648  1.00  0.00     0.195 A 
ATOM     10  C   UNL     1       0.179   1.283  -2.921  1.00  0.00     0.042 A 
ENDBRANCH   5   6
ENDBRANCH   4   5
ENDBRANCH   1   4
BRANCH   1  11
ATOM     11  N   UNL     1       1.441  -2.904  -0.163  1.00  0.00    -0.249 N 
BRANCH  11  12
ATOM     12  C   UNL     1       1.649  -1.483   0.004  1.00  0.00     0.061 A 
ATOM     13  C   UNL     1       2.921  -0.921  -0.199  1.00  0.00     0.028 A 
ATOM     14  C   UNL     1       0.578  -0.643   0.358  1.00  0.00     0.036 A 
ATOM     15  C   UNL     1       3.116   0.457  -0.085  1.00  0.00     0.011 A 
ATOM     16  C   UNL     1       0.763   0.744   0.465  1.00  0.00    -0.016 A 
ATOM     17  C   UNL     1       2.042   1.300   0.235  1.00  0.00    -0.018 A 
ATOM     18  C   UNL     1      -0.319   1.583   0.773  1.00  0.00     0.017 A 
ATOM     19  C   UNL     1       2.226   2.688   0.316  1.00  0.00     0.017 A 
ATOM     20  C   UNL     1      -0.138   2.971   0.847  1.00  0.00    -0.018 A 
ATOM     21  C   UNL     1       1.143   3.528   0.617  1.00  0.00    -0.018 A 
ATOM     22  C   UNL     1      -1.219   3.816   1.142  1.00  0.00     0.009 A 
ATOM     23  C   UNL     1       1.319   4.919   0.689  1.00  0.00     0.009 A 
ATOM     24  C   UNL     1      -1.031   5.199   1.211  1.00  0.00     0.001 A 
ATOM     25  C   UNL     1       0.234   5.749   0.985  1.00  0.00     0.001 A 
ENDBRANCH  11  12
BRANCH  11  26
ATOM     26  N   UNL     1       2.439  -3.827   0.195  1.00  0.00    -0.240 NA
ATOM     27  H   UNL     1       2.886  -3.504   1.084  1.00  0.00     0.144 HD
ATOM     28  H   UNL     1       3.164  -3.820  -0.558  1.00  0.00     0.144 HD
ENDBRANCH  11  26
ENDBRANCH   1  11
TORSDOF 7


