REMARK SMILES C=C[C@H]1CCC[C@@](F)(c2ccc3c(c2)[C@H](N)CC3)[C@H]1Cl
REMARK SMILES IDX 9 1 10 2 11 3 12 4 13 5 14 6 15 7 17 8 18 9 7 10 3 11 4 12
REMARK SMILES IDX 19 13 5 14 6 15 20 16 8 17 2 18 1 19 16 20
REMARK H PARENT 16 21 16 22
ROOT
ATOM      1  C   UNL     1       0.430   0.467  -0.616  1.00  0.00    -0.009 A 
ATOM      2  C   UNL     1       1.055   1.736  -0.477  1.00  0.00     0.007 A 
ATOM      3  C   UNL     1       2.431   1.833  -0.225  1.00  0.00     0.004 A 
ATOM      4  C   UNL     1       3.180   0.664  -0.100  1.00  0.00    -0.043 A 
ATOM      5  C   UNL     1       2.590  -0.567  -0.205  1.00  0.00    -0.028 A 
ATOM      6  C   UNL     1       1.223  -0.694  -0.460  1.00  0.00     0.012 A 
ATOM      7  C   UNL     1       3.569  -1.671  -0.005  1.00  0.00     0.081 C 
ATOM      8  C   UNL     1       4.928  -0.941   0.096  1.00  0.00     0.028 C 
ATOM      9  C   UNL     1       4.631   0.569   0.177  1.00  0.00     0.038 C 
ENDROOT
BRANCH   1  10
ATOM     10  C   UNL     1      -1.074   0.302  -0.845  1.00  0.00     0.152 C 
ATOM     11  C   UNL     1      -3.309  -0.281   0.249  1.00  0.00     0.033 C 
ATOM     12  C   UNL     1      -3.958   0.939  -0.437  1.00  0.00     0.009 C 
ATOM     13  C   UNL     1      -1.792  -0.051   0.485  1.00  0.00     0.130 C 
ATOM     14  C   UNL     1      -3.240   1.285  -1.747  1.00  0.00     0.004 C 
ATOM     15  C   UNL     1      -1.745   1.533  -1.505  1.00  0.00     0.048 C 
ATOM     16  Cl  UNL     1      -1.510   1.206   1.742  1.00  0.00    -0.118 Cl
ATOM     17  F   UNL     1      -1.239  -0.765  -1.721  1.00  0.00    -0.237 F 
BRANCH  11  18
ATOM     18  C   UNL     1      -4.031  -0.612   1.537  1.00  0.00    -0.030 C 
ATOM     19  C   UNL     1      -3.834  -1.772   2.171  1.00  0.00     0.004 C 
ENDBRANCH  11  18
ENDBRANCH   1  10
BRANCH   7  20
ATOM     20  N   UNL     1       3.286  -2.420   1.222  1.00  0.00    -0.324 NA
ATOM     21  H   UNL     1       2.376  -2.921   1.104  1.00  0.00     0.119 HD
ATOM     22  H   UNL     1       3.175  -1.753   2.021  1.00  0.00     0.119 HD
ENDBRANCH   7  20
TORSDOF 3


