MODEL 1
REMARK VINA RESULT:      -9.0      0.000      0.000
REMARK SMILES Nc1cc(NC2CC(=O)C2)c(C=O)cc1-c1ccc2c(c1)[N-]C(=O)C2
REMARK SMILES IDX 2 1 3 2 4 3 11 4 14 5 15 6 1 7 16 10 17 11 21 12 18 13 20 14
REMARK SMILES IDX 19 15 22 16 25 17 23 18 24 19 5 20 6 22 7 23 10 24 8 25 9 26
REMARK SMILES IDX 12 27 13 28
REMARK H PARENT 1 8 1 9 5 21
ROOT
ATOM      1  C   UNL     1      45.172 130.957  19.710  1.00  0.00     0.041 A 
ATOM      2  C   UNL     1      44.621 131.138  20.985  1.00  0.00     0.052 A 
ATOM      3  C   UNL     1      43.346 131.707  21.157  1.00  0.00     0.047 A 
ATOM      4  C   UNL     1      42.621 132.128  20.016  1.00  0.00     0.038 A 
ATOM      5  C   UNL     1      43.171 131.934  18.740  1.00  0.00     0.024 A 
ATOM      6  C   UNL     1      44.442 131.367  18.574  1.00  0.00     0.005 A 
ENDROOT
BRANCH   1   7
ATOM      7  N   UNL     1      46.446 130.307  19.591  1.00  0.00    -0.398 N 
ATOM      8  H   UNL     1      46.534 129.308  19.303  1.00  0.00     0.156 HD
ATOM      9  H   UNL     1      47.323 130.806  19.863  1.00  0.00     0.156 HD
ENDBRANCH   1   7
BRANCH   6  10
ATOM     10  C   UNL     1      44.992 131.248  17.205  1.00  0.00    -0.018 A 
ATOM     11  C   UNL     1      44.375 131.926  16.126  1.00  0.00     0.009 A 
ATOM     12  C   UNL     1      46.108 130.420  16.962  1.00  0.00    -0.007 A 
ATOM     13  C   UNL     1      44.879 131.799  14.822  1.00  0.00     0.003 A 
ATOM     14  C   UNL     1      46.587 130.310  15.659  1.00  0.00    -0.130 A 
ATOM     15  C   UNL     1      45.991 130.983  14.614  1.00  0.00    -0.057 A 
ATOM     16  N   UNL     1      47.696 129.529  15.247  1.00  0.00    -0.626 NA
ATOM     17  C   UNL     1      46.694 130.692  13.335  1.00  0.00     0.089 C 
ATOM     18  C   UNL     1      47.755 129.764  13.841  1.00  0.00     0.059 C 
ATOM     19  O   UNL     1      48.627 129.234  13.105  1.00  0.00    -0.320 OA
ENDBRANCH   6  10
BRANCH   3  20
ATOM     20  N   UNL     1      42.772 131.791  22.475  1.00  0.00    -0.381 N 
ATOM     21  H   UNL     1      42.011 132.486  22.642  1.00  0.00     0.160 HD
BRANCH  20  22
ATOM     22  C   UNL     1      43.119 130.861  23.556  1.00  0.00     0.094 C 
ATOM     23  C   UNL     1      43.257 129.439  23.090  1.00  0.00     0.100 C 
ATOM     24  C   UNL     1      41.920 130.400  24.334  1.00  0.00     0.100 C 
ATOM     25  C   UNL     1      42.056 128.958  23.881  1.00  0.00     0.137 C 
ATOM     26  O   UNL     1      41.470 127.904  24.067  1.00  0.00    -0.300 OA
ENDBRANCH  20  22
ENDBRANCH   3  20
BRANCH   4  27
ATOM     27  C   UNL     1      41.316 132.822  20.101  1.00  0.00     0.262 C 
ATOM     28  O   UNL     1      41.003 133.530  21.095  1.00  0.00    -0.298 OA
ENDBRANCH   4  27
TORSDOF 5
ENDMDL
MODEL 2
REMARK VINA RESULT:      -7.9      1.009      1.161
REMARK SMILES Nc1cc(NC2CC(=O)C2)c(C=O)cc1-c1ccc2c(c1)[N-]C(=O)C2
REMARK SMILES IDX 2 1 3 2 4 3 11 4 14 5 15 6 1 7 16 10 17 11 21 12 18 13 20 14
REMARK SMILES IDX 19 15 22 16 25 17 23 18 24 19 5 20 6 22 7 23 10 24 8 25 9 26
REMARK SMILES IDX 12 27 13 28
REMARK H PARENT 1 8 1 9 5 21
ROOT
ATOM      1  C   UNL     1      45.469 130.848  19.989  1.00  0.00     0.041 A 
ATOM      2  C   UNL     1      45.070 131.010  21.321  1.00  0.00     0.052 A 
ATOM      3  C   UNL     1      43.837 131.602  21.648  1.00  0.00     0.047 A 
ATOM      4  C   UNL     1      42.998 132.066  20.607  1.00  0.00     0.038 A 
ATOM      5  C   UNL     1      43.396 131.892  19.272  1.00  0.00     0.024 A 
ATOM      6  C   UNL     1      44.626 131.301  18.951  1.00  0.00     0.005 A 
ENDROOT
BRANCH   1   7
ATOM      7  N   UNL     1      46.706 130.174  19.712  1.00  0.00    -0.398 N 
ATOM      8  H   UNL     1      46.777 129.133  19.691  1.00  0.00     0.156 HD
ATOM      9  H   UNL     1      47.591 130.716  19.594  1.00  0.00     0.156 HD
ENDBRANCH   1   7
BRANCH   6  10
ATOM     10  C   UNL     1      45.016 131.204  17.527  1.00  0.00    -0.018 A 
ATOM     11  C   UNL     1      44.211 131.797  16.524  1.00  0.00     0.009 A 
ATOM     12  C   UNL     1      46.168 130.480  17.158  1.00  0.00    -0.007 A 
ATOM     13  C   UNL     1      44.563 131.688  15.169  1.00  0.00     0.003 A 
ATOM     14  C   UNL     1      46.495 130.386  15.807  1.00  0.00    -0.130 A 
ATOM     15  C   UNL     1      45.715 130.976  14.836  1.00  0.00    -0.057 A 
ATOM     16  N   UNL     1      47.616 129.704  15.271  1.00  0.00    -0.626 NA
ATOM     17  C   UNL     1      46.283 130.724  13.483  1.00  0.00     0.089 C 
ATOM     18  C   UNL     1      47.482 129.912  13.866  1.00  0.00     0.059 C 
ATOM     19  O   UNL     1      48.305 129.449  13.034  1.00  0.00    -0.320 OA
ENDBRANCH   6  10
BRANCH   3  20
ATOM     20  N   UNL     1      43.417 131.666  23.025  1.00  0.00    -0.381 N 
ATOM     21  H   UNL     1      43.244 132.605  23.448  1.00  0.00     0.160 HD
BRANCH  20  22
ATOM     22  C   UNL     1      43.100 130.472  23.817  1.00  0.00     0.094 C 
ATOM     23  C   UNL     1      44.267 129.969  24.618  1.00  0.00     0.100 C 
ATOM     24  C   UNL     1      43.207 129.203  23.022  1.00  0.00     0.100 C 
ATOM     25  C   UNL     1      44.378 128.676  23.831  1.00  0.00     0.137 C 
ATOM     26  O   UNL     1      45.080 127.679  23.843  1.00  0.00    -0.300 OA
ENDBRANCH  20  22
ENDBRANCH   3  20
BRANCH   4  27
ATOM     27  C   UNL     1      41.728 132.787  20.853  1.00  0.00     0.262 C 
ATOM     28  O   UNL     1      40.920 133.044  19.922  1.00  0.00    -0.298 OA
ENDBRANCH   4  27
TORSDOF 5
ENDMDL
MODEL 3
REMARK VINA RESULT:      -7.7      1.555      1.918
REMARK SMILES Nc1cc(NC2CC(=O)C2)c(C=O)cc1-c1ccc2c(c1)[N-]C(=O)C2
REMARK SMILES IDX 2 1 3 2 4 3 11 4 14 5 15 6 1 7 16 10 17 11 21 12 18 13 20 14
REMARK SMILES IDX 19 15 22 16 25 17 23 18 24 19 5 20 6 22 7 23 10 24 8 25 9 26
REMARK SMILES IDX 12 27 13 28
REMARK H PARENT 1 8 1 9 5 21
ROOT
ATOM      1  C   UNL     1      45.193 130.646  19.613  1.00  0.00     0.041 A 
ATOM      2  C   UNL     1      44.490 130.708  20.823  1.00  0.00     0.052 A 
ATOM      3  C   UNL     1      43.240 131.346  20.911  1.00  0.00     0.047 A 
ATOM      4  C   UNL     1      42.697 131.959  19.757  1.00  0.00     0.038 A 
ATOM      5  C   UNL     1      43.398 131.884  18.543  1.00  0.00     0.024 A 
ATOM      6  C   UNL     1      44.644 131.248  18.460  1.00  0.00     0.005 A 
ENDROOT
BRANCH   1   7
ATOM      7  N   UNL     1      46.431 129.922  19.566  1.00  0.00    -0.398 N 
ATOM      8  H   UNL     1      47.105 129.924  20.362  1.00  0.00     0.156 HD
ATOM      9  H   UNL     1      46.722 129.427  18.693  1.00  0.00     0.156 HD
ENDBRANCH   1   7
BRANCH   6  10
ATOM     10  C   UNL     1      45.361 131.259  17.166  1.00  0.00    -0.018 A 
ATOM     11  C   UNL     1      45.229 132.360  16.285  1.00  0.00     0.009 A 
ATOM     12  C   UNL     1      46.145 130.151  16.783  1.00  0.00    -0.007 A 
ATOM     13  C   UNL     1      45.889 132.366  15.046  1.00  0.00     0.003 A 
ATOM     14  C   UNL     1      46.788 130.182  15.548  1.00  0.00    -0.130 A 
ATOM     15  C   UNL     1      46.666 131.261  14.700  1.00  0.00    -0.057 A 
ATOM     16  N   UNL     1      47.613 129.157  15.018  1.00  0.00    -0.626 NA
ATOM     17  C   UNL     1      47.448 131.039  13.454  1.00  0.00     0.089 C 
ATOM     18  C   UNL     1      48.009 129.682  13.752  1.00  0.00     0.059 C 
ATOM     19  O   UNL     1      48.762 129.051  12.966  1.00  0.00    -0.320 OA
ENDBRANCH   6  10
BRANCH   3  20
ATOM     20  N   UNL     1      42.503 131.308  22.149  1.00  0.00    -0.381 N 
ATOM     21  H   UNL     1      41.460 131.292  22.105  1.00  0.00     0.160 HD
BRANCH  20  22
ATOM     22  C   UNL     1      43.151 131.164  23.458  1.00  0.00     0.094 C 
ATOM     23  C   UNL     1      43.154 132.436  24.258  1.00  0.00     0.100 C 
ATOM     24  C   UNL     1      44.644 131.307  23.385  1.00  0.00     0.100 C 
ATOM     25  C   UNL     1      44.662 132.585  24.203  1.00  0.00     0.137 C 
ATOM     26  O   UNL     1      45.500 133.367  24.621  1.00  0.00    -0.300 OA
ENDBRANCH  20  22
ENDBRANCH   3  20
BRANCH   4  27
ATOM     27  C   UNL     1      41.435 132.734  19.772  1.00  0.00     0.262 C 
ATOM     28  O   UNL     1      41.124 133.477  20.740  1.00  0.00    -0.298 OA
ENDBRANCH   4  27
TORSDOF 5
ENDMDL
MODEL 4
REMARK VINA RESULT:      -6.7      1.993      2.875
REMARK SMILES Nc1cc(NC2CC(=O)C2)c(C=O)cc1-c1ccc2c(c1)[N-]C(=O)C2
REMARK SMILES IDX 2 1 3 2 4 3 11 4 14 5 15 6 1 7 16 10 17 11 21 12 18 13 20 14
REMARK SMILES IDX 19 15 22 16 25 17 23 18 24 19 5 20 6 22 7 23 10 24 8 25 9 26
REMARK SMILES IDX 12 27 13 28
REMARK H PARENT 1 8 1 9 5 21
ROOT
ATOM      1  C   UNL     1      43.308 131.564  18.907  1.00  0.00     0.041 A 
ATOM      2  C   UNL     1      42.670 131.381  20.140  1.00  0.00     0.052 A 
ATOM      3  C   UNL     1      43.302 130.702  21.197  1.00  0.00     0.047 A 
ATOM      4  C   UNL     1      44.599 130.172  20.997  1.00  0.00     0.038 A 
ATOM      5  C   UNL     1      45.241 130.368  19.765  1.00  0.00     0.024 A 
ATOM      6  C   UNL     1      44.607 131.044  18.714  1.00  0.00     0.005 A 
ENDROOT
BRANCH   1   7
ATOM      7  N   UNL     1      42.644 132.325  17.888  1.00  0.00    -0.398 N 
ATOM      8  H   UNL     1      42.705 132.071  16.878  1.00  0.00     0.156 HD
ATOM      9  H   UNL     1      42.135 133.205  18.130  1.00  0.00     0.156 HD
ENDBRANCH   1   7
BRANCH   6  10
ATOM     10  C   UNL     1      45.312 131.162  17.418  1.00  0.00    -0.018 A 
ATOM     11  C   UNL     1      45.253 132.369  16.680  1.00  0.00     0.009 A 
ATOM     12  C   UNL     1      46.010 130.056  16.891  1.00  0.00    -0.007 A 
ATOM     13  C   UNL     1      45.901 132.479  15.439  1.00  0.00     0.003 A 
ATOM     14  C   UNL     1      46.644 130.191  15.658  1.00  0.00    -0.130 A 
ATOM     15  C   UNL     1      46.594 131.372  14.949  1.00  0.00    -0.057 A 
ATOM     16  N   UNL     1      47.388 129.183  14.994  1.00  0.00    -0.626 NA
ATOM     17  C   UNL     1      47.347 131.248  13.672  1.00  0.00     0.089 C 
ATOM     18  C   UNL     1      47.810 129.828  13.794  1.00  0.00     0.059 C 
ATOM     19  O   UNL     1      48.509 129.246  12.925  1.00  0.00    -0.320 OA
ENDBRANCH   6  10
BRANCH   3  20
ATOM     20  N   UNL     1      42.654 130.615  22.481  1.00  0.00    -0.381 N 
ATOM     21  H   UNL     1      42.194 129.716  22.746  1.00  0.00     0.160 HD
BRANCH  20  22
ATOM     22  C   UNL     1      42.718 131.689  23.480  1.00  0.00     0.094 C 
ATOM     23  C   UNL     1      43.645 132.805  23.088  1.00  0.00     0.100 C 
ATOM     24  C   UNL     1      43.683 131.391  24.590  1.00  0.00     0.100 C 
ATOM     25  C   UNL     1      44.621 132.523  24.214  1.00  0.00     0.137 C 
ATOM     26  O   UNL     1      45.672 132.988  24.625  1.00  0.00    -0.300 OA
ENDBRANCH  20  22
ENDBRANCH   3  20
BRANCH   4  27
ATOM     27  C   UNL     1      45.306 129.362  22.016  1.00  0.00     0.262 C 
ATOM     28  O   UNL     1      44.685 128.626  22.827  1.00  0.00    -0.298 OA
ENDBRANCH   4  27
TORSDOF 5
ENDMDL
MODEL 5
REMARK VINA RESULT:      -6.6      1.096      1.379
REMARK SMILES Nc1cc(NC2CC(=O)C2)c(C=O)cc1-c1ccc2c(c1)[N-]C(=O)C2
REMARK SMILES IDX 2 1 3 2 4 3 11 4 14 5 15 6 1 7 16 10 17 11 21 12 18 13 20 14
REMARK SMILES IDX 19 15 22 16 25 17 23 18 24 19 5 20 6 22 7 23 10 24 8 25 9 26
REMARK SMILES IDX 12 27 13 28
REMARK H PARENT 1 8 1 9 5 21
ROOT
ATOM      1  C   UNL     1      45.518 130.779  19.811  1.00  0.00     0.041 A 
ATOM      2  C   UNL     1      44.937 131.188  21.018  1.00  0.00     0.052 A 
ATOM      3  C   UNL     1      43.661 131.777  21.053  1.00  0.00     0.047 A 
ATOM      4  C   UNL     1      42.964 131.984  19.838  1.00  0.00     0.038 A 
ATOM      5  C   UNL     1      43.544 131.562  18.632  1.00  0.00     0.024 A 
ATOM      6  C   UNL     1      44.816 130.975  18.601  1.00  0.00     0.005 A 
ENDROOT
BRANCH   1   7
ATOM      7  N   UNL     1      46.792 130.120  19.842  1.00  0.00    -0.398 N 
ATOM      8  H   UNL     1      46.878 129.084  19.928  1.00  0.00     0.156 HD
ATOM      9  H   UNL     1      47.676 130.676  19.851  1.00  0.00     0.156 HD
ENDBRANCH   1   7
BRANCH   6  10
ATOM     10  C   UNL     1      45.398 130.611  17.291  1.00  0.00    -0.018 A 
ATOM     11  C   UNL     1      45.441 129.256  16.880  1.00  0.00     0.009 A 
ATOM     12  C   UNL     1      45.955 131.608  16.463  1.00  0.00    -0.007 A 
ATOM     13  C   UNL     1      46.012 128.902  15.648  1.00  0.00     0.003 A 
ATOM     14  C   UNL     1      46.516 131.229  15.246  1.00  0.00    -0.130 A 
ATOM     15  C   UNL     1      46.544 129.911  14.845  1.00  0.00    -0.057 A 
ATOM     16  N   UNL     1      47.109 132.103  14.299  1.00  0.00    -0.626 NA
ATOM     17  C   UNL     1      47.197 129.782  13.515  1.00  0.00     0.089 C 
ATOM     18  C   UNL     1      47.519 131.222  13.256  1.00  0.00     0.059 C 
ATOM     19  O   UNL     1      48.097 131.631  12.215  1.00  0.00    -0.320 OA
ENDBRANCH   6  10
BRANCH   3  20
ATOM     20  N   UNL     1      43.055 132.098  22.320  1.00  0.00    -0.381 N 
ATOM     21  H   UNL     1      42.258 132.772  22.333  1.00  0.00     0.160 HD
BRANCH  20  22
ATOM     22  C   UNL     1      43.425 131.428  23.573  1.00  0.00     0.094 C 
ATOM     23  C   UNL     1      43.757 129.974  23.388  1.00  0.00     0.100 C 
ATOM     24  C   UNL     1      42.232 130.967  24.359  1.00  0.00     0.100 C 
ATOM     25  C   UNL     1      42.563 129.496  24.191  1.00  0.00     0.137 C 
ATOM     26  O   UNL     1      42.089 128.427  24.540  1.00  0.00    -0.300 OA
ENDBRANCH  20  22
ENDBRANCH   3  20
BRANCH   4  27
ATOM     27  C   UNL     1      41.659 132.681  19.764  1.00  0.00     0.262 C 
ATOM     28  O   UNL     1      41.377 133.643  20.525  1.00  0.00    -0.298 OA
ENDBRANCH   4  27
TORSDOF 5
ENDMDL
MODEL 6
REMARK VINA RESULT:      -6.0      1.746      2.185
REMARK SMILES Nc1cc(NC2CC(=O)C2)c(C=O)cc1-c1ccc2c(c1)[N-]C(=O)C2
REMARK SMILES IDX 2 1 3 2 4 3 11 4 14 5 15 6 1 7 16 10 17 11 21 12 18 13 20 14
REMARK SMILES IDX 19 15 22 16 25 17 23 18 24 19 5 20 6 22 7 23 10 24 8 25 9 26
REMARK SMILES IDX 12 27 13 28
REMARK H PARENT 1 8 1 9 5 21
ROOT
ATOM      1  C   UNL     1      43.185 131.646  18.438  1.00  0.00     0.041 A 
ATOM      2  C   UNL     1      42.708 131.797  19.746  1.00  0.00     0.052 A 
ATOM      3  C   UNL     1      43.588 131.966  20.830  1.00  0.00     0.047 A 
ATOM      4  C   UNL     1      44.983 131.958  20.592  1.00  0.00     0.038 A 
ATOM      5  C   UNL     1      45.457 131.819  19.278  1.00  0.00     0.024 A 
ATOM      6  C   UNL     1      44.576 131.650  18.201  1.00  0.00     0.005 A 
ENDROOT
BRANCH   1   7
ATOM      7  N   UNL     1      42.240 131.548  17.362  1.00  0.00    -0.398 N 
ATOM      8  H   UNL     1      41.232 131.786  17.486  1.00  0.00     0.156 HD
ATOM      9  H   UNL     1      42.530 131.161  16.436  1.00  0.00     0.156 HD
ENDBRANCH   1   7
BRANCH   6  10
ATOM     10  C   UNL     1      45.141 131.446  16.849  1.00  0.00    -0.018 A 
ATOM     11  C   UNL     1      44.547 132.070  15.725  1.00  0.00     0.009 A 
ATOM     12  C   UNL     1      46.249 130.592  16.668  1.00  0.00    -0.007 A 
ATOM     13  C   UNL     1      45.065 131.861  14.436  1.00  0.00     0.003 A 
ATOM     14  C   UNL     1      46.743 130.402  15.379  1.00  0.00    -0.130 A 
ATOM     15  C   UNL     1      46.168 131.021  14.290  1.00  0.00    -0.057 A 
ATOM     16  N   UNL     1      47.847 129.585  15.027  1.00  0.00    -0.626 NA
ATOM     17  C   UNL     1      46.883 130.649  13.039  1.00  0.00     0.089 C 
ATOM     18  C   UNL     1      47.926 129.739  13.611  1.00  0.00     0.059 C 
ATOM     19  O   UNL     1      48.800 129.156  12.918  1.00  0.00    -0.320 OA
ENDBRANCH   6  10
BRANCH   3  20
ATOM     20  N   UNL     1      43.060 132.212  22.148  1.00  0.00    -0.381 N 
ATOM     21  H   UNL     1      42.328 132.948  22.260  1.00  0.00     0.160 HD
BRANCH  20  22
ATOM     22  C   UNL     1      43.414 131.393  23.313  1.00  0.00     0.094 C 
ATOM     23  C   UNL     1      43.161 129.927  23.103  1.00  0.00     0.100 C 
ATOM     24  C   UNL     1      42.322 131.346  24.343  1.00  0.00     0.100 C 
ATOM     25  C   UNL     1      42.066 129.863  24.150  1.00  0.00     0.137 C 
ATOM     26  O   UNL     1      41.323 129.015  24.618  1.00  0.00    -0.300 OA
ENDBRANCH  20  22
ENDBRANCH   3  20
BRANCH   4  27
ATOM     27  C   UNL     1      45.988 132.034  21.678  1.00  0.00     0.262 C 
ATOM     28  O   UNL     1      47.221 132.117  21.436  1.00  0.00    -0.298 OA
ENDBRANCH   4  27
TORSDOF 5
ENDMDL
MODEL 7
REMARK VINA RESULT:      -6.0      1.826      2.503
REMARK SMILES Nc1cc(NC2CC(=O)C2)c(C=O)cc1-c1ccc2c(c1)[N-]C(=O)C2
REMARK SMILES IDX 2 1 3 2 4 3 11 4 14 5 15 6 1 7 16 10 17 11 21 12 18 13 20 14
REMARK SMILES IDX 19 15 22 16 25 17 23 18 24 19 5 20 6 22 7 23 10 24 8 25 9 26
REMARK SMILES IDX 12 27 13 28
REMARK H PARENT 1 8 1 9 5 21
ROOT
ATOM      1  C   UNL     1      42.732 132.291  19.894  1.00  0.00     0.041 A 
ATOM      2  C   UNL     1      42.444 132.305  21.265  1.00  0.00     0.052 A 
ATOM      3  C   UNL     1      43.227 131.584  22.184  1.00  0.00     0.047 A 
ATOM      4  C   UNL     1      44.312 130.810  21.706  1.00  0.00     0.038 A 
ATOM      5  C   UNL     1      44.605 130.808  20.334  1.00  0.00     0.024 A 
ATOM      6  C   UNL     1      43.821 131.527  19.421  1.00  0.00     0.005 A 
ENDROOT
BRANCH   1   7
ATOM      7  N   UNL     1      41.942 133.101  19.011  1.00  0.00    -0.398 N 
ATOM      8  H   UNL     1      41.177 133.718  19.360  1.00  0.00     0.156 HD
ATOM      9  H   UNL     1      42.069 133.035  17.976  1.00  0.00     0.156 HD
ENDBRANCH   1   7
BRANCH   6  10
ATOM     10  C   UNL     1      44.144 131.433  17.980  1.00  0.00    -0.018 A 
ATOM     11  C   UNL     1      43.175 131.777  17.007  1.00  0.00     0.009 A 
ATOM     12  C   UNL     1      45.406 130.956  17.569  1.00  0.00    -0.007 A 
ATOM     13  C   UNL     1      43.468 131.667  15.638  1.00  0.00     0.003 A 
ATOM     14  C   UNL     1      45.671 130.856  16.205  1.00  0.00    -0.130 A 
ATOM     15  C   UNL     1      44.728 131.204  15.262  1.00  0.00    -0.057 A 
ATOM     16  N   UNL     1      46.885 130.404  15.628  1.00  0.00    -0.626 NA
ATOM     17  C   UNL     1      45.264 131.003  13.888  1.00  0.00     0.089 C 
ATOM     18  C   UNL     1      46.631 130.495  14.227  1.00  0.00     0.059 C 
ATOM     19  O   UNL     1      47.490 130.174  13.365  1.00  0.00    -0.320 OA
ENDBRANCH   6  10
BRANCH   3  20
ATOM     20  N   UNL     1      42.960 131.697  23.595  1.00  0.00    -0.381 N 
ATOM     21  H   UNL     1      43.221 132.584  24.080  1.00  0.00     0.160 HD
BRANCH  20  22
ATOM     22  C   UNL     1      42.227 130.675  24.351  1.00  0.00     0.094 C 
ATOM     23  C   UNL     1      43.043 129.443  24.623  1.00  0.00     0.100 C 
ATOM     24  C   UNL     1      41.368 129.810  23.475  1.00  0.00     0.100 C 
ATOM     25  C   UNL     1      42.176 128.555  23.751  1.00  0.00     0.137 C 
ATOM     26  O   UNL     1      42.143 127.380  23.424  1.00  0.00    -0.300 OA
ENDBRANCH  20  22
ENDBRANCH   3  20
BRANCH   4  27
ATOM     27  C   UNL     1      45.134 129.944  22.582  1.00  0.00     0.262 C 
ATOM     28  O   UNL     1      45.208 128.700  22.405  1.00  0.00    -0.298 OA
ENDBRANCH   4  27
TORSDOF 5
ENDMDL


