REMARK SMILES N[NH2+]c1cccc2cc(-c3ccc(O)cc3)c3c[nH]nc3c12
REMARK SMILES IDX 3 1 4 2 5 3 6 4 7 5 8 6 9 7 17 8 18 9 19 10 20 11 21 12
REMARK SMILES IDX 22 13 2 15 1 18 10 21 11 22 16 23 12 24 15 25 13 26 14 27
REMARK H PARENT 19 14 2 16 2 17 1 19 1 20 14 28
ROOT
ATOM      1  C   UNL     1       1.651  -0.830  -2.330  1.00  0.00     0.158 A 
ATOM      2  C   UNL     1       1.704  -2.203  -2.635  1.00  0.00     0.070 A 
ATOM      3  C   UNL     1       0.999  -3.138  -1.881  1.00  0.00     0.007 A 
ATOM      4  C   UNL     1       0.227  -2.730  -0.797  1.00  0.00     0.009 A 
ATOM      5  C   UNL     1       0.157  -1.376  -0.446  1.00  0.00    -0.009 A 
ATOM      6  C   UNL     1      -0.627  -0.988   0.668  1.00  0.00     0.018 A 
ATOM      7  C   UNL     1      -0.709   0.360   1.067  1.00  0.00    -0.007 A 
ATOM      8  C   UNL     1       0.005   1.292   0.309  1.00  0.00     0.028 A 
ATOM      9  C   UNL     1       0.108   2.664   0.399  1.00  0.00     0.114 A 
ATOM     10  N   UNL     1       0.914   3.077  -0.599  1.00  0.00    -0.284 N 
ATOM     11  N   UNL     1       1.318   2.039  -1.320  1.00  0.00    -0.175 NA
ATOM     12  C   UNL     1       0.765   0.936  -0.780  1.00  0.00     0.107 A 
ATOM     13  C   UNL     1       0.877  -0.404  -1.208  1.00  0.00     0.073 A 
ATOM     14  H   UNL     1       1.185   4.066  -0.795  1.00  0.00     0.189 HD
ENDROOT
BRANCH   1  15
ATOM     15  N   UNL     1       2.405   0.090  -3.150  1.00  0.00    -0.239 N 
ATOM     16  H   UNL     1       1.812   0.907  -3.421  1.00  0.00     0.376 HD
ATOM     17  H   UNL     1       2.727  -0.364  -4.038  1.00  0.00     0.376 HD
BRANCH  15  18
ATOM     18  N   UNL     1       3.532   0.529  -2.426  1.00  0.00    -0.178 NA
ATOM     19  H   UNL     1       4.218  -0.261  -2.370  1.00  0.00     0.183 HD
ATOM     20  H   UNL     1       3.996   1.286  -2.981  1.00  0.00     0.183 HD
ENDBRANCH  15  18
ENDBRANCH   1  15
BRANCH   7  21
ATOM     21  C   UNL     1      -1.519   0.750   2.244  1.00  0.00    -0.017 A 
ATOM     22  C   UNL     1      -0.971   1.559   3.255  1.00  0.00     0.012 A 
ATOM     23  C   UNL     1      -2.841   0.291   2.377  1.00  0.00     0.012 A 
ATOM     24  C   UNL     1      -1.737   1.915   4.369  1.00  0.00     0.047 A 
ATOM     25  C   UNL     1      -3.605   0.649   3.492  1.00  0.00     0.047 A 
ATOM     26  C   UNL     1      -3.057   1.462   4.489  1.00  0.00     0.115 A 
BRANCH  26  27
ATOM     27  O   UNL     1      -3.830   1.811   5.594  1.00  0.00    -0.508 OA
ATOM     28  H   UNL     1      -3.462   2.398   6.334  1.00  0.00     0.293 HD
ENDBRANCH  26  27
ENDBRANCH   7  21
TORSDOF 4


