MODEL 1
REMARK VINA RESULT:      -7.8      0.000      0.000
REMARK SMILES N[NH2+]c1cccc2cc(-c3ccc([O-])cc3)c3c[nH][nH+]c3c12
REMARK SMILES IDX 3 1 4 2 5 3 6 4 7 5 8 6 9 7 17 8 18 9 19 10 20 11 21 12
REMARK SMILES IDX 22 13 2 16 1 19 10 22 11 23 16 24 12 25 15 26 13 27 14 28
REMARK H PARENT 19 14 20 15 2 17 2 18 1 20 1 21
ROOT
ATOM      1  C   UNL     1      42.842 131.900  21.512  1.00  0.00     0.163 A 
ATOM      2  C   UNL     1      43.588 131.792  22.702  1.00  0.00     0.070 A 
ATOM      3  C   UNL     1      44.939 131.465  22.682  1.00  0.00     0.007 A 
ATOM      4  C   UNL     1      45.579 131.220  21.475  1.00  0.00     0.009 A 
ATOM      5  C   UNL     1      44.889 131.353  20.263  1.00  0.00    -0.005 A 
ATOM      6  C   UNL     1      45.578 131.075  19.059  1.00  0.00     0.019 A 
ATOM      7  C   UNL     1      44.948 131.209  17.811  1.00  0.00    -0.002 A 
ATOM      8  C   UNL     1      43.632 131.675  17.811  1.00  0.00     0.079 A 
ATOM      9  C   UNL     1      42.823 132.067  16.764  1.00  0.00     0.163 A 
ATOM     10  N   UNL     1      41.700 132.589  17.290  1.00  0.00    -0.174 N 
ATOM     11  N   UNL     1      41.766 132.545  18.613  1.00  0.00    -0.125 N 
ATOM     12  C   UNL     1      42.937 131.966  18.968  1.00  0.00     0.250 A 
ATOM     13  C   UNL     1      43.515 131.760  20.254  1.00  0.00     0.119 A 
ATOM     14  H   UNL     1      40.916 133.019  16.753  1.00  0.00     0.238 HD
ATOM     15  H   UNL     1      41.046 132.998  19.209  1.00  0.00     0.488 HD
ENDROOT
BRANCH   1  16
ATOM     16  N   UNL     1      41.414 132.073  21.642  1.00  0.00    -0.239 N 
ATOM     17  H   UNL     1      41.137 131.910  22.639  1.00  0.00     0.376 HD
ATOM     18  H   UNL     1      40.868 131.381  21.086  1.00  0.00     0.376 HD
BRANCH  16  19
ATOM     19  N   UNL     1      41.068 133.403  21.320  1.00  0.00    -0.178 NA
ATOM     20  H   UNL     1      41.128 133.974  22.194  1.00  0.00     0.183 HD
ATOM     21  H   UNL     1      40.074 133.442  20.998  1.00  0.00     0.183 HD
ENDBRANCH  16  19
ENDBRANCH   1  16
BRANCH   7  22
ATOM     22  C   UNL     1      45.680 130.908  16.558  1.00  0.00    -0.018 A 
ATOM     23  C   UNL     1      45.970 129.578  16.206  1.00  0.00     0.008 A 
ATOM     24  C   UNL     1      46.073 131.946  15.694  1.00  0.00     0.008 A 
ATOM     25  C   UNL     1      46.653 129.294  15.019  1.00  0.00    -0.008 A 
ATOM     26  C   UNL     1      46.754 131.658  14.508  1.00  0.00    -0.008 A 
ATOM     27  C   UNL     1      47.046 130.333  14.171  1.00  0.00    -0.109 A 
ATOM     28  O   UNL     1      47.724 130.048  12.992  1.00  0.00    -0.872 OA
ENDBRANCH   7  22
TORSDOF 3
ENDMDL
MODEL 2
REMARK VINA RESULT:      -7.5      0.700      1.246
REMARK SMILES N[NH2+]c1cccc2cc(-c3ccc([O-])cc3)c3c[nH][nH+]c3c12
REMARK SMILES IDX 3 1 4 2 5 3 6 4 7 5 8 6 9 7 17 8 18 9 19 10 20 11 21 12
REMARK SMILES IDX 22 13 2 16 1 19 10 22 11 23 16 24 12 25 15 26 13 27 14 28
REMARK H PARENT 19 14 20 15 2 17 2 18 1 20 1 21
ROOT
ATOM      1  C   UNL     1      43.113 131.773  20.888  1.00  0.00     0.163 A 
ATOM      2  C   UNL     1      43.826 131.671  22.098  1.00  0.00     0.070 A 
ATOM      3  C   UNL     1      45.175 131.337  22.118  1.00  0.00     0.007 A 
ATOM      4  C   UNL     1      45.847 131.079  20.931  1.00  0.00     0.009 A 
ATOM      5  C   UNL     1      45.191 131.205  19.700  1.00  0.00    -0.005 A 
ATOM      6  C   UNL     1      45.911 130.914  18.518  1.00  0.00     0.019 A 
ATOM      7  C   UNL     1      45.316 131.040  17.252  1.00  0.00    -0.002 A 
ATOM      8  C   UNL     1      44.003 131.512  17.212  1.00  0.00     0.079 A 
ATOM      9  C   UNL     1      43.226 131.899  16.139  1.00  0.00     0.163 A 
ATOM     10  N   UNL     1      42.091 132.431  16.630  1.00  0.00    -0.174 N 
ATOM     11  N   UNL     1      42.120 132.398  17.955  1.00  0.00    -0.125 N 
ATOM     12  C   UNL     1      43.278 131.816  18.346  1.00  0.00     0.250 A 
ATOM     13  C   UNL     1      43.819 131.619  19.649  1.00  0.00     0.119 A 
ATOM     14  H   UNL     1      41.324 132.860  16.067  1.00  0.00     0.238 HD
ATOM     15  H   UNL     1      41.386 132.859  18.526  1.00  0.00     0.488 HD
ENDROOT
BRANCH   1  16
ATOM     16  N   UNL     1      41.683 131.954  20.977  1.00  0.00    -0.239 N 
ATOM     17  H   UNL     1      41.363 131.695  21.940  1.00  0.00     0.376 HD
ATOM     18  H   UNL     1      41.153 131.331  20.331  1.00  0.00     0.376 HD
BRANCH  16  19
ATOM     19  N   UNL     1      41.366 133.315  20.779  1.00  0.00    -0.178 NA
ATOM     20  H   UNL     1      41.905 133.656  19.950  1.00  0.00     0.183 HD
ATOM     21  H   UNL     1      41.685 133.876  21.602  1.00  0.00     0.183 HD
ENDBRANCH  16  19
ENDBRANCH   1  16
BRANCH   7  22
ATOM     22  C   UNL     1      46.081 130.725  16.022  1.00  0.00    -0.018 A 
ATOM     23  C   UNL     1      46.381 131.736  15.092  1.00  0.00     0.008 A 
ATOM     24  C   UNL     1      46.537 129.417  15.780  1.00  0.00     0.008 A 
ATOM     25  C   UNL     1      47.109 131.440  13.936  1.00  0.00    -0.008 A 
ATOM     26  C   UNL     1      47.266 129.124  14.624  1.00  0.00    -0.008 A 
ATOM     27  C   UNL     1      47.552 130.135  13.701  1.00  0.00    -0.109 A 
ATOM     28  O   UNL     1      48.276 129.843  12.552  1.00  0.00    -0.872 OA
ENDBRANCH   7  22
TORSDOF 3
ENDMDL
MODEL 3
REMARK VINA RESULT:      -7.5      0.571      1.238
REMARK SMILES N[NH2+]c1cccc2cc(-c3ccc([O-])cc3)c3c[nH][nH+]c3c12
REMARK SMILES IDX 3 1 4 2 5 3 6 4 7 5 8 6 9 7 17 8 18 9 19 10 20 11 21 12
REMARK SMILES IDX 22 13 2 16 1 19 10 22 11 23 16 24 12 25 15 26 13 27 14 28
REMARK H PARENT 19 14 20 15 2 17 2 18 1 20 1 21
ROOT
ATOM      1  C   UNL     1      42.963 131.968  21.940  1.00  0.00     0.163 A 
ATOM      2  C   UNL     1      43.780 131.819  23.077  1.00  0.00     0.070 A 
ATOM      3  C   UNL     1      45.116 131.449  22.965  1.00  0.00     0.007 A 
ATOM      4  C   UNL     1      45.668 131.201  21.717  1.00  0.00     0.009 A 
ATOM      5  C   UNL     1      44.906 131.372  20.554  1.00  0.00    -0.005 A 
ATOM      6  C   UNL     1      45.506 131.090  19.305  1.00  0.00     0.019 A 
ATOM      7  C   UNL     1      44.803 131.261  18.102  1.00  0.00    -0.002 A 
ATOM      8  C   UNL     1      43.505 131.769  18.193  1.00  0.00     0.079 A 
ATOM      9  C   UNL     1      42.644 132.201  17.205  1.00  0.00     0.163 A 
ATOM     10  N   UNL     1      41.575 132.752  17.809  1.00  0.00    -0.174 N 
ATOM     11  N   UNL     1      41.724 132.688  19.125  1.00  0.00    -0.125 N 
ATOM     12  C   UNL     1      42.896 132.066  19.396  1.00  0.00     0.250 A 
ATOM     13  C   UNL     1      43.548 131.824  20.639  1.00  0.00     0.119 A 
ATOM     14  H   UNL     1      40.772 133.214  17.329  1.00  0.00     0.238 HD
ATOM     15  H   UNL     1      41.059 133.155  19.771  1.00  0.00     0.488 HD
ENDROOT
BRANCH   1  16
ATOM     16  N   UNL     1      41.553 132.185  22.164  1.00  0.00    -0.239 N 
ATOM     17  H   UNL     1      41.008 131.429  21.687  1.00  0.00     0.376 HD
ATOM     18  H   UNL     1      41.209 133.078  21.753  1.00  0.00     0.376 HD
BRANCH  16  19
ATOM     19  N   UNL     1      41.275 132.096  23.546  1.00  0.00    -0.178 NA
ATOM     20  H   UNL     1      40.844 131.162  23.730  1.00  0.00     0.183 HD
ATOM     21  H   UNL     1      40.565 132.817  23.811  1.00  0.00     0.183 HD
ENDBRANCH  16  19
ENDBRANCH   1  16
BRANCH   7  22
ATOM     22  C   UNL     1      45.442 130.955  16.801  1.00  0.00    -0.018 A 
ATOM     23  C   UNL     1      45.859 131.994  15.950  1.00  0.00     0.008 A 
ATOM     24  C   UNL     1      45.661 129.622  16.410  1.00  0.00     0.008 A 
ATOM     25  C   UNL     1      46.470 131.705  14.727  1.00  0.00    -0.008 A 
ATOM     26  C   UNL     1      46.274 129.336  15.186  1.00  0.00    -0.008 A 
ATOM     27  C   UNL     1      46.677 130.376  14.344  1.00  0.00    -0.109 A 
ATOM     28  O   UNL     1      47.285 130.091  13.128  1.00  0.00    -0.872 OA
ENDBRANCH   7  22
TORSDOF 3
ENDMDL
MODEL 4
REMARK VINA RESULT:      -7.2      1.001      1.259
REMARK SMILES N[NH2+]c1cccc2cc(-c3ccc([O-])cc3)c3c[nH][nH+]c3c12
REMARK SMILES IDX 3 1 4 2 5 3 6 4 7 5 8 6 9 7 17 8 18 9 19 10 20 11 21 12
REMARK SMILES IDX 22 13 2 16 1 19 10 22 11 23 16 24 12 25 15 26 13 27 14 28
REMARK H PARENT 19 14 20 15 2 17 2 18 1 20 1 21
ROOT
ATOM      1  C   UNL     1      43.075 131.761  20.240  1.00  0.00     0.163 A 
ATOM      2  C   UNL     1      43.704 131.679  21.497  1.00  0.00     0.070 A 
ATOM      3  C   UNL     1      45.046 131.339  21.615  1.00  0.00     0.007 A 
ATOM      4  C   UNL     1      45.796 131.055  20.482  1.00  0.00     0.009 A 
ATOM      5  C   UNL     1      45.226 131.160  19.207  1.00  0.00    -0.005 A 
ATOM      6  C   UNL     1      46.023 130.843  18.082  1.00  0.00     0.019 A 
ATOM      7  C   UNL     1      45.517 130.948  16.777  1.00  0.00    -0.002 A 
ATOM      8  C   UNL     1      44.213 131.426  16.638  1.00  0.00     0.079 A 
ATOM      9  C   UNL     1      43.512 131.796  15.508  1.00  0.00     0.163 A 
ATOM     10  N   UNL     1      42.350 132.342  15.910  1.00  0.00    -0.174 N 
ATOM     11  N   UNL     1      42.289 132.335  17.234  1.00  0.00    -0.125 N 
ATOM     12  C   UNL     1      43.414 131.755  17.715  1.00  0.00     0.250 A 
ATOM     13  C   UNL     1      43.863 131.580  19.056  1.00  0.00     0.119 A 
ATOM     14  H   UNL     1      41.625 132.764  15.289  1.00  0.00     0.238 HD
ATOM     15  H   UNL     1      41.520 132.810  17.746  1.00  0.00     0.488 HD
ENDROOT
BRANCH   1  16
ATOM     16  N   UNL     1      41.644 131.950  20.228  1.00  0.00    -0.239 N 
ATOM     17  H   UNL     1      41.203 131.282  20.903  1.00  0.00     0.376 HD
ATOM     18  H   UNL     1      41.213 131.736  19.303  1.00  0.00     0.376 HD
BRANCH  16  19
ATOM     19  N   UNL     1      41.337 133.257  20.665  1.00  0.00    -0.178 NA
ATOM     20  H   UNL     1      40.966 133.192  21.641  1.00  0.00     0.183 HD
ATOM     21  H   UNL     1      40.572 133.657  20.074  1.00  0.00     0.183 HD
ENDBRANCH  16  19
ENDBRANCH   1  16
BRANCH   7  22
ATOM     22  C   UNL     1      46.362 130.606  15.608  1.00  0.00    -0.018 A 
ATOM     23  C   UNL     1      46.890 129.310  15.467  1.00  0.00     0.008 A 
ATOM     24  C   UNL     1      46.627 131.564  14.613  1.00  0.00     0.008 A 
ATOM     25  C   UNL     1      47.679 128.985  14.360  1.00  0.00    -0.008 A 
ATOM     26  C   UNL     1      47.415 131.235  13.507  1.00  0.00    -0.008 A 
ATOM     27  C   UNL     1      47.943 129.947  13.380  1.00  0.00    -0.109 A 
ATOM     28  O   UNL     1      48.727 129.621  12.281  1.00  0.00    -0.872 OA
ENDBRANCH   7  22
TORSDOF 3
ENDMDL
MODEL 5
REMARK VINA RESULT:      -6.8      2.036      3.136
REMARK SMILES N[NH2+]c1cccc2cc(-c3ccc([O-])cc3)c3c[nH][nH+]c3c12
REMARK SMILES IDX 3 1 4 2 5 3 6 4 7 5 8 6 9 7 17 8 18 9 19 10 20 11 21 12
REMARK SMILES IDX 22 13 2 16 1 19 10 22 11 23 16 24 12 25 15 26 13 27 14 28
REMARK H PARENT 19 14 20 15 2 17 2 18 1 20 1 21
ROOT
ATOM      1  C   UNL     1      42.761 132.147  21.914  1.00  0.00     0.163 A 
ATOM      2  C   UNL     1      41.522 132.813  21.852  1.00  0.00     0.070 A 
ATOM      3  C   UNL     1      40.960 133.185  20.636  1.00  0.00     0.007 A 
ATOM      4  C   UNL     1      41.627 132.917  19.449  1.00  0.00     0.009 A 
ATOM      5  C   UNL     1      42.844 132.223  19.456  1.00  0.00    -0.005 A 
ATOM      6  C   UNL     1      43.496 131.989  18.224  1.00  0.00     0.019 A 
ATOM      7  C   UNL     1      44.707 131.281  18.162  1.00  0.00    -0.002 A 
ATOM      8  C   UNL     1      45.210 130.779  19.364  1.00  0.00     0.079 A 
ATOM      9  C   UNL     1      46.261 129.916  19.601  1.00  0.00     0.163 A 
ATOM     10  N   UNL     1      46.245 129.606  20.910  1.00  0.00    -0.174 N 
ATOM     11  N   UNL     1      45.237 130.229  21.504  1.00  0.00    -0.125 N 
ATOM     12  C   UNL     1      44.591 130.980  20.581  1.00  0.00     0.250 A 
ATOM     13  C   UNL     1      43.407 131.765  20.693  1.00  0.00     0.119 A 
ATOM     14  H   UNL     1      46.886 128.934  21.388  1.00  0.00     0.238 HD
ATOM     15  H   UNL     1      44.986 130.038  22.493  1.00  0.00     0.488 HD
ENDROOT
BRANCH   1  16
ATOM     16  N   UNL     1      43.343 131.956  23.222  1.00  0.00    -0.239 N 
ATOM     17  H   UNL     1      43.024 132.727  23.856  1.00  0.00     0.376 HD
ATOM     18  H   UNL     1      44.383 132.014  23.216  1.00  0.00     0.376 HD
BRANCH  16  19
ATOM     19  N   UNL     1      42.882 130.740  23.771  1.00  0.00    -0.178 NA
ATOM     20  H   UNL     1      43.106 130.741  24.792  1.00  0.00     0.183 HD
ATOM     21  H   UNL     1      43.404 129.940  23.345  1.00  0.00     0.183 HD
ENDBRANCH  16  19
ENDBRANCH   1  16
BRANCH   7  22
ATOM     22  C   UNL     1      45.383 131.050  16.864  1.00  0.00    -0.018 A 
ATOM     23  C   UNL     1      45.745 132.135  16.047  1.00  0.00     0.008 A 
ATOM     24  C   UNL     1      45.694 129.744  16.444  1.00  0.00     0.008 A 
ATOM     25  C   UNL     1      46.391 131.917  14.826  1.00  0.00    -0.008 A 
ATOM     26  C   UNL     1      46.341 129.529  15.223  1.00  0.00    -0.008 A 
ATOM     27  C   UNL     1      46.688 130.615  14.414  1.00  0.00    -0.109 A 
ATOM     28  O   UNL     1      47.331 130.400  13.201  1.00  0.00    -0.872 OA
ENDBRANCH   7  22
TORSDOF 3
ENDMDL
MODEL 6
REMARK VINA RESULT:      -6.7      2.050      2.965
REMARK SMILES N[NH2+]c1cccc2cc(-c3ccc([O-])cc3)c3c[nH][nH+]c3c12
REMARK SMILES IDX 3 1 4 2 5 3 6 4 7 5 8 6 9 7 17 8 18 9 19 10 20 11 21 12
REMARK SMILES IDX 22 13 2 16 1 19 10 22 11 23 16 24 12 25 15 26 13 27 14 28
REMARK H PARENT 19 14 20 15 2 17 2 18 1 20 1 21
ROOT
ATOM      1  C   UNL     1      42.792 132.146  21.926  1.00  0.00     0.163 A 
ATOM      2  C   UNL     1      41.542 132.795  21.889  1.00  0.00     0.070 A 
ATOM      3  C   UNL     1      40.949 133.156  20.684  1.00  0.00     0.007 A 
ATOM      4  C   UNL     1      41.595 132.894  19.484  1.00  0.00     0.009 A 
ATOM      5  C   UNL     1      42.821 132.217  19.467  1.00  0.00    -0.005 A 
ATOM      6  C   UNL     1      43.450 131.989  18.221  1.00  0.00     0.019 A 
ATOM      7  C   UNL     1      44.669 131.298  18.135  1.00  0.00    -0.002 A 
ATOM      8  C   UNL     1      45.205 130.806  19.327  1.00  0.00     0.079 A 
ATOM      9  C   UNL     1      46.273 129.959  19.543  1.00  0.00     0.163 A 
ATOM     10  N   UNL     1      46.289 129.652  20.853  1.00  0.00    -0.174 N 
ATOM     11  N   UNL     1      45.285 130.262  21.467  1.00  0.00    -0.125 N 
ATOM     12  C   UNL     1      44.609 131.001  20.556  1.00  0.00     0.250 A 
ATOM     13  C   UNL     1      43.417 131.770  20.692  1.00  0.00     0.119 A 
ATOM     14  H   UNL     1      46.950 128.990  21.318  1.00  0.00     0.238 HD
ATOM     15  H   UNL     1      45.059 130.070  22.462  1.00  0.00     0.488 HD
ENDROOT
BRANCH   1  16
ATOM     16  N   UNL     1      43.404 131.967  23.221  1.00  0.00    -0.239 N 
ATOM     17  H   UNL     1      43.061 132.714  23.870  1.00  0.00     0.376 HD
ATOM     18  H   UNL     1      44.440 132.073  23.199  1.00  0.00     0.376 HD
BRANCH  16  19
ATOM     19  N   UNL     1      43.010 130.724  23.762  1.00  0.00    -0.178 NA
ATOM     20  H   UNL     1      43.066 130.793  24.804  1.00  0.00     0.183 HD
ATOM     21  H   UNL     1      43.685 129.981  23.469  1.00  0.00     0.183 HD
ENDBRANCH  16  19
ENDBRANCH   1  16
BRANCH   7  22
ATOM     22  C   UNL     1      45.321 131.073  16.824  1.00  0.00    -0.018 A 
ATOM     23  C   UNL     1      45.413 129.775  16.289  1.00  0.00     0.008 A 
ATOM     24  C   UNL     1      45.833 132.154  16.085  1.00  0.00     0.008 A 
ATOM     25  C   UNL     1      46.020 129.564  15.047  1.00  0.00    -0.008 A 
ATOM     26  C   UNL     1      46.438 131.940  14.843  1.00  0.00    -0.008 A 
ATOM     27  C   UNL     1      46.533 130.645  14.325  1.00  0.00    -0.109 A 
ATOM     28  O   UNL     1      47.135 130.432  13.091  1.00  0.00    -0.872 OA
ENDBRANCH   7  22
TORSDOF 3
ENDMDL
MODEL 7
REMARK VINA RESULT:      -6.4      1.584      2.047
REMARK SMILES N[NH2+]c1cccc2cc(-c3ccc([O-])cc3)c3c[nH][nH+]c3c12
REMARK SMILES IDX 3 1 4 2 5 3 6 4 7 5 8 6 9 7 17 8 18 9 19 10 20 11 21 12
REMARK SMILES IDX 22 13 2 16 1 19 10 22 11 23 16 24 12 25 15 26 13 27 14 28
REMARK H PARENT 19 14 20 15 2 17 2 18 1 20 1 21
ROOT
ATOM      1  C   UNL     1      43.075 130.234  23.055  1.00  0.00     0.163 A 
ATOM      2  C   UNL     1      43.771 129.385  23.937  1.00  0.00     0.070 A 
ATOM      3  C   UNL     1      44.947 128.751  23.554  1.00  0.00     0.007 A 
ATOM      4  C   UNL     1      45.454 128.933  22.275  1.00  0.00     0.009 A 
ATOM      5  C   UNL     1      44.819 129.799  21.375  1.00  0.00    -0.005 A 
ATOM      6  C   UNL     1      45.361 129.939  20.076  1.00  0.00     0.019 A 
ATOM      7  C   UNL     1      44.784 130.806  19.135  1.00  0.00    -0.002 A 
ATOM      8  C   UNL     1      43.684 131.557  19.554  1.00  0.00     0.079 A 
ATOM      9  C   UNL     1      43.022 132.596  18.932  1.00  0.00     0.163 A 
ATOM     10  N   UNL     1      42.133 133.096  19.810  1.00  0.00    -0.174 N 
ATOM     11  N   UNL     1      42.206 132.424  20.950  1.00  0.00    -0.125 N 
ATOM     12  C   UNL     1      43.139 131.451  20.818  1.00  0.00     0.250 A 
ATOM     13  C   UNL     1      43.645 130.521  21.771  1.00  0.00     0.119 A 
ATOM     14  H   UNL     1      41.516 133.923  19.651  1.00  0.00     0.238 HD
ATOM     15  H   UNL     1      41.678 132.723  21.793  1.00  0.00     0.488 HD
ENDROOT
BRANCH   1  16
ATOM     16  N   UNL     1      41.779 130.709  23.480  1.00  0.00    -0.239 N 
ATOM     17  H   UNL     1      41.429 130.101  24.258  1.00  0.00     0.376 HD
ATOM     18  H   UNL     1      41.058 130.645  22.731  1.00  0.00     0.376 HD
BRANCH  16  19
ATOM     19  N   UNL     1      41.900 132.020  23.989  1.00  0.00    -0.178 NA
ATOM     20  H   UNL     1      42.533 131.987  24.821  1.00  0.00     0.183 HD
ATOM     21  H   UNL     1      40.968 132.355  24.328  1.00  0.00     0.183 HD
ENDBRANCH  16  19
ENDBRANCH   1  16
BRANCH   7  22
ATOM     22  C   UNL     1      45.358 130.938  17.775  1.00  0.00    -0.018 A 
ATOM     23  C   UNL     1      45.990 129.842  17.160  1.00  0.00     0.008 A 
ATOM     24  C   UNL     1      45.260 132.153  17.073  1.00  0.00     0.008 A 
ATOM     25  C   UNL     1      46.524 129.965  15.874  1.00  0.00    -0.008 A 
ATOM     26  C   UNL     1      45.794 132.272  15.787  1.00  0.00    -0.008 A 
ATOM     27  C   UNL     1      46.427 131.179  15.187  1.00  0.00    -0.109 A 
ATOM     28  O   UNL     1      46.959 131.298  13.909  1.00  0.00    -0.872 OA
ENDBRANCH   7  22
TORSDOF 3
ENDMDL
MODEL 8
REMARK VINA RESULT:      -6.4      3.014      6.292
REMARK SMILES N[NH2+]c1cccc2cc(-c3ccc([O-])cc3)c3c[nH][nH+]c3c12
REMARK SMILES IDX 3 1 4 2 5 3 6 4 7 5 8 6 9 7 17 8 18 9 19 10 20 11 21 12
REMARK SMILES IDX 22 13 2 16 1 19 10 22 11 23 16 24 12 25 15 26 13 27 14 28
REMARK H PARENT 19 14 20 15 2 17 2 18 1 20 1 21
ROOT
ATOM      1  C   UNL     1      44.724 131.571  14.713  1.00  0.00     0.163 A 
ATOM      2  C   UNL     1      45.762 130.926  14.014  1.00  0.00     0.070 A 
ATOM      3  C   UNL     1      46.702 130.142  14.673  1.00  0.00     0.007 A 
ATOM      4  C   UNL     1      46.642 129.993  16.052  1.00  0.00     0.009 A 
ATOM      5  C   UNL     1      45.606 130.583  16.787  1.00  0.00    -0.005 A 
ATOM      6  C   UNL     1      45.596 130.420  18.192  1.00  0.00     0.019 A 
ATOM      7  C   UNL     1      44.575 130.969  18.983  1.00  0.00    -0.002 A 
ATOM      8  C   UNL     1      43.547 131.639  18.317  1.00  0.00     0.079 A 
ATOM      9  C   UNL     1      42.344 132.124  18.789  1.00  0.00     0.163 A 
ATOM     10  N   UNL     1      41.629 132.542  17.728  1.00  0.00    -0.174 N 
ATOM     11  N   UNL     1      42.323 132.341  16.616  1.00  0.00    -0.125 N 
ATOM     12  C   UNL     1      43.521 131.805  16.947  1.00  0.00     0.250 A 
ATOM     13  C   UNL     1      44.583 131.336  16.121  1.00  0.00     0.119 A 
ATOM     14  H   UNL     1      40.655 132.915  17.755  1.00  0.00     0.238 HD
ATOM     15  H   UNL     1      41.904 132.496  15.678  1.00  0.00     0.488 HD
ENDROOT
BRANCH   1  16
ATOM     16  N   UNL     1      43.903 132.498  13.970  1.00  0.00    -0.239 N 
ATOM     17  H   UNL     1      44.400 132.766  13.088  1.00  0.00     0.376 HD
ATOM     18  H   UNL     1      43.737 133.392  14.479  1.00  0.00     0.376 HD
BRANCH  16  19
ATOM     19  N   UNL     1      42.696 131.867  13.599  1.00  0.00    -0.178 NA
ATOM     20  H   UNL     1      42.933 131.042  13.002  1.00  0.00     0.183 HD
ATOM     21  H   UNL     1      42.124 132.515  13.010  1.00  0.00     0.183 HD
ENDBRANCH  16  19
ENDBRANCH   1  16
BRANCH   7  22
ATOM     22  C   UNL     1      44.581 130.796  20.455  1.00  0.00    -0.018 A 
ATOM     23  C   UNL     1      44.191 131.852  21.297  1.00  0.00     0.008 A 
ATOM     24  C   UNL     1      44.953 129.567  21.027  1.00  0.00     0.008 A 
ATOM     25  C   UNL     1      44.189 131.686  22.685  1.00  0.00    -0.008 A 
ATOM     26  C   UNL     1      44.949 129.403  22.416  1.00  0.00    -0.008 A 
ATOM     27  C   UNL     1      44.568 130.462  23.245  1.00  0.00    -0.109 A 
ATOM     28  O   UNL     1      44.565 130.299  24.625  1.00  0.00    -0.872 OA
ENDBRANCH   7  22
TORSDOF 3
ENDMDL
MODEL 9
REMARK VINA RESULT:      -6.2      1.707      2.425
REMARK SMILES N[NH2+]c1cccc2cc(-c3ccc([O-])cc3)c3c[nH][nH+]c3c12
REMARK SMILES IDX 3 1 4 2 5 3 6 4 7 5 8 6 9 7 17 8 18 9 19 10 20 11 21 12
REMARK SMILES IDX 22 13 2 16 1 19 10 22 11 23 16 24 12 25 15 26 13 27 14 28
REMARK H PARENT 19 14 20 15 2 17 2 18 1 20 1 21
ROOT
ATOM      1  C   UNL     1      43.154 130.147  23.044  1.00  0.00     0.163 A 
ATOM      2  C   UNL     1      43.859 129.282  23.903  1.00  0.00     0.070 A 
ATOM      3  C   UNL     1      45.027 128.649  23.493  1.00  0.00     0.007 A 
ATOM      4  C   UNL     1      45.515 128.849  22.210  1.00  0.00     0.009 A 
ATOM      5  C   UNL     1      44.871 129.730  21.332  1.00  0.00    -0.005 A 
ATOM      6  C   UNL     1      45.394 129.888  20.027  1.00  0.00     0.019 A 
ATOM      7  C   UNL     1      44.806 130.771  19.108  1.00  0.00    -0.002 A 
ATOM      8  C   UNL     1      43.716 131.519  19.554  1.00  0.00     0.079 A 
ATOM      9  C   UNL     1      43.049 132.570  18.957  1.00  0.00     0.163 A 
ATOM     10  N   UNL     1      42.175 133.060  19.856  1.00  0.00    -0.174 N 
ATOM     11  N   UNL     1      42.262 132.370  20.985  1.00  0.00    -0.125 N 
ATOM     12  C   UNL     1      43.189 131.397  20.824  1.00  0.00     0.250 A 
ATOM     13  C   UNL     1      43.706 130.450  21.756  1.00  0.00     0.119 A 
ATOM     14  H   UNL     1      41.558 133.891  19.719  1.00  0.00     0.238 HD
ATOM     15  H   UNL     1      41.748 132.659  21.839  1.00  0.00     0.488 HD
ENDROOT
BRANCH   1  16
ATOM     16  N   UNL     1      41.866 130.620  23.495  1.00  0.00    -0.239 N 
ATOM     17  H   UNL     1      41.296 130.908  22.665  1.00  0.00     0.376 HD
ATOM     18  H   UNL     1      41.932 131.468  24.095  1.00  0.00     0.376 HD
BRANCH  16  19
ATOM     19  N   UNL     1      41.175 129.569  24.136  1.00  0.00    -0.178 NA
ATOM     20  H   UNL     1      41.752 129.250  24.947  1.00  0.00     0.183 HD
ATOM     21  H   UNL     1      41.087 128.754  23.485  1.00  0.00     0.183 HD
ENDBRANCH  16  19
ENDBRANCH   1  16
BRANCH   7  22
ATOM     22  C   UNL     1      45.361 130.921  17.742  1.00  0.00    -0.018 A 
ATOM     23  C   UNL     1      45.253 132.147  17.060  1.00  0.00     0.008 A 
ATOM     24  C   UNL     1      46.024 129.849  17.118  1.00  0.00     0.008 A 
ATOM     25  C   UNL     1      45.784 132.291  15.775  1.00  0.00    -0.008 A 
ATOM     26  C   UNL     1      46.556 129.997  15.834  1.00  0.00    -0.008 A 
ATOM     27  C   UNL     1      46.435 131.216  15.162  1.00  0.00    -0.109 A 
ATOM     28  O   UNL     1      46.963 131.362  13.885  1.00  0.00    -0.872 OA
ENDBRANCH   7  22
TORSDOF 3
ENDMDL


