REMARK SMILES C=Cc1ccc(-c2cccc3cc(Nc4ccc(F)cc4C)[n-]c23)nc1
REMARK SMILES IDX 7 1 8 2 9 3 10 4 11 5 12 6 13 7 23 8 24 9 6 10 3 11 4 12
REMARK SMILES IDX 26 13 5 14 25 15 2 16 1 17 14 18 15 20 16 21 21 22 17 23
REMARK SMILES IDX 20 24 18 25 22 26 19 27
REMARK H PARENT 14 19
ROOT
ATOM      1  C   UNL     1       1.428   3.076  -0.089  1.00  0.00     0.004 A 
ATOM      2  C   UNL     1       1.957   4.039  -0.983  1.00  0.00     0.010 A 
ATOM      3  C   UNL     1       1.304   4.334  -2.199  1.00  0.00     0.001 A 
ATOM      4  C   UNL     1       0.113   3.678  -2.546  1.00  0.00     0.008 A 
ATOM      5  C   UNL     1      -0.394   2.739  -1.654  1.00  0.00    -0.022 A 
ATOM      6  C   UNL     1      -1.520   1.959  -1.738  1.00  0.00     0.007 A 
ATOM      7  C   UNL     1      -1.506   1.206  -0.567  1.00  0.00    -0.060 A 
ATOM      8  N   UNL     1      -0.443   1.500   0.218  1.00  0.00    -0.435 NA
ATOM      9  C   UNL     1       0.231   2.445  -0.467  1.00  0.00    -0.025 A 
ENDROOT
BRANCH   1  10
ATOM     10  C   UNL     1       2.095   2.763   1.201  1.00  0.00     0.070 A 
ATOM     11  C   UNL     1       3.279   2.163   3.668  1.00  0.00    -0.008 A 
ATOM     12  C   UNL     1       4.078   2.537   2.572  1.00  0.00     0.012 A 
ATOM     13  C   UNL     1       1.892   2.082   3.477  1.00  0.00     0.119 A 
ATOM     14  C   UNL     1       3.490   2.838   1.343  1.00  0.00     0.029 A 
ATOM     15  N   UNL     1       1.343   2.381   2.271  1.00  0.00    -0.256 NA
BRANCH  11  16
ATOM     16  C   UNL     1       3.839   1.821   4.999  1.00  0.00     0.002 C 
ATOM     17  C   UNL     1       5.077   2.124   5.393  1.00  0.00     0.009 C 
ENDBRANCH  11  16
ENDBRANCH   1  10
BRANCH   7  18
ATOM     18  N   UNL     1      -2.503   0.250  -0.185  1.00  0.00    -0.457 N 
ATOM     19  H   UNL     1      -2.545  -0.044   0.817  1.00  0.00     0.026 HD
BRANCH  18  20
ATOM     20  C   UNL     1      -3.566  -0.155  -1.058  1.00  0.00    -0.041 A 
ATOM     21  C   UNL     1      -4.888   0.139  -0.694  1.00  0.00     0.007 A 
ATOM     22  C   UNL     1      -3.312  -0.871  -2.252  1.00  0.00    -0.045 A 
ATOM     23  C   UNL     1      -5.948  -0.222  -1.527  1.00  0.00     0.039 A 
ATOM     24  C   UNL     1      -4.388  -1.211  -3.090  1.00  0.00     0.042 A 
ATOM     25  C   UNL     1      -5.699  -0.888  -2.728  1.00  0.00     0.123 A 
ATOM     26  C   UNL     1      -1.918  -1.266  -2.658  1.00  0.00     0.044 C 
ATOM     27  F   UNL     1      -6.729  -1.230  -3.539  1.00  0.00    -0.207 F 
ENDBRANCH  18  20
ENDBRANCH   7  18
TORSDOF 4


