MODEL 1
REMARK VINA RESULT:      -3.9      0.000      0.000
REMARK SMILES C[C@H](CO/C(O)=N/c1cc(F)c[nH]/c1=N\c1c[n-]c2nccc-2c1)c1ccccc1[N+](=O)[O-]
REMARK SMILES IDX 4 1 5 2 6 3 7 5 8 6 9 7 14 8 10 9 13 10 12 11 11 12 15 14
REMARK SMILES IDX 16 15 17 16 24 17 18 18 23 19 19 20 22 21 20 22 21 23 3 24
REMARK SMILES IDX 2 25 1 26 25 27 26 28 30 29 27 30 29 31 28 32 31 33 32 34
REMARK SMILES IDX 33 35
REMARK H PARENT 6 4 13 13
ROOT
ATOM      1  O   UNL     1      45.925 128.047  21.223  1.00  0.00    -0.450 OA
ENDROOT
BRANCH   1   2
ATOM      2  C   UNL     1      45.824 129.410  20.918  1.00  0.00     0.386 C 
BRANCH   2   3
ATOM      3  O   UNL     1      46.056 129.806  19.599  1.00  0.00    -0.466 OA
ATOM      4  H   UNL     1      45.574 130.583  19.164  1.00  0.00     0.298 HD
ENDBRANCH   2   3
BRANCH   2   5
ATOM      5  N   UNL     1      45.543 130.273  21.853  1.00  0.00    -0.175 NA
BRANCH   5   6
ATOM      6  C   UNL     1      44.240 130.787  22.158  1.00  0.00     0.116 A 
ATOM      7  C   UNL     1      43.487 130.167  23.158  1.00  0.00     0.073 A 
ATOM      8  C   UNL     1      43.658 131.835  21.410  1.00  0.00     0.157 A 
ATOM      9  C   UNL     1      42.206 130.626  23.456  1.00  0.00     0.141 A 
ATOM     10  N   UNL     1      42.407 132.283  21.745  1.00  0.00    -0.342 N 
ATOM     11  C   UNL     1      41.683 131.701  22.740  1.00  0.00     0.123 A 
ATOM     12  F   UNL     1      41.478 130.038  24.437  1.00  0.00    -0.205 F 
ATOM     13  H   UNL     1      41.978 133.104  21.264  1.00  0.00     0.168 HD
BRANCH   8  14
ATOM     14  N   UNL     1      44.338 132.363  20.428  1.00  0.00    -0.229 NA
BRANCH  14  15
ATOM     15  C   UNL     1      44.160 132.131  19.024  1.00  0.00     0.062 A 
ATOM     16  C   UNL     1      42.864 131.904  18.475  1.00  0.00     0.006 A 
ATOM     17  C   UNL     1      45.301 132.020  18.204  1.00  0.00     0.036 A 
ATOM     18  N   UNL     1      42.692 131.626  17.147  1.00  0.00    -0.440 NA
ATOM     19  C   UNL     1      45.096 131.743  16.863  1.00  0.00    -0.025 A 
ATOM     20  C   UNL     1      43.782 131.555  16.350  1.00  0.00    -0.052 A 
ATOM     21  C   UNL     1      45.942 131.579  15.796  1.00  0.00     0.003 A 
ATOM     22  N   UNL     1      43.795 131.286  15.036  1.00  0.00    -0.442 NA
ATOM     23  C   UNL     1      45.114 131.304  14.705  1.00  0.00    -0.022 A 
ENDBRANCH  14  15
ENDBRANCH   8  14
ENDBRANCH   5   6
ENDBRANCH   2   5
ENDBRANCH   1   2
BRANCH   1  24
ATOM     24  C   UNL     1      45.062 127.358  22.130  1.00  0.00     0.243 C 
BRANCH  24  25
ATOM     25  C   UNL     1      45.874 126.586  23.193  1.00  0.00     0.061 C 
ATOM     26  C   UNL     1      45.706 127.179  24.597  1.00  0.00     0.016 C 
BRANCH  25  27
ATOM     27  C   UNL     1      45.504 125.106  23.203  1.00  0.00     0.036 A 
ATOM     28  C   UNL     1      44.150 124.731  23.331  1.00  0.00     0.011 A 
ATOM     29  C   UNL     1      46.485 124.085  23.072  1.00  0.00     0.272 A 
ATOM     30  C   UNL     1      43.770 123.390  23.271  1.00  0.00     0.001 A 
ATOM     31  C   UNL     1      46.078 122.741  22.994  1.00  0.00     0.086 A 
ATOM     32  C   UNL     1      44.730 122.398  23.091  1.00  0.00     0.007 A 
BRANCH  29  33
ATOM     33  N   UNL     1      47.889 124.384  23.053  1.00  0.00     0.063 N 
ATOM     34  O   UNL     1      48.445 124.831  24.076  1.00  0.00    -0.258 OA
ATOM     35  O   UNL     1      48.561 124.438  21.853  1.00  0.00    -0.258 OA
ENDBRANCH  29  33
ENDBRANCH  25  27
ENDBRANCH  24  25
ENDBRANCH   1  24
TORSDOF 10
ENDMDL
MODEL 2
REMARK VINA RESULT:      -3.2      2.613      8.046
REMARK SMILES C[C@H](CO/C(O)=N/c1cc(F)c[nH]/c1=N\c1c[n-]c2nccc-2c1)c1ccccc1[N+](=O)[O-]
REMARK SMILES IDX 4 1 5 2 6 3 7 5 8 6 9 7 14 8 10 9 13 10 12 11 11 12 15 14
REMARK SMILES IDX 16 15 17 16 24 17 18 18 23 19 19 20 22 21 20 22 21 23 3 24
REMARK SMILES IDX 2 25 1 26 25 27 26 28 30 29 27 30 29 31 28 32 31 33 32 34
REMARK SMILES IDX 33 35
REMARK H PARENT 6 4 13 13
ROOT
ATOM      1  O   UNL     1      45.312 132.029  19.472  1.00  0.00    -0.450 OA
ENDROOT
BRANCH   1   2
ATOM      2  C   UNL     1      45.650 131.295  20.616  1.00  0.00     0.386 C 
BRANCH   2   3
ATOM      3  O   UNL     1      46.935 131.450  21.139  1.00  0.00    -0.466 OA
ATOM      4  H   UNL     1      47.703 130.831  20.909  1.00  0.00     0.298 HD
ENDBRANCH   2   3
BRANCH   2   5
ATOM      5  N   UNL     1      44.786 130.479  21.152  1.00  0.00    -0.175 NA
BRANCH   5   6
ATOM      6  C   UNL     1      43.746 130.840  22.071  1.00  0.00     0.116 A 
ATOM      7  C   UNL     1      42.832 131.829  21.699  1.00  0.00     0.073 A 
ATOM      8  C   UNL     1      43.681 130.299  23.373  1.00  0.00     0.157 A 
ATOM      9  C   UNL     1      41.829 132.222  22.583  1.00  0.00     0.141 A 
ATOM     10  N   UNL     1      42.667 130.684  24.210  1.00  0.00    -0.342 N 
ATOM     11  C   UNL     1      41.755 131.625  23.840  1.00  0.00     0.123 A 
ATOM     12  F   UNL     1      40.929 133.169  22.220  1.00  0.00    -0.205 F 
ATOM     13  H   UNL     1      42.544 130.249  25.150  1.00  0.00     0.168 HD
BRANCH   8  14
ATOM     14  N   UNL     1      44.582 129.428  23.741  1.00  0.00    -0.229 NA
BRANCH  14  15
ATOM     15  C   UNL     1      44.462 127.999  23.742  1.00  0.00     0.062 A 
ATOM     16  C   UNL     1      43.447 127.348  24.501  1.00  0.00     0.006 A 
ATOM     17  C   UNL     1      45.435 127.236  23.066  1.00  0.00     0.036 A 
ATOM     18  N   UNL     1      43.360 125.984  24.552  1.00  0.00    -0.440 NA
ATOM     19  C   UNL     1      45.320 125.857  23.131  1.00  0.00    -0.025 A 
ATOM     20  C   UNL     1      44.271 125.248  23.875  1.00  0.00    -0.052 A 
ATOM     21  C   UNL     1      46.055 124.826  22.605  1.00  0.00     0.003 A 
ATOM     22  N   UNL     1      44.338 123.909  23.823  1.00  0.00    -0.442 NA
ATOM     23  C   UNL     1      45.426 123.659  23.046  1.00  0.00    -0.022 A 
ENDBRANCH  14  15
ENDBRANCH   8  14
ENDBRANCH   5   6
ENDBRANCH   2   5
ENDBRANCH   1   2
BRANCH   1  24
ATOM     24  C   UNL     1      44.507 131.528  18.402  1.00  0.00     0.243 C 
BRANCH  24  25
ATOM     25  C   UNL     1      45.385 131.031  17.233  1.00  0.00     0.061 C 
ATOM     26  C   UNL     1      45.809 129.567  17.405  1.00  0.00     0.016 C 
BRANCH  25  27
ATOM     27  C   UNL     1      44.678 131.216  15.893  1.00  0.00     0.036 A 
ATOM     28  C   UNL     1      43.283 131.432  15.870  1.00  0.00     0.011 A 
ATOM     29  C   UNL     1      45.385 131.193  14.660  1.00  0.00     0.272 A 
ATOM     30  C   UNL     1      42.617 131.678  14.670  1.00  0.00     0.001 A 
ATOM     31  C   UNL     1      44.697 131.462  13.463  1.00  0.00     0.086 A 
ATOM     32  C   UNL     1      43.323 131.705  13.470  1.00  0.00     0.007 A 
BRANCH  29  33
ATOM     33  N   UNL     1      46.781 130.865  14.596  1.00  0.00     0.063 N 
ATOM     34  O   UNL     1      47.625 131.764  14.403  1.00  0.00    -0.258 OA
ATOM     35  O   UNL     1      47.170 129.551  14.474  1.00  0.00    -0.258 OA
ENDBRANCH  29  33
ENDBRANCH  25  27
ENDBRANCH  24  25
ENDBRANCH   1  24
TORSDOF 10
ENDMDL
MODEL 3
REMARK VINA RESULT:      -3.1      3.271      8.531
REMARK SMILES C[C@H](CO/C(O)=N/c1cc(F)c[nH]/c1=N\c1c[n-]c2nccc-2c1)c1ccccc1[N+](=O)[O-]
REMARK SMILES IDX 4 1 5 2 6 3 7 5 8 6 9 7 14 8 10 9 13 10 12 11 11 12 15 14
REMARK SMILES IDX 16 15 17 16 24 17 18 18 23 19 19 20 22 21 20 22 21 23 3 24
REMARK SMILES IDX 2 25 1 26 25 27 26 28 30 29 27 30 29 31 28 32 31 33 32 34
REMARK SMILES IDX 33 35
REMARK H PARENT 6 4 13 13
ROOT
ATOM      1  O   UNL     1      45.162 128.092  23.312  1.00  0.00    -0.450 OA
ENDROOT
BRANCH   1   2
ATOM      2  C   UNL     1      45.838 126.949  23.757  1.00  0.00     0.386 C 
BRANCH   2   3
ATOM      3  O   UNL     1      47.215 127.042  23.969  1.00  0.00    -0.466 OA
ATOM      4  H   UNL     1      47.866 127.326  23.248  1.00  0.00     0.298 HD
ENDBRANCH   2   3
BRANCH   2   5
ATOM      5  N   UNL     1      45.189 125.833  23.942  1.00  0.00    -0.175 NA
BRANCH   5   6
ATOM      6  C   UNL     1      45.211 124.695  23.071  1.00  0.00     0.116 A 
ATOM      7  C   UNL     1      44.021 124.290  22.462  1.00  0.00     0.073 A 
ATOM      8  C   UNL     1      46.375 123.916  22.892  1.00  0.00     0.157 A 
ATOM      9  C   UNL     1      44.005 123.169  21.635  1.00  0.00     0.141 A 
ATOM     10  N   UNL     1      46.336 122.835  22.050  1.00  0.00    -0.342 N 
ATOM     11  C   UNL     1      45.185 122.455  21.430  1.00  0.00     0.123 A 
ATOM     12  F   UNL     1      42.856 122.781  21.028  1.00  0.00    -0.205 F 
ATOM     13  H   UNL     1      47.195 122.283  21.835  1.00  0.00     0.168 HD
BRANCH   8  14
ATOM     14  N   UNL     1      47.467 124.257  23.522  1.00  0.00    -0.229 NA
BRANCH  14  15
ATOM     15  C   UNL     1      48.777 124.425  22.963  1.00  0.00     0.062 A 
ATOM     16  C   UNL     1      49.770 125.191  23.639  1.00  0.00     0.006 A 
ATOM     17  C   UNL     1      49.038 123.911  21.677  1.00  0.00     0.036 A 
ATOM     18  N   UNL     1      51.004 125.404  23.087  1.00  0.00    -0.440 NA
ATOM     19  C   UNL     1      50.296 124.137  21.145  1.00  0.00    -0.025 A 
ATOM     20  C   UNL     1      51.270 124.882  21.867  1.00  0.00    -0.052 A 
ATOM     21  C   UNL     1      50.893 123.790  19.960  1.00  0.00     0.003 A 
ATOM     22  N   UNL     1      52.416 124.999  21.180  1.00  0.00    -0.442 NA
ATOM     23  C   UNL     1      52.180 124.330  20.020  1.00  0.00    -0.022 A 
ENDBRANCH  14  15
ENDBRANCH   8  14
ENDBRANCH   5   6
ENDBRANCH   2   5
ENDBRANCH   1   2
BRANCH   1  24
ATOM     24  C   UNL     1      43.961 128.599  23.900  1.00  0.00     0.243 C 
BRANCH  24  25
ATOM     25  C   UNL     1      43.774 130.098  23.578  1.00  0.00     0.061 C 
ATOM     26  C   UNL     1      44.497 131.004  24.583  1.00  0.00     0.016 C 
BRANCH  25  27
ATOM     27  C   UNL     1      44.234 130.420  22.159  1.00  0.00     0.036 A 
ATOM     28  C   UNL     1      45.342 129.734  21.618  1.00  0.00     0.011 A 
ATOM     29  C   UNL     1      43.569 131.384  21.354  1.00  0.00     0.272 A 
ATOM     30  C   UNL     1      45.744 129.951  20.300  1.00  0.00     0.001 A 
ATOM     31  C   UNL     1      43.978 131.573  20.022  1.00  0.00     0.086 A 
ATOM     32  C   UNL     1      45.056 130.860  19.499  1.00  0.00     0.007 A 
BRANCH  29  33
ATOM     33  N   UNL     1      42.509 132.201  21.874  1.00  0.00     0.063 N 
ATOM     34  O   UNL     1      41.996 131.929  22.978  1.00  0.00    -0.258 OA
ATOM     35  O   UNL     1      41.878 133.108  21.053  1.00  0.00    -0.258 OA
ENDBRANCH  29  33
ENDBRANCH  25  27
ENDBRANCH  24  25
ENDBRANCH   1  24
TORSDOF 10
ENDMDL
MODEL 4
REMARK VINA RESULT:      -3.1      2.711      4.090
REMARK SMILES C[C@H](CO/C(O)=N/c1cc(F)c[nH]/c1=N\c1c[n-]c2nccc-2c1)c1ccccc1[N+](=O)[O-]
REMARK SMILES IDX 4 1 5 2 6 3 7 5 8 6 9 7 14 8 10 9 13 10 12 11 11 12 15 14
REMARK SMILES IDX 16 15 17 16 24 17 18 18 23 19 19 20 22 21 20 22 21 23 3 24
REMARK SMILES IDX 2 25 1 26 25 27 26 28 30 29 27 30 29 31 28 32 31 33 32 34
REMARK SMILES IDX 33 35
REMARK H PARENT 6 4 13 13
ROOT
ATOM      1  O   UNL     1      45.347 129.429  19.704  1.00  0.00    -0.450 OA
ENDROOT
BRANCH   1   2
ATOM      2  C   UNL     1      45.917 130.237  18.712  1.00  0.00     0.386 C 
BRANCH   2   3
ATOM      3  O   UNL     1      47.112 129.813  18.126  1.00  0.00    -0.466 OA
ATOM      4  H   UNL     1      47.163 129.033  17.482  1.00  0.00     0.298 HD
ENDBRANCH   2   3
BRANCH   2   5
ATOM      5  N   UNL     1      45.349 131.361  18.374  1.00  0.00    -0.175 NA
BRANCH   5   6
ATOM      6  C   UNL     1      44.036 131.788  18.760  1.00  0.00     0.116 A 
ATOM      7  C   UNL     1      43.787 132.068  20.106  1.00  0.00     0.073 A 
ATOM      8  C   UNL     1      42.967 131.836  17.839  1.00  0.00     0.157 A 
ATOM      9  C   UNL     1      42.513 132.456  20.515  1.00  0.00     0.141 A 
ATOM     10  N   UNL     1      41.732 132.249  18.265  1.00  0.00    -0.342 N 
ATOM     11  C   UNL     1      41.492 132.553  19.570  1.00  0.00     0.123 A 
ATOM     12  F   UNL     1      42.270 132.746  21.817  1.00  0.00    -0.205 F 
ATOM     13  H   UNL     1      40.939 132.369  17.597  1.00  0.00     0.168 HD
BRANCH   8  14
ATOM     14  N   UNL     1      43.189 131.502  16.596  1.00  0.00    -0.229 NA
BRANCH  14  15
ATOM     15  C   UNL     1      44.459 131.372  15.943  1.00  0.00     0.062 A 
ATOM     16  C   UNL     1      45.246 132.519  15.633  1.00  0.00     0.006 A 
ATOM     17  C   UNL     1      44.872 130.096  15.509  1.00  0.00     0.036 A 
ATOM     18  N   UNL     1      46.432 132.409  14.961  1.00  0.00    -0.440 NA
ATOM     19  C   UNL     1      46.079 130.014  14.835  1.00  0.00    -0.025 A 
ATOM     20  C   UNL     1      46.850 131.182  14.575  1.00  0.00    -0.052 A 
ATOM     21  C   UNL     1      46.783 128.971  14.290  1.00  0.00     0.003 A 
ATOM     22  N   UNL     1      47.976 130.895  13.904  1.00  0.00    -0.442 NA
ATOM     23  C   UNL     1      47.929 129.546  13.736  1.00  0.00    -0.022 A 
ENDBRANCH  14  15
ENDBRANCH   8  14
ENDBRANCH   5   6
ENDBRANCH   2   5
ENDBRANCH   1   2
BRANCH   1  24
ATOM     24  C   UNL     1      45.813 129.359  21.054  1.00  0.00     0.243 C 
BRANCH  24  25
ATOM     25  C   UNL     1      45.213 128.140  21.787  1.00  0.00     0.061 C 
ATOM     26  C   UNL     1      46.290 127.275  22.455  1.00  0.00     0.016 C 
BRANCH  25  27
ATOM     27  C   UNL     1      44.175 128.571  22.819  1.00  0.00     0.036 A 
ATOM     28  C   UNL     1      44.022 129.943  23.115  1.00  0.00     0.011 A 
ATOM     29  C   UNL     1      43.341 127.632  23.485  1.00  0.00     0.272 A 
ATOM     30  C   UNL     1      43.034 130.377  23.999  1.00  0.00     0.001 A 
ATOM     31  C   UNL     1      42.339 128.093  24.356  1.00  0.00     0.086 A 
ATOM     32  C   UNL     1      42.186 129.456  24.609  1.00  0.00     0.007 A 
BRANCH  29  33
ATOM     33  N   UNL     1      43.517 126.217  23.321  1.00  0.00     0.063 N 
ATOM     34  O   UNL     1      43.982 125.533  24.255  1.00  0.00    -0.258 OA
ATOM     35  O   UNL     1      43.434 125.658  22.066  1.00  0.00    -0.258 OA
ENDBRANCH  29  33
ENDBRANCH  25  27
ENDBRANCH  24  25
ENDBRANCH   1  24
TORSDOF 10
ENDMDL
MODEL 5
REMARK VINA RESULT:      -2.7      4.055      8.673
REMARK SMILES C[C@H](CO/C(O)=N/c1cc(F)c[nH]/c1=N\c1c[n-]c2nccc-2c1)c1ccccc1[N+](=O)[O-]
REMARK SMILES IDX 4 1 5 2 6 3 7 5 8 6 9 7 14 8 10 9 13 10 12 11 11 12 15 14
REMARK SMILES IDX 16 15 17 16 24 17 18 18 23 19 19 20 22 21 20 22 21 23 3 24
REMARK SMILES IDX 2 25 1 26 25 27 26 28 30 29 27 30 29 31 28 32 31 33 32 34
REMARK SMILES IDX 33 35
REMARK H PARENT 6 4 13 13
ROOT
ATOM      1  O   UNL     1      46.022 132.825  20.305  1.00  0.00    -0.450 OA
ENDROOT
BRANCH   1   2
ATOM      2  C   UNL     1      44.946 131.937  20.424  1.00  0.00     0.386 C 
BRANCH   2   3
ATOM      3  O   UNL     1      43.784 132.212  19.700  1.00  0.00    -0.466 OA
ATOM      4  H   UNL     1      43.609 133.106  19.257  1.00  0.00     0.298 HD
ENDBRANCH   2   3
BRANCH   2   5
ATOM      5  N   UNL     1      45.034 130.900  21.210  1.00  0.00    -0.175 NA
BRANCH   5   6
ATOM      6  C   UNL     1      44.156 130.595  22.300  1.00  0.00     0.116 A 
ATOM      7  C   UNL     1      43.347 131.610  22.818  1.00  0.00     0.073 A 
ATOM      8  C   UNL     1      44.158 129.330  22.928  1.00  0.00     0.157 A 
ATOM      9  C   UNL     1      42.505 131.350  23.898  1.00  0.00     0.141 A 
ATOM     10  N   UNL     1      43.298 129.096  23.969  1.00  0.00    -0.342 N 
ATOM     11  C   UNL     1      42.486 130.074  24.457  1.00  0.00     0.123 A 
ATOM     12  F   UNL     1      41.705 132.327  24.393  1.00  0.00    -0.205 F 
ATOM     13  H   UNL     1      43.219 128.152  24.406  1.00  0.00     0.168 HD
BRANCH   8  14
ATOM     14  N   UNL     1      44.969 128.407  22.486  1.00  0.00    -0.229 NA
BRANCH  14  15
ATOM     15  C   UNL     1      45.046 127.039  22.913  1.00  0.00     0.062 A 
ATOM     16  C   UNL     1      45.953 126.640  23.937  1.00  0.00     0.006 A 
ATOM     17  C   UNL     1      44.287 126.071  22.226  1.00  0.00     0.036 A 
ATOM     18  N   UNL     1      46.072 125.329  24.310  1.00  0.00    -0.440 NA
ATOM     19  C   UNL     1      44.425 124.753  22.628  1.00  0.00    -0.025 A 
ATOM     20  C   UNL     1      45.319 124.401  23.677  1.00  0.00    -0.052 A 
ATOM     21  C   UNL     1      43.856 123.578  22.210  1.00  0.00     0.003 A 
ATOM     22  N   UNL     1      45.317 123.080  23.910  1.00  0.00    -0.442 NA
ATOM     23  C   UNL     1      44.422 122.585  23.014  1.00  0.00    -0.022 A 
ENDBRANCH  14  15
ENDBRANCH   8  14
ENDBRANCH   5   6
ENDBRANCH   2   5
ENDBRANCH   1   2
BRANCH   1  24
ATOM     24  C   UNL     1      46.266 133.920  21.192  1.00  0.00     0.243 C 
BRANCH  24  25
ATOM     25  C   UNL     1      47.634 133.774  21.892  1.00  0.00     0.061 C 
ATOM     26  C   UNL     1      48.392 132.522  21.433  1.00  0.00     0.016 C 
BRANCH  25  27
ATOM     27  C   UNL     1      48.498 135.014  21.683  1.00  0.00     0.036 A 
ATOM     28  C   UNL     1      48.218 135.878  20.604  1.00  0.00     0.011 A 
ATOM     29  C   UNL     1      49.573 135.336  22.555  1.00  0.00     0.272 A 
ATOM     30  C   UNL     1      48.941 137.058  20.426  1.00  0.00     0.001 A 
ATOM     31  C   UNL     1      50.276 136.540  22.369  1.00  0.00     0.086 A 
ATOM     32  C   UNL     1      49.960 137.395  21.314  1.00  0.00     0.007 A 
BRANCH  29  33
ATOM     33  N   UNL     1      49.989 134.448  23.603  1.00  0.00     0.063 N 
ATOM     34  O   UNL     1      51.041 133.788  23.481  1.00  0.00    -0.258 OA
ATOM     35  O   UNL     1      49.110 134.117  24.609  1.00  0.00    -0.258 OA
ENDBRANCH  29  33
ENDBRANCH  25  27
ENDBRANCH  24  25
ENDBRANCH   1  24
TORSDOF 10
ENDMDL
MODEL 6
REMARK VINA RESULT:      -2.5      4.824      7.671
REMARK SMILES C[C@H](CO/C(O)=N/c1cc(F)c[nH]/c1=N\c1c[n-]c2nccc-2c1)c1ccccc1[N+](=O)[O-]
REMARK SMILES IDX 4 1 5 2 6 3 7 5 8 6 9 7 14 8 10 9 13 10 12 11 11 12 15 14
REMARK SMILES IDX 16 15 17 16 24 17 18 18 23 19 19 20 22 21 20 22 21 23 3 24
REMARK SMILES IDX 2 25 1 26 25 27 26 28 30 29 27 30 29 31 28 32 31 33 32 34
REMARK SMILES IDX 33 35
REMARK H PARENT 6 4 13 13
ROOT
ATOM      1  O   UNL     1      46.933 133.997  21.823  1.00  0.00    -0.450 OA
ENDROOT
BRANCH   1   2
ATOM      2  C   UNL     1      47.125 132.764  21.186  1.00  0.00     0.386 C 
BRANCH   2   3
ATOM      3  O   UNL     1      48.399 132.195  21.226  1.00  0.00    -0.466 OA
ATOM      4  H   UNL     1      49.034 132.210  20.438  1.00  0.00     0.298 HD
ENDBRANCH   2   3
BRANCH   2   5
ATOM      5  N   UNL     1      46.137 132.189  20.559  1.00  0.00    -0.175 NA
BRANCH   5   6
ATOM      6  C   UNL     1      44.989 131.588  21.173  1.00  0.00     0.116 A 
ATOM      7  C   UNL     1      45.155 130.882  22.367  1.00  0.00     0.073 A 
ATOM      8  C   UNL     1      43.719 131.604  20.555  1.00  0.00     0.157 A 
ATOM      9  C   UNL     1      44.063 130.262  22.970  1.00  0.00     0.141 A 
ATOM     10  N   UNL     1      42.658 131.010  21.186  1.00  0.00    -0.342 N 
ATOM     11  C   UNL     1      42.809 130.347  22.366  1.00  0.00     0.123 A 
ATOM     12  F   UNL     1      44.216 129.590  24.138  1.00  0.00    -0.205 F 
ATOM     13  H   UNL     1      41.692 131.068  20.796  1.00  0.00     0.168 HD
BRANCH   8  14
ATOM     14  N   UNL     1      43.585 132.203  19.402  1.00  0.00    -0.229 NA
BRANCH  14  15
ATOM     15  C   UNL     1      43.995 131.717  18.116  1.00  0.00     0.062 A 
ATOM     16  C   UNL     1      43.185 131.924  16.962  1.00  0.00     0.006 A 
ATOM     17  C   UNL     1      45.162 130.933  18.027  1.00  0.00     0.036 A 
ATOM     18  N   UNL     1      43.541 131.416  15.743  1.00  0.00    -0.440 NA
ATOM     19  C   UNL     1      45.500 130.435  16.780  1.00  0.00    -0.025 A 
ATOM     20  C   UNL     1      44.680 130.692  15.646  1.00  0.00    -0.052 A 
ATOM     21  C   UNL     1      46.539 129.664  16.325  1.00  0.00     0.003 A 
ATOM     22  N   UNL     1      45.170 130.117  14.537  1.00  0.00    -0.442 NA
ATOM     23  C   UNL     1      46.304 129.495  14.958  1.00  0.00    -0.022 A 
ENDBRANCH  14  15
ENDBRANCH   8  14
ENDBRANCH   5   6
ENDBRANCH   2   5
ENDBRANCH   1   2
BRANCH   1  24
ATOM     24  C   UNL     1      47.412 134.310  23.133  1.00  0.00     0.243 C 
BRANCH  24  25
ATOM     25  C   UNL     1      48.935 134.565  23.122  1.00  0.00     0.061 C 
ATOM     26  C   UNL     1      49.729 133.331  22.674  1.00  0.00     0.016 C 
BRANCH  25  27
ATOM     27  C   UNL     1      49.289 135.761  22.243  1.00  0.00     0.036 A 
ATOM     28  C   UNL     1      48.411 136.143  21.207  1.00  0.00     0.011 A 
ATOM     29  C   UNL     1      50.477 136.517  22.444  1.00  0.00     0.272 A 
ATOM     30  C   UNL     1      48.667 137.274  20.432  1.00  0.00     0.001 A 
ATOM     31  C   UNL     1      50.706 137.664  21.664  1.00  0.00     0.086 A 
ATOM     32  C   UNL     1      49.806 138.040  20.668  1.00  0.00     0.007 A 
BRANCH  29  33
ATOM     33  N   UNL     1      51.472 136.120  23.400  1.00  0.00     0.063 N 
ATOM     34  O   UNL     1      51.318 136.390  24.609  1.00  0.00    -0.258 OA
ATOM     35  O   UNL     1      52.705 135.693  22.966  1.00  0.00    -0.258 OA
ENDBRANCH  29  33
ENDBRANCH  25  27
ENDBRANCH  24  25
ENDBRANCH   1  24
TORSDOF 10
ENDMDL
MODEL 7
REMARK VINA RESULT:      -2.3      4.489      8.098
REMARK SMILES C[C@H](CO/C(O)=N/c1cc(F)c[nH]/c1=N\c1c[n-]c2nccc-2c1)c1ccccc1[N+](=O)[O-]
REMARK SMILES IDX 4 1 5 2 6 3 7 5 8 6 9 7 14 8 10 9 13 10 12 11 11 12 15 14
REMARK SMILES IDX 16 15 17 16 24 17 18 18 23 19 19 20 22 21 20 22 21 23 3 24
REMARK SMILES IDX 2 25 1 26 25 27 26 28 30 29 27 30 29 31 28 32 31 33 32 34
REMARK SMILES IDX 33 35
REMARK H PARENT 6 4 13 13
ROOT
ATOM      1  O   UNL     1      46.437 130.035  18.347  1.00  0.00    -0.450 OA
ENDROOT
BRANCH   1   2
ATOM      2  C   UNL     1      46.067 130.346  19.661  1.00  0.00     0.386 C 
BRANCH   2   3
ATOM      3  O   UNL     1      46.118 129.328  20.616  1.00  0.00    -0.466 OA
ATOM      4  H   UNL     1      45.380 129.166  21.289  1.00  0.00     0.298 HD
ENDBRANCH   2   3
BRANCH   2   5
ATOM      5  N   UNL     1      45.667 131.549  19.963  1.00  0.00    -0.175 NA
BRANCH   5   6
ATOM      6  C   UNL     1      45.279 132.004  21.266  1.00  0.00     0.116 A 
ATOM      7  C   UNL     1      43.933 131.926  21.633  1.00  0.00     0.073 A 
ATOM      8  C   UNL     1      46.198 132.617  22.146  1.00  0.00     0.157 A 
ATOM      9  C   UNL     1      43.522 132.388  22.882  1.00  0.00     0.141 A 
ATOM     10  N   UNL     1      45.769 133.035  23.378  1.00  0.00    -0.342 N 
ATOM     11  C   UNL     1      44.464 132.933  23.753  1.00  0.00     0.123 A 
ATOM     12  F   UNL     1      42.220 132.299  23.250  1.00  0.00    -0.205 F 
ATOM     13  H   UNL     1      46.435 133.423  24.082  1.00  0.00     0.168 HD
BRANCH   8  14
ATOM     14  N   UNL     1      47.440 132.753  21.768  1.00  0.00    -0.229 NA
BRANCH  14  15
ATOM     15  C   UNL     1      48.224 133.955  21.772  1.00  0.00     0.062 A 
ATOM     16  C   UNL     1      49.316 134.115  22.673  1.00  0.00     0.006 A 
ATOM     17  C   UNL     1      47.830 135.025  20.945  1.00  0.00     0.036 A 
ATOM     18  N   UNL     1      50.033 135.279  22.722  1.00  0.00    -0.440 NA
ATOM     19  C   UNL     1      48.576 136.190  21.012  1.00  0.00    -0.025 A 
ATOM     20  C   UNL     1      49.681 136.297  21.903  1.00  0.00    -0.052 A 
ATOM     21  C   UNL     1      48.497 137.397  20.367  1.00  0.00     0.003 A 
ATOM     22  N   UNL     1      50.265 137.502  21.828  1.00  0.00    -0.442 NA
ATOM     23  C   UNL     1      49.540 138.166  20.889  1.00  0.00    -0.022 A 
ENDBRANCH  14  15
ENDBRANCH   8  14
ENDBRANCH   5   6
ENDBRANCH   2   5
ENDBRANCH   1   2
BRANCH   1  24
ATOM     24  C   UNL     1      45.628 130.299  17.198  1.00  0.00     0.243 C 
BRANCH  24  25
ATOM     25  C   UNL     1      45.905 129.275  16.076  1.00  0.00     0.061 C 
ATOM     26  C   UNL     1      44.615 128.647  15.530  1.00  0.00     0.016 C 
BRANCH  25  27
ATOM     27  C   UNL     1      46.702 129.903  14.937  1.00  0.00     0.036 A 
ATOM     28  C   UNL     1      47.701 129.144  14.290  1.00  0.00     0.011 A 
ATOM     29  C   UNL     1      46.461 131.233  14.494  1.00  0.00     0.272 A 
ATOM     30  C   UNL     1      48.398 129.662  13.198  1.00  0.00     0.001 A 
ATOM     31  C   UNL     1      47.162 131.728  13.380  1.00  0.00     0.086 A 
ATOM     32  C   UNL     1      48.121 130.946  12.737  1.00  0.00     0.007 A 
BRANCH  29  33
ATOM     33  N   UNL     1      45.545 132.102  15.177  1.00  0.00     0.063 N 
ATOM     34  O   UNL     1      44.340 132.115  14.854  1.00  0.00    -0.258 OA
ATOM     35  O   UNL     1      46.027 133.103  15.988  1.00  0.00    -0.258 OA
ENDBRANCH  29  33
ENDBRANCH  25  27
ENDBRANCH  24  25
ENDBRANCH   1  24
TORSDOF 10
ENDMDL
MODEL 8
REMARK VINA RESULT:      -2.0      4.417      8.024
REMARK SMILES C[C@H](CO/C(O)=N/c1cc(F)c[nH]/c1=N\c1c[n-]c2nccc-2c1)c1ccccc1[N+](=O)[O-]
REMARK SMILES IDX 4 1 5 2 6 3 7 5 8 6 9 7 14 8 10 9 13 10 12 11 11 12 15 14
REMARK SMILES IDX 16 15 17 16 24 17 18 18 23 19 19 20 22 21 20 22 21 23 3 24
REMARK SMILES IDX 2 25 1 26 25 27 26 28 30 29 27 30 29 31 28 32 31 33 32 34
REMARK SMILES IDX 33 35
REMARK H PARENT 6 4 13 13
ROOT
ATOM      1  O   UNL     1      44.301 132.352  17.450  1.00  0.00    -0.450 OA
ENDROOT
BRANCH   1   2
ATOM      2  C   UNL     1      44.113 131.791  18.719  1.00  0.00     0.386 C 
BRANCH   2   3
ATOM      3  O   UNL     1      42.846 131.297  19.037  1.00  0.00    -0.466 OA
ATOM      4  H   UNL     1      41.997 131.832  18.909  1.00  0.00     0.298 HD
ENDBRANCH   2   3
BRANCH   2   5
ATOM      5  N   UNL     1      45.096 131.759  19.574  1.00  0.00    -0.175 NA
BRANCH   5   6
ATOM      6  C   UNL     1      44.967 131.683  21.000  1.00  0.00     0.116 A 
ATOM      7  C   UNL     1      44.097 130.737  21.548  1.00  0.00     0.073 A 
ATOM      8  C   UNL     1      45.616 132.599  21.857  1.00  0.00     0.157 A 
ATOM      9  C   UNL     1      43.929 130.660  22.930  1.00  0.00     0.141 A 
ATOM     10  N   UNL     1      45.453 132.480  23.212  1.00  0.00    -0.342 N 
ATOM     11  C   UNL     1      44.630 131.540  23.753  1.00  0.00     0.123 A 
ATOM     12  F   UNL     1      43.099 129.733  23.468  1.00  0.00    -0.205 F 
ATOM     13  H   UNL     1      45.976 133.091  23.878  1.00  0.00     0.168 HD
BRANCH   8  14
ATOM     14  N   UNL     1      46.371 133.528  21.334  1.00  0.00    -0.229 NA
BRANCH  14  15
ATOM     15  C   UNL     1      47.605 134.041  21.856  1.00  0.00     0.062 A 
ATOM     16  C   UNL     1      48.173 133.513  23.050  1.00  0.00     0.006 A 
ATOM     17  C   UNL     1      48.194 135.156  21.228  1.00  0.00     0.036 A 
ATOM     18  N   UNL     1      49.319 134.034  23.585  1.00  0.00    -0.440 NA
ATOM     19  C   UNL     1      49.357 135.661  21.788  1.00  0.00    -0.025 A 
ATOM     20  C   UNL     1      49.909 135.082  22.965  1.00  0.00    -0.052 A 
ATOM     21  C   UNL     1      50.188 136.699  21.454  1.00  0.00     0.003 A 
ATOM     22  N   UNL     1      51.025 135.717  23.354  1.00  0.00    -0.442 NA
ATOM     23  C   UNL     1      51.190 136.699  22.428  1.00  0.00    -0.022 A 
ENDBRANCH  14  15
ENDBRANCH   8  14
ENDBRANCH   5   6
ENDBRANCH   2   5
ENDBRANCH   1   2
BRANCH   1  24
ATOM     24  C   UNL     1      45.409 132.059  16.595  1.00  0.00     0.243 C 
BRANCH  24  25
ATOM     25  C   UNL     1      44.933 131.450  15.258  1.00  0.00     0.061 C 
ATOM     26  C   UNL     1      44.211 132.476  14.375  1.00  0.00     0.016 C 
BRANCH  25  27
ATOM     27  C   UNL     1      46.095 130.826  14.490  1.00  0.00     0.036 A 
ATOM     28  C   UNL     1      46.665 131.528  13.407  1.00  0.00     0.011 A 
ATOM     29  C   UNL     1      46.634 129.558  14.842  1.00  0.00     0.272 A 
ATOM     30  C   UNL     1      47.774 131.020  12.730  1.00  0.00     0.001 A 
ATOM     31  C   UNL     1      47.764 129.074  14.159  1.00  0.00     0.086 A 
ATOM     32  C   UNL     1      48.330 129.802  13.113  1.00  0.00     0.007 A 
BRANCH  29  33
ATOM     33  N   UNL     1      46.034 128.737  15.855  1.00  0.00     0.063 N 
ATOM     34  O   UNL     1      45.102 127.962  15.559  1.00  0.00    -0.258 OA
ATOM     35  O   UNL     1      46.291 128.992  17.183  1.00  0.00    -0.258 OA
ENDBRANCH  29  33
ENDBRANCH  25  27
ENDBRANCH  24  25
ENDBRANCH   1  24
TORSDOF 10
ENDMDL
MODEL 9
REMARK VINA RESULT:      -1.8      4.943      8.194
REMARK SMILES C[C@H](CO/C(O)=N/c1cc(F)c[nH]/c1=N\c1c[n-]c2nccc-2c1)c1ccccc1[N+](=O)[O-]
REMARK SMILES IDX 4 1 5 2 6 3 7 5 8 6 9 7 14 8 10 9 13 10 12 11 11 12 15 14
REMARK SMILES IDX 16 15 17 16 24 17 18 18 23 19 19 20 22 21 20 22 21 23 3 24
REMARK SMILES IDX 2 25 1 26 25 27 26 28 30 29 27 30 29 31 28 32 31 33 32 34
REMARK SMILES IDX 33 35
REMARK H PARENT 6 4 13 13
ROOT
ATOM      1  O   UNL     1      47.466 133.781  23.263  1.00  0.00    -0.450 OA
ENDROOT
BRANCH   1   2
ATOM      2  C   UNL     1      46.286 133.053  23.455  1.00  0.00     0.386 C 
BRANCH   2   3
ATOM      3  O   UNL     1      45.554 133.284  24.622  1.00  0.00    -0.466 OA
ATOM      4  H   UNL     1      45.404 134.209  25.005  1.00  0.00     0.298 HD
ENDBRANCH   2   3
BRANCH   2   5
ATOM      5  N   UNL     1      45.906 132.172  22.572  1.00  0.00    -0.175 NA
BRANCH   5   6
ATOM      6  C   UNL     1      44.668 131.450  22.583  1.00  0.00     0.116 A 
ATOM      7  C   UNL     1      44.436 130.526  23.604  1.00  0.00     0.073 A 
ATOM      8  C   UNL     1      43.724 131.574  21.540  1.00  0.00     0.157 A 
ATOM      9  C   UNL     1      43.254 129.788  23.624  1.00  0.00     0.141 A 
ATOM     10  N   UNL     1      42.558 130.856  21.601  1.00  0.00    -0.342 N 
ATOM     11  C   UNL     1      42.314 129.977  22.611  1.00  0.00     0.123 A 
ATOM     12  F   UNL     1      43.017 128.901  24.622  1.00  0.00    -0.205 F 
ATOM     13  H   UNL     1      41.806 130.980  20.889  1.00  0.00     0.168 HD
BRANCH   8  14
ATOM     14  N   UNL     1      43.979 132.386  20.549  1.00  0.00    -0.229 NA
BRANCH  14  15
ATOM     15  C   UNL     1      43.997 132.073  19.149  1.00  0.00     0.062 A 
ATOM     16  C   UNL     1      42.806 132.134  18.369  1.00  0.00     0.006 A 
ATOM     17  C   UNL     1      45.192 131.594  18.576  1.00  0.00     0.036 A 
ATOM     18  N   UNL     1      42.803 131.783  17.047  1.00  0.00    -0.440 NA
ATOM     19  C   UNL     1      45.161 131.250  17.235  1.00  0.00    -0.025 A 
ATOM     20  C   UNL     1      43.957 131.357  16.483  1.00  0.00    -0.052 A 
ATOM     21  C   UNL     1      46.105 130.771  16.364  1.00  0.00     0.003 A 
ATOM     22  N   UNL     1      44.129 130.968  15.211  1.00  0.00    -0.442 NA
ATOM     23  C   UNL     1      45.441 130.615  15.145  1.00  0.00    -0.022 A 
ENDBRANCH  14  15
ENDBRANCH   8  14
ENDBRANCH   5   6
ENDBRANCH   2   5
ENDBRANCH   1   2
BRANCH   1  24
ATOM     24  C   UNL     1      47.700 134.661  22.161  1.00  0.00     0.243 C 
BRANCH  24  25
ATOM     25  C   UNL     1      48.809 135.684  22.491  1.00  0.00     0.061 C 
ATOM     26  C   UNL     1      50.156 135.009  22.778  1.00  0.00     0.016 C 
BRANCH  25  27
ATOM     27  C   UNL     1      48.966 136.710  21.373  1.00  0.00     0.036 A 
ATOM     28  C   UNL     1      47.954 136.830  20.397  1.00  0.00     0.011 A 
ATOM     29  C   UNL     1      50.099 137.564  21.290  1.00  0.00     0.272 A 
ATOM     30  C   UNL     1      48.031 137.806  19.403  1.00  0.00     0.001 A 
ATOM     31  C   UNL     1      50.147 138.554  20.292  1.00  0.00     0.086 A 
ATOM     32  C   UNL     1      49.119 138.674  19.358  1.00  0.00     0.007 A 
BRANCH  29  33
ATOM     33  N   UNL     1      51.219 137.422  22.177  1.00  0.00     0.063 N 
ATOM     34  O   UNL     1      52.105 136.578  21.933  1.00  0.00    -0.258 OA
ATOM     35  O   UNL     1      51.186 138.011  23.421  1.00  0.00    -0.258 OA
ENDBRANCH  29  33
ENDBRANCH  25  27
ENDBRANCH  24  25
ENDBRANCH   1  24
TORSDOF 10
ENDMDL


