REMARK SMILES O=C(c1ccc(F)cc1)[C@H]1O[C@@H]1[C@@H]1CC[C@H]2N=CC[C@@]2(F)C1
REMARK SMILES IDX 10 1 11 2 12 3 2 4 1 5 3 6 4 7 9 8 5 9 8 10 6 11 7 12 13 13
REMARK SMILES IDX 14 14 22 15 15 16 20 17 16 18 19 19 17 20 18 21 21 22
REMARK H PARENT
ROOT
ATOM      1  C   UNL     1       0.217  -0.639   1.493  1.00  0.00     0.219 C 
ATOM      2  O   UNL     1      -0.894   0.183   1.782  1.00  0.00    -0.361 OA
ATOM      3  C   UNL     1      -0.092   0.570   0.689  1.00  0.00     0.159 C 
ENDROOT
BRANCH   1   4
ATOM      4  C   UNL     1       1.312  -0.469   2.502  1.00  0.00     0.194 C 
ATOM      5  O   UNL     1       1.002  -0.320   3.715  1.00  0.00    -0.291 OA
BRANCH   4   6
ATOM      6  C   UNL     1       2.742  -0.500   2.102  1.00  0.00     0.021 A 
ATOM      7  C   UNL     1       3.124  -0.871   0.797  1.00  0.00     0.015 A 
ATOM      8  C   UNL     1       3.745  -0.158   3.030  1.00  0.00     0.015 A 
ATOM      9  C   UNL     1       4.474  -0.890   0.432  1.00  0.00     0.040 A 
ATOM     10  C   UNL     1       5.093  -0.180   2.659  1.00  0.00     0.040 A 
ATOM     11  C   UNL     1       5.457  -0.544   1.361  1.00  0.00     0.123 A 
ATOM     12  F   UNL     1       6.765  -0.563   1.003  1.00  0.00    -0.207 F 
ENDBRANCH   4   6
ENDBRANCH   1   4
BRANCH   3  13
ATOM     13  C   UNL     1      -0.798   0.333  -0.655  1.00  0.00     0.024 C 
ATOM     14  C   UNL     1       0.248   0.133  -1.782  1.00  0.00     0.009 C 
ATOM     15  C   UNL     1      -1.755   1.503  -0.954  1.00  0.00     0.050 C 
ATOM     16  C   UNL     1      -0.125   0.810  -3.114  1.00  0.00     0.031 C 
ATOM     17  C   UNL     1      -2.529   1.286  -2.277  1.00  0.00     0.138 C 
ATOM     18  C   UNL     1      -1.630   0.751  -3.422  1.00  0.00     0.142 C 
ATOM     19  C   UNL     1      -3.625   0.210  -2.139  1.00  0.00     0.091 C 
ATOM     20  N   UNL     1      -2.057  -0.606  -3.636  1.00  0.00    -0.291 NA
ATOM     21  C   UNL     1      -3.111  -0.900  -2.980  1.00  0.00     0.081 C 
ATOM     22  F   UNL     1      -3.107   2.489  -2.655  1.00  0.00    -0.241 F 
ENDBRANCH   3  13
TORSDOF 3


