REMARK SMILES COC[N-]C(=O)Nc1c(N)cc(C)cc1-n1nc2ccccc2n1
REMARK SMILES IDX 5 1 6 2 7 3 4 5 3 6 2 7 1 8 8 9 9 10 15 11 11 12 14 13 12 14
REMARK SMILES IDX 13 15 10 16 16 19 17 20 24 21 18 22 23 23 19 24 22 25 20 26
REMARK SMILES IDX 21 27
REMARK H PARENT 7 4 10 17 10 18
ROOT
ATOM      1  C   UNL     1       1.227   0.190  -1.575  1.00  0.00     0.158 C 
ATOM      2  O   UNL     1       0.414  -0.287  -2.411  1.00  0.00    -0.299 OA
ATOM      3  N   UNL     1       1.324  -0.384  -0.260  1.00  0.00    -0.421 N 
ATOM      4  H   UNL     1       2.097  -0.099   0.379  1.00  0.00     0.029 HD
ENDROOT
BRANCH   1   5
ATOM      5  N   UNL     1       2.036   1.307  -1.959  1.00  0.00    -0.406 NA
BRANCH   5   6
ATOM      6  C   UNL     1       3.008   1.957  -1.091  1.00  0.00     0.167 C 
BRANCH   6   7
ATOM      7  O   UNL     1       4.082   1.073  -0.851  1.00  0.00    -0.385 OA
ATOM      8  C   UNL     1       4.984   1.671   0.053  1.00  0.00     0.194 C 
ENDBRANCH   6   7
ENDBRANCH   5   6
ENDBRANCH   1   5
BRANCH   3   9
ATOM      9  C   UNL     1       0.462  -1.449   0.166  1.00  0.00     0.010 A 
ATOM     10  C   UNL     1       1.007  -2.722   0.438  1.00  0.00     0.037 A 
ATOM     11  C   UNL     1      -0.933  -1.239   0.298  1.00  0.00     0.091 A 
ATOM     12  C   UNL     1       0.162  -3.777   0.803  1.00  0.00     0.029 A 
ATOM     13  C   UNL     1      -1.761  -2.319   0.645  1.00  0.00     0.034 A 
ATOM     14  C   UNL     1      -1.223  -3.589   0.884  1.00  0.00    -0.047 A 
ATOM     15  C   UNL     1      -2.115  -4.719   1.305  1.00  0.00     0.044 C 
BRANCH  10  16
ATOM     16  N   UNL     1       2.415  -2.965   0.318  1.00  0.00    -0.398 N 
ATOM     17  H   UNL     1       3.079  -2.225  -0.001  1.00  0.00     0.156 HD
ATOM     18  H   UNL     1       2.811  -3.908   0.530  1.00  0.00     0.156 HD
ENDBRANCH  10  16
BRANCH  11  19
ATOM     19  N   UNL     1      -1.518   0.065   0.120  1.00  0.00    -0.150 N 
ATOM     20  N   UNL     1      -0.883   1.206   0.387  1.00  0.00    -0.148 NA
ATOM     21  N   UNL     1      -2.772   0.255  -0.289  1.00  0.00    -0.148 NA
ATOM     22  C   UNL     1      -1.776   2.168   0.117  1.00  0.00     0.113 A 
ATOM     23  C   UNL     1      -2.933   1.586  -0.296  1.00  0.00     0.113 A 
ATOM     24  C   UNL     1      -1.632   3.549   0.216  1.00  0.00     0.032 A 
ATOM     25  C   UNL     1      -4.054   2.331  -0.647  1.00  0.00     0.032 A 
ATOM     26  C   UNL     1      -2.745   4.340  -0.132  1.00  0.00     0.002 A 
ATOM     27  C   UNL     1      -3.951   3.734  -0.561  1.00  0.00     0.002 A 
ENDBRANCH  11  19
ENDBRANCH   3   9
TORSDOF 6


