MODEL 1
REMARK VINA RESULT:     -10.1      0.000      0.000
REMARK SMILES Cc1cc(F)[nH+]cc1-c1ccc2cc[nH]c2c1
REMARK SMILES IDX 9 1 10 2 11 3 12 4 13 5 14 6 15 7 16 8 17 9 8 11 2 12 3 13
REMARK SMILES IDX 4 14 7 15 6 16 1 17 5 18
REMARK H PARENT 15 10 6 19
ROOT
ATOM      1  C   UNL     1      44.852 131.033  16.803  1.00  0.00    -0.010 A 
ATOM      2  C   UNL     1      44.958 129.631  16.607  1.00  0.00     0.010 A 
ATOM      3  C   UNL     1      45.768 129.109  15.584  1.00  0.00     0.011 A 
ATOM      4  C   UNL     1      46.461 130.009  14.780  1.00  0.00    -0.001 A 
ATOM      5  C   UNL     1      47.318 129.794  13.722  1.00  0.00     0.028 A 
ATOM      6  C   UNL     1      47.717 131.063  13.315  1.00  0.00     0.083 A 
ATOM      7  N   UNL     1      47.138 132.017  14.078  1.00  0.00    -0.361 N 
ATOM      8  C   UNL     1      46.374 131.362  14.969  1.00  0.00     0.046 A 
ATOM      9  C   UNL     1      45.583 131.913  15.974  1.00  0.00     0.035 A 
ATOM     10  H   UNL     1      47.262 133.050  13.992  1.00  0.00     0.166 HD
ENDROOT
BRANCH   1  11
ATOM     11  C   UNL     1      44.004 131.565  17.893  1.00  0.00     0.049 A 
ATOM     12  C   UNL     1      44.425 131.574  19.244  1.00  0.00    -0.028 A 
ATOM     13  C   UNL     1      43.548 132.053  20.229  1.00  0.00     0.118 A 
ATOM     14  C   UNL     1      42.296 132.546  19.863  1.00  0.00     0.358 A 
ATOM     15  C   UNL     1      42.739 132.084  17.578  1.00  0.00     0.317 A 
ATOM     16  N   UNL     1      41.920 132.558  18.556  1.00  0.00    -0.186 N 
ATOM     17  C   UNL     1      45.783 131.071  19.661  1.00  0.00     0.045 C 
ATOM     18  F   UNL     1      41.451 133.017  20.813  1.00  0.00    -0.136 F 
ATOM     19  H   UNL     1      40.981 132.932  18.297  1.00  0.00     0.456 HD
ENDBRANCH   1  11
TORSDOF 1
ENDMDL
MODEL 2
REMARK VINA RESULT:      -9.7      1.803      2.602
REMARK SMILES Cc1cc(F)[nH+]cc1-c1ccc2cc[nH]c2c1
REMARK SMILES IDX 9 1 10 2 11 3 12 4 13 5 14 6 15 7 16 8 17 9 8 11 2 12 3 13
REMARK SMILES IDX 4 14 7 15 6 16 1 17 5 18
REMARK H PARENT 15 10 6 19
ROOT
ATOM      1  C   UNL     1      45.576 131.174  17.417  1.00  0.00    -0.010 A 
ATOM      2  C   UNL     1      45.429 132.330  16.608  1.00  0.00     0.010 A 
ATOM      3  C   UNL     1      45.923 132.353  15.291  1.00  0.00     0.011 A 
ATOM      4  C   UNL     1      46.550 131.207  14.814  1.00  0.00    -0.001 A 
ATOM      5  C   UNL     1      47.118 130.938  13.587  1.00  0.00     0.028 A 
ATOM      6  C   UNL     1      47.581 129.630  13.679  1.00  0.00     0.083 A 
ATOM      7  N   UNL     1      47.316 129.111  14.900  1.00  0.00    -0.361 N 
ATOM      8  C   UNL     1      46.687 130.083  15.583  1.00  0.00     0.046 A 
ATOM      9  C   UNL     1      46.208 130.026  16.889  1.00  0.00     0.035 A 
ATOM     10  H   UNL     1      47.551 128.152  15.239  1.00  0.00     0.166 HD
ENDROOT
BRANCH   1  11
ATOM     11  C   UNL     1      45.039 131.164  18.796  1.00  0.00     0.049 A 
ATOM     12  C   UNL     1      43.706 131.536  19.093  1.00  0.00    -0.028 A 
ATOM     13  C   UNL     1      43.282 131.544  20.429  1.00  0.00     0.118 A 
ATOM     14  C   UNL     1      44.161 131.154  21.439  1.00  0.00     0.358 A 
ATOM     15  C   UNL     1      45.878 130.767  19.849  1.00  0.00     0.317 A 
ATOM     16  N   UNL     1      45.429 130.770  21.133  1.00  0.00    -0.186 N 
ATOM     17  C   UNL     1      42.731 131.937  18.017  1.00  0.00     0.045 C 
ATOM     18  F   UNL     1      43.748 131.153  22.732  1.00  0.00    -0.136 F 
ATOM     19  H   UNL     1      46.074 130.478  21.899  1.00  0.00     0.456 HD
ENDBRANCH   1  11
TORSDOF 1
ENDMDL
MODEL 3
REMARK VINA RESULT:      -9.4      2.927      6.149
REMARK SMILES Cc1cc(F)[nH+]cc1-c1ccc2cc[nH]c2c1
REMARK SMILES IDX 9 1 10 2 11 3 12 4 13 5 14 6 15 7 16 8 17 9 8 11 2 12 3 13
REMARK SMILES IDX 4 14 7 15 6 16 1 17 5 18
REMARK H PARENT 15 10 6 19
ROOT
ATOM      1  C   UNL     1      44.897 131.283  17.385  1.00  0.00    -0.010 A 
ATOM      2  C   UNL     1      43.536 131.685  17.418  1.00  0.00     0.010 A 
ATOM      3  C   UNL     1      42.860 131.831  18.642  1.00  0.00     0.011 A 
ATOM      4  C   UNL     1      43.571 131.577  19.811  1.00  0.00    -0.001 A 
ATOM      5  C   UNL     1      43.181 131.641  21.132  1.00  0.00     0.028 A 
ATOM      6  C   UNL     1      44.313 131.291  21.861  1.00  0.00     0.083 A 
ATOM      7  N   UNL     1      45.352 131.023  21.038  1.00  0.00    -0.361 N 
ATOM      8  C   UNL     1      44.887 131.200  19.791  1.00  0.00     0.046 A 
ATOM      9  C   UNL     1      45.586 131.047  18.596  1.00  0.00     0.035 A 
ATOM     10  H   UNL     1      46.316 130.737  21.318  1.00  0.00     0.166 HD
ENDROOT
BRANCH   1  11
ATOM     11  C   UNL     1      45.595 131.146  16.088  1.00  0.00     0.049 A 
ATOM     12  C   UNL     1      45.663 129.917  15.390  1.00  0.00    -0.028 A 
ATOM     13  C   UNL     1      46.382 129.854  14.188  1.00  0.00     0.118 A 
ATOM     14  C   UNL     1      46.986 131.004  13.679  1.00  0.00     0.358 A 
ATOM     15  C   UNL     1      46.210 132.276  15.525  1.00  0.00     0.317 A 
ATOM     16  N   UNL     1      46.884 132.183  14.347  1.00  0.00    -0.186 N 
ATOM     17  C   UNL     1      44.998 128.668  15.907  1.00  0.00     0.045 C 
ATOM     18  F   UNL     1      47.673 130.945  12.511  1.00  0.00    -0.136 F 
ATOM     19  H   UNL     1      47.338 133.036  13.952  1.00  0.00     0.456 HD
ENDBRANCH   1  11
TORSDOF 1
ENDMDL
MODEL 4
REMARK VINA RESULT:      -9.4      2.756      6.162
REMARK SMILES Cc1cc(F)[nH+]cc1-c1ccc2cc[nH]c2c1
REMARK SMILES IDX 9 1 10 2 11 3 12 4 13 5 14 6 15 7 16 8 17 9 8 11 2 12 3 13
REMARK SMILES IDX 4 14 7 15 6 16 1 17 5 18
REMARK H PARENT 15 10 6 19
ROOT
ATOM      1  C   UNL     1      45.013 131.349  17.091  1.00  0.00    -0.010 A 
ATOM      2  C   UNL     1      45.625 131.052  18.337  1.00  0.00     0.010 A 
ATOM      3  C   UNL     1      44.936 131.266  19.544  1.00  0.00     0.011 A 
ATOM      4  C   UNL     1      43.641 131.769  19.472  1.00  0.00    -0.001 A 
ATOM      5  C   UNL     1      42.737 132.070  20.468  1.00  0.00     0.028 A 
ATOM      6  C   UNL     1      41.604 132.527  19.805  1.00  0.00     0.083 A 
ATOM      7  N   UNL     1      41.792 132.512  18.465  1.00  0.00    -0.361 N 
ATOM      8  C   UNL     1      43.038 132.047  18.275  1.00  0.00     0.046 A 
ATOM      9  C   UNL     1      43.691 131.846  17.061  1.00  0.00     0.035 A 
ATOM     10  H   UNL     1      41.107 132.801  17.732  1.00  0.00     0.166 HD
ENDROOT
BRANCH   1  11
ATOM     11  C   UNL     1      45.749 131.106  15.830  1.00  0.00     0.049 A 
ATOM     12  C   UNL     1      45.806 129.830  15.220  1.00  0.00    -0.028 A 
ATOM     13  C   UNL     1      46.560 129.667  14.049  1.00  0.00     0.118 A 
ATOM     14  C   UNL     1      47.210 130.765  13.484  1.00  0.00     0.358 A 
ATOM     15  C   UNL     1      46.410 132.179  15.212  1.00  0.00     0.317 A 
ATOM     16  N   UNL     1      47.118 131.989  14.066  1.00  0.00    -0.186 N 
ATOM     17  C   UNL     1      45.092 128.636  15.798  1.00  0.00     0.045 C 
ATOM     18  F   UNL     1      47.932 130.609  12.346  1.00  0.00    -0.136 F 
ATOM     19  H   UNL     1      47.608 132.802  13.630  1.00  0.00     0.456 HD
ENDBRANCH   1  11
TORSDOF 1
ENDMDL
MODEL 5
REMARK VINA RESULT:      -9.2      1.479      1.896
REMARK SMILES Cc1cc(F)[nH+]cc1-c1ccc2cc[nH]c2c1
REMARK SMILES IDX 9 1 10 2 11 3 12 4 13 5 14 6 15 7 16 8 17 9 8 11 2 12 3 13
REMARK SMILES IDX 4 14 7 15 6 16 1 17 5 18
REMARK H PARENT 15 10 6 19
ROOT
ATOM      1  C   UNL     1      44.501 131.286  17.789  1.00  0.00    -0.010 A 
ATOM      2  C   UNL     1      43.783 131.756  16.659  1.00  0.00     0.010 A 
ATOM      3  C   UNL     1      44.263 131.527  15.357  1.00  0.00     0.011 A 
ATOM      4  C   UNL     1      45.455 130.823  15.219  1.00  0.00    -0.001 A 
ATOM      5  C   UNL     1      46.154 130.451  14.091  1.00  0.00     0.028 A 
ATOM      6  C   UNL     1      47.264 129.759  14.563  1.00  0.00     0.083 A 
ATOM      7  N   UNL     1      47.257 129.703  15.914  1.00  0.00    -0.361 N 
ATOM      8  C   UNL     1      46.149 130.356  16.302  1.00  0.00     0.046 A 
ATOM      9  C   UNL     1      45.701 130.563  17.605  1.00  0.00     0.035 A 
ATOM     10  H   UNL     1      47.968 129.245  16.526  1.00  0.00     0.166 HD
ENDROOT
BRANCH   1  11
ATOM     11  C   UNL     1      43.975 131.525  19.151  1.00  0.00     0.049 A 
ATOM     12  C   UNL     1      44.721 131.226  20.316  1.00  0.00    -0.028 A 
ATOM     13  C   UNL     1      44.137 131.439  21.573  1.00  0.00     0.118 A 
ATOM     14  C   UNL     1      42.852 131.974  21.660  1.00  0.00     0.358 A 
ATOM     15  C   UNL     1      42.690 132.074  19.296  1.00  0.00     0.317 A 
ATOM     16  N   UNL     1      42.161 132.285  20.531  1.00  0.00    -0.186 N 
ATOM     17  C   UNL     1      46.120 130.672  20.247  1.00  0.00     0.045 C 
ATOM     18  F   UNL     1      42.290 132.188  22.877  1.00  0.00    -0.136 F 
ATOM     19  H   UNL     1      41.201 132.687  20.613  1.00  0.00     0.456 HD
ENDBRANCH   1  11
TORSDOF 1
ENDMDL
MODEL 6
REMARK VINA RESULT:      -9.1      2.879      6.266
REMARK SMILES Cc1cc(F)[nH+]cc1-c1ccc2cc[nH]c2c1
REMARK SMILES IDX 9 1 10 2 11 3 12 4 13 5 14 6 15 7 16 8 17 9 8 11 2 12 3 13
REMARK SMILES IDX 4 14 7 15 6 16 1 17 5 18
REMARK H PARENT 15 10 6 19
ROOT
ATOM      1  C   UNL     1      44.971 131.091  17.404  1.00  0.00    -0.010 A 
ATOM      2  C   UNL     1      45.503 130.880  18.702  1.00  0.00     0.010 A 
ATOM      3  C   UNL     1      44.774 131.248  19.846  1.00  0.00     0.011 A 
ATOM      4  C   UNL     1      43.518 131.817  19.661  1.00  0.00    -0.001 A 
ATOM      5  C   UNL     1      42.590 132.264  20.576  1.00  0.00     0.028 A 
ATOM      6  C   UNL     1      41.519 132.721  19.814  1.00  0.00     0.083 A 
ATOM      7  N   UNL     1      41.769 132.567  18.494  1.00  0.00    -0.361 N 
ATOM      8  C   UNL     1      42.990 132.014  18.413  1.00  0.00     0.046 A 
ATOM      9  C   UNL     1      43.685 131.660  17.259  1.00  0.00     0.035 A 
ATOM     10  H   UNL     1      41.138 132.824  17.703  1.00  0.00     0.166 HD
ENDROOT
BRANCH   1  11
ATOM     11  C   UNL     1      45.747 130.686  16.212  1.00  0.00     0.049 A 
ATOM     12  C   UNL     1      45.342 131.013  14.896  1.00  0.00    -0.028 A 
ATOM     13  C   UNL     1      46.106 130.555  13.813  1.00  0.00     0.118 A 
ATOM     14  C   UNL     1      47.269 129.820  14.045  1.00  0.00     0.358 A 
ATOM     15  C   UNL     1      46.933 129.955  16.389  1.00  0.00     0.317 A 
ATOM     16  N   UNL     1      47.660 129.542  15.316  1.00  0.00    -0.186 N 
ATOM     17  C   UNL     1      44.104 131.827  14.621  1.00  0.00     0.045 C 
ATOM     18  F   UNL     1      48.013 129.385  12.997  1.00  0.00    -0.136 F 
ATOM     19  H   UNL     1      48.534 128.994  15.474  1.00  0.00     0.456 HD
ENDBRANCH   1  11
TORSDOF 1
ENDMDL
MODEL 7
REMARK VINA RESULT:      -9.0      1.216      1.759
REMARK SMILES Cc1cc(F)[nH+]cc1-c1ccc2cc[nH]c2c1
REMARK SMILES IDX 9 1 10 2 11 3 12 4 13 5 14 6 15 7 16 8 17 9 8 11 2 12 3 13
REMARK SMILES IDX 4 14 7 15 6 16 1 17 5 18
REMARK H PARENT 15 10 6 19
ROOT
ATOM      1  C   UNL     1      45.252 131.341  17.196  1.00  0.00    -0.010 A 
ATOM      2  C   UNL     1      45.433 132.469  16.354  1.00  0.00     0.010 A 
ATOM      3  C   UNL     1      46.148 132.358  15.148  1.00  0.00     0.011 A 
ATOM      4  C   UNL     1      46.661 131.110  14.811  1.00  0.00    -0.001 A 
ATOM      5  C   UNL     1      47.387 130.704  13.711  1.00  0.00     0.028 A 
ATOM      6  C   UNL     1      47.615 129.346  13.908  1.00  0.00     0.083 A 
ATOM      7  N   UNL     1      47.061 128.928  15.069  1.00  0.00    -0.361 N 
ATOM      8  C   UNL     1      46.483 130.013  15.610  1.00  0.00     0.046 A 
ATOM      9  C   UNL     1      45.779 130.088  16.810  1.00  0.00     0.035 A 
ATOM     10  H   UNL     1      47.080 127.961  15.460  1.00  0.00     0.166 HD
ENDROOT
BRANCH   1  11
ATOM     11  C   UNL     1      44.486 131.474  18.455  1.00  0.00     0.049 A 
ATOM     12  C   UNL     1      45.076 131.273  19.726  1.00  0.00    -0.028 A 
ATOM     13  C   UNL     1      44.276 131.372  20.873  1.00  0.00     0.118 A 
ATOM     14  C   UNL     1      42.926 131.703  20.751  1.00  0.00     0.358 A 
ATOM     15  C   UNL     1      43.127 131.818  18.390  1.00  0.00     0.317 A 
ATOM     16  N   UNL     1      42.383 131.925  19.524  1.00  0.00    -0.186 N 
ATOM     17  C   UNL     1      46.537 130.939  19.884  1.00  0.00     0.045 C 
ATOM     18  F   UNL     1      42.154 131.809  21.861  1.00  0.00    -0.136 F 
ATOM     19  H   UNL     1      41.373 132.174  19.449  1.00  0.00     0.456 HD
ENDBRANCH   1  11
TORSDOF 1
ENDMDL
MODEL 8
REMARK VINA RESULT:      -8.8      3.054      6.322
REMARK SMILES Cc1cc(F)[nH+]cc1-c1ccc2cc[nH]c2c1
REMARK SMILES IDX 9 1 10 2 11 3 12 4 13 5 14 6 15 7 16 8 17 9 8 11 2 12 3 13
REMARK SMILES IDX 4 14 7 15 6 16 1 17 5 18
REMARK H PARENT 15 10 6 19
ROOT
ATOM      1  C   UNL     1      44.824 131.073  17.352  1.00  0.00    -0.010 A 
ATOM      2  C   UNL     1      43.504 131.565  17.182  1.00  0.00     0.010 A 
ATOM      3  C   UNL     1      42.716 131.907  18.295  1.00  0.00     0.011 A 
ATOM      4  C   UNL     1      43.275 131.753  19.559  1.00  0.00    -0.001 A 
ATOM      5  C   UNL     1      42.754 132.006  20.809  1.00  0.00     0.028 A 
ATOM      6  C   UNL     1      43.770 131.675  21.700  1.00  0.00     0.083 A 
ATOM      7  N   UNL     1      44.866 131.237  21.039  1.00  0.00    -0.361 N 
ATOM      8  C   UNL     1      44.552 131.290  19.734  1.00  0.00     0.046 A 
ATOM      9  C   UNL     1      45.360 130.943  18.653  1.00  0.00     0.035 A 
ATOM     10  H   UNL     1      45.769 130.925  21.459  1.00  0.00     0.166 HD
ENDROOT
BRANCH   1  11
ATOM     11  C   UNL     1      45.643 130.729  16.169  1.00  0.00     0.049 A 
ATOM     12  C   UNL     1      45.252 131.069  14.852  1.00  0.00    -0.028 A 
ATOM     13  C   UNL     1      46.059 130.670  13.777  1.00  0.00     0.118 A 
ATOM     14  C   UNL     1      47.248 129.981  14.019  1.00  0.00     0.358 A 
ATOM     15  C   UNL     1      46.855 130.046  16.357  1.00  0.00     0.317 A 
ATOM     16  N   UNL     1      47.623 129.690  15.292  1.00  0.00    -0.186 N 
ATOM     17  C   UNL     1      43.987 131.835  14.568  1.00  0.00     0.045 C 
ATOM     18  F   UNL     1      48.033 129.603  12.979  1.00  0.00    -0.136 F 
ATOM     19  H   UNL     1      48.517 129.176  15.458  1.00  0.00     0.456 HD
ENDBRANCH   1  11
TORSDOF 1
ENDMDL
MODEL 9
REMARK VINA RESULT:      -8.2      1.247      1.871
REMARK SMILES Cc1cc(F)[nH+]cc1-c1ccc2cc[nH]c2c1
REMARK SMILES IDX 9 1 10 2 11 3 12 4 13 5 14 6 15 7 16 8 17 9 8 11 2 12 3 13
REMARK SMILES IDX 4 14 7 15 6 16 1 17 5 18
REMARK H PARENT 15 10 6 19
ROOT
ATOM      1  C   UNL     1      45.363 130.774  17.168  1.00  0.00    -0.010 A 
ATOM      2  C   UNL     1      45.438 129.412  16.776  1.00  0.00     0.010 A 
ATOM      3  C   UNL     1      46.030 129.048  15.554  1.00  0.00     0.011 A 
ATOM      4  C   UNL     1      46.542 130.064  14.752  1.00  0.00    -0.001 A 
ATOM      5  C   UNL     1      47.171 130.011  13.527  1.00  0.00     0.028 A 
ATOM      6  C   UNL     1      47.470 131.333  13.216  1.00  0.00     0.083 A 
ATOM      7  N   UNL     1      47.049 132.165  14.195  1.00  0.00    -0.361 N 
ATOM      8  C   UNL     1      46.484 131.380  15.127  1.00  0.00     0.046 A 
ATOM      9  C   UNL     1      45.906 131.774  16.331  1.00  0.00     0.035 A 
ATOM     10  H   UNL     1      47.146 133.205  14.220  1.00  0.00     0.166 HD
ENDROOT
BRANCH   1  11
ATOM     11  C   UNL     1      44.747 131.137  18.463  1.00  0.00     0.049 A 
ATOM     12  C   UNL     1      43.450 131.696  18.556  1.00  0.00    -0.028 A 
ATOM     13  C   UNL     1      42.951 132.056  19.816  1.00  0.00     0.118 A 
ATOM     14  C   UNL     1      43.718 131.827  20.958  1.00  0.00     0.358 A 
ATOM     15  C   UNL     1      45.471 130.916  19.646  1.00  0.00     0.317 A 
ATOM     16  N   UNL     1      44.950 131.261  20.854  1.00  0.00    -0.186 N 
ATOM     17  C   UNL     1      42.593 131.929  17.340  1.00  0.00     0.045 C 
ATOM     18  F   UNL     1      43.232 132.168  22.178  1.00  0.00    -0.136 F 
ATOM     19  H   UNL     1      45.511 131.093  21.718  1.00  0.00     0.456 HD
ENDBRANCH   1  11
TORSDOF 1
ENDMDL


