MODEL 1
REMARK VINA RESULT:      -6.5      0.000      0.000
REMARK SMILES C=CC(=O)N1CCC[C@@H](c2ccc3ccc(C)c(F)c3n2)[C@@H]1F
REMARK SMILES IDX 5 1 6 2 7 3 8 4 9 5 22 6 23 7 3 8 4 9 2 10 1 11 10 12 11 13
REMARK SMILES IDX 21 14 12 15 20 16 13 17 18 18 14 19 16 20 15 21 19 22 17 23
REMARK H PARENT
ROOT
ATOM      1  N   UNL     1      45.221 130.549  16.106  1.00  0.00    -0.308 N 
ATOM      2  C   UNL     1      44.762 131.650  15.248  1.00  0.00     0.123 C 
ATOM      3  C   UNL     1      43.312 132.053  15.578  1.00  0.00     0.022 C 
ATOM      4  C   UNL     1      42.913 131.783  17.042  1.00  0.00     0.017 C 
ATOM      5  C   UNL     1      44.137 131.789  17.975  1.00  0.00     0.093 C 
ATOM      6  C   UNL     1      45.116 130.666  17.569  1.00  0.00     0.274 C 
ATOM      7  F   UNL     1      46.365 130.928  18.109  1.00  0.00    -0.223 F 
ENDROOT
BRANCH   1   8
ATOM      8  C   UNL     1      45.976 129.459  15.545  1.00  0.00     0.248 C 
ATOM      9  O   UNL     1      45.450 128.317  15.459  1.00  0.00    -0.270 OA
BRANCH   8  10
ATOM     10  C   UNL     1      47.354 129.638  15.053  1.00  0.00     0.063 C 
ATOM     11  C   UNL     1      47.640 129.837  13.768  1.00  0.00     0.014 C 
ENDBRANCH   8  10
ENDBRANCH   1   8
BRANCH   5  12
ATOM     12  C   UNL     1      43.737 131.682  19.429  1.00  0.00     0.049 A 
ATOM     13  C   UNL     1      42.786 132.547  20.001  1.00  0.00     0.025 A 
ATOM     14  N   UNL     1      44.305 130.713  20.200  1.00  0.00    -0.249 NA
ATOM     15  C   UNL     1      42.443 132.407  21.346  1.00  0.00     0.012 A 
ATOM     16  C   UNL     1      43.990 130.552  21.514  1.00  0.00     0.106 A 
ATOM     17  C   UNL     1      43.043 131.406  22.118  1.00  0.00     0.003 A 
ATOM     18  C   UNL     1      44.602 129.541  22.266  1.00  0.00     0.152 A 
ATOM     19  C   UNL     1      42.723 131.242  23.472  1.00  0.00     0.011 A 
ATOM     20  C   UNL     1      44.271 129.371  23.621  1.00  0.00    -0.013 A 
ATOM     21  C   UNL     1      43.337 130.233  24.220  1.00  0.00     0.007 A 
ATOM     22  F   UNL     1      45.520 128.728  21.680  1.00  0.00    -0.204 F 
ATOM     23  C   UNL     1      44.945 128.304  24.434  1.00  0.00     0.047 C 
ENDBRANCH   5  12
TORSDOF 3
ENDMDL
MODEL 2
REMARK VINA RESULT:      -6.0      2.028      2.781
REMARK SMILES C=CC(=O)N1CCC[C@@H](c2ccc3ccc(C)c(F)c3n2)[C@@H]1F
REMARK SMILES IDX 5 1 6 2 7 3 8 4 9 5 22 6 23 7 3 8 4 9 2 10 1 11 10 12 11 13
REMARK SMILES IDX 21 14 12 15 20 16 13 17 18 18 14 19 16 20 15 21 19 22 17 23
REMARK H PARENT
ROOT
ATOM      1  N   UNL     1      45.708 131.243  14.567  1.00  0.00    -0.308 N 
ATOM      2  C   UNL     1      44.537 131.906  13.975  1.00  0.00     0.123 C 
ATOM      3  C   UNL     1      43.229 131.434  14.638  1.00  0.00     0.022 C 
ATOM      4  C   UNL     1      43.405 130.983  16.102  1.00  0.00     0.017 C 
ATOM      5  C   UNL     1      44.615 131.666  16.765  1.00  0.00     0.093 C 
ATOM      6  C   UNL     1      45.912 131.277  16.024  1.00  0.00     0.274 C 
ATOM      7  F   UNL     1      46.909 132.188  16.336  1.00  0.00    -0.223 F 
ENDROOT
BRANCH   1   8
ATOM      8  C   UNL     1      46.769 130.759  13.724  1.00  0.00     0.248 C 
ATOM      9  O   UNL     1      46.890 131.210  12.554  1.00  0.00    -0.270 OA
BRANCH   8  10
ATOM     10  C   UNL     1      47.737 129.749  14.192  1.00  0.00     0.063 C 
ATOM     11  C   UNL     1      48.676 129.232  13.403  1.00  0.00     0.014 C 
ENDBRANCH   8  10
ENDBRANCH   1   8
BRANCH   5  12
ATOM     12  C   UNL     1      44.699 131.349  18.241  1.00  0.00     0.049 A 
ATOM     13  C   UNL     1      45.753 130.584  18.775  1.00  0.00     0.025 A 
ATOM     14  N   UNL     1      43.735 131.828  19.075  1.00  0.00    -0.249 NA
ATOM     15  C   UNL     1      45.793 130.322  20.145  1.00  0.00     0.012 A 
ATOM     16  C   UNL     1      43.748 131.589  20.414  1.00  0.00     0.106 A 
ATOM     17  C   UNL     1      44.789 130.822  20.980  1.00  0.00     0.003 A 
ATOM     18  C   UNL     1      42.732 132.103  21.232  1.00  0.00     0.152 A 
ATOM     19  C   UNL     1      44.799 130.573  22.359  1.00  0.00     0.011 A 
ATOM     20  C   UNL     1      42.751 131.862  22.616  1.00  0.00    -0.013 A 
ATOM     21  C   UNL     1      43.783 131.087  23.171  1.00  0.00     0.007 A 
ATOM     22  F   UNL     1      41.728 132.833  20.678  1.00  0.00    -0.204 F 
ATOM     23  C   UNL     1      41.649 132.391  23.488  1.00  0.00     0.047 C 
ENDBRANCH   5  12
TORSDOF 3
ENDMDL
MODEL 3
REMARK VINA RESULT:      -6.0      3.017      6.942
REMARK SMILES C=CC(=O)N1CCC[C@@H](c2ccc3ccc(C)c(F)c3n2)[C@@H]1F
REMARK SMILES IDX 5 1 6 2 7 3 8 4 9 5 22 6 23 7 3 8 4 9 2 10 1 11 10 12 11 13
REMARK SMILES IDX 21 14 12 15 20 16 13 17 18 18 14 19 16 20 15 21 19 22 17 23
REMARK H PARENT
ROOT
ATOM      1  N   UNL     1      45.333 132.279  22.028  1.00  0.00    -0.308 N 
ATOM      2  C   UNL     1      44.294 131.549  22.769  1.00  0.00     0.123 C 
ATOM      3  C   UNL     1      42.931 131.632  22.055  1.00  0.00     0.022 C 
ATOM      4  C   UNL     1      43.043 131.802  20.527  1.00  0.00     0.017 C 
ATOM      5  C   UNL     1      44.366 131.229  19.987  1.00  0.00     0.093 C 
ATOM      6  C   UNL     1      45.561 131.987  20.604  1.00  0.00     0.274 C 
ATOM      7  F   UNL     1      46.711 131.228  20.459  1.00  0.00    -0.223 F 
ENDROOT
BRANCH   1   8
ATOM      8  C   UNL     1      46.277 133.107  22.732  1.00  0.00     0.248 C 
ATOM      9  O   UNL     1      46.173 133.249  23.979  1.00  0.00    -0.270 OA
BRANCH   8  10
ATOM     10  C   UNL     1      47.380 133.796  22.035  1.00  0.00     0.063 C 
ATOM     11  C   UNL     1      48.409 134.341  22.679  1.00  0.00     0.014 C 
ENDBRANCH   8  10
ENDBRANCH   1   8
BRANCH   5  12
ATOM     12  C   UNL     1      44.412 131.250  18.476  1.00  0.00     0.049 A 
ATOM     13  C   UNL     1      43.379 131.823  17.711  1.00  0.00     0.025 A 
ATOM     14  N   UNL     1      45.490 130.710  17.841  1.00  0.00    -0.249 NA
ATOM     15  C   UNL     1      43.468 131.825  16.319  1.00  0.00     0.012 A 
ATOM     16  C   UNL     1      45.604 130.697  16.486  1.00  0.00     0.106 A 
ATOM     17  C   UNL     1      44.583 131.261  15.690  1.00  0.00     0.003 A 
ATOM     18  C   UNL     1      46.732 130.129  15.879  1.00  0.00     0.152 A 
ATOM     19  C   UNL     1      44.700 131.244  14.294  1.00  0.00     0.011 A 
ATOM     20  C   UNL     1      46.852 130.123  14.479  1.00  0.00    -0.013 A 
ATOM     21  C   UNL     1      45.826 130.674  13.692  1.00  0.00     0.007 A 
ATOM     22  F   UNL     1      47.707 129.580  16.650  1.00  0.00    -0.204 F 
ATOM     23  C   UNL     1      48.049 129.491  13.827  1.00  0.00     0.047 C 
ENDBRANCH   5  12
TORSDOF 3
ENDMDL
MODEL 4
REMARK VINA RESULT:      -5.9      1.693      2.521
REMARK SMILES C=CC(=O)N1CCC[C@@H](c2ccc3ccc(C)c(F)c3n2)[C@@H]1F
REMARK SMILES IDX 5 1 6 2 7 3 8 4 9 5 22 6 23 7 3 8 4 9 2 10 1 11 10 12 11 13
REMARK SMILES IDX 21 14 12 15 20 16 13 17 18 18 14 19 16 20 15 21 19 22 17 23
REMARK H PARENT
ROOT
ATOM      1  N   UNL     1      45.869 130.607  15.266  1.00  0.00    -0.308 N 
ATOM      2  C   UNL     1      45.105 131.675  14.604  1.00  0.00     0.123 C 
ATOM      3  C   UNL     1      43.687 131.799  15.193  1.00  0.00     0.022 C 
ATOM      4  C   UNL     1      43.588 131.357  16.667  1.00  0.00     0.017 C 
ATOM      5  C   UNL     1      44.937 131.502  17.395  1.00  0.00     0.093 C 
ATOM      6  C   UNL     1      45.996 130.595  16.732  1.00  0.00     0.274 C 
ATOM      7  F   UNL     1      47.261 131.025  17.096  1.00  0.00    -0.223 F 
ENDROOT
BRANCH   1   8
ATOM      8  C   UNL     1      46.678 129.707  14.487  1.00  0.00     0.248 C 
ATOM      9  O   UNL     1      46.474 128.466  14.559  1.00  0.00    -0.270 OA
BRANCH   8  10
ATOM     10  C   UNL     1      47.744 130.194  13.591  1.00  0.00     0.063 C 
ATOM     11  C   UNL     1      47.517 131.065  12.610  1.00  0.00     0.014 C 
ENDBRANCH   8  10
ENDBRANCH   1   8
BRANCH   5  12
ATOM     12  C   UNL     1      44.809 131.220  18.875  1.00  0.00     0.049 A 
ATOM     13  C   UNL     1      45.733 130.405  19.556  1.00  0.00     0.025 A 
ATOM     14  N   UNL     1      43.779 131.781  19.568  1.00  0.00    -0.249 NA
ATOM     15  C   UNL     1      45.579 130.178  20.924  1.00  0.00     0.012 A 
ATOM     16  C   UNL     1      43.603 131.577  20.901  1.00  0.00     0.106 A 
ATOM     17  C   UNL     1      44.510 130.762  21.612  1.00  0.00     0.003 A 
ATOM     18  C   UNL     1      42.526 132.175  21.569  1.00  0.00     0.152 A 
ATOM     19  C   UNL     1      44.326 130.550  22.985  1.00  0.00     0.011 A 
ATOM     20  C   UNL     1      42.351 131.970  22.948  1.00  0.00    -0.013 A 
ATOM     21  C   UNL     1      43.249 131.147  23.647  1.00  0.00     0.007 A 
ATOM     22  F   UNL     1      41.652 132.951  20.877  1.00  0.00    -0.204 F 
ATOM     23  C   UNL     1      41.182 132.590  23.660  1.00  0.00     0.047 C 
ENDBRANCH   5  12
TORSDOF 3
ENDMDL
MODEL 5
REMARK VINA RESULT:      -5.9      2.515      6.812
REMARK SMILES C=CC(=O)N1CCC[C@@H](c2ccc3ccc(C)c(F)c3n2)[C@@H]1F
REMARK SMILES IDX 5 1 6 2 7 3 8 4 9 5 22 6 23 7 3 8 4 9 2 10 1 11 10 12 11 13
REMARK SMILES IDX 21 14 12 15 20 16 13 17 18 18 14 19 16 20 15 21 19 22 17 23
REMARK H PARENT
ROOT
ATOM      1  N   UNL     1      44.039 130.394  22.751  1.00  0.00    -0.308 N 
ATOM      2  C   UNL     1      44.546 131.600  23.420  1.00  0.00     0.123 C 
ATOM      3  C   UNL     1      45.685 132.254  22.614  1.00  0.00     0.022 C 
ATOM      4  C   UNL     1      45.595 131.997  21.097  1.00  0.00     0.017 C 
ATOM      5  C   UNL     1      44.147 131.729  20.651  1.00  0.00     0.093 C 
ATOM      6  C   UNL     1      43.605 130.462  21.346  1.00  0.00     0.274 C 
ATOM      7  F   UNL     1      42.221 130.459  21.282  1.00  0.00    -0.223 F 
ENDROOT
BRANCH   1   8
ATOM      8  C   UNL     1      43.751 129.208  23.514  1.00  0.00     0.248 C 
ATOM      9  O   UNL     1      42.759 129.195  24.292  1.00  0.00    -0.270 OA
BRANCH   8  10
ATOM     10  C   UNL     1      44.580 127.993  23.409  1.00  0.00     0.063 C 
ATOM     11  C   UNL     1      45.231 127.660  22.297  1.00  0.00     0.014 C 
ENDBRANCH   8  10
ENDBRANCH   1   8
BRANCH   5  12
ATOM     12  C   UNL     1      44.031 131.633  19.146  1.00  0.00     0.049 A 
ATOM     13  C   UNL     1      42.894 132.099  18.460  1.00  0.00     0.025 A 
ATOM     14  N   UNL     1      45.060 131.091  18.438  1.00  0.00    -0.249 NA
ATOM     15  C   UNL     1      42.833 131.994  17.070  1.00  0.00     0.012 A 
ATOM     16  C   UNL     1      45.030 130.976  17.083  1.00  0.00     0.106 A 
ATOM     17  C   UNL     1      43.903 131.431  16.365  1.00  0.00     0.003 A 
ATOM     18  C   UNL     1      46.114 130.410  16.399  1.00  0.00     0.152 A 
ATOM     19  C   UNL     1      43.871 131.308  14.970  1.00  0.00     0.011 A 
ATOM     20  C   UNL     1      46.085 130.300  14.998  1.00  0.00    -0.013 A 
ATOM     21  C   UNL     1      44.954 130.742  14.292  1.00  0.00     0.007 A 
ATOM     22  F   UNL     1      47.193 129.967  17.097  1.00  0.00    -0.204 F 
ATOM     23  C   UNL     1      47.236 129.670  14.268  1.00  0.00     0.047 C 
ENDBRANCH   5  12
TORSDOF 3
ENDMDL
MODEL 6
REMARK VINA RESULT:      -5.8      2.732      7.127
REMARK SMILES C=CC(=O)N1CCC[C@@H](c2ccc3ccc(C)c(F)c3n2)[C@@H]1F
REMARK SMILES IDX 5 1 6 2 7 3 8 4 9 5 22 6 23 7 3 8 4 9 2 10 1 11 10 12 11 13
REMARK SMILES IDX 21 14 12 15 20 16 13 17 18 18 14 19 16 20 15 21 19 22 17 23
REMARK H PARENT
ROOT
ATOM      1  N   UNL     1      43.432 131.013  22.530  1.00  0.00    -0.308 N 
ATOM      2  C   UNL     1      44.431 131.903  23.139  1.00  0.00     0.123 C 
ATOM      3  C   UNL     1      45.771 131.847  22.380  1.00  0.00     0.022 C 
ATOM      4  C   UNL     1      45.621 131.496  20.887  1.00  0.00     0.017 C 
ATOM      5  C   UNL     1      44.237 131.897  20.345  1.00  0.00     0.093 C 
ATOM      6  C   UNL     1      43.132 131.121  21.093  1.00  0.00     0.274 C 
ATOM      7  F   UNL     1      41.918 131.766  20.916  1.00  0.00    -0.223 F 
ENDROOT
BRANCH   1   8
ATOM      8  C   UNL     1      42.585 130.198  23.361  1.00  0.00     0.248 C 
ATOM      9  O   UNL     1      41.849 130.744  24.225  1.00  0.00    -0.270 OA
BRANCH   8  10
ATOM     10  C   UNL     1      42.544 128.730  23.227  1.00  0.00     0.063 C 
ATOM     11  C   UNL     1      41.476 128.006  23.559  1.00  0.00     0.014 C 
ENDBRANCH   8  10
ENDBRANCH   1   8
BRANCH   5  12
ATOM     12  C   UNL     1      44.141 131.700  18.849  1.00  0.00     0.049 A 
ATOM     13  C   UNL     1      43.007 132.104  18.121  1.00  0.00     0.025 A 
ATOM     14  N   UNL     1      45.186 131.128  18.190  1.00  0.00    -0.249 NA
ATOM     15  C   UNL     1      42.964 131.908  16.740  1.00  0.00     0.012 A 
ATOM     16  C   UNL     1      45.174 130.924  16.845  1.00  0.00     0.106 A 
ATOM     17  C   UNL     1      44.050 131.315  16.086  1.00  0.00     0.003 A 
ATOM     18  C   UNL     1      46.274 130.330  16.212  1.00  0.00     0.152 A 
ATOM     19  C   UNL     1      44.036 131.100  14.702  1.00  0.00     0.011 A 
ATOM     20  C   UNL     1      46.263 130.127  14.821  1.00  0.00    -0.013 A 
ATOM     21  C   UNL     1      45.136 130.506  14.074  1.00  0.00     0.007 A 
ATOM     22  F   UNL     1      47.350 129.948  16.949  1.00  0.00    -0.204 F 
ATOM     23  C   UNL     1      47.431 129.468  14.146  1.00  0.00     0.047 C 
ENDBRANCH   5  12
TORSDOF 3
ENDMDL
MODEL 7
REMARK VINA RESULT:      -5.6      3.721      6.630
REMARK SMILES C=CC(=O)N1CCC[C@@H](c2ccc3ccc(C)c(F)c3n2)[C@@H]1F
REMARK SMILES IDX 5 1 6 2 7 3 8 4 9 5 22 6 23 7 3 8 4 9 2 10 1 11 10 12 11 13
REMARK SMILES IDX 21 14 12 15 20 16 13 17 18 18 14 19 16 20 15 21 19 22 17 23
REMARK H PARENT
ROOT
ATOM      1  N   UNL     1      43.847 130.864  22.255  1.00  0.00    -0.308 N 
ATOM      2  C   UNL     1      43.906 131.619  23.514  1.00  0.00     0.123 C 
ATOM      3  C   UNL     1      43.009 130.983  24.594  1.00  0.00     0.022 C 
ATOM      4  C   UNL     1      42.823 129.462  24.425  1.00  0.00     0.017 C 
ATOM      5  C   UNL     1      44.006 128.825  23.676  1.00  0.00     0.093 C 
ATOM      6  C   UNL     1      44.112 129.416  22.254  1.00  0.00     0.274 C 
ATOM      7  F   UNL     1      45.378 129.172  21.747  1.00  0.00    -0.223 F 
ENDROOT
BRANCH   1   8
ATOM      8  C   UNL     1      43.758 131.558  20.997  1.00  0.00     0.248 C 
ATOM      9  O   UNL     1      42.653 132.038  20.628  1.00  0.00    -0.270 OA
BRANCH   8  10
ATOM     10  C   UNL     1      44.931 131.738  20.121  1.00  0.00     0.063 C 
ATOM     11  C   UNL     1      45.157 130.973  19.055  1.00  0.00     0.014 C 
ENDBRANCH   8  10
ENDBRANCH   1   8
BRANCH   5  12
ATOM     12  C   UNL     1      43.906 127.316  23.646  1.00  0.00     0.049 A 
ATOM     13  C   UNL     1      42.781 126.639  24.153  1.00  0.00     0.025 A 
ATOM     14  N   UNL     1      44.928 126.597  23.104  1.00  0.00    -0.249 NA
ATOM     15  C   UNL     1      42.730 125.246  24.099  1.00  0.00     0.012 A 
ATOM     16  C   UNL     1      44.905 125.239  23.037  1.00  0.00     0.106 A 
ATOM     17  C   UNL     1      43.793 124.530  23.539  1.00  0.00     0.003 A 
ATOM     18  C   UNL     1      45.982 124.543  22.470  1.00  0.00     0.152 A 
ATOM     19  C   UNL     1      43.773 123.130  23.474  1.00  0.00     0.011 A 
ATOM     20  C   UNL     1      45.954 123.140  22.394  1.00  0.00    -0.013 A 
ATOM     21  C   UNL     1      44.850 122.440  22.908  1.00  0.00     0.007 A 
ATOM     22  F   UNL     1      47.053 125.232  21.996  1.00  0.00    -0.204 F 
ATOM     23  C   UNL     1      47.118 122.394  21.810  1.00  0.00     0.047 C 
ENDBRANCH   5  12
TORSDOF 3
ENDMDL
MODEL 8
REMARK VINA RESULT:      -5.5      2.471      7.427
REMARK SMILES C=CC(=O)N1CCC[C@@H](c2ccc3ccc(C)c(F)c3n2)[C@@H]1F
REMARK SMILES IDX 5 1 6 2 7 3 8 4 9 5 22 6 23 7 3 8 4 9 2 10 1 11 10 12 11 13
REMARK SMILES IDX 21 14 12 15 20 16 13 17 18 18 14 19 16 20 15 21 19 22 17 23
REMARK H PARENT
ROOT
ATOM      1  N   UNL     1      43.726 131.492  21.604  1.00  0.00    -0.308 N 
ATOM      2  C   UNL     1      44.811 130.832  22.343  1.00  0.00     0.123 C 
ATOM      3  C   UNL     1      45.300 129.566  21.615  1.00  0.00     0.022 C 
ATOM      4  C   UNL     1      45.113 129.622  20.085  1.00  0.00     0.017 C 
ATOM      5  C   UNL     1      45.098 131.071  19.567  1.00  0.00     0.093 C 
ATOM      6  C   UNL     1      43.911 131.841  20.186  1.00  0.00     0.274 C 
ATOM      7  F   UNL     1      44.133 133.203  20.063  1.00  0.00    -0.223 F 
ENDROOT
BRANCH   1   8
ATOM      8  C   UNL     1      42.577 132.002  22.305  1.00  0.00     0.248 C 
ATOM      9  O   UNL     1      41.673 132.603  21.664  1.00  0.00    -0.270 OA
BRANCH   8  10
ATOM     10  C   UNL     1      42.416 131.836  23.761  1.00  0.00     0.063 C 
ATOM     11  C   UNL     1      43.406 132.053  24.625  1.00  0.00     0.014 C 
ENDBRANCH   8  10
ENDBRANCH   1   8
BRANCH   5  12
ATOM     12  C   UNL     1      45.072 131.128  18.056  1.00  0.00     0.049 A 
ATOM     13  C   UNL     1      44.007 131.722  17.356  1.00  0.00     0.025 A 
ATOM     14  N   UNL     1      46.116 130.600  17.359  1.00  0.00    -0.249 NA
ATOM     15  C   UNL     1      44.029 131.756  15.961  1.00  0.00     0.012 A 
ATOM     16  C   UNL     1      46.166 130.619  16.000  1.00  0.00     0.106 A 
ATOM     17  C   UNL     1      45.111 131.204  15.267  1.00  0.00     0.003 A 
ATOM     18  C   UNL     1      47.261 130.061  15.327  1.00  0.00     0.152 A 
ATOM     19  C   UNL     1      45.162 131.220  13.867  1.00  0.00     0.011 A 
ATOM     20  C   UNL     1      47.315 130.089  13.923  1.00  0.00    -0.013 A 
ATOM     21  C   UNL     1      46.256 130.661  13.199  1.00  0.00     0.007 A 
ATOM     22  F   UNL     1      48.270 129.491  16.038  1.00  0.00    -0.204 F 
ATOM     23  C   UNL     1      48.477 129.469  13.201  1.00  0.00     0.047 C 
ENDBRANCH   5  12
TORSDOF 3
ENDMDL
MODEL 9
REMARK VINA RESULT:      -5.3      2.036      7.152
REMARK SMILES C=CC(=O)N1CCC[C@@H](c2ccc3ccc(C)c(F)c3n2)[C@@H]1F
REMARK SMILES IDX 5 1 6 2 7 3 8 4 9 5 22 6 23 7 3 8 4 9 2 10 1 11 10 12 11 13
REMARK SMILES IDX 21 14 12 15 20 16 13 17 18 18 14 19 16 20 15 21 19 22 17 23
REMARK H PARENT
ROOT
ATOM      1  N   UNL     1      44.177 131.671  20.484  1.00  0.00    -0.308 N 
ATOM      2  C   UNL     1      42.739 131.469  20.712  1.00  0.00     0.123 C 
ATOM      3  C   UNL     1      41.895 132.154  19.620  1.00  0.00     0.022 C 
ATOM      4  C   UNL     1      42.618 132.271  18.263  1.00  0.00     0.017 C 
ATOM      5  C   UNL     1      43.687 131.177  18.092  1.00  0.00     0.093 C 
ATOM      6  C   UNL     1      44.770 131.322  19.183  1.00  0.00     0.274 C 
ATOM      7  F   UNL     1      45.474 130.134  19.292  1.00  0.00    -0.223 F 
ENDROOT
BRANCH   1   8
ATOM      8  C   UNL     1      45.048 131.989  21.585  1.00  0.00     0.248 C 
ATOM      9  O   UNL     1      46.193 132.464  21.356  1.00  0.00    -0.270 OA
BRANCH   8  10
ATOM     10  C   UNL     1      44.638 131.786  22.987  1.00  0.00     0.063 C 
ATOM     11  C   UNL     1      44.286 130.596  23.469  1.00  0.00     0.014 C 
ENDBRANCH   8  10
ENDBRANCH   1   8
BRANCH   5  12
ATOM     12  C   UNL     1      44.287 131.190  16.704  1.00  0.00     0.049 A 
ATOM     13  C   UNL     1      43.637 131.811  15.622  1.00  0.00     0.025 A 
ATOM     14  N   UNL     1      45.495 130.594  16.503  1.00  0.00    -0.249 NA
ATOM     15  C   UNL     1      44.232 131.803  14.360  1.00  0.00     0.012 A 
ATOM     16  C   UNL     1      46.100 130.570  15.284  1.00  0.00     0.106 A 
ATOM     17  C   UNL     1      45.471 131.181  14.177  1.00  0.00     0.003 A 
ATOM     18  C   UNL     1      47.342 129.943  15.126  1.00  0.00     0.152 A 
ATOM     19  C   UNL     1      46.093 131.152  12.922  1.00  0.00     0.011 A 
ATOM     20  C   UNL     1      47.969 129.926  13.869  1.00  0.00    -0.013 A 
ATOM     21  C   UNL     1      47.333 130.524  12.769  1.00  0.00     0.007 A 
ATOM     22  F   UNL     1      47.937 129.349  16.194  1.00  0.00    -0.204 F 
ATOM     23  C   UNL     1      49.290 129.232  13.694  1.00  0.00     0.047 C 
ENDBRANCH   5  12
TORSDOF 3
ENDMDL


