MODEL 1
REMARK VINA RESULT:      -8.8      0.000      0.000
REMARK SMILES [H]/N=c1\c([NH2+]c2ccc3c(c2)n[nH+]n3C)cccn1/C(S)=N\c1ccccc1
REMARK SMILES IDX 3 1 4 2 16 3 17 4 18 5 19 6 2 7 1 8 5 9 6 12 7 13 11 14 8 15
REMARK SMILES IDX 10 16 9 17 12 18 14 19 13 20 15 21 20 23 22 24 23 25 24 26
REMARK SMILES IDX 28 27 25 28 27 29 26 30 21 31
REMARK H PARENT 5 10 5 11 13 22 21 32
ROOT
ATOM      1  C   UNL     1      44.626 131.138  19.418  1.00  0.00     0.194 A 
ATOM      2  C   UNL     1      44.120 131.271  20.742  1.00  0.00     0.177 A 
ATOM      3  C   UNL     1      42.860 131.868  20.916  1.00  0.00     0.074 A 
ATOM      4  C   UNL     1      42.140 132.329  19.822  1.00  0.00     0.025 A 
ATOM      5  C   UNL     1      42.690 132.231  18.549  1.00  0.00     0.096 A 
ATOM      6  N   UNL     1      43.923 131.675  18.364  1.00  0.00    -0.276 N 
ENDROOT
BRANCH   1   7
ATOM      7  N   UNL     1      45.740 130.508  19.180  1.00  0.00    -0.279 NA
ATOM      8  H   UNL     1      46.696 130.894  19.315  1.00  0.00     0.190 HD
ENDBRANCH   1   7
BRANCH   2   9
ATOM      9  N   UNL     1      44.892 130.906  21.912  1.00  0.00    -0.278 N 
ATOM     10  H   UNL     1      44.943 131.705  22.583  1.00  0.00     0.358 HD
ATOM     11  H   UNL     1      45.884 130.699  21.647  1.00  0.00     0.358 HD
BRANCH   9  12
ATOM     12  C   UNL     1      44.336 129.722  22.525  1.00  0.00     0.137 A 
ATOM     13  C   UNL     1      45.064 128.496  22.502  1.00  0.00     0.071 A 
ATOM     14  C   UNL     1      43.063 129.763  23.148  1.00  0.00     0.105 A 
ATOM     15  C   UNL     1      44.526 127.323  23.064  1.00  0.00     0.041 A 
ATOM     16  C   UNL     1      42.567 128.582  23.688  1.00  0.00     0.168 A 
ATOM     17  C   UNL     1      43.267 127.417  23.648  1.00  0.00     0.133 A 
ATOM     18  N   UNL     1      41.377 128.362  24.280  1.00  0.00     0.025 NA
ATOM     19  N   UNL     1      42.510 126.473  24.227  1.00  0.00    -0.132 N 
ATOM     20  N   UNL     1      41.378 127.067  24.591  1.00  0.00    -0.016 N 
ATOM     21  C   UNL     1      42.796 125.049  24.358  1.00  0.00     0.226 C 
ATOM     22  H   UNL     1      40.577 126.582  25.052  1.00  0.00     0.526 HD
ENDBRANCH   9  12
ENDBRANCH   2   9
BRANCH   6  23
ATOM     23  C   UNL     1      44.459 131.660  17.025  1.00  0.00     0.171 C 
BRANCH  23  24
ATOM     24  N   UNL     1      45.743 131.677  16.793  1.00  0.00    -0.225 NA
BRANCH  24  25
ATOM     25  C   UNL     1      46.421 131.100  15.664  1.00  0.00     0.066 A 
ATOM     26  C   UNL     1      46.738 131.861  14.521  1.00  0.00     0.028 A 
ATOM     27  C   UNL     1      46.721 129.733  15.680  1.00  0.00     0.028 A 
ATOM     28  C   UNL     1      47.389 131.263  13.438  1.00  0.00     0.002 A 
ATOM     29  C   UNL     1      47.374 129.138  14.596  1.00  0.00     0.002 A 
ATOM     30  C   UNL     1      47.709 129.904  13.477  1.00  0.00     0.000 A 
ENDBRANCH  24  25
ENDBRANCH  23  24
BRANCH  23  31
ATOM     31  S   UNL     1      43.340 131.535  15.633  1.00  0.00    -0.105 SA
ATOM     32  H   UNL     1      42.311 132.185  16.338  1.00  0.00     0.111 HD
ENDBRANCH  23  31
ENDBRANCH   6  23
TORSDOF 7
ENDMDL
MODEL 2
REMARK VINA RESULT:      -6.0      0.811      1.237
REMARK SMILES [H]/N=c1\c([NH2+]c2ccc3c(c2)n[nH+]n3C)cccn1/C(S)=N\c1ccccc1
REMARK SMILES IDX 3 1 4 2 16 3 17 4 18 5 19 6 2 7 1 8 5 9 6 12 7 13 11 14 8 15
REMARK SMILES IDX 10 16 9 17 12 18 14 19 13 20 15 21 20 23 22 24 23 25 24 26
REMARK SMILES IDX 28 27 25 28 27 29 26 30 21 31
REMARK H PARENT 5 10 5 11 13 22 21 32
ROOT
ATOM      1  C   UNL     1      45.058 130.502  19.081  1.00  0.00     0.194 A 
ATOM      2  C   UNL     1      44.702 130.918  20.395  1.00  0.00     0.177 A 
ATOM      3  C   UNL     1      43.653 131.840  20.540  1.00  0.00     0.074 A 
ATOM      4  C   UNL     1      42.993 132.341  19.425  1.00  0.00     0.025 A 
ATOM      5  C   UNL     1      43.403 131.953  18.155  1.00  0.00     0.096 A 
ATOM      6  N   UNL     1      44.437 131.076  17.995  1.00  0.00    -0.276 N 
ENDROOT
BRANCH   1   7
ATOM      7  N   UNL     1      45.953 129.578  18.883  1.00  0.00    -0.279 NA
ATOM      8  H   UNL     1      46.884 129.721  18.442  1.00  0.00     0.190 HD
ENDBRANCH   1   7
BRANCH   2   9
ATOM      9  N   UNL     1      45.442 130.505  21.570  1.00  0.00    -0.278 N 
ATOM     10  H   UNL     1      45.676 131.330  22.167  1.00  0.00     0.358 HD
ATOM     11  H   UNL     1      46.362 130.087  21.296  1.00  0.00     0.358 HD
BRANCH   9  12
ATOM     12  C   UNL     1      44.696 129.506  22.300  1.00  0.00     0.137 A 
ATOM     13  C   UNL     1      45.200 128.176  22.411  1.00  0.00     0.071 A 
ATOM     14  C   UNL     1      43.456 129.832  22.907  1.00  0.00     0.105 A 
ATOM     15  C   UNL     1      44.473 127.180  23.089  1.00  0.00     0.041 A 
ATOM     16  C   UNL     1      42.769 128.819  23.565  1.00  0.00     0.168 A 
ATOM     17  C   UNL     1      43.257 127.551  23.652  1.00  0.00     0.133 A 
ATOM     18  N   UNL     1      41.567 128.872  24.169  1.00  0.00     0.025 NA
ATOM     19  N   UNL     1      42.354 126.819  24.322  1.00  0.00    -0.132 N 
ATOM     20  N   UNL     1      41.347 127.636  24.614  1.00  0.00    -0.016 N 
ATOM     21  C   UNL     1      42.390 125.389  24.603  1.00  0.00     0.226 C 
ATOM     22  H   UNL     1      40.479 127.348  25.118  1.00  0.00     0.526 HD
ENDBRANCH   9  12
ENDBRANCH   2   9
BRANCH   6  23
ATOM     23  C   UNL     1      44.850 130.763  16.648  1.00  0.00     0.171 C 
BRANCH  23  24
ATOM     24  N   UNL     1      45.843 131.379  16.067  1.00  0.00    -0.225 NA
BRANCH  24  25
ATOM     25  C   UNL     1      46.678 130.864  15.017  1.00  0.00     0.066 A 
ATOM     26  C   UNL     1      47.287 129.597  15.107  1.00  0.00     0.028 A 
ATOM     27  C   UNL     1      46.936 131.669  13.901  1.00  0.00     0.028 A 
ATOM     28  C   UNL     1      48.101 129.133  14.069  1.00  0.00     0.002 A 
ATOM     29  C   UNL     1      47.749 131.202  12.863  1.00  0.00     0.002 A 
ATOM     30  C   UNL     1      48.329 129.934  12.947  1.00  0.00     0.000 A 
ENDBRANCH  24  25
ENDBRANCH  23  24
BRANCH  23  31
ATOM     31  S   UNL     1      44.034 129.436  15.767  1.00  0.00    -0.105 SA
ATOM     32  H   UNL     1      45.135 129.261  14.909  1.00  0.00     0.111 HD
ENDBRANCH  23  31
ENDBRANCH   6  23
TORSDOF 7
ENDMDL


