REMARK SMILES C=C[C@@H](C)[NH2+]C(=S)Oc1c(N)cccc1Nc1ccc(C)c(F)c1
REMARK SMILES IDX 6 1 7 2 5 3 3 6 4 7 2 8 1 9 8 10 9 11 10 12 15 13 12 14
REMARK SMILES IDX 14 15 13 16 11 17 16 20 17 22 18 23 24 24 19 25 22 26 20 27
REMARK SMILES IDX 23 28 21 29
REMARK H PARENT 5 4 5 5 11 18 11 19 16 21
ROOT
ATOM      1  C   UNL     1      -0.609  -0.823  -1.811  1.00  0.00     0.365 C 
ATOM      2  S   UNL     1      -1.758  -0.678  -2.984  1.00  0.00     0.027 S 
ENDROOT
BRANCH   1   3
ATOM      3  N   UNL     1      -0.070  -2.118  -1.492  1.00  0.00    -0.266 N 
ATOM      4  H   UNL     1       0.846  -1.987  -1.004  1.00  0.00     0.356 HD
ATOM      5  H   UNL     1       0.114  -2.630  -2.387  1.00  0.00     0.356 HD
BRANCH   3   6
ATOM      6  C   UNL     1      -0.994  -2.905  -0.648  1.00  0.00     0.210 C 
ATOM      7  C   UNL     1      -1.197  -2.269   0.737  1.00  0.00     0.080 C 
BRANCH   6   8
ATOM      8  C   UNL     1      -0.502  -4.330  -0.508  1.00  0.00     0.029 C 
ATOM      9  C   UNL     1       0.670  -4.639   0.059  1.00  0.00     0.010 C 
ENDBRANCH   6   8
ENDBRANCH   3   6
ENDBRANCH   1   3
BRANCH   1  10
ATOM     10  O   UNL     1      -0.172   0.292  -1.078  1.00  0.00    -0.400 OA
BRANCH  10  11
ATOM     11  C   UNL     1      -0.383   1.627  -1.453  1.00  0.00     0.180 A 
ATOM     12  C   UNL     1       0.086   2.121  -2.693  1.00  0.00     0.077 A 
ATOM     13  C   UNL     1      -1.067   2.491  -0.572  1.00  0.00     0.084 A 
ATOM     14  C   UNL     1      -0.219   3.435  -3.074  1.00  0.00     0.029 A 
ATOM     15  C   UNL     1      -1.376   3.795  -0.983  1.00  0.00     0.030 A 
ATOM     16  C   UNL     1      -0.957   4.262  -2.228  1.00  0.00     0.005 A 
BRANCH  12  17
ATOM     17  N   UNL     1       0.907   1.317  -3.550  1.00  0.00    -0.396 N 
ATOM     18  H   UNL     1       1.294   0.401  -3.235  1.00  0.00     0.156 HD
ATOM     19  H   UNL     1       1.199   1.670  -4.489  1.00  0.00     0.156 HD
ENDBRANCH  12  17
BRANCH  13  20
ATOM     20  N   UNL     1      -1.528   2.042   0.714  1.00  0.00    -0.352 N 
ATOM     21  H   UNL     1      -2.486   2.339   1.012  1.00  0.00     0.167 HD
BRANCH  20  22
ATOM     22  C   UNL     1      -0.725   1.313   1.660  1.00  0.00     0.041 A 
ATOM     23  C   UNL     1       0.680   1.317   1.593  1.00  0.00     0.026 A 
ATOM     24  C   UNL     1      -1.355   0.620   2.704  1.00  0.00     0.065 A 
ATOM     25  C   UNL     1       1.434   0.593   2.521  1.00  0.00     0.008 A 
ATOM     26  C   UNL     1      -0.602  -0.104   3.634  1.00  0.00     0.128 A 
ATOM     27  C   UNL     1       0.798  -0.138   3.536  1.00  0.00    -0.015 A 
ATOM     28  F   UNL     1      -1.240  -0.777   4.626  1.00  0.00    -0.207 F 
ATOM     29  C   UNL     1       1.608  -0.903   4.542  1.00  0.00     0.047 C 
ENDBRANCH  20  22
ENDBRANCH  13  20
ENDBRANCH  10  11
ENDBRANCH   1  10
TORSDOF 8


