REMARK SMILES C=Cc1cccc([C@H]2C=C[C@@H]3C(=C2)C(=O)NC[C@@H]3/N=c2\[n-]cc(F)cc2N)c1
REMARK SMILES IDX 8 1 9 2 10 3 11 4 12 5 13 6 14 7 15 8 16 9 17 11 18 12 7 13
REMARK SMILES IDX 3 14 4 15 28 16 5 17 6 18 2 19 1 20 19 21 20 22 21 23 26 24
REMARK SMILES IDX 22 25 25 26 23 27 24 28 27 29
REMARK H PARENT 16 10 27 30 27 31
ROOT
ATOM      1  C   UNL     1       2.867  -0.080   0.332  1.00  0.00     0.065 C 
ATOM      2  C   UNL     1       2.358   1.150  -0.383  1.00  0.00    -0.018 C 
ATOM      3  C   UNL     1       1.450   1.968   0.163  1.00  0.00    -0.022 C 
ATOM      4  C   UNL     1       0.901   1.738   1.553  1.00  0.00     0.051 C 
ATOM      5  C   UNL     1       1.053   0.300   2.017  1.00  0.00     0.021 C 
ATOM      6  C   UNL     1       1.970  -0.513   1.468  1.00  0.00    -0.005 C 
ATOM      7  C   UNL     1       0.181  -0.168   3.119  1.00  0.00     0.247 C 
ATOM      8  O   UNL     1       0.366  -1.294   3.656  1.00  0.00    -0.270 OA
ATOM      9  N   UNL     1      -0.909   0.651   3.557  1.00  0.00    -0.352 N 
ATOM     10  H   UNL     1      -1.526   0.306   4.327  1.00  0.00     0.163 HD
ATOM     11  C   UNL     1      -1.094   2.019   3.072  1.00  0.00     0.119 C 
ATOM     12  C   UNL     1      -0.578   2.175   1.628  1.00  0.00     0.021 C 
ENDROOT
BRANCH   1  13
ATOM     13  C   UNL     1       3.014  -1.216  -0.657  1.00  0.00    -0.037 A 
ATOM     14  C   UNL     1       2.022  -2.757  -2.282  1.00  0.00    -0.026 A 
ATOM     15  C   UNL     1       3.283  -3.345  -2.467  1.00  0.00     0.008 A 
ATOM     16  C   UNL     1       1.893  -1.698  -1.362  1.00  0.00     0.012 A 
ATOM     17  C   UNL     1       4.397  -2.872  -1.770  1.00  0.00     0.001 A 
ATOM     18  C   UNL     1       4.266  -1.812  -0.872  1.00  0.00     0.005 A 
BRANCH  14  19
ATOM     19  C   UNL     1       0.867  -3.299  -3.039  1.00  0.00     0.000 C 
ATOM     20  C   UNL     1      -0.272  -2.635  -3.241  1.00  0.00     0.009 C 
ENDBRANCH  14  19
ENDBRANCH   1  13
BRANCH  12  21
ATOM     21  N   UNL     1      -1.379   1.363   0.706  1.00  0.00    -0.458 NA
BRANCH  21  22
ATOM     22  C   UNL     1      -2.568   1.660   0.271  1.00  0.00    -0.038 A 
ATOM     23  N   UNL     1      -3.176   2.820   0.653  1.00  0.00    -0.439 NA
ATOM     24  C   UNL     1      -3.233   0.784  -0.611  1.00  0.00     0.033 A 
ATOM     25  C   UNL     1      -4.415   3.165   0.214  1.00  0.00     0.018 A 
ATOM     26  C   UNL     1      -4.511   1.130  -1.071  1.00  0.00     0.064 A 
ATOM     27  C   UNL     1      -5.106   2.323  -0.658  1.00  0.00     0.121 A 
ATOM     28  F   UNL     1      -6.342   2.661  -1.100  1.00  0.00    -0.207 F 
BRANCH  24  29
ATOM     29  N   UNL     1      -2.630  -0.443  -1.039  1.00  0.00    -0.399 N 
ATOM     30  H   UNL     1      -1.685  -0.734  -0.704  1.00  0.00     0.156 HD
ATOM     31  H   UNL     1      -3.130  -1.079  -1.700  1.00  0.00     0.156 HD
ENDBRANCH  24  29
ENDBRANCH  21  22
ENDBRANCH  12  21
TORSDOF 5


