MODEL 1
REMARK VINA RESULT:      -5.9      0.000      0.000
REMARK SMILES C=C/C(C)=C(\O)N1C[C@H](c2ccc3c(C)n[nH]c3c2)[C@H](C)C[C@@H]1F
REMARK SMILES IDX 5 1 6 2 3 4 4 5 2 6 1 7 7 8 8 9 23 10 9 11 22 12 20 13 24 14
REMARK SMILES IDX 21 15 10 16 11 17 19 18 12 19 18 20 13 21 17 22 14 23 16 24
REMARK SMILES IDX 15 26
REMARK H PARENT 6 3 17 25
ROOT
ATOM      1  C   UNL     1      44.755 131.926  20.626  1.00  0.00     0.192 C 
ENDROOT
BRANCH   1   2
ATOM      2  O   UNL     1      45.833 132.810  20.665  1.00  0.00    -0.494 OA
ATOM      3  H   UNL     1      46.330 132.994  21.528  1.00  0.00     0.295 HD
ENDBRANCH   1   2
BRANCH   1   4
ATOM      4  C   UNL     1      44.091 131.717  19.470  1.00  0.00     0.008 C 
ATOM      5  C   UNL     1      42.602 131.968  19.382  1.00  0.00     0.050 C 
BRANCH   4   6
ATOM      6  C   UNL     1      44.839 131.262  18.267  1.00  0.00     0.001 C 
ATOM      7  C   UNL     1      44.434 131.501  17.019  1.00  0.00     0.009 C 
ENDBRANCH   4   6
ENDBRANCH   1   4
BRANCH   1   8
ATOM      8  N   UNL     1      44.365 131.256  21.836  1.00  0.00    -0.312 N 
ATOM      9  C   UNL     1      44.183 129.801  21.816  1.00  0.00     0.131 C 
ATOM     10  C   UNL     1      43.733 132.033  22.908  1.00  0.00     0.265 C 
ATOM     11  C   UNL     1      44.591 129.208  23.178  1.00  0.00     0.042 C 
ATOM     12  C   UNL     1      44.083 131.439  24.282  1.00  0.00     0.064 C 
ATOM     13  C   UNL     1      43.863 129.910  24.357  1.00  0.00    -0.000 C 
ATOM     14  F   UNL     1      42.361 132.056  22.728  1.00  0.00    -0.224 F 
ATOM     15  C   UNL     1      42.368 129.556  24.467  1.00  0.00     0.008 C 
BRANCH  11  16
ATOM     16  C   UNL     1      44.479 127.691  23.239  1.00  0.00    -0.041 A 
ATOM     17  C   UNL     1      45.473 126.901  22.595  1.00  0.00     0.005 A 
ATOM     18  C   UNL     1      43.446 127.044  23.966  1.00  0.00     0.032 A 
ATOM     19  C   UNL     1      45.430 125.496  22.646  1.00  0.00     0.012 A 
ATOM     20  C   UNL     1      43.438 125.653  23.993  1.00  0.00     0.066 A 
ATOM     21  C   UNL     1      44.387 124.911  23.356  1.00  0.00     0.023 A 
ATOM     22  N   UNL     1      42.575 124.837  24.620  1.00  0.00    -0.278 N 
ATOM     23  C   UNL     1      44.054 123.598  23.621  1.00  0.00     0.067 A 
ATOM     24  N   UNL     1      42.947 123.580  24.402  1.00  0.00    -0.180 NA
ATOM     25  H   UNL     1      41.750 125.120  25.194  1.00  0.00     0.190 HD
ATOM     26  C   UNL     1      44.806 122.381  23.195  1.00  0.00     0.069 C 
ENDBRANCH  11  16
ENDBRANCH   1   8
TORSDOF 5
ENDMDL
MODEL 2
REMARK VINA RESULT:      -5.5      3.860      6.413
REMARK SMILES C=C/C(C)=C(\O)N1C[C@H](c2ccc3c(C)n[nH]c3c2)[C@H](C)C[C@@H]1F
REMARK SMILES IDX 5 1 6 2 3 4 4 5 2 6 1 7 7 8 8 9 23 10 9 11 22 12 20 13 24 14
REMARK SMILES IDX 21 15 10 16 11 17 19 18 12 19 18 20 13 21 17 22 14 23 16 24
REMARK SMILES IDX 15 26
REMARK H PARENT 6 3 17 25
ROOT
ATOM      1  C   UNL     1      46.507 129.272  15.005  1.00  0.00     0.192 C 
ENDROOT
BRANCH   1   2
ATOM      2  O   UNL     1      46.234 127.910  15.139  1.00  0.00    -0.494 OA
ATOM      3  H   UNL     1      46.932 127.269  15.497  1.00  0.00     0.295 HD
ENDBRANCH   1   2
BRANCH   1   4
ATOM      4  C   UNL     1      47.388 129.697  14.074  1.00  0.00     0.008 C 
ATOM      5  C   UNL     1      48.654 128.917  13.800  1.00  0.00     0.050 C 
BRANCH   4   6
ATOM      6  C   UNL     1      47.093 130.930  13.295  1.00  0.00     0.001 C 
ATOM      7  C   UNL     1      48.008 131.573  12.570  1.00  0.00     0.009 C 
ENDBRANCH   4   6
ENDBRANCH   1   4
BRANCH   1   8
ATOM      8  N   UNL     1      45.844 130.201  15.877  1.00  0.00    -0.312 N 
ATOM      9  C   UNL     1      45.454 129.762  17.220  1.00  0.00     0.131 C 
ATOM     10  C   UNL     1      45.178 131.372  15.294  1.00  0.00     0.265 C 
ATOM     11  C   UNL     1      45.558 130.943  18.203  1.00  0.00     0.042 C 
ATOM     12  C   UNL     1      45.225 132.558  16.271  1.00  0.00     0.064 C 
ATOM     13  C   UNL     1      44.772 132.185  17.702  1.00  0.00    -0.000 C 
ATOM     14  F   UNL     1      43.869 131.060  14.976  1.00  0.00    -0.224 F 
ATOM     15  C   UNL     1      43.242 132.033  17.793  1.00  0.00     0.008 C 
BRANCH  11  16
ATOM     16  C   UNL     1      45.216 130.571  19.639  1.00  0.00    -0.041 A 
ATOM     17  C   UNL     1      45.835 129.429  20.221  1.00  0.00     0.005 A 
ATOM     18  C   UNL     1      44.342 131.362  20.430  1.00  0.00     0.032 A 
ATOM     19  C   UNL     1      45.573 129.060  21.553  1.00  0.00     0.012 A 
ATOM     20  C   UNL     1      44.109 130.964  21.743  1.00  0.00     0.066 A 
ATOM     21  C   UNL     1      44.696 129.858  22.280  1.00  0.00     0.023 A 
ATOM     22  N   UNL     1      43.338 131.559  22.669  1.00  0.00    -0.278 N 
ATOM     23  C   UNL     1      44.238 129.804  23.580  1.00  0.00     0.067 A 
ATOM     24  N   UNL     1      43.416 130.859  23.795  1.00  0.00    -0.180 NA
ATOM     25  H   UNL     1      42.773 132.429  22.549  1.00  0.00     0.190 HD
ATOM     26  C   UNL     1      44.619 128.805  24.623  1.00  0.00     0.069 C 
ENDBRANCH  11  16
ENDBRANCH   1   8
TORSDOF 5
ENDMDL
MODEL 3
REMARK VINA RESULT:      -5.2      2.805      7.011
REMARK SMILES C=C/C(C)=C(\O)N1C[C@H](c2ccc3c(C)n[nH]c3c2)[C@H](C)C[C@@H]1F
REMARK SMILES IDX 5 1 6 2 3 4 4 5 2 6 1 7 7 8 8 9 23 10 9 11 22 12 20 13 24 14
REMARK SMILES IDX 21 15 10 16 11 17 19 18 12 19 18 20 13 21 17 22 14 23 16 24
REMARK SMILES IDX 15 26
REMARK H PARENT 6 3 17 25
ROOT
ATOM      1  C   UNL     1      42.206 128.630  23.709  1.00  0.00     0.192 C 
ENDROOT
BRANCH   1   2
ATOM      2  O   UNL     1      40.885 128.797  24.125  1.00  0.00    -0.494 OA
ATOM      3  H   UNL     1      40.356 128.026  24.516  1.00  0.00     0.295 HD
ENDBRANCH   1   2
BRANCH   1   4
ATOM      4  C   UNL     1      42.784 127.412  23.765  1.00  0.00     0.008 C 
ATOM      5  C   UNL     1      42.039 126.184  23.292  1.00  0.00     0.050 C 
BRANCH   4   6
ATOM      6  C   UNL     1      44.178 127.285  24.272  1.00  0.00     0.001 C 
ATOM      7  C   UNL     1      45.130 126.607  23.630  1.00  0.00     0.009 C 
ENDBRANCH   4   6
ENDBRANCH   1   4
BRANCH   1   8
ATOM      8  N   UNL     1      42.933 129.775  23.233  1.00  0.00    -0.312 N 
ATOM      9  C   UNL     1      43.534 129.728  21.897  1.00  0.00     0.131 C 
ATOM     10  C   UNL     1      43.440 130.750  24.204  1.00  0.00     0.265 C 
ATOM     11  C   UNL     1      43.504 131.134  21.265  1.00  0.00     0.042 C 
ATOM     12  C   UNL     1      43.466 132.158  23.589  1.00  0.00     0.064 C 
ATOM     13  C   UNL     1      44.138 132.202  22.197  1.00  0.00    -0.000 C 
ATOM     14  F   UNL     1      44.707 130.383  24.623  1.00  0.00    -0.224 F 
ATOM     15  C   UNL     1      45.672 132.105  22.303  1.00  0.00     0.008 C 
BRANCH  11  16
ATOM     16  C   UNL     1      44.068 131.177  19.852  1.00  0.00    -0.041 A 
ATOM     17  C   UNL     1      45.367 130.646  19.612  1.00  0.00     0.005 A 
ATOM     18  C   UNL     1      43.315 131.681  18.759  1.00  0.00     0.032 A 
ATOM     19  C   UNL     1      45.921 130.637  18.319  1.00  0.00     0.012 A 
ATOM     20  C   UNL     1      43.898 131.654  17.496  1.00  0.00     0.066 A 
ATOM     21  C   UNL     1      45.149 131.158  17.286  1.00  0.00     0.023 A 
ATOM     22  N   UNL     1      43.373 132.061  16.328  1.00  0.00    -0.278 N 
ATOM     23  C   UNL     1      45.365 131.290  15.929  1.00  0.00     0.067 A 
ATOM     24  N   UNL     1      44.261 131.837  15.366  1.00  0.00    -0.180 NA
ATOM     25  H   UNL     1      42.427 132.477  16.177  1.00  0.00     0.190 HD
ATOM     26  C   UNL     1      46.570 130.848  15.168  1.00  0.00     0.069 C 
ENDBRANCH  11  16
ENDBRANCH   1   8
TORSDOF 5
ENDMDL
MODEL 4
REMARK VINA RESULT:      -5.2      2.788      7.310
REMARK SMILES C=C/C(C)=C(\O)N1C[C@H](c2ccc3c(C)n[nH]c3c2)[C@H](C)C[C@@H]1F
REMARK SMILES IDX 5 1 6 2 3 4 4 5 2 6 1 7 7 8 8 9 23 10 9 11 22 12 20 13 24 14
REMARK SMILES IDX 21 15 10 16 11 17 19 18 12 19 18 20 13 21 17 22 14 23 16 24
REMARK SMILES IDX 15 26
REMARK H PARENT 6 3 17 25
ROOT
ATOM      1  C   UNL     1      44.493 128.615  23.317  1.00  0.00     0.192 C 
ENDROOT
BRANCH   1   2
ATOM      2  O   UNL     1      45.531 128.579  24.247  1.00  0.00    -0.494 OA
ATOM      3  H   UNL     1      46.141 129.376  24.384  1.00  0.00     0.295 HD
ENDBRANCH   1   2
BRANCH   1   4
ATOM      4  C   UNL     1      43.693 127.540  23.152  1.00  0.00     0.008 C 
ATOM      5  C   UNL     1      44.231 126.271  22.529  1.00  0.00     0.050 C 
BRANCH   4   6
ATOM      6  C   UNL     1      42.280 127.600  23.613  1.00  0.00     0.001 C 
ATOM      7  C   UNL     1      41.809 126.869  24.624  1.00  0.00     0.009 C 
ENDBRANCH   4   6
ENDBRANCH   1   4
BRANCH   1   8
ATOM      8  N   UNL     1      44.300 129.808  22.539  1.00  0.00    -0.312 N 
ATOM      9  C   UNL     1      44.926 129.903  21.217  1.00  0.00     0.131 C 
ATOM     10  C   UNL     1      43.892 131.042  23.219  1.00  0.00     0.265 C 
ATOM     11  C   UNL     1      44.026 130.724  20.274  1.00  0.00     0.042 C 
ATOM     12  C   UNL     1      43.028 131.908  22.288  1.00  0.00     0.064 C 
ATOM     13  C   UNL     1      43.651 132.102  20.886  1.00  0.00    -0.000 C 
ATOM     14  F   UNL     1      45.010 131.745  23.632  1.00  0.00    -0.224 F 
ATOM     15  C   UNL     1      44.817 133.109  20.916  1.00  0.00     0.008 C 
BRANCH  11  16
ATOM     16  C   UNL     1      44.572 130.839  18.858  1.00  0.00    -0.041 A 
ATOM     17  C   UNL     1      45.852 130.287  18.567  1.00  0.00     0.005 A 
ATOM     18  C   UNL     1      43.820 131.430  17.810  1.00  0.00     0.032 A 
ATOM     19  C   UNL     1      46.388 130.343  17.268  1.00  0.00     0.012 A 
ATOM     20  C   UNL     1      44.385 131.466  16.539  1.00  0.00     0.066 A 
ATOM     21  C   UNL     1      45.619 130.948  16.280  1.00  0.00     0.023 A 
ATOM     22  N   UNL     1      43.857 131.959  15.406  1.00  0.00    -0.278 N 
ATOM     23  C   UNL     1      45.820 131.157  14.931  1.00  0.00     0.067 A 
ATOM     24  N   UNL     1      44.726 131.769  14.419  1.00  0.00    -0.180 NA
ATOM     25  H   UNL     1      42.923 132.410  15.295  1.00  0.00     0.190 HD
ATOM     26  C   UNL     1      47.002 130.729  14.126  1.00  0.00     0.069 C 
ENDBRANCH  11  16
ENDBRANCH   1   8
TORSDOF 5
ENDMDL
MODEL 5
REMARK VINA RESULT:      -5.1      2.830      7.296
REMARK SMILES C=C/C(C)=C(\O)N1C[C@H](c2ccc3c(C)n[nH]c3c2)[C@H](C)C[C@@H]1F
REMARK SMILES IDX 5 1 6 2 3 4 4 5 2 6 1 7 7 8 8 9 23 10 9 11 22 12 20 13 24 14
REMARK SMILES IDX 21 15 10 16 11 17 19 18 12 19 18 20 13 21 17 22 14 23 16 24
REMARK SMILES IDX 15 26
REMARK H PARENT 6 3 17 25
ROOT
ATOM      1  C   UNL     1      44.861 128.905  23.160  1.00  0.00     0.192 C 
ENDROOT
BRANCH   1   2
ATOM      2  O   UNL     1      45.014 129.151  24.524  1.00  0.00    -0.494 OA
ATOM      3  H   UNL     1      44.532 129.919  24.976  1.00  0.00     0.295 HD
ENDBRANCH   1   2
BRANCH   1   4
ATOM      4  C   UNL     1      44.952 127.646  22.684  1.00  0.00     0.008 C 
ATOM      5  C   UNL     1      46.235 127.153  22.053  1.00  0.00     0.050 C 
BRANCH   4   6
ATOM      6  C   UNL     1      43.787 126.729  22.808  1.00  0.00     0.001 C 
ATOM      7  C   UNL     1      43.160 126.496  23.962  1.00  0.00     0.009 C 
ENDBRANCH   4   6
ENDBRANCH   1   4
BRANCH   1   8
ATOM      8  N   UNL     1      44.615 130.014  22.279  1.00  0.00    -0.312 N 
ATOM      9  C   UNL     1      45.192 129.992  20.932  1.00  0.00     0.131 C 
ATOM     10  C   UNL     1      44.205 131.301  22.852  1.00  0.00     0.265 C 
ATOM     11  C   UNL     1      44.242 130.703  19.948  1.00  0.00     0.042 C 
ATOM     12  C   UNL     1      43.290 132.057  21.875  1.00  0.00     0.064 C 
ATOM     13  C   UNL     1      43.859 132.126  20.439  1.00  0.00    -0.000 C 
ATOM     14  F   UNL     1      45.321 132.060  23.155  1.00  0.00    -0.224 F 
ATOM     15  C   UNL     1      45.003 133.152  20.329  1.00  0.00     0.008 C 
BRANCH  11  16
ATOM     16  C   UNL     1      44.736 130.691  18.509  1.00  0.00    -0.041 A 
ATOM     17  C   UNL     1      44.012 131.424  17.526  1.00  0.00     0.005 A 
ATOM     18  C   UNL     1      45.926 130.017  18.130  1.00  0.00     0.032 A 
ATOM     19  C   UNL     1      44.444 131.468  16.188  1.00  0.00     0.012 A 
ATOM     20  C   UNL     1      46.320 130.084  16.797  1.00  0.00     0.066 A 
ATOM     21  C   UNL     1      45.607 130.776  15.866  1.00  0.00     0.023 A 
ATOM     22  N   UNL     1      47.405 129.540  16.221  1.00  0.00    -0.278 N 
ATOM     23  C   UNL     1      46.309 130.621  14.688  1.00  0.00     0.067 A 
ATOM     24  N   UNL     1      47.408 129.868  14.934  1.00  0.00    -0.180 NA
ATOM     25  H   UNL     1      48.139 128.963  16.688  1.00  0.00     0.190 HD
ATOM     26  C   UNL     1      45.980 131.226  13.363  1.00  0.00     0.069 C 
ENDBRANCH  11  16
ENDBRANCH   1   8
TORSDOF 5
ENDMDL
MODEL 6
REMARK VINA RESULT:      -5.1      3.810      6.447
REMARK SMILES C=C/C(C)=C(\O)N1C[C@H](c2ccc3c(C)n[nH]c3c2)[C@H](C)C[C@@H]1F
REMARK SMILES IDX 5 1 6 2 3 4 4 5 2 6 1 7 7 8 8 9 23 10 9 11 22 12 20 13 24 14
REMARK SMILES IDX 21 15 10 16 11 17 19 18 12 19 18 20 13 21 17 22 14 23 16 24
REMARK SMILES IDX 15 26
REMARK H PARENT 6 3 17 25
ROOT
ATOM      1  C   UNL     1      46.822 129.268  14.932  1.00  0.00     0.192 C 
ENDROOT
BRANCH   1   2
ATOM      2  O   UNL     1      46.664 127.893  15.104  1.00  0.00    -0.494 OA
ATOM      3  H   UNL     1      46.335 127.509  15.983  1.00  0.00     0.295 HD
ENDBRANCH   1   2
BRANCH   1   4
ATOM      4  C   UNL     1      47.675 129.740  13.998  1.00  0.00     0.008 C 
ATOM      5  C   UNL     1      48.904 128.948  13.611  1.00  0.00     0.050 C 
BRANCH   4   6
ATOM      6  C   UNL     1      47.385 131.036  13.328  1.00  0.00     0.001 C 
ATOM      7  C   UNL     1      48.228 131.624  12.478  1.00  0.00     0.009 C 
ENDBRANCH   4   6
ENDBRANCH   1   4
BRANCH   1   8
ATOM      8  N   UNL     1      46.069 130.163  15.767  1.00  0.00    -0.312 N 
ATOM      9  C   UNL     1      45.695 129.729  17.117  1.00  0.00     0.131 C 
ATOM     10  C   UNL     1      45.319 131.258  15.143  1.00  0.00     0.265 C 
ATOM     11  C   UNL     1      45.686 130.941  18.068  1.00  0.00     0.042 C 
ATOM     12  C   UNL     1      45.252 132.470  16.086  1.00  0.00     0.064 C 
ATOM     13  C   UNL     1      44.808 132.100  17.521  1.00  0.00    -0.000 C 
ATOM     14  F   UNL     1      44.045 130.830  14.815  1.00  0.00    -0.224 F 
ATOM     15  C   UNL     1      43.295 131.824  17.595  1.00  0.00     0.008 C 
BRANCH  11  16
ATOM     16  C   UNL     1      45.353 130.581  19.509  1.00  0.00    -0.041 A 
ATOM     17  C   UNL     1      44.748 131.565  20.342  1.00  0.00     0.005 A 
ATOM     18  C   UNL     1      45.575 129.279  20.027  1.00  0.00     0.032 A 
ATOM     19  C   UNL     1      44.395 131.272  21.672  1.00  0.00     0.012 A 
ATOM     20  C   UNL     1      45.212 129.029  21.347  1.00  0.00     0.066 A 
ATOM     21  C   UNL     1      44.650 129.986  22.137  1.00  0.00     0.023 A 
ATOM     22  N   UNL     1      45.317 127.881  22.037  1.00  0.00    -0.278 N 
ATOM     23  C   UNL     1      44.423 129.366  23.348  1.00  0.00     0.067 A 
ATOM     24  N   UNL     1      44.832 128.077  23.258  1.00  0.00    -0.180 NA
ATOM     25  H   UNL     1      45.701 126.975  21.690  1.00  0.00     0.190 HD
ATOM     26  C   UNL     1      43.773 129.962  24.552  1.00  0.00     0.069 C 
ENDBRANCH  11  16
ENDBRANCH   1   8
TORSDOF 5
ENDMDL
MODEL 7
REMARK VINA RESULT:      -4.8      3.418      7.919
REMARK SMILES C=C/C(C)=C(\O)N1C[C@H](c2ccc3c(C)n[nH]c3c2)[C@H](C)C[C@@H]1F
REMARK SMILES IDX 5 1 6 2 3 4 4 5 2 6 1 7 7 8 8 9 23 10 9 11 22 12 20 13 24 14
REMARK SMILES IDX 21 15 10 16 11 17 19 18 12 19 18 20 13 21 17 22 14 23 16 24
REMARK SMILES IDX 15 26
REMARK H PARENT 6 3 17 25
ROOT
ATOM      1  C   UNL     1      44.343 130.974  21.857  1.00  0.00     0.192 C 
ENDROOT
BRANCH   1   2
ATOM      2  O   UNL     1      45.192 131.930  22.414  1.00  0.00    -0.494 OA
ATOM      3  H   UNL     1      46.015 132.254  21.919  1.00  0.00     0.295 HD
ENDBRANCH   1   2
BRANCH   1   4
ATOM      4  C   UNL     1      44.037 129.855  22.546  1.00  0.00     0.008 C 
ATOM      5  C   UNL     1      44.980 128.672  22.551  1.00  0.00     0.050 C 
BRANCH   4   6
ATOM      6  C   UNL     1      42.773 129.799  23.330  1.00  0.00     0.001 C 
ATOM      7  C   UNL     1      42.728 129.470  24.622  1.00  0.00     0.009 C 
ENDBRANCH   4   6
ENDBRANCH   1   4
BRANCH   1   8
ATOM      8  N   UNL     1      43.814 131.201  20.540  1.00  0.00    -0.312 N 
ATOM      9  C   UNL     1      44.741 131.307  19.410  1.00  0.00     0.131 C 
ATOM     10  C   UNL     1      42.464 131.758  20.402  1.00  0.00     0.265 C 
ATOM     11  C   UNL     1      44.083 130.729  18.142  1.00  0.00     0.042 C 
ATOM     12  C   UNL     1      41.795 131.236  19.121  1.00  0.00     0.064 C 
ATOM     13  C   UNL     1      42.693 131.367  17.869  1.00  0.00    -0.000 C 
ATOM     14  F   UNL     1      42.523 133.140  20.387  1.00  0.00    -0.224 F 
ATOM     15  C   UNL     1      42.762 132.821  17.368  1.00  0.00     0.008 C 
BRANCH  11  16
ATOM     16  C   UNL     1      44.991 130.754  16.920  1.00  0.00    -0.041 A 
ATOM     17  C   UNL     1      45.339 132.010  16.346  1.00  0.00     0.005 A 
ATOM     18  C   UNL     1      45.544 129.568  16.373  1.00  0.00     0.032 A 
ATOM     19  C   UNL     1      46.197 132.088  15.235  1.00  0.00     0.012 A 
ATOM     20  C   UNL     1      46.389 129.686  15.273  1.00  0.00     0.066 A 
ATOM     21  C   UNL     1      46.698 130.894  14.725  1.00  0.00     0.023 A 
ATOM     22  N   UNL     1      47.030 128.712  14.606  1.00  0.00    -0.278 N 
ATOM     23  C   UNL     1      47.556 130.607  13.683  1.00  0.00     0.067 A 
ATOM     24  N   UNL     1      47.748 129.267  13.636  1.00  0.00    -0.180 NA
ATOM     25  H   UNL     1      46.991 127.688  14.804  1.00  0.00     0.190 HD
ATOM     26  C   UNL     1      48.232 131.588  12.784  1.00  0.00     0.069 C 
ENDBRANCH  11  16
ENDBRANCH   1   8
TORSDOF 5
ENDMDL
MODEL 8
REMARK VINA RESULT:      -4.7      3.515      7.474
REMARK SMILES C=C/C(C)=C(\O)N1C[C@H](c2ccc3c(C)n[nH]c3c2)[C@H](C)C[C@@H]1F
REMARK SMILES IDX 5 1 6 2 3 4 4 5 2 6 1 7 7 8 8 9 23 10 9 11 22 12 20 13 24 14
REMARK SMILES IDX 21 15 10 16 11 17 19 18 12 19 18 20 13 21 17 22 14 23 16 24
REMARK SMILES IDX 15 26
REMARK H PARENT 6 3 17 25
ROOT
ATOM      1  C   UNL     1      43.232 123.232  23.354  1.00  0.00     0.192 C 
ENDROOT
BRANCH   1   2
ATOM      2  O   UNL     1      43.001 122.380  24.433  1.00  0.00    -0.494 OA
ATOM      3  H   UNL     1      42.170 122.472  25.005  1.00  0.00     0.295 HD
ENDBRANCH   1   2
BRANCH   1   4
ATOM      4  C   UNL     1      42.465 123.148  22.247  1.00  0.00     0.008 C 
ATOM      5  C   UNL     1      42.951 122.392  21.030  1.00  0.00     0.050 C 
BRANCH   4   6
ATOM      6  C   UNL     1      41.118 123.782  22.238  1.00  0.00     0.001 C 
ATOM      7  C   UNL     1      40.103 123.352  22.989  1.00  0.00     0.009 C 
ENDBRANCH   4   6
ENDBRANCH   1   4
BRANCH   1   8
ATOM      8  N   UNL     1      44.303 124.188  23.442  1.00  0.00    -0.312 N 
ATOM      9  C   UNL     1      44.189 125.452  22.708  1.00  0.00     0.131 C 
ATOM     10  C   UNL     1      45.632 123.730  23.862  1.00  0.00     0.265 C 
ATOM     11  C   UNL     1      44.883 126.576  23.502  1.00  0.00     0.042 C 
ATOM     12  C   UNL     1      46.370 124.846  24.618  1.00  0.00     0.064 C 
ATOM     13  C   UNL     1      46.343 126.204  23.877  1.00  0.00    -0.000 C 
ATOM     14  F   UNL     1      46.363 123.329  22.758  1.00  0.00    -0.224 F 
ATOM     15  C   UNL     1      47.318 126.220  22.685  1.00  0.00     0.008 C 
BRANCH  11  16
ATOM     16  C   UNL     1      44.777 127.942  22.838  1.00  0.00    -0.041 A 
ATOM     17  C   UNL     1      45.559 128.207  21.678  1.00  0.00     0.005 A 
ATOM     18  C   UNL     1      43.881 128.937  23.309  1.00  0.00     0.032 A 
ATOM     19  C   UNL     1      45.476 129.443  21.013  1.00  0.00     0.012 A 
ATOM     20  C   UNL     1      43.828 130.147  22.624  1.00  0.00     0.066 A 
ATOM     21  C   UNL     1      44.596 130.391  21.525  1.00  0.00     0.023 A 
ATOM     22  N   UNL     1      43.055 131.216  22.879  1.00  0.00    -0.278 N 
ATOM     23  C   UNL     1      44.257 131.668  21.127  1.00  0.00     0.067 A 
ATOM     24  N   UNL     1      43.308 132.147  21.966  1.00  0.00    -0.180 NA
ATOM     25  H   UNL     1      42.360 131.316  23.652  1.00  0.00     0.190 HD
ATOM     26  C   UNL     1      44.777 132.401  19.934  1.00  0.00     0.069 C 
ENDBRANCH  11  16
ENDBRANCH   1   8
TORSDOF 5
ENDMDL
MODEL 9
REMARK VINA RESULT:      -4.6      4.405      6.993
REMARK SMILES C=C/C(C)=C(\O)N1C[C@H](c2ccc3c(C)n[nH]c3c2)[C@H](C)C[C@@H]1F
REMARK SMILES IDX 5 1 6 2 3 4 4 5 2 6 1 7 7 8 8 9 23 10 9 11 22 12 20 13 24 14
REMARK SMILES IDX 21 15 10 16 11 17 19 18 12 19 18 20 13 21 17 22 14 23 16 24
REMARK SMILES IDX 15 26
REMARK H PARENT 6 3 17 25
ROOT
ATOM      1  C   UNL     1      47.386 129.892  15.333  1.00  0.00     0.192 C 
ENDROOT
BRANCH   1   2
ATOM      2  O   UNL     1      48.155 129.161  16.238  1.00  0.00    -0.494 OA
ATOM      3  H   UNL     1      49.051 128.771  15.970  1.00  0.00     0.295 HD
ENDBRANCH   1   2
BRANCH   1   4
ATOM      4  C   UNL     1      47.787 130.018  14.050  1.00  0.00     0.008 C 
ATOM      5  C   UNL     1      48.761 129.030  13.449  1.00  0.00     0.050 C 
BRANCH   4   6
ATOM      6  C   UNL     1      47.242 131.124  13.217  1.00  0.00     0.001 C 
ATOM      7  C   UNL     1      47.485 131.243  11.911  1.00  0.00     0.009 C 
ENDBRANCH   4   6
ENDBRANCH   1   4
BRANCH   1   8
ATOM      8  N   UNL     1      46.174 130.511  15.795  1.00  0.00    -0.312 N 
ATOM      9  C   UNL     1      45.754 130.302  17.184  1.00  0.00     0.131 C 
ATOM     10  C   UNL     1      45.175 130.940  14.810  1.00  0.00     0.265 C 
ATOM     11  C   UNL     1      45.041 131.565  17.706  1.00  0.00     0.042 C 
ATOM     12  C   UNL     1      44.412 132.173  15.321  1.00  0.00     0.064 C 
ATOM     13  C   UNL     1      43.886 132.008  16.766  1.00  0.00    -0.000 C 
ATOM     14  F   UNL     1      44.297 129.904  14.548  1.00  0.00    -0.224 F 
ATOM     15  C   UNL     1      42.651 131.089  16.820  1.00  0.00     0.008 C 
BRANCH  11  16
ATOM     16  C   UNL     1      44.607 131.460  19.161  1.00  0.00    -0.041 A 
ATOM     17  C   UNL     1      43.545 132.289  19.624  1.00  0.00     0.005 A 
ATOM     18  C   UNL     1      45.191 130.523  20.052  1.00  0.00     0.032 A 
ATOM     19  C   UNL     1      43.089 132.209  20.952  1.00  0.00     0.012 A 
ATOM     20  C   UNL     1      44.711 130.475  21.357  1.00  0.00     0.066 A 
ATOM     21  C   UNL     1      43.706 131.287  21.790  1.00  0.00     0.023 A 
ATOM     22  N   UNL     1      45.101 129.668  22.358  1.00  0.00    -0.278 N 
ATOM     23  C   UNL     1      43.507 130.939  23.110  1.00  0.00     0.067 A 
ATOM     24  N   UNL     1      44.366 129.942  23.431  1.00  0.00    -0.180 NA
ATOM     25  H   UNL     1      45.845 128.937  22.320  1.00  0.00     0.190 HD
ATOM     26  C   UNL     1      42.478 131.497  24.037  1.00  0.00     0.069 C 
ENDBRANCH  11  16
ENDBRANCH   1   8
TORSDOF 5
ENDMDL


