MODEL 1
REMARK VINA RESULT:      -9.3      0.000      0.000
REMARK SMILES C=Cc1cc(-c2c[nH+]c3ccnn3c2)ccc1CC[NH3+]
REMARK SMILES IDX 18 1 17 2 3 3 4 4 5 5 16 6 15 7 2 8 1 9 6 10 7 11 14 12 8 13
REMARK SMILES IDX 13 14 9 15 12 16 10 17 11 18 19 20 20 21
REMARK H PARENT 8 19 20 22 20 23 20 24
ROOT
ATOM      1  C   UNL     1      44.037 130.796  22.644  1.00  0.00     0.097 C 
ENDROOT
BRANCH   1   2
ATOM      2  C   UNL     1      44.475 130.931  21.199  1.00  0.00    -0.035 A 
ATOM      3  C   UNL     1      43.748 131.698  20.250  1.00  0.00    -0.022 A 
ATOM      4  C   UNL     1      44.205 131.748  18.917  1.00  0.00     0.017 A 
ATOM      5  C   UNL     1      45.344 131.035  18.510  1.00  0.00    -0.010 A 
ATOM      6  C   UNL     1      45.609 130.216  20.779  1.00  0.00     0.005 A 
ATOM      7  C   UNL     1      46.039 130.268  19.454  1.00  0.00     0.009 A 
BRANCH   3   8
ATOM      8  C   UNL     1      42.541 132.473  20.643  1.00  0.00     0.000 C 
ATOM      9  C   UNL     1      41.521 132.697  19.816  1.00  0.00     0.009 C 
ENDBRANCH   3   8
BRANCH   5  10
ATOM     10  C   UNL     1      45.807 131.095  17.100  1.00  0.00     0.063 A 
ATOM     11  C   UNL     1      45.558 132.234  16.294  1.00  0.00     0.210 A 
ATOM     12  C   UNL     1      46.509 130.016  16.520  1.00  0.00     0.245 A 
ATOM     13  N   UNL     1      45.988 132.282  14.999  1.00  0.00    -0.245 N 
ATOM     14  N   UNL     1      46.906 130.132  15.231  1.00  0.00    -0.104 N 
ATOM     15  C   UNL     1      46.658 131.217  14.495  1.00  0.00     0.306 A 
ATOM     16  N   UNL     1      47.573 129.241  14.519  1.00  0.00    -0.086 NA
ATOM     17  C   UNL     1      47.177 131.054  13.233  1.00  0.00     0.125 A 
ATOM     18  C   UNL     1      47.750 129.785  13.291  1.00  0.00     0.167 A 
ATOM     19  H   UNL     1      45.798 133.122  14.409  1.00  0.00     0.312 HD
ENDBRANCH   5  10
ENDBRANCH   1   2
BRANCH   1  20
ATOM     20  C   UNL     1      42.742 129.979  22.786  1.00  0.00     0.263 C 
BRANCH  20  21
ATOM     21  N   UNL     1      41.833 130.567  23.771  1.00  0.00    -0.357 N 
ATOM     22  H   UNL     1      41.855 131.611  23.709  1.00  0.00     0.344 HD
ATOM     23  H   UNL     1      40.860 130.239  23.575  1.00  0.00     0.344 HD
ATOM     24  H   UNL     1      42.098 130.262  24.736  1.00  0.00     0.344 HD
ENDBRANCH  20  21
ENDBRANCH   1  20
TORSDOF 5
ENDMDL
MODEL 2
REMARK VINA RESULT:      -8.1      1.101      1.101
REMARK SMILES C=Cc1cc(-c2c[nH+]c3ccnn3c2)ccc1CC[NH3+]
REMARK SMILES IDX 18 1 17 2 3 3 4 4 5 5 16 6 15 7 2 8 1 9 6 10 7 11 14 12 8 13
REMARK SMILES IDX 13 14 9 15 12 16 10 17 11 18 19 20 20 21
REMARK H PARENT 8 19 20 22 20 23 20 24
ROOT
ATOM      1  C   UNL     1      44.154 130.057  22.962  1.00  0.00     0.097 C 
ENDROOT
BRANCH   1   2
ATOM      2  C   UNL     1      44.547 130.349  21.528  1.00  0.00    -0.035 A 
ATOM      3  C   UNL     1      43.844 131.280  20.717  1.00  0.00    -0.022 A 
ATOM      4  C   UNL     1      44.254 131.471  19.382  1.00  0.00     0.017 A 
ATOM      5  C   UNL     1      45.324 130.743  18.837  1.00  0.00    -0.010 A 
ATOM      6  C   UNL     1      45.612 129.621  20.969  1.00  0.00     0.005 A 
ATOM      7  C   UNL     1      45.995 129.815  19.643  1.00  0.00     0.009 A 
BRANCH   3   8
ATOM      8  C   UNL     1      42.711 132.075  21.260  1.00  0.00     0.000 C 
ATOM      9  C   UNL     1      41.834 132.713  20.484  1.00  0.00     0.009 C 
ENDBRANCH   3   8
BRANCH   5  10
ATOM     10  C   UNL     1      45.738 130.954  17.426  1.00  0.00     0.063 A 
ATOM     11  C   UNL     1      45.489 132.183  16.765  1.00  0.00     0.210 A 
ATOM     12  C   UNL     1      46.393 129.935  16.702  1.00  0.00     0.245 A 
ATOM     13  N   UNL     1      45.874 132.369  15.468  1.00  0.00    -0.245 N 
ATOM     14  N   UNL     1      46.746 130.188  15.420  1.00  0.00    -0.104 N 
ATOM     15  C   UNL     1      46.500 131.356  14.822  1.00  0.00     0.306 A 
ATOM     16  N   UNL     1      47.366 129.371  14.587  1.00  0.00    -0.086 NA
ATOM     17  C   UNL     1      46.970 131.327  13.531  1.00  0.00     0.125 A 
ATOM     18  C   UNL     1      47.513 130.048  13.422  1.00  0.00     0.167 A 
ATOM     19  H   UNL     1      45.685 133.276  14.985  1.00  0.00     0.312 HD
ENDBRANCH   5  10
ENDBRANCH   1   2
BRANCH   1  20
ATOM     20  C   UNL     1      44.182 128.553  23.278  1.00  0.00     0.263 C 
BRANCH  20  21
ATOM     21  N   UNL     1      44.837 128.278  24.558  1.00  0.00    -0.357 N 
ATOM     22  H   UNL     1      44.563 128.995  25.268  1.00  0.00     0.344 HD
ATOM     23  H   UNL     1      44.536 127.336  24.899  1.00  0.00     0.344 HD
ATOM     24  H   UNL     1      45.876 128.272  24.439  1.00  0.00     0.344 HD
ENDBRANCH  20  21
ENDBRANCH   1  20
TORSDOF 5
ENDMDL
MODEL 3
REMARK VINA RESULT:      -7.9      1.968      7.196
REMARK SMILES C=Cc1cc(-c2c[nH+]c3ccnn3c2)ccc1CC[NH3+]
REMARK SMILES IDX 18 1 17 2 3 3 4 4 5 5 16 6 15 7 2 8 1 9 6 10 7 11 14 12 8 13
REMARK SMILES IDX 13 14 9 15 12 16 10 17 11 18 19 20 20 21
REMARK H PARENT 8 19 20 22 20 23 20 24
ROOT
ATOM      1  C   UNL     1      46.742 130.295  14.106  1.00  0.00     0.097 C 
ENDROOT
BRANCH   1   2
ATOM      2  C   UNL     1      46.001 130.579  15.398  1.00  0.00    -0.035 A 
ATOM      3  C   UNL     1      44.793 131.326  15.437  1.00  0.00    -0.022 A 
ATOM      4  C   UNL     1      44.183 131.573  16.684  1.00  0.00     0.017 A 
ATOM      5  C   UNL     1      44.760 131.119  17.881  1.00  0.00    -0.010 A 
ATOM      6  C   UNL     1      46.573 130.136  16.602  1.00  0.00     0.005 A 
ATOM      7  C   UNL     1      45.962 130.401  17.826  1.00  0.00     0.009 A 
BRANCH   3   8
ATOM      8  C   UNL     1      44.148 131.817  14.192  1.00  0.00     0.000 C 
ATOM      9  C   UNL     1      42.921 131.456  13.819  1.00  0.00     0.009 C 
ENDBRANCH   3   8
BRANCH   5  10
ATOM     10  C   UNL     1      44.106 131.395  19.186  1.00  0.00     0.063 A 
ATOM     11  C   UNL     1      42.789 131.916  19.250  1.00  0.00     0.210 A 
ATOM     12  C   UNL     1      44.778 131.147  20.402  1.00  0.00     0.245 A 
ATOM     13  N   UNL     1      42.194 132.166  20.453  1.00  0.00    -0.245 N 
ATOM     14  N   UNL     1      44.128 131.417  21.557  1.00  0.00    -0.104 N 
ATOM     15  C   UNL     1      42.886 131.907  21.589  1.00  0.00     0.306 A 
ATOM     16  N   UNL     1      44.582 131.249  22.786  1.00  0.00    -0.086 NA
ATOM     17  C   UNL     1      42.485 132.079  22.892  1.00  0.00     0.125 A 
ATOM     18  C   UNL     1      43.592 131.649  23.621  1.00  0.00     0.167 A 
ATOM     19  H   UNL     1      41.225 132.553  20.494  1.00  0.00     0.312 HD
ENDBRANCH   5  10
ENDBRANCH   1   2
BRANCH   1  20
ATOM     20  C   UNL     1      47.598 129.021  14.195  1.00  0.00     0.263 C 
BRANCH  20  21
ATOM     21  N   UNL     1      48.825 129.134  13.402  1.00  0.00    -0.357 N 
ATOM     22  H   UNL     1      49.118 128.194  13.050  1.00  0.00     0.344 HD
ATOM     23  H   UNL     1      48.644 129.760  12.584  1.00  0.00     0.344 HD
ATOM     24  H   UNL     1      49.590 129.554  13.979  1.00  0.00     0.344 HD
ENDBRANCH  20  21
ENDBRANCH   1  20
TORSDOF 5
ENDMDL
MODEL 4
REMARK VINA RESULT:      -7.7      1.916      7.256
REMARK SMILES C=Cc1cc(-c2c[nH+]c3ccnn3c2)ccc1CC[NH3+]
REMARK SMILES IDX 18 1 17 2 3 3 4 4 5 5 16 6 15 7 2 8 1 9 6 10 7 11 14 12 8 13
REMARK SMILES IDX 13 14 9 15 12 16 10 17 11 18 19 20 20 21
REMARK H PARENT 8 19 20 22 20 23 20 24
ROOT
ATOM      1  C   UNL     1      46.148 130.599  13.703  1.00  0.00     0.097 C 
ENDROOT
BRANCH   1   2
ATOM      2  C   UNL     1      45.744 130.719  15.159  1.00  0.00    -0.035 A 
ATOM      3  C   UNL     1      44.601 131.451  15.577  1.00  0.00    -0.022 A 
ATOM      4  C   UNL     1      44.311 131.540  16.954  1.00  0.00     0.017 A 
ATOM      5  C   UNL     1      45.144 130.943  17.914  1.00  0.00    -0.010 A 
ATOM      6  C   UNL     1      46.574 130.131  16.129  1.00  0.00     0.005 A 
ATOM      7  C   UNL     1      46.279 130.241  17.486  1.00  0.00     0.009 A 
BRANCH   3   8
ATOM      8  C   UNL     1      43.690 132.091  14.591  1.00  0.00     0.000 C 
ATOM      9  C   UNL     1      43.072 131.411  13.626  1.00  0.00     0.009 C 
ENDBRANCH   3   8
BRANCH   5  10
ATOM     10  C   UNL     1      44.827 131.053  19.361  1.00  0.00     0.063 A 
ATOM     11  C   UNL     1      45.728 130.577  20.346  1.00  0.00     0.210 A 
ATOM     12  C   UNL     1      43.618 131.634  19.797  1.00  0.00     0.245 A 
ATOM     13  N   UNL     1      45.430 130.682  21.675  1.00  0.00    -0.245 N 
ATOM     14  N   UNL     1      43.387 131.706  21.128  1.00  0.00    -0.104 N 
ATOM     15  C   UNL     1      44.254 131.250  22.036  1.00  0.00     0.306 A 
ATOM     16  N   UNL     1      42.325 132.215  21.728  1.00  0.00    -0.086 NA
ATOM     17  C   UNL     1      43.758 131.458  23.300  1.00  0.00     0.125 A 
ATOM     18  C   UNL     1      42.531 132.073  23.060  1.00  0.00     0.167 A 
ATOM     19  H   UNL     1      46.096 130.326  22.397  1.00  0.00     0.312 HD
ENDBRANCH   5  10
ENDBRANCH   1   2
BRANCH   1  20
ATOM     20  C   UNL     1      47.667 130.729  13.508  1.00  0.00     0.263 C 
BRANCH  20  21
ATOM     21  N   UNL     1      48.326 129.421  13.482  1.00  0.00    -0.357 N 
ATOM     22  H   UNL     1      49.357 129.531  13.620  1.00  0.00     0.344 HD
ATOM     23  H   UNL     1      47.944 128.833  14.257  1.00  0.00     0.344 HD
ATOM     24  H   UNL     1      48.137 128.939  12.573  1.00  0.00     0.344 HD
ENDBRANCH  20  21
ENDBRANCH   1  20
TORSDOF 5
ENDMDL
MODEL 5
REMARK VINA RESULT:      -7.3      0.945      2.206
REMARK SMILES C=Cc1cc(-c2c[nH+]c3ccnn3c2)ccc1CC[NH3+]
REMARK SMILES IDX 18 1 17 2 3 3 4 4 5 5 16 6 15 7 2 8 1 9 6 10 7 11 14 12 8 13
REMARK SMILES IDX 13 14 9 15 12 16 10 17 11 18 19 20 20 21
REMARK H PARENT 8 19 20 22 20 23 20 24
ROOT
ATOM      1  C   UNL     1      43.243 130.643  22.445  1.00  0.00     0.097 C 
ENDROOT
BRANCH   1   2
ATOM      2  C   UNL     1      43.882 130.704  21.072  1.00  0.00    -0.035 A 
ATOM      3  C   UNL     1      45.067 129.991  20.749  1.00  0.00    -0.022 A 
ATOM      4  C   UNL     1      45.616 130.127  19.457  1.00  0.00     0.017 A 
ATOM      5  C   UNL     1      45.029 130.970  18.500  1.00  0.00    -0.010 A 
ATOM      6  C   UNL     1      43.307 131.551  20.109  1.00  0.00     0.005 A 
ATOM      7  C   UNL     1      43.871 131.682  18.842  1.00  0.00     0.009 A 
BRANCH   3   8
ATOM      8  C   UNL     1      45.715 129.082  21.731  1.00  0.00     0.000 C 
ATOM      9  C   UNL     1      45.111 128.005  22.231  1.00  0.00     0.009 C 
ENDBRANCH   3   8
BRANCH   5  10
ATOM     10  C   UNL     1      45.624 131.106  17.146  1.00  0.00     0.063 A 
ATOM     11  C   UNL     1      45.528 132.320  16.422  1.00  0.00     0.210 A 
ATOM     12  C   UNL     1      46.303 130.027  16.541  1.00  0.00     0.245 A 
ATOM     13  N   UNL     1      46.079 132.437  15.178  1.00  0.00    -0.245 N 
ATOM     14  N   UNL     1      46.825 130.213  15.306  1.00  0.00    -0.104 N 
ATOM     15  C   UNL     1      46.720 131.369  14.646  1.00  0.00     0.306 A 
ATOM     16  N   UNL     1      47.494 129.333  14.582  1.00  0.00    -0.086 NA
ATOM     17  C   UNL     1      47.343 131.266  13.425  1.00  0.00     0.125 A 
ATOM     18  C   UNL     1      47.821 129.958  13.424  1.00  0.00     0.167 A 
ATOM     19  H   UNL     1      46.002 133.334  14.647  1.00  0.00     0.312 HD
ENDBRANCH   5  10
ENDBRANCH   1   2
BRANCH   1  20
ATOM     20  C   UNL     1      43.125 132.031  23.095  1.00  0.00     0.263 C 
BRANCH  20  21
ATOM     21  N   UNL     1      41.739 132.353  23.441  1.00  0.00    -0.357 N 
ATOM     22  H   UNL     1      41.674 133.330  23.809  1.00  0.00     0.344 HD
ATOM     23  H   UNL     1      41.147 132.277  22.583  1.00  0.00     0.344 HD
ATOM     24  H   UNL     1      41.378 131.678  24.155  1.00  0.00     0.344 HD
ENDBRANCH  20  21
ENDBRANCH   1  20
TORSDOF 5
ENDMDL
MODEL 6
REMARK VINA RESULT:      -7.3      1.441      2.746
REMARK SMILES C=Cc1cc(-c2c[nH+]c3ccnn3c2)ccc1CC[NH3+]
REMARK SMILES IDX 18 1 17 2 3 3 4 4 5 5 16 6 15 7 2 8 1 9 6 10 7 11 14 12 8 13
REMARK SMILES IDX 13 14 9 15 12 16 10 17 11 18 19 20 20 21
REMARK H PARENT 8 19 20 22 20 23 20 24
ROOT
ATOM      1  C   UNL     1      42.249 132.350  21.199  1.00  0.00     0.097 C 
ENDROOT
BRANCH   1   2
ATOM      2  C   UNL     1      43.093 131.865  20.038  1.00  0.00    -0.035 A 
ATOM      3  C   UNL     1      44.347 131.222  20.220  1.00  0.00    -0.022 A 
ATOM      4  C   UNL     1      45.085 130.828  19.085  1.00  0.00     0.017 A 
ATOM      5  C   UNL     1      44.617 131.083  17.786  1.00  0.00    -0.010 A 
ATOM      6  C   UNL     1      42.638 132.121  18.733  1.00  0.00     0.005 A 
ATOM      7  C   UNL     1      43.388 131.736  17.624  1.00  0.00     0.009 A 
BRANCH   3   8
ATOM      8  C   UNL     1      44.873 130.928  21.579  1.00  0.00     0.000 C 
ATOM      9  C   UNL     1      44.770 129.730  22.154  1.00  0.00     0.009 C 
ENDBRANCH   3   8
BRANCH   5  10
ATOM     10  C   UNL     1      45.412 130.667  16.603  1.00  0.00     0.063 A 
ATOM     11  C   UNL     1      45.553 129.299  16.260  1.00  0.00     0.210 A 
ATOM     12  C   UNL     1      46.051 131.623  15.784  1.00  0.00     0.245 A 
ATOM     13  N   UNL     1      46.284 128.923  15.169  1.00  0.00    -0.245 N 
ATOM     14  N   UNL     1      46.759 131.180  14.720  1.00  0.00    -0.104 N 
ATOM     15  C   UNL     1      46.875 129.884  14.419  1.00  0.00     0.306 A 
ATOM     16  N   UNL     1      47.418 131.913  13.840  1.00  0.00    -0.086 NA
ATOM     17  C   UNL     1      47.646 129.735  13.291  1.00  0.00     0.125 A 
ATOM     18  C   UNL     1      47.970 131.047  12.955  1.00  0.00     0.167 A 
ATOM     19  H   UNL     1      46.388 127.914  14.924  1.00  0.00     0.312 HD
ENDBRANCH   5  10
ENDBRANCH   1   2
BRANCH   1  20
ATOM     20  C   UNL     1      41.289 133.479  20.789  1.00  0.00     0.263 C 
BRANCH  20  21
ATOM     21  N   UNL     1      40.146 133.578  21.700  1.00  0.00    -0.357 N 
ATOM     22  H   UNL     1      39.716 134.529  21.641  1.00  0.00     0.344 HD
ATOM     23  H   UNL     1      39.430 132.867  21.426  1.00  0.00     0.344 HD
ATOM     24  H   UNL     1      40.449 133.384  22.682  1.00  0.00     0.344 HD
ENDBRANCH  20  21
ENDBRANCH   1  20
TORSDOF 5
ENDMDL
MODEL 7
REMARK VINA RESULT:      -7.0      0.906      2.080
REMARK SMILES C=Cc1cc(-c2c[nH+]c3ccnn3c2)ccc1CC[NH3+]
REMARK SMILES IDX 18 1 17 2 3 3 4 4 5 5 16 6 15 7 2 8 1 9 6 10 7 11 14 12 8 13
REMARK SMILES IDX 13 14 9 15 12 16 10 17 11 18 19 20 20 21
REMARK H PARENT 8 19 20 22 20 23 20 24
ROOT
ATOM      1  C   UNL     1      42.139 132.019  21.466  1.00  0.00     0.097 C 
ENDROOT
BRANCH   1   2
ATOM      2  C   UNL     1      43.021 131.795  20.254  1.00  0.00    -0.035 A 
ATOM      3  C   UNL     1      44.317 131.222  20.348  1.00  0.00    -0.022 A 
ATOM      4  C   UNL     1      45.087 131.077  19.176  1.00  0.00     0.017 A 
ATOM      5  C   UNL     1      44.607 131.510  17.929  1.00  0.00    -0.010 A 
ATOM      6  C   UNL     1      42.553 132.231  19.002  1.00  0.00     0.005 A 
ATOM      7  C   UNL     1      43.334 132.090  17.857  1.00  0.00     0.009 A 
BRANCH   3   8
ATOM      8  C   UNL     1      44.858 130.745  21.648  1.00  0.00     0.000 C 
ATOM      9  C   UNL     1      45.203 129.477  21.869  1.00  0.00     0.009 C 
ENDBRANCH   3   8
BRANCH   5  10
ATOM     10  C   UNL     1      45.435 131.354  16.706  1.00  0.00     0.063 A 
ATOM     11  C   UNL     1      45.647 132.441  15.822  1.00  0.00     0.210 A 
ATOM     12  C   UNL     1      46.034 130.116  16.388  1.00  0.00     0.245 A 
ATOM     13  N   UNL     1      46.411 132.291  14.699  1.00  0.00    -0.245 N 
ATOM     14  N   UNL     1      46.777 130.039  15.260  1.00  0.00    -0.104 N 
ATOM     15  C   UNL     1      46.962 131.079  14.444  1.00  0.00     0.306 A 
ATOM     16  N   UNL     1      47.417 128.979  14.798  1.00  0.00    -0.086 NA
ATOM     17  C   UNL     1      47.758 130.708  13.387  1.00  0.00     0.125 A 
ATOM     18  C   UNL     1      48.025 129.366  13.650  1.00  0.00     0.167 A 
ATOM     19  H   UNL     1      46.561 133.094  14.049  1.00  0.00     0.312 HD
ENDBRANCH   5  10
ENDBRANCH   1   2
BRANCH   1  20
ATOM     20  C   UNL     1      42.868 131.703  22.782  1.00  0.00     0.263 C 
BRANCH  20  21
ATOM     21  N   UNL     1      41.928 131.438  23.874  1.00  0.00    -0.357 N 
ATOM     22  H   UNL     1      41.819 132.287  24.474  1.00  0.00     0.344 HD
ATOM     23  H   UNL     1      40.997 131.190  23.468  1.00  0.00     0.344 HD
ATOM     24  H   UNL     1      42.264 130.633  24.452  1.00  0.00     0.344 HD
ENDBRANCH  20  21
ENDBRANCH   1  20
TORSDOF 5
ENDMDL
MODEL 8
REMARK VINA RESULT:      -7.0      0.930      1.513
REMARK SMILES C=Cc1cc(-c2c[nH+]c3ccnn3c2)ccc1CC[NH3+]
REMARK SMILES IDX 18 1 17 2 3 3 4 4 5 5 16 6 15 7 2 8 1 9 6 10 7 11 14 12 8 13
REMARK SMILES IDX 13 14 9 15 12 16 10 17 11 18 19 20 20 21
REMARK H PARENT 8 19 20 22 20 23 20 24
ROOT
ATOM      1  C   UNL     1      43.568 131.733  22.501  1.00  0.00     0.097 C 
ENDROOT
BRANCH   1   2
ATOM      2  C   UNL     1      44.074 131.477  21.095  1.00  0.00    -0.035 A 
ATOM      3  C   UNL     1      43.279 131.715  19.942  1.00  0.00    -0.022 A 
ATOM      4  C   UNL     1      43.812 131.421  18.671  1.00  0.00     0.017 A 
ATOM      5  C   UNL     1      45.099 130.876  18.528  1.00  0.00    -0.010 A 
ATOM      6  C   UNL     1      45.357 130.926  20.941  1.00  0.00     0.005 A 
ATOM      7  C   UNL     1      45.863 130.630  19.677  1.00  0.00     0.009 A 
BRANCH   3   8
ATOM      8  C   UNL     1      41.915 132.297  20.051  1.00  0.00     0.000 C 
ATOM      9  C   UNL     1      41.694 133.582  20.327  1.00  0.00     0.009 C 
ENDBRANCH   3   8
BRANCH   5  10
ATOM     10  C   UNL     1      45.642 130.567  17.181  1.00  0.00     0.063 A 
ATOM     11  C   UNL     1      45.673 129.238  16.690  1.00  0.00     0.210 A 
ATOM     12  C   UNL     1      46.146 131.590  16.350  1.00  0.00     0.245 A 
ATOM     13  N   UNL     1      46.173 128.961  15.450  1.00  0.00    -0.245 N 
ATOM     14  N   UNL     1      46.627 131.244  15.133  1.00  0.00    -0.104 N 
ATOM     15  C   UNL     1      46.643 129.983  14.695  1.00  0.00     0.306 A 
ATOM     16  N   UNL     1      47.132 132.051  14.216  1.00  0.00    -0.086 NA
ATOM     17  C   UNL     1      47.181 129.935  13.431  1.00  0.00     0.125 A 
ATOM     18  C   UNL     1      47.479 131.270  13.165  1.00  0.00     0.167 A 
ATOM     19  H   UNL     1      46.196 127.979  15.095  1.00  0.00     0.312 HD
ENDBRANCH   5  10
ENDBRANCH   1   2
BRANCH   1  20
ATOM     20  C   UNL     1      42.782 130.537  23.063  1.00  0.00     0.263 C 
BRANCH  20  21
ATOM     21  N   UNL     1      43.195 130.210  24.430  1.00  0.00    -0.357 N 
ATOM     22  H   UNL     1      43.106 131.049  25.048  1.00  0.00     0.344 HD
ATOM     23  H   UNL     1      42.575 129.453  24.800  1.00  0.00     0.344 HD
ATOM     24  H   UNL     1      44.182 129.864  24.437  1.00  0.00     0.344 HD
ENDBRANCH  20  21
ENDBRANCH   1  20
TORSDOF 5
ENDMDL
MODEL 9
REMARK VINA RESULT:      -6.6      1.390      2.522
REMARK SMILES C=Cc1cc(-c2c[nH+]c3ccnn3c2)ccc1CC[NH3+]
REMARK SMILES IDX 18 1 17 2 3 3 4 4 5 5 16 6 15 7 2 8 1 9 6 10 7 11 14 12 8 13
REMARK SMILES IDX 13 14 9 15 12 16 10 17 11 18 19 20 20 21
REMARK H PARENT 8 19 20 22 20 23 20 24
ROOT
ATOM      1  C   UNL     1      42.345 132.744  21.090  1.00  0.00     0.097 C 
ENDROOT
BRANCH   1   2
ATOM      2  C   UNL     1      43.186 132.193  19.955  1.00  0.00    -0.035 A 
ATOM      3  C   UNL     1      44.577 131.936  20.090  1.00  0.00    -0.022 A 
ATOM      4  C   UNL     1      45.294 131.453  18.977  1.00  0.00     0.017 A 
ATOM      5  C   UNL     1      44.666 131.248  17.738  1.00  0.00    -0.010 A 
ATOM      6  C   UNL     1      42.569 131.990  18.709  1.00  0.00     0.005 A 
ATOM      7  C   UNL     1      43.298 131.524  17.616  1.00  0.00     0.009 A 
BRANCH   3   8
ATOM      8  C   UNL     1      45.277 132.134  21.387  1.00  0.00     0.000 C 
ATOM      9  C   UNL     1      46.436 132.782  21.494  1.00  0.00     0.009 C 
ENDBRANCH   3   8
BRANCH   5  10
ATOM     10  C   UNL     1      45.439 130.744  16.574  1.00  0.00     0.063 A 
ATOM     11  C   UNL     1      45.539 129.355  16.306  1.00  0.00     0.210 A 
ATOM     12  C   UNL     1      46.099 131.634  15.700  1.00  0.00     0.245 A 
ATOM     13  N   UNL     1      46.251 128.900  15.234  1.00  0.00    -0.245 N 
ATOM     14  N   UNL     1      46.786 131.113  14.657  1.00  0.00    -0.104 N 
ATOM     15  C   UNL     1      46.863 129.801  14.428  1.00  0.00     0.306 A 
ATOM     16  N   UNL     1      47.459 131.778  13.734  1.00  0.00    -0.086 NA
ATOM     17  C   UNL     1      47.620 129.567  13.305  1.00  0.00     0.125 A 
ATOM     18  C   UNL     1      47.980 130.849  12.895  1.00  0.00     0.167 A 
ATOM     19  H   UNL     1      46.324 127.875  15.044  1.00  0.00     0.312 HD
ENDBRANCH   5  10
ENDBRANCH   1   2
BRANCH   1  20
ATOM     20  C   UNL     1      42.223 131.752  22.258  1.00  0.00     0.263 C 
BRANCH  20  21
ATOM     21  N   UNL     1      42.429 130.369  21.822  1.00  0.00    -0.357 N 
ATOM     22  H   UNL     1      41.772 130.132  21.044  1.00  0.00     0.344 HD
ATOM     23  H   UNL     1      43.411 130.265  21.476  1.00  0.00     0.344 HD
ATOM     24  H   UNL     1      42.287 129.712  22.623  1.00  0.00     0.344 HD
ENDBRANCH  20  21
ENDBRANCH   1  20
TORSDOF 5
ENDMDL


