REMARK SMILES Cc1cc[nH+]c(-c2ccc3[nH]c(Nc4cn5ccccc5[nH+]4)cc3c2)c1F
REMARK SMILES IDX 7 1 8 2 9 3 10 4 11 5 12 6 23 7 24 8 25 9 6 11 2 12 3 13
REMARK SMILES IDX 26 14 4 15 5 16 1 17 27 18 13 20 14 22 15 23 22 24 16 25
REMARK SMILES IDX 21 26 17 27 20 28 18 29 19 30
REMARK H PARENT 11 10 5 19 13 21 22 31
ROOT
ATOM      1  C   UNL     1      -2.927  -0.150  -0.034  1.00  0.00     0.050 A 
ATOM      2  C   UNL     1      -2.394   0.807  -0.939  1.00  0.00     0.017 A 
ATOM      3  C   UNL     1      -1.016   0.846  -1.216  1.00  0.00     0.027 A 
ATOM      4  C   UNL     1      -0.196  -0.080  -0.578  1.00  0.00     0.048 A 
ATOM      5  N   UNL     1       1.134  -0.221  -0.714  1.00  0.00    -0.329 N 
ATOM      6  C   UNL     1       1.466  -1.256   0.095  1.00  0.00     0.168 A 
ATOM      7  C   UNL     1       0.348  -1.788   0.729  1.00  0.00     0.072 A 
ATOM      8  C   UNL     1      -0.702  -1.012   0.289  1.00  0.00     0.004 A 
ATOM      9  C   UNL     1      -2.062  -1.082   0.584  1.00  0.00     0.025 A 
ATOM     10  H   UNL     1       1.758   0.324  -1.349  1.00  0.00     0.169 HD
ENDROOT
BRANCH   1  11
ATOM     11  C   UNL     1      -4.382  -0.196   0.246  1.00  0.00     0.247 A 
ATOM     12  C   UNL     1      -6.477   0.910   0.788  1.00  0.00    -0.002 A 
ATOM     13  C   UNL     1      -7.111  -0.339   0.781  1.00  0.00     0.077 A 
ATOM     14  C   UNL     1      -5.100   0.982   0.532  1.00  0.00     0.198 A 
ATOM     15  C   UNL     1      -6.368  -1.486   0.502  1.00  0.00     0.307 A 
ATOM     16  N   UNL     1      -5.036  -1.395   0.243  1.00  0.00    -0.209 N 
ATOM     17  C   UNL     1      -7.252   2.151   1.126  1.00  0.00     0.048 C 
ATOM     18  F   UNL     1      -4.462   2.180   0.603  1.00  0.00    -0.199 F 
ATOM     19  H   UNL     1      -4.516  -2.275   0.024  1.00  0.00     0.453 HD
ENDBRANCH   1  11
BRANCH   6  20
ATOM     20  N   UNL     1       2.788  -1.797   0.209  1.00  0.00    -0.257 N 
ATOM     21  H   UNL     1       2.891  -2.795   0.503  1.00  0.00     0.265 HD
BRANCH  20  22
ATOM     22  C   UNL     1       3.977  -1.041  -0.051  1.00  0.00     0.257 A 
ATOM     23  C   UNL     1       5.218  -1.589  -0.335  1.00  0.00     0.248 A 
ATOM     24  N   UNL     1       4.073   0.306   0.049  1.00  0.00    -0.243 N 
ATOM     25  N   UNL     1       6.080  -0.562  -0.433  1.00  0.00    -0.233 N 
ATOM     26  C   UNL     1       5.372   0.557  -0.198  1.00  0.00     0.230 A 
ATOM     27  C   UNL     1       7.412  -0.566  -0.690  1.00  0.00     0.168 A 
ATOM     28  C   UNL     1       5.987   1.808  -0.203  1.00  0.00     0.081 A 
ATOM     29  C   UNL     1       8.084   0.666  -0.715  1.00  0.00     0.035 A 
ATOM     30  C   UNL     1       7.366   1.853  -0.470  1.00  0.00     0.010 A 
ATOM     31  H   UNL     1       3.332   0.993   0.309  1.00  0.00     0.267 HD
ENDBRANCH  20  22
ENDBRANCH   6  20
TORSDOF 3


