REMARK SMILES [NH3+]CCc1ccc(-c2c[nH+]c3ccnn3c2)cc1
REMARK SMILES IDX 3 1 2 2 1 3 4 7 5 8 18 9 6 10 17 11 7 12 8 13 9 14 16 15
REMARK SMILES IDX 10 16 15 17 11 18 14 19 12 20 13 21
REMARK H PARENT 1 4 1 5 1 6 10 22
ROOT
ATOM      1  C   UNL     1       3.840  -0.778   0.059  1.00  0.00     0.096 C 
ENDROOT
BRANCH   1   2
ATOM      2  C   UNL     1       4.491   0.553   0.454  1.00  0.00     0.263 C 
BRANCH   2   3
ATOM      3  N   UNL     1       5.946   0.423   0.524  1.00  0.00    -0.357 N 
ATOM      4  H   UNL     1       6.209  -0.289   1.243  1.00  0.00     0.344 HD
ATOM      5  H   UNL     1       6.327   0.143  -0.408  1.00  0.00     0.344 HD
ATOM      6  H   UNL     1       6.359   1.345   0.795  1.00  0.00     0.344 HD
ENDBRANCH   2   3
ENDBRANCH   1   2
BRANCH   1   7
ATOM      7  C   UNL     1       2.343  -0.635  -0.011  1.00  0.00    -0.042 A 
ATOM      8  C   UNL     1       1.558  -0.846   1.132  1.00  0.00     0.004 A 
ATOM      9  C   UNL     1       1.725  -0.235  -1.204  1.00  0.00     0.004 A 
ATOM     10  C   UNL     1       0.171  -0.682   1.077  1.00  0.00     0.009 A 
ATOM     11  C   UNL     1       0.338  -0.072  -1.262  1.00  0.00     0.009 A 
ATOM     12  C   UNL     1      -0.456  -0.295  -0.122  1.00  0.00    -0.011 A 
BRANCH  12  13
ATOM     13  C   UNL     1      -1.929  -0.120  -0.182  1.00  0.00     0.063 A 
ATOM     14  C   UNL     1      -2.669  -0.528  -1.321  1.00  0.00     0.210 A 
ATOM     15  C   UNL     1      -2.636   0.457   0.893  1.00  0.00     0.245 A 
ATOM     16  N   UNL     1      -4.024  -0.363  -1.369  1.00  0.00    -0.245 N 
ATOM     17  N   UNL     1      -3.978   0.591   0.777  1.00  0.00    -0.104 N 
ATOM     18  C   UNL     1      -4.651   0.199  -0.307  1.00  0.00     0.306 A 
ATOM     19  N   UNL     1      -4.808   1.107   1.666  1.00  0.00    -0.086 NA
ATOM     20  C   UNL     1      -5.990   0.459  -0.145  1.00  0.00     0.125 A 
ATOM     21  C   UNL     1      -6.047   1.036   1.122  1.00  0.00     0.167 A 
ATOM     22  H   UNL     1      -4.564  -0.668  -2.209  1.00  0.00     0.312 HD
ENDBRANCH  12  13
ENDBRANCH   1   7
TORSDOF 4


