REMARK SMILES Nc1cc(O)c(F)cc1[NH2+]c1ccc2cc[nH]c2c1
REMARK SMILES IDX 2 1 3 2 4 3 6 4 7 5 8 6 9 7 1 8 10 11 11 14 12 15 19 16
REMARK SMILES IDX 13 17 18 18 14 19 17 20 15 21 16 22 5 24
REMARK H PARENT 1 9 1 10 10 12 10 13 17 23 5 25
ROOT
ATOM      1  C   UNL     1       1.748  -0.148  -1.796  1.00  0.00     0.098 A 
ATOM      2  C   UNL     1       1.749  -1.080  -2.847  1.00  0.00     0.081 A 
ATOM      3  C   UNL     1       0.727  -1.091  -3.798  1.00  0.00     0.153 A 
ATOM      4  C   UNL     1      -0.316  -0.163  -3.707  1.00  0.00     0.170 A 
ATOM      5  F   UNL     1      -1.318  -0.162  -4.622  1.00  0.00    -0.203 F 
ATOM      6  C   UNL     1      -0.334   0.768  -2.667  1.00  0.00     0.113 A 
ATOM      7  C   UNL     1       0.688   0.794  -1.698  1.00  0.00     0.161 A 
ENDROOT
BRANCH   1   8
ATOM      8  N   UNL     1       2.828  -0.179  -0.853  1.00  0.00    -0.394 N 
ATOM      9  H   UNL     1       2.929   0.520  -0.089  1.00  0.00     0.156 HD
ATOM     10  H   UNL     1       3.574  -0.905  -0.930  1.00  0.00     0.156 HD
ENDBRANCH   1   8
BRANCH   7  11
ATOM     11  N   UNL     1       0.612   1.754  -0.617  1.00  0.00    -0.280 N 
ATOM     12  H   UNL     1       1.544   2.207  -0.481  1.00  0.00     0.358 HD
ATOM     13  H   UNL     1      -0.049   2.528  -0.860  1.00  0.00     0.358 HD
BRANCH  11  14
ATOM     14  C   UNL     1       0.139   1.127   0.596  1.00  0.00     0.136 A 
ATOM     15  C   UNL     1       0.935   1.147   1.774  1.00  0.00     0.069 A 
ATOM     16  C   UNL     1      -1.150   0.540   0.642  1.00  0.00     0.094 A 
ATOM     17  C   UNL     1       0.475   0.559   2.966  1.00  0.00     0.016 A 
ATOM     18  C   UNL     1      -1.573  -0.033   1.839  1.00  0.00     0.051 A 
ATOM     19  C   UNL     1      -0.786  -0.026   2.958  1.00  0.00    -0.000 A 
ATOM     20  N   UNL     1      -2.745  -0.642   2.083  1.00  0.00    -0.361 N 
ATOM     21  C   UNL     1      -1.488  -0.660   3.960  1.00  0.00     0.028 A 
ATOM     22  C   UNL     1      -2.698  -1.028   3.379  1.00  0.00     0.083 A 
ATOM     23  H   UNL     1      -3.533  -0.789   1.414  1.00  0.00     0.166 HD
ENDBRANCH  11  14
ENDBRANCH   7  11
BRANCH   3  24
ATOM     24  O   UNL     1       0.763  -2.030  -4.828  1.00  0.00    -0.505 OA
ATOM     25  H   UNL     1       0.042  -2.074  -5.538  1.00  0.00     0.293 HD
ENDBRANCH   3  24
TORSDOF 4


