REMARK SMILES Nc1cc([O-])c(F)cc1[NH2+]c1ccc2cc[nH]c2c1
REMARK SMILES IDX 2 1 3 2 4 3 5 4 6 5 7 6 8 7 9 8 1 9 10 12 11 15 12 16 19 17
REMARK SMILES IDX 13 18 18 19 14 20 17 21 15 22 16 23
REMARK H PARENT 1 10 1 11 10 13 10 14 17 24
ROOT
ATOM      1  C   UNL     1      -0.872  -0.882   2.196  1.00  0.00     0.093 A 
ATOM      2  C   UNL     1      -1.896  -1.651   2.771  1.00  0.00     0.026 A 
ATOM      3  C   UNL     1      -2.404  -2.772   2.112  1.00  0.00    -0.070 A 
ATOM      4  O   UNL     1      -3.417  -3.521   2.698  1.00  0.00    -0.870 OA
ATOM      5  C   UNL     1      -1.894  -3.138   0.866  1.00  0.00     0.121 A 
ATOM      6  F   UNL     1      -2.386  -4.225   0.221  1.00  0.00    -0.207 F 
ATOM      7  C   UNL     1      -0.878  -2.383   0.277  1.00  0.00     0.109 A 
ATOM      8  C   UNL     1      -0.351  -1.248   0.925  1.00  0.00     0.160 A 
ENDROOT
BRANCH   1   9
ATOM      9  N   UNL     1      -0.380   0.254   2.921  1.00  0.00    -0.394 N 
ATOM     10  H   UNL     1       0.426   0.825   2.595  1.00  0.00     0.156 HD
ATOM     11  H   UNL     1      -0.808   0.522   3.836  1.00  0.00     0.156 HD
ENDBRANCH   1   9
BRANCH   8  12
ATOM     12  N   UNL     1       0.677  -0.472   0.264  1.00  0.00    -0.280 N 
ATOM     13  H   UNL     1       1.441  -0.246   0.942  1.00  0.00     0.358 HD
ATOM     14  H   UNL     1       1.128  -1.033  -0.496  1.00  0.00     0.358 HD
BRANCH  12  15
ATOM     15  C   UNL     1       0.120   0.720  -0.332  1.00  0.00     0.136 A 
ATOM     16  C   UNL     1      -0.856   0.620  -1.363  1.00  0.00     0.069 A 
ATOM     17  C   UNL     1       0.581   2.000   0.061  1.00  0.00     0.094 A 
ATOM     18  C   UNL     1      -1.392   1.772  -1.965  1.00  0.00     0.016 A 
ATOM     19  C   UNL     1       0.028   3.119  -0.556  1.00  0.00     0.051 A 
ATOM     20  C   UNL     1      -0.926   3.008  -1.531  1.00  0.00    -0.000 A 
ATOM     21  N   UNL     1       0.321   4.409  -0.322  1.00  0.00    -0.361 N 
ATOM     22  C   UNL     1      -1.255   4.284  -1.935  1.00  0.00     0.028 A 
ATOM     23  C   UNL     1      -0.461   5.125  -1.161  1.00  0.00     0.083 A 
ATOM     24  H   UNL     1       1.011   4.786   0.365  1.00  0.00     0.166 HD
ENDBRANCH  12  15
ENDBRANCH   8  12
TORSDOF 3


