REMARK SMILES Nc1cc(F)c(-c2cnc3c(c2)C(=O)NC3)cc1C=O
REMARK SMILES IDX 2 1 3 2 4 3 5 4 6 5 17 6 18 7 1 8 19 11 20 12 7 13 8 14
REMARK SMILES IDX 12 15 9 16 11 17 10 18 13 19 16 20 15 21 14 22
REMARK H PARENT 1 9 1 10 15 23
ROOT
ATOM      1  C   UNL     1       2.789  -1.659   1.044  1.00  0.00     0.045 A 
ATOM      2  C   UNL     1       2.953  -0.404   0.439  1.00  0.00     0.066 A 
ATOM      3  C   UNL     1       1.849   0.378   0.098  1.00  0.00     0.133 A 
ATOM      4  F   UNL     1       2.057   1.607  -0.439  1.00  0.00    -0.206 F 
ATOM      5  C   UNL     1       0.548  -0.083   0.360  1.00  0.00     0.020 A 
ATOM      6  C   UNL     1       0.377  -1.344   0.954  1.00  0.00     0.025 A 
ATOM      7  C   UNL     1       1.480  -2.151   1.278  1.00  0.00     0.038 A 
ENDROOT
BRANCH   1   8
ATOM      8  N   UNL     1       3.960  -2.374   1.461  1.00  0.00    -0.398 N 
ATOM      9  H   UNL     1       3.925  -3.110   2.198  1.00  0.00     0.156 HD
ATOM     10  H   UNL     1       4.907  -2.062   1.150  1.00  0.00     0.156 HD
ENDBRANCH   1   8
BRANCH   7  11
ATOM     11  C   UNL     1       1.204  -3.502   1.814  1.00  0.00     0.262 C 
ATOM     12  O   UNL     1       2.019  -4.451   1.673  1.00  0.00    -0.298 OA
ENDBRANCH   7  11
BRANCH   5  13
ATOM     13  C   UNL     1      -0.638   0.737   0.012  1.00  0.00     0.004 A 
ATOM     14  C   UNL     1      -1.698   0.899   0.941  1.00  0.00     0.120 A 
ATOM     15  C   UNL     1      -0.740   1.355  -1.253  1.00  0.00     0.026 A 
ATOM     16  N   UNL     1      -2.797   1.646   0.623  1.00  0.00    -0.258 NA
ATOM     17  C   UNL     1      -1.880   2.104  -1.521  1.00  0.00     0.063 A 
ATOM     18  C   UNL     1      -2.881   2.239  -0.594  1.00  0.00     0.072 A 
ATOM     19  C   UNL     1      -2.288   2.839  -2.691  1.00  0.00     0.253 C 
ATOM     20  C   UNL     1      -4.007   3.082  -1.113  1.00  0.00     0.173 C 
ATOM     21  N   UNL     1      -3.561   3.433  -2.464  1.00  0.00    -0.346 N 
ATOM     22  O   UNL     1      -1.635   2.951  -3.761  1.00  0.00    -0.269 OA
ATOM     23  H   UNL     1      -4.089   4.021  -3.147  1.00  0.00     0.164 HD
ENDBRANCH   5  13
TORSDOF 3


