REMARK SMILES CC(=O)c1ccc([NH2+]c2ccc3[nH]ccc3c2)c2c1CCC2
REMARK SMILES IDX 4 1 5 2 6 3 7 4 18 5 19 6 20 7 21 8 22 9 2 10 1 11 3 12 8 13
REMARK SMILES IDX 9 16 10 17 17 18 11 19 16 20 12 21 15 22 13 23 14 24
REMARK H PARENT 8 14 8 15 13 25
ROOT
ATOM      1  C   UNL     1      -2.300   0.045  -0.934  1.00  0.00     0.021 A 
ATOM      2  C   UNL     1      -2.296  -0.566   0.337  1.00  0.00     0.018 A 
ATOM      3  C   UNL     1      -1.750   0.087   1.449  1.00  0.00     0.069 A 
ATOM      4  C   UNL     1      -1.187   1.371   1.329  1.00  0.00     0.138 A 
ATOM      5  C   UNL     1      -1.210   1.983   0.060  1.00  0.00     0.017 A 
ATOM      6  C   UNL     1      -1.743   1.339  -1.038  1.00  0.00    -0.028 A 
ATOM      7  C   UNL     1      -1.667   2.193  -2.255  1.00  0.00     0.037 C 
ATOM      8  C   UNL     1      -1.104   3.532  -1.759  1.00  0.00     0.010 C 
ATOM      9  C   UNL     1      -0.728   3.348  -0.283  1.00  0.00     0.042 C 
ENDROOT
BRANCH   1  10
ATOM     10  C   UNL     1      -2.881  -0.663  -2.110  1.00  0.00     0.160 C 
ATOM     11  C   UNL     1      -3.804  -1.833  -1.944  1.00  0.00     0.093 C 
ATOM     12  O   UNL     1      -2.574  -0.310  -3.280  1.00  0.00    -0.295 OA
ENDBRANCH   1  10
BRANCH   4  13
ATOM     13  N   UNL     1      -0.611   2.021   2.484  1.00  0.00    -0.281 N 
ATOM     14  H   UNL     1      -1.296   1.975   3.275  1.00  0.00     0.358 HD
ATOM     15  H   UNL     1      -0.429   3.035   2.307  1.00  0.00     0.358 HD
BRANCH  13  16
ATOM     16  C   UNL     1       0.625   1.374   2.852  1.00  0.00     0.135 A 
ATOM     17  C   UNL     1       0.643   0.394   3.882  1.00  0.00     0.070 A 
ATOM     18  C   UNL     1       1.824   1.687   2.169  1.00  0.00     0.078 A 
ATOM     19  C   UNL     1       1.837  -0.263   4.231  1.00  0.00     0.033 A 
ATOM     20  C   UNL     1       2.986   1.016   2.541  1.00  0.00     0.005 A 
ATOM     21  C   UNL     1       2.994   0.076   3.535  1.00  0.00     0.046 A 
ATOM     22  C   UNL     1       4.272   1.117   2.058  1.00  0.00     0.028 A 
ATOM     23  N   UNL     1       4.227  -0.427   3.707  1.00  0.00    -0.361 N 
ATOM     24  C   UNL     1       5.013   0.206   2.806  1.00  0.00     0.083 A 
ATOM     25  H   UNL     1       4.523  -1.156   4.393  1.00  0.00     0.166 HD
ENDBRANCH  13  16
ENDBRANCH   4  13
TORSDOF 3


