REMARK SMILES CC(=O)c1ccc(/C(N=[N+]=[N-])=N/[C@@H]2C=CCC2)c(F)c1[O-]
REMARK SMILES IDX 8 1 12 2 13 3 15 4 14 5 16 6 17 7 9 8 10 9 11 10 7 11 6 12
REMARK SMILES IDX 18 13 5 14 20 15 4 16 19 17 21 18 2 19 3 20 1 21
REMARK H PARENT
ROOT
ATOM      1  C   UNL     1       0.807  -1.180  -0.612  1.00  0.00     0.132 C 
ENDROOT
BRANCH   1   2
ATOM      2  N   UNL     1       1.674  -0.776   0.270  1.00  0.00    -0.275 NA
BRANCH   2   3
ATOM      3  C   UNL     1       3.122  -0.764   0.064  1.00  0.00     0.128 C 
ATOM      4  C   UNL     1       4.553   0.648   1.253  1.00  0.00    -0.029 C 
ATOM      5  C   UNL     1       3.803  -0.435   1.343  1.00  0.00    -0.005 C 
ATOM      6  C   UNL     1       4.513   1.254  -0.102  1.00  0.00     0.029 C 
ATOM      7  C   UNL     1       3.548   0.365  -0.892  1.00  0.00     0.035 C 
ENDBRANCH   2   3
ENDBRANCH   1   2
BRANCH   1   8
ATOM      8  N   UNL     1       1.256  -1.668  -1.886  1.00  0.00    -0.041 NA
BRANCH   8   9
ATOM      9  N   UNL     1       0.483  -1.863  -2.825  1.00  0.00     0.007 N 
ATOM     10  N   UNL     1      -0.286  -2.056  -3.765  1.00  0.00    -0.003 NA
ENDBRANCH   8   9
ENDBRANCH   1   8
BRANCH   1  11
ATOM     11  C   UNL     1      -0.635  -1.125  -0.269  1.00  0.00     0.037 A 
ATOM     12  C   UNL     1      -1.471  -2.213  -0.555  1.00  0.00     0.014 A 
ATOM     13  C   UNL     1      -1.176   0.002   0.374  1.00  0.00     0.125 A 
ATOM     14  C   UNL     1      -2.825  -2.176  -0.217  1.00  0.00     0.012 A 
ATOM     15  C   UNL     1      -2.536   0.046   0.710  1.00  0.00    -0.060 A 
ATOM     16  C   UNL     1      -3.377  -1.055   0.428  1.00  0.00     0.012 A 
ATOM     17  F   UNL     1      -0.393   1.077   0.647  1.00  0.00    -0.207 F 
ATOM     18  O   UNL     1      -3.037   1.201   1.301  1.00  0.00    -0.870 OA
BRANCH  16  19
ATOM     19  C   UNL     1      -4.823  -1.069   0.777  1.00  0.00     0.159 C 
ATOM     20  O   UNL     1      -5.617  -1.771   0.093  1.00  0.00    -0.295 OA
ATOM     21  C   UNL     1      -5.382  -0.277   1.920  1.00  0.00     0.093 C 
ENDBRANCH  16  19
ENDBRANCH   1  11
TORSDOF 6


