REMARK SMILES C=Cc1cccc([C@H]2C=C[C@@H]3C(=C2)C(=O)NC[C@@H]3/N=c2\[n-]cc(F)cc2N)c1
REMARK SMILES IDX 8 1 9 2 10 3 11 4 12 5 13 6 14 7 15 8 16 9 17 11 18 12 7 13
REMARK SMILES IDX 3 14 4 15 28 16 5 17 6 18 2 19 1 20 19 21 20 22 21 23 26 24
REMARK SMILES IDX 22 25 25 26 23 27 24 28 27 29
REMARK H PARENT 16 10 27 30 27 31
ROOT
ATOM      1  C   UNL     1      -1.148   1.914  -0.561  1.00  0.00     0.065 C 
ATOM      2  C   UNL     1      -1.705   0.597  -1.055  1.00  0.00    -0.018 C 
ATOM      3  C   UNL     1      -1.827  -0.457  -0.238  1.00  0.00    -0.022 C 
ATOM      4  C   UNL     1      -1.426  -0.371   1.219  1.00  0.00     0.051 C 
ATOM      5  C   UNL     1      -0.344   0.672   1.450  1.00  0.00     0.021 C 
ATOM      6  C   UNL     1      -0.232   1.730   0.627  1.00  0.00    -0.005 C 
ATOM      7  C   UNL     1       0.537   0.525   2.632  1.00  0.00     0.247 C 
ATOM      8  O   UNL     1       1.386   1.411   2.921  1.00  0.00    -0.270 OA
ATOM      9  N   UNL     1       0.450  -0.655   3.438  1.00  0.00    -0.352 N 
ATOM     10  H   UNL     1       1.111  -0.779   4.238  1.00  0.00     0.163 HD
ATOM     11  C   UNL     1      -0.608  -1.644   3.238  1.00  0.00     0.119 C 
ATOM     12  C   UNL     1      -0.985  -1.754   1.748  1.00  0.00     0.021 C 
ENDROOT
BRANCH   1  13
ATOM     13  C   UNL     1      -0.414   2.619  -1.681  1.00  0.00    -0.037 A 
ATOM     14  C   UNL     1      -0.181   4.539  -3.178  1.00  0.00    -0.026 A 
ATOM     15  C   UNL     1       0.944   3.926  -3.764  1.00  0.00     0.008 A 
ATOM     16  C   UNL     1      -0.858   3.870  -2.144  1.00  0.00     0.012 A 
ATOM     17  C   UNL     1       1.389   2.683  -3.308  1.00  0.00     0.001 A 
ATOM     18  C   UNL     1       0.719   2.033  -2.272  1.00  0.00     0.005 A 
BRANCH  14  19
ATOM     19  C   UNL     1      -0.701   5.854  -3.630  1.00  0.00     0.000 C 
ATOM     20  C   UNL     1      -0.001   6.730  -4.351  1.00  0.00     0.009 C 
ENDBRANCH  14  19
ENDBRANCH   1  13
BRANCH  12  21
ATOM     21  N   UNL     1       0.155  -2.245   0.966  1.00  0.00    -0.458 NA
BRANCH  21  22
ATOM     22  C   UNL     1       0.567  -3.478   0.922  1.00  0.00    -0.038 A 
ATOM     23  N   UNL     1      -0.080  -4.450   1.627  1.00  0.00    -0.439 NA
ATOM     24  C   UNL     1       1.686  -3.819   0.136  1.00  0.00     0.033 A 
ATOM     25  C   UNL     1       0.320  -5.749   1.603  1.00  0.00     0.018 A 
ATOM     26  C   UNL     1       2.108  -5.155   0.103  1.00  0.00     0.064 A 
ATOM     27  C   UNL     1       1.425  -6.124   0.838  1.00  0.00     0.121 A 
ATOM     28  F   UNL     1       1.830  -7.417   0.809  1.00  0.00    -0.207 F 
BRANCH  24  29
ATOM     29  N   UNL     1       2.393  -2.830  -0.625  1.00  0.00    -0.399 N 
ATOM     30  H   UNL     1       3.221  -3.096  -1.203  1.00  0.00     0.156 HD
ATOM     31  H   UNL     1       2.101  -1.827  -0.622  1.00  0.00     0.156 HD
ENDBRANCH  24  29
ENDBRANCH  21  22
ENDBRANCH  12  21
TORSDOF 5


