REMARK SMILES O=C1Cc2ccc(-c3cnc4[nH]ccc4c3)cc2[N-]1
REMARK SMILES IDX 1 1 2 2 3 3 4 4 5 5 6 6 7 7 17 8 18 9 19 10 8 11 9 12 16 13
REMARK SMILES IDX 10 14 15 15 11 16 14 17 12 18 13 19
REMARK H PARENT 12 20
ROOT
ATOM      1  O   UNL     1      -1.945  -4.598  -4.108  1.00  0.00    -0.320 OA
ATOM      2  C   UNL     1      -1.815  -3.460  -3.586  1.00  0.00     0.059 C 
ATOM      3  C   UNL     1      -1.879  -2.178  -4.359  1.00  0.00     0.089 C 
ATOM      4  C   UNL     1      -1.668  -1.210  -3.249  1.00  0.00    -0.057 A 
ATOM      5  C   UNL     1      -1.622   0.181  -3.315  1.00  0.00     0.003 A 
ATOM      6  C   UNL     1      -1.412   0.903  -2.130  1.00  0.00     0.009 A 
ATOM      7  C   UNL     1      -1.250   0.231  -0.891  1.00  0.00    -0.018 A 
ATOM      8  C   UNL     1      -1.301  -1.181  -0.860  1.00  0.00    -0.007 A 
ATOM      9  C   UNL     1      -1.511  -1.872  -2.052  1.00  0.00    -0.130 A 
ATOM     10  N   UNL     1      -1.593  -3.281  -2.188  1.00  0.00    -0.626 NA
ENDROOT
BRANCH   7  11
ATOM     11  C   UNL     1      -1.028   1.002   0.359  1.00  0.00     0.001 A 
ATOM     12  C   UNL     1      -1.728   2.217   0.596  1.00  0.00     0.122 A 
ATOM     13  C   UNL     1      -0.115   0.539   1.336  1.00  0.00     0.022 A 
ATOM     14  N   UNL     1      -1.526   2.929   1.746  1.00  0.00    -0.238 NA
ATOM     15  C   UNL     1       0.049   1.305   2.483  1.00  0.00     0.019 A 
ATOM     16  C   UNL     1      -0.645   2.463   2.663  1.00  0.00     0.137 A 
ATOM     17  C   UNL     1       0.848   1.131   3.591  1.00  0.00     0.030 A 
ATOM     18  N   UNL     1      -0.336   3.045   3.832  1.00  0.00    -0.346 N 
ATOM     19  C   UNL     1       0.581   2.231   4.406  1.00  0.00     0.085 A 
ATOM     20  H   UNL     1      -0.719   3.936   4.218  1.00  0.00     0.167 HD
ENDBRANCH   7  11
TORSDOF 1


