REMARK SMILES Cc1ccc(Nc2[n-]cnc2[N+](=O)[O-])c(-c2ccc3c(c2)[N-]C(=O)C3)c1
REMARK SMILES IDX 6 1 5 3 2 4 3 5 26 6 4 7 15 8 1 9 16 10 17 11 21 12 18 13
REMARK SMILES IDX 20 14 19 15 22 16 25 17 23 18 24 19 7 20 8 21 11 22 9 23
REMARK SMILES IDX 10 24 12 25 13 26 14 27
REMARK H PARENT 6 2
ROOT
ATOM      1  N   UNL     1      -0.883   1.237  -1.682  1.00  0.00    -0.406 N 
ATOM      2  H   UNL     1      -1.032   1.353  -2.709  1.00  0.00     0.075 HD
ENDROOT
BRANCH   1   3
ATOM      3  C   UNL     1      -1.746   0.335  -0.969  1.00  0.00    -0.009 A 
ATOM      4  C   UNL     1      -3.524  -1.351   0.420  1.00  0.00    -0.050 A 
ATOM      5  C   UNL     1      -3.984  -0.550  -0.633  1.00  0.00     0.004 A 
ATOM      6  C   UNL     1      -2.170  -1.306   0.781  1.00  0.00     0.013 A 
ATOM      7  C   UNL     1      -3.099   0.276  -1.328  1.00  0.00     0.011 A 
ATOM      8  C   UNL     1      -1.266  -0.488   0.081  1.00  0.00    -0.009 A 
ATOM      9  C   UNL     1      -4.483  -2.205   1.194  1.00  0.00     0.044 C 
BRANCH   8  10
ATOM     10  C   UNL     1       0.173  -0.545   0.434  1.00  0.00    -0.019 A 
ATOM     11  C   UNL     1       0.585  -0.344   1.774  1.00  0.00     0.009 A 
ATOM     12  C   UNL     1       1.142  -0.787  -0.563  1.00  0.00    -0.007 A 
ATOM     13  C   UNL     1       1.947  -0.355   2.111  1.00  0.00     0.003 A 
ATOM     14  C   UNL     1       2.487  -0.789  -0.202  1.00  0.00    -0.130 A 
ATOM     15  C   UNL     1       2.882  -0.577   1.101  1.00  0.00    -0.057 A 
ATOM     16  N   UNL     1       3.580  -0.990  -1.082  1.00  0.00    -0.626 NA
ATOM     17  C   UNL     1       4.365  -0.619   1.212  1.00  0.00     0.089 C 
ATOM     18  C   UNL     1       4.713  -0.885  -0.221  1.00  0.00     0.059 C 
ATOM     19  O   UNL     1       5.893  -1.008  -0.641  1.00  0.00    -0.320 OA
ENDBRANCH   8  10
ENDBRANCH   1   3
BRANCH   1  20
ATOM     20  C   UNL     1      -0.023   2.167  -1.009  1.00  0.00     0.104 A 
ATOM     21  N   UNL     1      -0.213   2.580   0.256  1.00  0.00    -0.321 NA
ATOM     22  C   UNL     1       1.084   2.795  -1.534  1.00  0.00     0.375 A 
ATOM     23  C   UNL     1       0.797   3.454   0.462  1.00  0.00     0.282 A 
ATOM     24  N   UNL     1       1.611   3.611  -0.605  1.00  0.00    -0.042 NA
BRANCH  22  25
ATOM     25  N   UNL     1       1.670   2.587  -2.825  1.00  0.00    -0.023 N 
ATOM     26  O   UNL     1       2.633   3.292  -3.188  1.00  0.00    -0.358 OA
ATOM     27  O   UNL     1       1.261   1.549  -3.629  1.00  0.00    -0.358 OA
ENDBRANCH  22  25
ENDBRANCH   1  20
TORSDOF 4


