REMARK SMILES N#CC1=CCCC[C@H]1OC(=O)c1cc(F)ccc1[NH2+]c1cc2ccccc2[n-]1
REMARK SMILES IDX 9 1 8 2 3 3 4 4 5 5 7 6 6 7 2 8 1 9 10 10 11 11 12 12 13 13
REMARK SMILES IDX 18 14 14 15 17 16 16 17 15 18 19 19 20 22 21 23 28 24 22 25
REMARK SMILES IDX 27 26 23 27 26 28 24 29 25 30
REMARK H PARENT 19 20 19 21
ROOT
ATOM      1  O   UNL     1      -0.200   1.027  -1.690  1.00  0.00    -0.453 OA
ENDROOT
BRANCH   1   2
ATOM      2  C   UNL     1      -1.381   1.828  -1.780  1.00  0.00     0.217 C 
ATOM      3  C   UNL     1      -2.332   1.486  -0.648  1.00  0.00     0.066 C 
ATOM      4  C   UNL     1      -2.454   2.255   0.446  1.00  0.00    -0.008 C 
ATOM      5  C   UNL     1      -1.767   3.586   0.597  1.00  0.00     0.029 C 
ATOM      6  C   UNL     1      -0.976   3.310  -1.766  1.00  0.00     0.051 C 
ATOM      7  C   UNL     1      -0.580   3.748  -0.356  1.00  0.00     0.008 C 
BRANCH   3   8
ATOM      8  C   UNL     1      -3.069   0.248  -0.707  1.00  0.00     0.098 C 
ATOM      9  N   UNL     1      -3.659  -0.746  -0.752  1.00  0.00    -0.193 NA
ENDBRANCH   3   8
ENDBRANCH   1   2
BRANCH   1  10
ATOM     10  C   UNL     1      -0.097  -0.271  -2.205  1.00  0.00     0.344 C 
ATOM     11  O   UNL     1      -1.089  -0.794  -2.784  1.00  0.00    -0.246 OA
BRANCH  10  12
ATOM     12  C   UNL     1       1.184  -1.022  -2.137  1.00  0.00     0.124 A 
ATOM     13  C   UNL     1       1.430  -1.991  -3.130  1.00  0.00     0.061 A 
ATOM     14  C   UNL     1       2.160  -0.823  -1.113  1.00  0.00     0.148 A 
ATOM     15  C   UNL     1       2.607  -2.739  -3.131  1.00  0.00     0.124 A 
ATOM     16  C   UNL     1       3.339  -1.595  -1.137  1.00  0.00     0.072 A 
ATOM     17  C   UNL     1       3.560  -2.540  -2.138  1.00  0.00     0.045 A 
ATOM     18  F   UNL     1       2.823  -3.662  -4.101  1.00  0.00    -0.207 F 
BRANCH  14  19
ATOM     19  N   UNL     1       1.963   0.105  -0.018  1.00  0.00    -0.299 N 
ATOM     20  H   UNL     1       2.823   0.172   0.574  1.00  0.00     0.356 HD
ATOM     21  H   UNL     1       1.794   1.064  -0.393  1.00  0.00     0.356 HD
BRANCH  19  22
ATOM     22  C   UNL     1       0.884  -0.296   0.848  1.00  0.00     0.036 A 
ATOM     23  C   UNL     1       0.570  -1.613   1.192  1.00  0.00     0.050 A 
ATOM     24  N   UNL     1       0.146   0.601   1.547  1.00  0.00    -0.610 NA
ATOM     25  C   UNL     1      -0.440  -1.495   2.113  1.00  0.00    -0.036 A 
ATOM     26  C   UNL     1      -0.666  -0.158   2.305  1.00  0.00    -0.125 A 
ATOM     27  C   UNL     1      -1.157  -2.472   2.800  1.00  0.00     0.007 A 
ATOM     28  C   UNL     1      -1.625   0.296   3.210  1.00  0.00    -0.015 A 
ATOM     29  C   UNL     1      -2.140  -2.043   3.711  1.00  0.00     0.001 A 
ATOM     30  C   UNL     1      -2.372  -0.665   3.916  1.00  0.00    -0.001 A 
ENDBRANCH  19  22
ENDBRANCH  14  19
ENDBRANCH  10  12
ENDBRANCH   1  10
TORSDOF 6


