REMARK SMILES C=Cc1ccc(-c2cccc3c[nH+]oc23)[nH+]c1
REMARK SMILES IDX 3 1 4 2 5 3 6 4 16 5 17 6 2 8 1 9 7 10 8 11 15 12 9 13 14 14
REMARK SMILES IDX 11 15 10 16 13 17 12 18
REMARK H PARENT 16 7 13 19
ROOT
ATOM      1  C   UNL     1      -1.702  -3.033   1.310  1.00  0.00     0.038 A 
ATOM      2  C   UNL     1      -1.439  -2.081   2.310  1.00  0.00     0.021 A 
ATOM      3  C   UNL     1      -1.188  -0.753   1.967  1.00  0.00     0.081 A 
ATOM      4  C   UNL     1      -1.189  -0.370   0.618  1.00  0.00     0.214 A 
ATOM      5  N   UNL     1      -1.438  -1.309  -0.342  1.00  0.00    -0.210 N 
ATOM      6  C   UNL     1      -1.686  -2.610  -0.028  1.00  0.00     0.314 A 
ATOM      7  H   UNL     1      -1.467  -1.034  -1.350  1.00  0.00     0.453 HD
ENDROOT
BRANCH   1   8
ATOM      8  C   UNL     1      -1.969  -4.463   1.603  1.00  0.00     0.006 C 
ATOM      9  C   UNL     1      -2.294  -4.934   2.808  1.00  0.00     0.009 C 
ENDBRANCH   1   8
BRANCH   4  10
ATOM     10  C   UNL     1      -0.917   1.038   0.239  1.00  0.00     0.097 A 
ATOM     11  C   UNL     1      -1.452   2.120   0.980  1.00  0.00     0.019 A 
ATOM     12  C   UNL     1      -0.117   1.362  -0.864  1.00  0.00     0.230 A 
ATOM     13  C   UNL     1      -1.186   3.457   0.604  1.00  0.00     0.002 A 
ATOM     14  O   UNL     1       0.511   0.564  -1.693  1.00  0.00    -0.237 OA
ATOM     15  C   UNL     1       0.135   2.659  -1.221  1.00  0.00     0.093 A 
ATOM     16  C   UNL     1      -0.380   3.739  -0.514  1.00  0.00     0.019 A 
ATOM     17  N   UNL     1       1.158   1.273  -2.578  1.00  0.00    -0.035 N 
ATOM     18  C   UNL     1       0.954   2.585  -2.324  1.00  0.00     0.369 A 
ATOM     19  H   UNL     1       1.738   0.876  -3.349  1.00  0.00     0.516 HD
ENDBRANCH   4  10
TORSDOF 2


