REMARK SMILES Cc1cc(-c2cccc3[nH+]coc23)cc(O/C(S)=N/C(O)=C\Oc2ccc(Cl)cc2)c1F
REMARK SMILES IDX 19 1 20 2 21 3 22 5 23 6 24 7 25 8 30 9 26 10 29 11 27 12
REMARK SMILES IDX 28 13 17 14 16 15 15 16 14 17 31 18 4 19 2 20 3 21 32 22
REMARK SMILES IDX 1 23 5 24 6 25 13 26 7 27 9 28 12 29 8 30 10 31 11 32 18 34
REMARK H PARENT 21 4 10 33 18 35
ROOT
ATOM      1  N   UNL     1      -0.984  -2.750  -1.933  1.00  0.00    -0.169 NA
ENDROOT
BRANCH   1   2
ATOM      2  C   UNL     1      -0.441  -2.682  -3.259  1.00  0.00     0.251 C 
BRANCH   2   3
ATOM      3  O   UNL     1      -0.405  -3.811  -4.080  1.00  0.00    -0.491 OA
ATOM      4  H   UNL     1      -0.704  -4.715  -3.740  1.00  0.00     0.295 HD
ENDBRANCH   2   3
BRANCH   2   5
ATOM      5  C   UNL     1       0.081  -1.538  -3.692  1.00  0.00     0.263 C 
BRANCH   5   6
ATOM      6  O   UNL     1       0.042  -0.404  -2.869  1.00  0.00    -0.459 OA
BRANCH   6   7
ATOM      7  C   UNL     1       0.587   0.851  -3.163  1.00  0.00     0.126 A 
ATOM      8  C   UNL     1       0.281   1.910  -2.295  1.00  0.00     0.048 A 
ATOM      9  C   UNL     1       1.425   1.091  -4.276  1.00  0.00     0.048 A 
ATOM     10  C   UNL     1       0.797   3.192  -2.530  1.00  0.00     0.024 A 
ATOM     11  C   UNL     1       1.947   2.370  -4.501  1.00  0.00     0.024 A 
ATOM     12  C   UNL     1       1.631   3.422  -3.632  1.00  0.00     0.041 A 
ATOM     13  Cl  UNL     1       2.281   5.024  -3.921  1.00  0.00    -0.084 Cl
ENDBRANCH   6   7
ENDBRANCH   5   6
ENDBRANCH   2   5
ENDBRANCH   1   2
BRANCH   1  14
ATOM     14  C   UNL     1      -2.138  -3.249  -1.596  1.00  0.00     0.256 C 
BRANCH  14  15
ATOM     15  O   UNL     1      -2.536  -3.292  -0.251  1.00  0.00    -0.431 OA
BRANCH  15  16
ATOM     16  C   UNL     1      -1.870  -2.698   0.837  1.00  0.00     0.166 A 
ATOM     17  C   UNL     1      -1.092  -1.532   0.709  1.00  0.00     0.059 A 
ATOM     18  C   UNL     1      -2.021  -3.283   2.099  1.00  0.00     0.168 A 
ATOM     19  C   UNL     1      -0.411  -1.000   1.815  1.00  0.00    -0.010 A 
ATOM     20  C   UNL     1      -1.356  -2.755   3.218  1.00  0.00    -0.011 A 
ATOM     21  C   UNL     1      -0.549  -1.617   3.069  1.00  0.00     0.015 A 
ATOM     22  F   UNL     1      -2.808  -4.383   2.235  1.00  0.00    -0.203 F 
ATOM     23  C   UNL     1      -1.536  -3.387   4.569  1.00  0.00     0.048 C 
BRANCH  19  24
ATOM     24  C   UNL     1       0.461   0.188   1.652  1.00  0.00     0.032 A 
ATOM     25  C   UNL     1       1.365   0.293   0.567  1.00  0.00     0.013 A 
ATOM     26  C   UNL     1       0.439   1.254   2.561  1.00  0.00     0.212 A 
ATOM     27  C   UNL     1       2.198   1.426   0.428  1.00  0.00     0.008 A 
ATOM     28  C   UNL     1       1.245   2.345   2.420  1.00  0.00     0.249 A 
ATOM     29  O   UNL     1      -0.304   1.417   3.628  1.00  0.00    -0.403 OA
ATOM     30  C   UNL     1       2.141   2.475   1.363  1.00  0.00     0.083 A 
ATOM     31  N   UNL     1       1.005   3.203   3.421  1.00  0.00    -0.176 N 
ATOM     32  C   UNL     1       0.039   2.587   4.144  1.00  0.00     0.521 A 
ATOM     33  H   UNL     1       1.454   4.127   3.603  1.00  0.00     0.457 HD
ENDBRANCH  19  24
ENDBRANCH  15  16
ENDBRANCH  14  15
BRANCH  14  34
ATOM     34  S   UNL     1      -3.283  -3.891  -2.819  1.00  0.00    -0.084 SA
ATOM     35  H   UNL     1      -3.894  -2.636  -2.987  1.00  0.00     0.113 HD
ENDBRANCH  14  34
ENDBRANCH   1  14
TORSDOF 10


