REMARK SMILES [H]/N=c1\[n-]cccc1Nc1ccc2c(nnn2C)c1C=C
REMARK SMILES IDX 9 1 8 3 3 4 4 5 5 6 7 7 6 8 2 9 1 10 10 11 11 12 19 13 12 14
REMARK SMILES IDX 14 15 13 16 15 17 17 18 16 19 18 20 20 21 21 22
REMARK H PARENT 9 2
ROOT
ATOM      1  N   UNL     1       0.729  -0.267  -1.431  1.00  0.00    -0.355 N 
ATOM      2  H   UNL     1       1.391   0.056  -2.173  1.00  0.00     0.167 HD
ENDROOT
BRANCH   1   3
ATOM      3  C   UNL     1       0.797  -1.642  -1.001  1.00  0.00     0.037 A 
ATOM      4  C   UNL     1       1.255  -2.646  -1.878  1.00  0.00    -0.041 A 
ATOM      5  N   UNL     1       1.325  -3.938  -1.454  1.00  0.00    -0.441 NA
ATOM      6  C   UNL     1       0.970  -4.304  -0.195  1.00  0.00    -0.022 A 
ATOM      7  C   UNL     1       0.439  -2.010   0.308  1.00  0.00     0.025 A 
ATOM      8  C   UNL     1       0.521  -3.344   0.710  1.00  0.00    -0.002 A 
BRANCH   4   9
ATOM      9  N   UNL     1       1.598  -2.351  -3.091  1.00  0.00    -0.480 NA
ATOM     10  H   UNL     1       1.935  -3.081  -3.758  1.00  0.00     0.020 HD
ENDBRANCH   4   9
ENDBRANCH   1   3
BRANCH   1  11
ATOM     11  C   UNL     1      -0.076   0.733  -0.785  1.00  0.00     0.048 A 
ATOM     12  C   UNL     1       0.547   1.937  -0.370  1.00  0.00     0.029 A 
ATOM     13  C   UNL     1      -1.474   0.540  -0.575  1.00  0.00     0.027 A 
ATOM     14  C   UNL     1      -0.184   2.945   0.279  1.00  0.00     0.032 A 
ATOM     15  C   UNL     1      -2.161   1.576   0.077  1.00  0.00     0.122 A 
ATOM     16  C   UNL     1      -1.539   2.716   0.487  1.00  0.00     0.089 A 
ATOM     17  N   UNL     1      -3.479   1.694   0.337  1.00  0.00    -0.130 NA
ATOM     18  N   UNL     1      -2.474   3.516   1.019  1.00  0.00    -0.248 N 
ATOM     19  N   UNL     1      -3.638   2.885   0.911  1.00  0.00    -0.066 NA
ATOM     20  C   UNL     1      -2.308   4.869   1.534  1.00  0.00     0.176 C 
BRANCH  13  21
ATOM     21  C   UNL     1      -2.173  -0.652  -1.110  1.00  0.00     0.005 C 
ATOM     22  C   UNL     1      -3.187  -1.245  -0.480  1.00  0.00     0.009 C 
ENDBRANCH  13  21
ENDBRANCH   1  11
TORSDOF 4


