REMARK SMILES [H]/N=c1\[nH]cccc1Nc1ccc2c(c1)n[nH+]n2C
REMARK SMILES IDX 3 1 8 2 7 3 6 4 5 5 4 6 2 8 1 9 9 10 10 12 11 13 15 14 12 15
REMARK SMILES IDX 14 16 13 17 16 18 18 19 17 20 19 21
REMARK H PARENT 4 7 9 11 17 22
ROOT
ATOM      1  C   UNL     1       2.737  -1.061   0.379  1.00  0.00     0.146 A 
ATOM      2  C   UNL     1       2.525  -1.605  -0.906  1.00  0.00     0.081 A 
ATOM      3  C   UNL     1       3.635  -1.892  -1.708  1.00  0.00     0.031 A 
ATOM      4  C   UNL     1       4.921  -1.597  -1.256  1.00  0.00     0.020 A 
ATOM      5  C   UNL     1       5.089  -1.030   0.006  1.00  0.00     0.084 A 
ATOM      6  N   UNL     1       4.008  -0.778   0.794  1.00  0.00    -0.345 N 
ATOM      7  H   UNL     1       4.171  -0.368   1.742  1.00  0.00     0.167 HD
ENDROOT
BRANCH   1   8
ATOM      8  N   UNL     1       1.733  -0.855   1.174  1.00  0.00    -0.283 NA
ATOM      9  H   UNL     1       1.854  -0.463   2.135  1.00  0.00     0.189 HD
ENDBRANCH   1   8
BRANCH   2  10
ATOM     10  N   UNL     1       1.209  -1.927  -1.388  1.00  0.00    -0.352 N 
ATOM     11  H   UNL     1       1.079  -2.850  -1.861  1.00  0.00     0.167 HD
BRANCH  10  12
ATOM     12  C   UNL     1       0.097  -1.015  -1.366  1.00  0.00     0.041 A 
ATOM     13  C   UNL     1      -1.223  -1.530  -1.476  1.00  0.00     0.028 A 
ATOM     14  C   UNL     1       0.298   0.387  -1.289  1.00  0.00     0.063 A 
ATOM     15  C   UNL     1      -2.338  -0.670  -1.480  1.00  0.00     0.037 A 
ATOM     16  C   UNL     1      -0.828   1.202  -1.293  1.00  0.00     0.164 A 
ATOM     17  C   UNL     1      -2.089   0.696  -1.379  1.00  0.00     0.133 A 
ATOM     18  N   UNL     1      -0.895   2.546  -1.245  1.00  0.00     0.025 NA
ATOM     19  N   UNL     1      -2.939   1.733  -1.374  1.00  0.00    -0.132 N 
ATOM     20  N   UNL     1      -2.194   2.832  -1.299  1.00  0.00    -0.016 N 
ATOM     21  C   UNL     1      -4.390   1.704  -1.512  1.00  0.00     0.226 C 
ATOM     22  H   UNL     1      -2.575   3.805  -1.294  1.00  0.00     0.526 HD
ENDBRANCH  10  12
ENDBRANCH   2  10
TORSDOF 3


