MODEL 1
REMARK VINA RESULT:      -6.5      0.000      0.000
REMARK SMILES Cc1cc(F)[nH+]cc1-c1ccc2cc[nH]c2c1/N=C(\O)c1cc(F)c[nH]1
REMARK SMILES IDX 18 1 19 2 20 3 21 5 22 6 26 7 23 8 25 9 24 11 17 12 9 13
REMARK SMILES IDX 16 14 10 15 15 16 12 17 11 18 14 19 13 20 8 22 2 23 7 24
REMARK SMILES IDX 3 25 6 26 4 27 1 28 5 30
REMARK H PARENT 20 4 26 10 15 21 6 29
ROOT
ATOM      1  N   UNL     1      45.614 130.697  19.210  1.00  0.00    -0.210 NA
ENDROOT
BRANCH   1   2
ATOM      2  C   UNL     1      45.951 130.700  20.464  1.00  0.00     0.235 C 
BRANCH   2   3
ATOM      3  O   UNL     1      46.672 131.775  20.991  1.00  0.00    -0.492 OA
ATOM      4  H   UNL     1      46.436 132.739  20.793  1.00  0.00     0.295 HD
ENDBRANCH   2   3
BRANCH   2   5
ATOM      5  C   UNL     1      45.534 129.571  21.321  1.00  0.00     0.104 A 
ATOM      6  C   UNL     1      45.835 128.234  21.119  1.00  0.00     0.072 A 
ATOM      7  N   UNL     1      44.789 129.716  22.438  1.00  0.00    -0.355 N 
ATOM      8  C   UNL     1      45.241 127.559  22.164  1.00  0.00     0.141 A 
ATOM      9  C   UNL     1      44.608 128.489  22.956  1.00  0.00     0.122 A 
ATOM     10  H   UNL     1      44.421 130.608  22.836  1.00  0.00     0.166 HD
ATOM     11  F   UNL     1      45.274 126.220  22.372  1.00  0.00    -0.205 F 
ENDBRANCH   2   5
ENDBRANCH   1   2
BRANCH   1  12
ATOM     12  C   UNL     1      44.382 131.223  18.695  1.00  0.00     0.099 A 
ATOM     13  C   UNL     1      44.139 131.242  17.299  1.00  0.00     0.016 A 
ATOM     14  C   UNL     1      43.415 131.802  19.533  1.00  0.00     0.072 A 
ATOM     15  C   UNL     1      42.928 131.783  16.798  1.00  0.00     0.012 A 
ATOM     16  N   UNL     1      43.471 131.979  20.866  1.00  0.00    -0.359 N 
ATOM     17  C   UNL     1      42.255 132.329  19.031  1.00  0.00     0.002 A 
ATOM     18  C   UNL     1      41.973 132.333  17.668  1.00  0.00     0.011 A 
ATOM     19  C   UNL     1      42.325 132.608  21.208  1.00  0.00     0.083 A 
ATOM     20  C   UNL     1      41.537 132.843  20.088  1.00  0.00     0.028 A 
ATOM     21  H   UNL     1      44.246 131.715  21.513  1.00  0.00     0.166 HD
BRANCH  13  22
ATOM     22  C   UNL     1      45.123 130.662  16.356  1.00  0.00     0.051 A 
ATOM     23  C   UNL     1      45.995 131.471  15.592  1.00  0.00    -0.028 A 
ATOM     24  C   UNL     1      45.198 129.267  16.219  1.00  0.00     0.318 A 
ATOM     25  C   UNL     1      46.881 130.857  14.695  1.00  0.00     0.118 A 
ATOM     26  N   UNL     1      46.081 128.705  15.352  1.00  0.00    -0.186 N 
ATOM     27  C   UNL     1      46.913 129.466  14.591  1.00  0.00     0.358 A 
ATOM     28  C   UNL     1      45.982 132.973  15.702  1.00  0.00     0.045 C 
ATOM     29  H   UNL     1      46.118 127.665  15.264  1.00  0.00     0.456 HD
ATOM     30  F   UNL     1      47.776 128.873  13.731  1.00  0.00    -0.136 F 
ENDBRANCH  13  22
ENDBRANCH   1  12
TORSDOF 5
ENDMDL
MODEL 2
REMARK VINA RESULT:      -6.3      1.020      1.186
REMARK SMILES Cc1cc(F)[nH+]cc1-c1ccc2cc[nH]c2c1/N=C(\O)c1cc(F)c[nH]1
REMARK SMILES IDX 18 1 19 2 20 3 21 5 22 6 26 7 23 8 25 9 24 11 17 12 9 13
REMARK SMILES IDX 16 14 10 15 15 16 12 17 11 18 14 19 13 20 8 22 2 23 7 24
REMARK SMILES IDX 3 25 6 26 4 27 1 28 5 30
REMARK H PARENT 20 4 26 10 15 21 6 29
ROOT
ATOM      1  N   UNL     1      45.590 130.857  19.320  1.00  0.00    -0.210 NA
ENDROOT
BRANCH   1   2
ATOM      2  C   UNL     1      45.879 130.820  20.586  1.00  0.00     0.235 C 
BRANCH   2   3
ATOM      3  O   UNL     1      46.536 131.897  21.185  1.00  0.00    -0.492 OA
ATOM      4  H   UNL     1      47.541 132.014  21.143  1.00  0.00     0.295 HD
ENDBRANCH   2   3
BRANCH   2   5
ATOM      5  C   UNL     1      45.475 129.640  21.378  1.00  0.00     0.104 A 
ATOM      6  C   UNL     1      44.604 129.636  22.457  1.00  0.00     0.072 A 
ATOM      7  N   UNL     1      45.919 128.388  21.134  1.00  0.00    -0.355 N 
ATOM      8  C   UNL     1      44.531 128.322  22.868  1.00  0.00     0.141 A 
ATOM      9  C   UNL     1      45.344 127.580  22.042  1.00  0.00     0.122 A 
ATOM     10  H   UNL     1      46.580 128.091  20.383  1.00  0.00     0.166 HD
ATOM     11  F   UNL     1      43.791 127.847  23.900  1.00  0.00    -0.205 F 
ENDBRANCH   2   5
ENDBRANCH   1   2
BRANCH   1  12
ATOM     12  C   UNL     1      44.350 131.336  18.781  1.00  0.00     0.099 A 
ATOM     13  C   UNL     1      44.130 131.336  17.381  1.00  0.00     0.016 A 
ATOM     14  C   UNL     1      43.349 131.887  19.597  1.00  0.00     0.072 A 
ATOM     15  C   UNL     1      42.909 131.831  16.855  1.00  0.00     0.012 A 
ATOM     16  N   UNL     1      43.376 132.076  20.930  1.00  0.00    -0.359 N 
ATOM     17  C   UNL     1      42.179 132.369  19.072  1.00  0.00     0.002 A 
ATOM     18  C   UNL     1      41.921 132.353  17.705  1.00  0.00     0.011 A 
ATOM     19  C   UNL     1      42.203 132.666  21.248  1.00  0.00     0.083 A 
ATOM     20  C   UNL     1      41.426 132.865  20.113  1.00  0.00     0.028 A 
ATOM     21  H   UNL     1      44.148 131.844  21.593  1.00  0.00     0.166 HD
BRANCH  13  22
ATOM     22  C   UNL     1      45.150 130.785  16.459  1.00  0.00     0.051 A 
ATOM     23  C   UNL     1      45.064 130.955  15.058  1.00  0.00    -0.028 A 
ATOM     24  C   UNL     1      46.238 130.076  16.991  1.00  0.00     0.318 A 
ATOM     25  C   UNL     1      46.049 130.379  14.242  1.00  0.00     0.118 A 
ATOM     26  N   UNL     1      47.184 129.546  16.170  1.00  0.00    -0.186 N 
ATOM     27  C   UNL     1      47.108 129.679  14.819  1.00  0.00     0.358 A 
ATOM     28  C   UNL     1      43.934 131.720  14.421  1.00  0.00     0.045 C 
ATOM     29  H   UNL     1      47.984 129.020  16.588  1.00  0.00     0.456 HD
ATOM     30  F   UNL     1      48.065 129.131  14.030  1.00  0.00    -0.136 F 
ENDBRANCH  13  22
ENDBRANCH   1  12
TORSDOF 5
ENDMDL
MODEL 3
REMARK VINA RESULT:      -6.0      2.333      6.372
REMARK SMILES Cc1cc(F)[nH+]cc1-c1ccc2cc[nH]c2c1/N=C(\O)c1cc(F)c[nH]1
REMARK SMILES IDX 18 1 19 2 20 3 21 5 22 6 26 7 23 8 25 9 24 11 17 12 9 13
REMARK SMILES IDX 16 14 10 15 15 16 12 17 11 18 14 19 13 20 8 22 2 23 7 24
REMARK SMILES IDX 3 25 6 26 4 27 1 28 5 30
REMARK H PARENT 20 4 26 10 15 21 6 29
ROOT
ATOM      1  N   UNL     1      45.423 129.336  20.995  1.00  0.00    -0.210 NA
ENDROOT
BRANCH   1   2
ATOM      2  C   UNL     1      45.769 130.442  20.409  1.00  0.00     0.235 C 
BRANCH   2   3
ATOM      3  O   UNL     1      46.424 131.442  21.132  1.00  0.00    -0.492 OA
ATOM      4  H   UNL     1      46.210 132.424  21.020  1.00  0.00     0.295 HD
ENDBRANCH   2   3
BRANCH   2   5
ATOM      5  C   UNL     1      45.487 130.607  18.968  1.00  0.00     0.104 A 
ATOM      6  C   UNL     1      44.543 131.453  18.408  1.00  0.00     0.072 A 
ATOM      7  N   UNL     1      46.139 129.931  17.997  1.00  0.00    -0.355 N 
ATOM      8  C   UNL     1      44.642 131.269  17.046  1.00  0.00     0.141 A 
ATOM      9  C   UNL     1      45.626 130.334  16.821  1.00  0.00     0.122 A 
ATOM     10  H   UNL     1      46.902 129.229  18.123  1.00  0.00     0.166 HD
ATOM     11  F   UNL     1      43.903 131.897  16.099  1.00  0.00    -0.205 F 
ENDBRANCH   2   5
ENDBRANCH   1   2
BRANCH   1  12
ATOM     12  C   UNL     1      44.643 129.260  22.197  1.00  0.00     0.099 A 
ATOM     13  C   UNL     1      44.614 128.064  22.958  1.00  0.00     0.016 A 
ATOM     14  C   UNL     1      43.828 130.322  22.621  1.00  0.00     0.072 A 
ATOM     15  C   UNL     1      43.823 127.991  24.133  1.00  0.00     0.012 A 
ATOM     16  N   UNL     1      43.625 131.505  22.014  1.00  0.00    -0.359 N 
ATOM     17  C   UNL     1      43.063 130.231  23.754  1.00  0.00     0.002 A 
ATOM     18  C   UNL     1      43.039 129.082  24.540  1.00  0.00     0.011 A 
ATOM     19  C   UNL     1      42.737 132.173  22.783  1.00  0.00     0.083 A 
ATOM     20  C   UNL     1      42.362 131.409  23.882  1.00  0.00     0.028 A 
ATOM     21  H   UNL     1      44.040 131.843  21.118  1.00  0.00     0.166 HD
BRANCH  13  22
ATOM     22  C   UNL     1      45.436 126.899  22.559  1.00  0.00     0.051 A 
ATOM     23  C   UNL     1      44.869 125.623  22.334  1.00  0.00    -0.028 A 
ATOM     24  C   UNL     1      46.820 127.065  22.394  1.00  0.00     0.318 A 
ATOM     25  C   UNL     1      45.712 124.557  21.990  1.00  0.00     0.118 A 
ATOM     26  N   UNL     1      47.604 126.011  22.042  1.00  0.00    -0.186 N 
ATOM     27  C   UNL     1      47.083 124.772  21.843  1.00  0.00     0.358 A 
ATOM     28  C   UNL     1      43.390 125.378  22.475  1.00  0.00     0.045 C 
ATOM     29  H   UNL     1      48.633 126.157  21.928  1.00  0.00     0.456 HD
ATOM     30  F   UNL     1      47.895 123.742  21.500  1.00  0.00    -0.136 F 
ENDBRANCH  13  22
ENDBRANCH   1  12
TORSDOF 5
ENDMDL
MODEL 4
REMARK VINA RESULT:      -5.5      4.115      7.505
REMARK SMILES Cc1cc(F)[nH+]cc1-c1ccc2cc[nH]c2c1/N=C(\O)c1cc(F)c[nH]1
REMARK SMILES IDX 18 1 19 2 20 3 21 5 22 6 26 7 23 8 25 9 24 11 17 12 9 13
REMARK SMILES IDX 16 14 10 15 15 16 12 17 11 18 14 19 13 20 8 22 2 23 7 24
REMARK SMILES IDX 3 25 6 26 4 27 1 28 5 30
REMARK H PARENT 20 4 26 10 15 21 6 29
ROOT
ATOM      1  N   UNL     1      44.923 127.182  22.545  1.00  0.00    -0.210 NA
ENDROOT
BRANCH   1   2
ATOM      2  C   UNL     1      44.879 128.368  23.073  1.00  0.00     0.235 C 
BRANCH   2   3
ATOM      3  O   UNL     1      45.058 128.529  24.449  1.00  0.00    -0.492 OA
ATOM      4  H   UNL     1      45.046 127.749  25.095  1.00  0.00     0.295 HD
ENDBRANCH   2   3
BRANCH   2   5
ATOM      5  C   UNL     1      44.670 129.536  22.192  1.00  0.00     0.104 A 
ATOM      6  C   UNL     1      45.472 129.914  21.127  1.00  0.00     0.072 A 
ATOM      7  N   UNL     1      43.637 130.397  22.325  1.00  0.00    -0.355 N 
ATOM      8  C   UNL     1      44.887 131.050  20.608  1.00  0.00     0.141 A 
ATOM      9  C   UNL     1      43.766 131.323  21.359  1.00  0.00     0.122 A 
ATOM     10  H   UNL     1      42.875 130.358  23.038  1.00  0.00     0.166 HD
ATOM     11  F   UNL     1      45.335 131.767  19.550  1.00  0.00    -0.205 F 
ENDBRANCH   2   5
ENDBRANCH   1   2
BRANCH   1  12
ATOM     12  C   UNL     1      44.395 125.997  23.158  1.00  0.00     0.099 A 
ATOM     13  C   UNL     1      45.158 124.802  23.183  1.00  0.00     0.016 A 
ATOM     14  C   UNL     1      43.093 125.949  23.680  1.00  0.00     0.072 A 
ATOM     15  C   UNL     1      44.619 123.630  23.772  1.00  0.00     0.012 A 
ATOM     16  N   UNL     1      42.163 126.922  23.681  1.00  0.00    -0.359 N 
ATOM     17  C   UNL     1      42.585 124.805  24.237  1.00  0.00     0.002 A 
ATOM     18  C   UNL     1      43.321 123.627  24.306  1.00  0.00     0.011 A 
ATOM     19  C   UNL     1      41.064 126.390  24.262  1.00  0.00     0.083 A 
ATOM     20  C   UNL     1      41.289 125.068  24.625  1.00  0.00     0.028 A 
ATOM     21  H   UNL     1      42.248 127.888  23.293  1.00  0.00     0.166 HD
BRANCH  13  22
ATOM     22  C   UNL     1      46.534 124.777  22.635  1.00  0.00     0.051 A 
ATOM     23  C   UNL     1      47.618 125.387  23.305  1.00  0.00    -0.028 A 
ATOM     24  C   UNL     1      46.770 124.122  21.416  1.00  0.00     0.318 A 
ATOM     25  C   UNL     1      48.889 125.352  22.712  1.00  0.00     0.118 A 
ATOM     26  N   UNL     1      48.019 124.093  20.880  1.00  0.00    -0.186 N 
ATOM     27  C   UNL     1      49.072 124.693  21.496  1.00  0.00     0.358 A 
ATOM     28  C   UNL     1      47.440 126.091  24.624  1.00  0.00     0.045 C 
ATOM     29  H   UNL     1      48.172 123.602  19.970  1.00  0.00     0.456 HD
ATOM     30  F   UNL     1      50.303 124.651  20.929  1.00  0.00    -0.136 F 
ENDBRANCH  13  22
ENDBRANCH   1  12
TORSDOF 5
ENDMDL
MODEL 5
REMARK VINA RESULT:      -4.8      0.830      1.412
REMARK SMILES Cc1cc(F)[nH+]cc1-c1ccc2cc[nH]c2c1/N=C(\O)c1cc(F)c[nH]1
REMARK SMILES IDX 18 1 19 2 20 3 21 5 22 6 26 7 23 8 25 9 24 11 17 12 9 13
REMARK SMILES IDX 16 14 10 15 15 16 12 17 11 18 14 19 13 20 8 22 2 23 7 24
REMARK SMILES IDX 3 25 6 26 4 27 1 28 5 30
REMARK H PARENT 20 4 26 10 15 21 6 29
ROOT
ATOM      1  N   UNL     1      45.714 131.021  19.054  1.00  0.00    -0.210 NA
ENDROOT
BRANCH   1   2
ATOM      2  C   UNL     1      46.069 130.959  20.302  1.00  0.00     0.235 C 
BRANCH   2   3
ATOM      3  O   UNL     1      46.830 131.987  20.865  1.00  0.00    -0.492 OA
ATOM      4  H   UNL     1      47.368 132.636  20.304  1.00  0.00     0.295 HD
ENDBRANCH   2   3
BRANCH   2   5
ATOM      5  C   UNL     1      45.630 129.807  21.115  1.00  0.00     0.104 A 
ATOM      6  C   UNL     1      45.889 128.471  20.852  1.00  0.00     0.072 A 
ATOM      7  N   UNL     1      44.902 129.924  22.247  1.00  0.00    -0.355 N 
ATOM      8  C   UNL     1      45.288 127.768  21.874  1.00  0.00     0.141 A 
ATOM      9  C   UNL     1      44.692 128.681  22.714  1.00  0.00     0.122 A 
ATOM     10  H   UNL     1      44.565 130.808  22.688  1.00  0.00     0.166 HD
ATOM     11  F   UNL     1      45.284 126.421  22.024  1.00  0.00    -0.205 F 
ENDBRANCH   2   5
ENDBRANCH   1   2
BRANCH   1  12
ATOM     12  C   UNL     1      44.427 131.457  18.593  1.00  0.00     0.099 A 
ATOM     13  C   UNL     1      44.169 131.583  17.205  1.00  0.00     0.016 A 
ATOM     14  C   UNL     1      43.413 131.844  19.483  1.00  0.00     0.072 A 
ATOM     15  C   UNL     1      42.901 132.035  16.759  1.00  0.00     0.012 A 
ATOM     16  N   UNL     1      43.463 131.898  20.827  1.00  0.00    -0.359 N 
ATOM     17  C   UNL     1      42.196 132.287  19.034  1.00  0.00     0.002 A 
ATOM     18  C   UNL     1      41.901 132.391  17.678  1.00  0.00     0.011 A 
ATOM     19  C   UNL     1      42.259 132.362  21.228  1.00  0.00     0.083 A 
ATOM     20  C   UNL     1      41.438 132.616  20.136  1.00  0.00     0.028 A 
ATOM     21  H   UNL     1      44.269 131.658  21.446  1.00  0.00     0.166 HD
BRANCH  13  22
ATOM     22  C   UNL     1      45.200 131.208  16.210  1.00  0.00     0.051 A 
ATOM     23  C   UNL     1      45.434 129.862  15.844  1.00  0.00    -0.028 A 
ATOM     24  C   UNL     1      45.967 132.218  15.608  1.00  0.00     0.318 A 
ATOM     25  C   UNL     1      46.448 129.576  14.919  1.00  0.00     0.118 A 
ATOM     26  N   UNL     1      46.930 131.905  14.701  1.00  0.00    -0.186 N 
ATOM     27  C   UNL     1      47.186 130.616  14.352  1.00  0.00     0.358 A 
ATOM     28  C   UNL     1      44.637 128.730  16.437  1.00  0.00     0.045 C 
ATOM     29  H   UNL     1      47.490 132.672  14.267  1.00  0.00     0.456 HD
ATOM     30  F   UNL     1      48.160 130.338  13.451  1.00  0.00    -0.136 F 
ENDBRANCH  13  22
ENDBRANCH   1  12
TORSDOF 5
ENDMDL
MODEL 6
REMARK VINA RESULT:      -3.7      2.605      3.229
REMARK SMILES Cc1cc(F)[nH+]cc1-c1ccc2cc[nH]c2c1/N=C(\O)c1cc(F)c[nH]1
REMARK SMILES IDX 18 1 19 2 20 3 21 5 22 6 26 7 23 8 25 9 24 11 17 12 9 13
REMARK SMILES IDX 16 14 10 15 15 16 12 17 11 18 14 19 13 20 8 22 2 23 7 24
REMARK SMILES IDX 3 25 6 26 4 27 1 28 5 30
REMARK H PARENT 20 4 26 10 15 21 6 29
ROOT
ATOM      1  N   UNL     1      45.695 131.123  19.365  1.00  0.00    -0.210 NA
ENDROOT
BRANCH   1   2
ATOM      2  C   UNL     1      46.036 131.225  20.615  1.00  0.00     0.235 C 
BRANCH   2   3
ATOM      3  O   UNL     1      45.697 130.214  21.517  1.00  0.00    -0.492 OA
ATOM      4  H   UNL     1      46.077 129.278  21.455  1.00  0.00     0.295 HD
ENDBRANCH   2   3
BRANCH   2   5
ATOM      5  C   UNL     1      46.809 132.406  21.051  1.00  0.00     0.104 A 
ATOM      6  C   UNL     1      46.349 133.712  21.108  1.00  0.00     0.072 A 
ATOM      7  N   UNL     1      48.095 132.348  21.460  1.00  0.00    -0.355 N 
ATOM      8  C   UNL     1      47.410 134.459  21.572  1.00  0.00     0.141 A 
ATOM      9  C   UNL     1      48.466 133.601  21.780  1.00  0.00     0.122 A 
ATOM     10  H   UNL     1      48.696 131.497  21.524  1.00  0.00     0.166 HD
ATOM     11  F   UNL     1      47.414 135.798  21.784  1.00  0.00    -0.205 F 
ENDBRANCH   2   5
ENDBRANCH   1   2
BRANCH   1  12
ATOM     12  C   UNL     1      44.401 131.458  18.843  1.00  0.00     0.099 A 
ATOM     13  C   UNL     1      44.144 131.366  17.452  1.00  0.00     0.016 A 
ATOM     14  C   UNL     1      43.376 131.957  19.663  1.00  0.00     0.072 A 
ATOM     15  C   UNL     1      42.869 131.720  16.942  1.00  0.00     0.012 A 
ATOM     16  N   UNL     1      43.422 132.215  20.983  1.00  0.00    -0.359 N 
ATOM     17  C   UNL     1      42.153 132.303  19.152  1.00  0.00     0.002 A 
ATOM     18  C   UNL     1      41.861 132.193  17.796  1.00  0.00     0.011 A 
ATOM     19  C   UNL     1      42.208 132.712  21.309  1.00  0.00     0.083 A 
ATOM     20  C   UNL     1      41.386 132.781  20.190  1.00  0.00     0.028 A 
ATOM     21  H   UNL     1      44.230 132.089  21.631  1.00  0.00     0.166 HD
BRANCH  13  22
ATOM     22  C   UNL     1      45.186 130.864  16.526  1.00  0.00     0.051 A 
ATOM     23  C   UNL     1      45.097 131.049  15.127  1.00  0.00    -0.028 A 
ATOM     24  C   UNL     1      46.298 130.188  17.052  1.00  0.00     0.318 A 
ATOM     25  C   UNL     1      46.104 130.518  14.307  1.00  0.00     0.118 A 
ATOM     26  N   UNL     1      47.264 129.702  16.228  1.00  0.00    -0.186 N 
ATOM     27  C   UNL     1      47.187 129.849  14.878  1.00  0.00     0.358 A 
ATOM     28  C   UNL     1      43.942 131.780  14.496  1.00  0.00     0.045 C 
ATOM     29  H   UNL     1      48.082 129.200  16.641  1.00  0.00     0.456 HD
ATOM     30  F   UNL     1      48.164 129.346  14.085  1.00  0.00    -0.136 F 
ENDBRANCH  13  22
ENDBRANCH   1  12
TORSDOF 5
ENDMDL


