REMARK SMILES O/C(=N/[C@H]1C[C@H]1c1ccccc1)[N-]CCc1ccc(-c2cnc3cc[nH+]n3c2)cc1
REMARK SMILES IDX 13 1 2 2 1 3 3 5 4 6 5 7 6 8 7 9 8 10 12 11 9 12 11 13 10 14
REMARK SMILES IDX 14 15 15 16 16 17 17 18 30 19 18 20 29 21 19 22 20 23 21 24
REMARK SMILES IDX 28 25 22 26 27 27 23 28 26 29 24 30 25 31
REMARK H PARENT 1 4 26 32
ROOT
ATOM      1  N   UNL     1      -1.750  -0.634  -2.539  1.00  0.00    -0.435 NA
ENDROOT
BRANCH   1   2
ATOM      2  C   UNL     1      -0.706  -0.816  -3.502  1.00  0.00     0.090 C 
BRANCH   2   3
ATOM      3  O   UNL     1      -0.752  -0.132  -4.715  1.00  0.00    -0.516 OA
ATOM      4  H   UNL     1      -0.007  -0.232  -5.400  1.00  0.00     0.292 HD
ENDBRANCH   2   3
BRANCH   2   5
ATOM      5  N   UNL     1       0.294  -1.603  -3.248  1.00  0.00    -0.431 NA
BRANCH   5   6
ATOM      6  C   UNL     1       0.432  -2.353  -1.999  1.00  0.00     0.002 C 
ATOM      7  C   UNL     1       1.823  -2.947  -1.859  1.00  0.00     0.012 C 
ATOM      8  C   UNL     1       1.405  -1.782  -0.963  1.00  0.00     0.022 C 
BRANCH   8   9
ATOM      9  C   UNL     1       1.994  -0.429  -1.279  1.00  0.00    -0.045 A 
ATOM     10  C   UNL     1       1.184   0.710  -1.170  1.00  0.00     0.004 A 
ATOM     11  C   UNL     1       3.358  -0.276  -1.589  1.00  0.00     0.004 A 
ATOM     12  C   UNL     1       1.713   1.979  -1.415  1.00  0.00     0.000 A 
ATOM     13  C   UNL     1       3.884   0.997  -1.834  1.00  0.00     0.000 A 
ATOM     14  C   UNL     1       3.062   2.123  -1.751  1.00  0.00     0.000 A 
ENDBRANCH   8   9
ENDBRANCH   5   6
ENDBRANCH   2   5
ENDBRANCH   1   2
BRANCH   1  15
ATOM     15  C   UNL     1      -2.829   0.327  -2.725  1.00  0.00     0.008 C 
BRANCH  15  16
ATOM     16  C   UNL     1      -3.631   0.480  -1.430  1.00  0.00     0.034 C 
BRANCH  16  17
ATOM     17  C   UNL     1      -2.750   0.943  -0.296  1.00  0.00    -0.048 A 
ATOM     18  C   UNL     1      -2.292   0.026   0.665  1.00  0.00     0.004 A 
ATOM     19  C   UNL     1      -2.304   2.272  -0.246  1.00  0.00     0.004 A 
ATOM     20  C   UNL     1      -1.404   0.434   1.662  1.00  0.00     0.009 A 
ATOM     21  C   UNL     1      -1.398   2.675   0.738  1.00  0.00     0.009 A 
ATOM     22  C   UNL     1      -0.938   1.759   1.700  1.00  0.00    -0.015 A 
BRANCH  22  23
ATOM     23  C   UNL     1       0.060   2.173   2.714  1.00  0.00     0.022 A 
ATOM     24  C   UNL     1       1.194   2.946   2.349  1.00  0.00     0.124 A 
ATOM     25  C   UNL     1      -0.076   1.792   4.064  1.00  0.00     0.169 A 
ATOM     26  N   UNL     1       2.127   3.305   3.284  1.00  0.00    -0.233 NA
ATOM     27  N   UNL     1       0.881   2.192   4.939  1.00  0.00    -0.111 N 
ATOM     28  C   UNL     1       1.942   2.917   4.570  1.00  0.00     0.199 A 
ATOM     29  N   UNL     1       0.953   1.937   6.236  1.00  0.00    -0.125 N 
ATOM     30  C   UNL     1       2.752   3.158   5.663  1.00  0.00     0.126 A 
ATOM     31  C   UNL     1       2.087   2.512   6.708  1.00  0.00     0.337 A 
ATOM     32  H   UNL     1       0.262   1.375   6.784  1.00  0.00     0.488 HD
ENDBRANCH  22  23
ENDBRANCH  16  17
ENDBRANCH  15  16
ENDBRANCH   1  15
TORSDOF 9


