REMARK SMILES C/C=C/C(=O)N1Cc2[nH+]cc(-c3ccc4[nH]ccc4c3)cc2C1=O
REMARK SMILES IDX 4 1 5 2 3 3 2 4 1 5 6 6 23 7 7 8 22 9 8 10 21 11 9 12 11 13
REMARK SMILES IDX 10 14 24 15 12 17 13 18 20 19 14 20 19 21 15 22 18 23 16 24
REMARK SMILES IDX 17 25
REMARK H PARENT 9 16 16 26
ROOT
ATOM      1  C   UNL     1       4.417   0.452  -1.314  1.00  0.00     0.253 C 
ATOM      2  O   UNL     1       4.567   0.473  -2.566  1.00  0.00    -0.269 OA
ENDROOT
BRANCH   1   3
ATOM      3  C   UNL     1       5.600   0.540  -0.430  1.00  0.00     0.067 C 
BRANCH   3   4
ATOM      4  C   UNL     1       6.843   0.643  -0.910  1.00  0.00    -0.025 C 
ATOM      5  C   UNL     1       8.017   0.730   0.011  1.00  0.00     0.036 C 
ENDBRANCH   3   4
ENDBRANCH   1   3
BRANCH   1   6
ATOM      6  N   UNL     1       3.094   0.343  -0.759  1.00  0.00    -0.264 N 
ATOM      7  C   UNL     1       1.878   0.251  -1.506  1.00  0.00     0.267 C 
ATOM      8  C   UNL     1       2.760   0.306   0.672  1.00  0.00     0.238 C 
ATOM      9  C   UNL     1       0.760   0.155  -0.603  1.00  0.00     0.110 A 
ATOM     10  C   UNL     1       1.264   0.188   0.671  1.00  0.00     0.212 A 
ATOM     11  C   UNL     1      -0.605   0.052  -0.839  1.00  0.00     0.035 A 
ATOM     12  N   UNL     1       0.447   0.120   1.753  1.00  0.00    -0.212 N 
ATOM     13  C   UNL     1      -1.468  -0.019   0.276  1.00  0.00     0.046 A 
ATOM     14  C   UNL     1      -0.905   0.017   1.578  1.00  0.00     0.315 A 
ATOM     15  O   UNL     1       1.806   0.255  -2.764  1.00  0.00    -0.268 OA
ATOM     16  H   UNL     1       0.849   0.143   2.716  1.00  0.00     0.453 HD
BRANCH  13  17
ATOM     17  C   UNL     1      -2.937  -0.129   0.088  1.00  0.00    -0.012 A 
ATOM     18  C   UNL     1      -3.471  -0.944  -0.947  1.00  0.00     0.011 A 
ATOM     19  C   UNL     1      -3.821   0.579   0.939  1.00  0.00     0.019 A 
ATOM     20  C   UNL     1      -4.860  -1.054  -1.135  1.00  0.00     0.027 A 
ATOM     21  C   UNL     1      -5.190   0.445   0.723  1.00  0.00    -0.000 A 
ATOM     22  C   UNL     1      -5.692  -0.342  -0.276  1.00  0.00     0.045 A 
ATOM     23  C   UNL     1      -6.260   1.010   1.381  1.00  0.00     0.028 A 
ATOM     24  N   UNL     1      -7.035  -0.305  -0.283  1.00  0.00    -0.361 N 
ATOM     25  C   UNL     1      -7.387   0.520   0.729  1.00  0.00     0.083 A 
ATOM     26  H   UNL     1      -7.678  -0.808  -0.935  1.00  0.00     0.166 HD
ENDBRANCH  13  17
ENDBRANCH   1   6
TORSDOF 4


