REMARK SMILES [O-]c1ccc(-c2cc3cc(/N=C4/[CH]C=CC4)ncc3nc2Cl)cc1
REMARK SMILES IDX 10 1 17 2 18 3 19 4 20 5 21 6 22 7 6 8 7 9 8 10 9 11 11 12
REMARK SMILES IDX 12 13 13 14 14 15 15 16 16 17 5 18 4 19 23 20 3 21 24 22
REMARK SMILES IDX 2 23 1 24
REMARK H PARENT
ROOT
ATOM      1  C   UNL     1      -0.761   1.547  -0.460  1.00  0.00     0.152 A 
ATOM      2  N   UNL     1      -1.923   0.871  -0.691  1.00  0.00    -0.235 NA
ATOM      3  C   UNL     1      -2.059  -0.452  -0.410  1.00  0.00     0.142 A 
ATOM      4  C   UNL     1      -0.988  -1.163   0.135  1.00  0.00     0.090 A 
ATOM      5  N   UNL     1      -1.107  -2.486   0.416  1.00  0.00    -0.234 NA
ATOM      6  C   UNL     1      -0.085  -3.206   0.951  1.00  0.00     0.137 A 
ATOM      7  Cl  UNL     1      -0.333  -4.927   1.212  1.00  0.00    -0.062 Cl
ATOM      8  C   UNL     1       1.149  -2.578   1.230  1.00  0.00     0.020 A 
ATOM      9  C   UNL     1       1.294  -1.213   0.930  1.00  0.00     0.022 A 
ATOM     10  C   UNL     1       0.225  -0.495   0.384  1.00  0.00     0.006 A 
ATOM     11  C   UNL     1       0.336   0.869   0.085  1.00  0.00     0.059 A 
ENDROOT
BRANCH   1  12
ATOM     12  N   UNL     1      -0.632   2.946  -0.762  1.00  0.00    -0.237 NA
BRANCH  12  13
ATOM     13  C   UNL     1      -1.530   3.741  -1.269  1.00  0.00     0.032 C 
ATOM     14  C   UNL     1      -1.248   5.178  -1.532  1.00  0.00     0.069 C 
ATOM     15  C   UNL     1      -2.546   5.641  -2.098  1.00  0.00    -0.020 C 
ATOM     16  C   UNL     1      -3.448   4.665  -2.170  1.00  0.00    -0.025 C 
ATOM     17  C   UNL     1      -2.922   3.367  -1.665  1.00  0.00     0.079 C 
ENDBRANCH  12  13
ENDBRANCH   1  12
BRANCH   8  18
ATOM     18  C   UNL     1       2.288  -3.315   1.821  1.00  0.00    -0.015 A 
ATOM     19  C   UNL     1       2.146  -3.983   3.050  1.00  0.00     0.008 A 
ATOM     20  C   UNL     1       3.537  -3.321   1.177  1.00  0.00     0.008 A 
ATOM     21  C   UNL     1       3.231  -4.662   3.613  1.00  0.00    -0.008 A 
ATOM     22  C   UNL     1       4.620  -4.002   1.742  1.00  0.00    -0.008 A 
ATOM     23  C   UNL     1       4.467  -4.674   2.959  1.00  0.00    -0.109 A 
ATOM     24  O   UNL     1       5.544  -5.350   3.519  1.00  0.00    -0.872 OA
ENDBRANCH   8  18
TORSDOF 3


