MODEL 1
REMARK VINA RESULT:      -3.8      0.000      0.000
REMARK SMILES O=C(c1cscn1)N1C[C@@H]2CCCC[C@@H]2N[C@@H]1c1ccc2[nH]ccc2c1
REMARK SMILES IDX 8 1 9 2 10 3 11 4 12 5 13 6 14 7 15 8 16 9 17 10 2 12 1 13
REMARK SMILES IDX 3 14 4 15 7 16 5 17 6 18 18 19 19 20 26 21 20 22 25 23 21 24
REMARK SMILES IDX 24 25 22 26 23 27
REMARK H PARENT 16 11 22 28
ROOT
ATOM      1  N   UNL     1      44.551 125.498  23.155  1.00  0.00    -0.317 N 
ATOM      2  C   UNL     1      43.122 125.427  23.488  1.00  0.00     0.127 C 
ATOM      3  C   UNL     1      42.333 124.923  22.275  1.00  0.00     0.026 C 
ATOM      4  C   UNL     1      40.807 124.927  22.505  1.00  0.00     0.007 C 
ATOM      5  C   UNL     1      40.335 123.761  23.377  1.00  0.00     0.000 C 
ATOM      6  C   UNL     1      40.791 122.430  22.780  1.00  0.00     0.002 C 
ATOM      7  C   UNL     1      42.315 122.387  22.671  1.00  0.00     0.019 C 
ATOM      8  C   UNL     1      42.875 123.540  21.816  1.00  0.00     0.060 C 
ATOM      9  N   UNL     1      44.353 123.450  21.867  1.00  0.00    -0.290 NA
ATOM     10  C   UNL     1      45.071 124.730  22.005  1.00  0.00     0.185 C 
ATOM     11  H   UNL     1      44.686 122.972  20.996  1.00  0.00     0.125 HD
ENDROOT
BRANCH   1  12
ATOM     12  C   UNL     1      45.319 126.586  23.703  1.00  0.00     0.274 C 
ATOM     13  O   UNL     1      46.214 126.348  24.559  1.00  0.00    -0.267 OA
BRANCH  12  14
ATOM     14  C   UNL     1      45.073 127.978  23.289  1.00  0.00     0.139 A 
ATOM     15  C   UNL     1      44.983 128.383  21.960  1.00  0.00     0.100 A 
ATOM     16  N   UNL     1      44.869 128.966  24.204  1.00  0.00    -0.240 NA
ATOM     17  S   UNL     1      44.652 130.030  21.949  1.00  0.00    -0.130 S 
ATOM     18  C   UNL     1      44.631 130.162  23.623  1.00  0.00     0.176 A 
ENDBRANCH  12  14
ENDBRANCH   1  12
BRANCH  10  19
ATOM     19  C   UNL     1      46.544 124.430  22.190  1.00  0.00    -0.010 A 
ATOM     20  C   UNL     1      47.023 123.100  22.039  1.00  0.00     0.009 A 
ATOM     21  C   UNL     1      47.447 125.465  22.519  1.00  0.00     0.017 A 
ATOM     22  C   UNL     1      48.384 122.802  22.221  1.00  0.00     0.027 A 
ATOM     23  C   UNL     1      48.789 125.132  22.691  1.00  0.00    -0.000 A 
ATOM     24  C   UNL     1      49.242 123.849  22.548  1.00  0.00     0.045 A 
ATOM     25  C   UNL     1      49.874 125.919  23.012  1.00  0.00     0.028 A 
ATOM     26  N   UNL     1      50.566 123.783  22.764  1.00  0.00    -0.361 N 
ATOM     27  C   UNL     1      50.957 125.047  23.048  1.00  0.00     0.083 A 
ATOM     28  H   UNL     1      51.172 122.934  22.722  1.00  0.00     0.166 HD
ENDBRANCH  10  19
TORSDOF 3
ENDMDL
MODEL 2
REMARK VINA RESULT:      -3.4      2.808      5.752
REMARK SMILES O=C(c1cscn1)N1C[C@@H]2CCCC[C@@H]2N[C@@H]1c1ccc2[nH]ccc2c1
REMARK SMILES IDX 8 1 9 2 10 3 11 4 12 5 13 6 14 7 15 8 16 9 17 10 2 12 1 13
REMARK SMILES IDX 3 14 4 15 7 16 5 17 6 18 18 19 19 20 26 21 20 22 25 23 21 24
REMARK SMILES IDX 24 25 22 26 23 27
REMARK H PARENT 16 11 22 28
ROOT
ATOM      1  N   UNL     1      44.633 129.079  22.353  1.00  0.00    -0.317 N 
ATOM      2  C   UNL     1      44.196 130.367  21.800  1.00  0.00     0.127 C 
ATOM      3  C   UNL     1      45.371 131.053  21.096  1.00  0.00     0.026 C 
ATOM      4  C   UNL     1      45.024 132.467  20.583  1.00  0.00     0.007 C 
ATOM      5  C   UNL     1      44.187 132.445  19.302  1.00  0.00     0.000 C 
ATOM      6  C   UNL     1      44.892 131.632  18.218  1.00  0.00     0.002 C 
ATOM      7  C   UNL     1      45.121 130.195  18.689  1.00  0.00     0.019 C 
ATOM      8  C   UNL     1      45.949 130.129  19.987  1.00  0.00     0.060 C 
ATOM      9  N   UNL     1      46.018 128.707  20.394  1.00  0.00    -0.290 NA
ATOM     10  C   UNL     1      45.862 128.442  21.836  1.00  0.00     0.185 C 
ATOM     11  H   UNL     1      46.938 128.315  20.080  1.00  0.00     0.125 HD
ENDROOT
BRANCH   1  12
ATOM     12  C   UNL     1      44.085 128.666  23.620  1.00  0.00     0.274 C 
ATOM     13  O   UNL     1      44.841 128.572  24.624  1.00  0.00    -0.267 OA
BRANCH  12  14
ATOM     14  C   UNL     1      42.655 128.343  23.763  1.00  0.00     0.139 A 
ATOM     15  C   UNL     1      42.107 127.105  23.436  1.00  0.00     0.100 A 
ATOM     16  N   UNL     1      41.772 129.242  24.281  1.00  0.00    -0.240 NA
ATOM     17  S   UNL     1      40.468 127.162  23.798  1.00  0.00    -0.130 S 
ATOM     18  C   UNL     1      40.519 128.744  24.358  1.00  0.00     0.176 A 
ENDBRANCH  12  14
ENDBRANCH   1  12
BRANCH  10  19
ATOM     19  C   UNL     1      45.810 126.942  22.041  1.00  0.00    -0.010 A 
ATOM     20  C   UNL     1      46.999 126.225  22.343  1.00  0.00     0.009 A 
ATOM     21  C   UNL     1      44.585 126.248  21.925  1.00  0.00     0.017 A 
ATOM     22  C   UNL     1      46.972 124.831  22.522  1.00  0.00     0.027 A 
ATOM     23  C   UNL     1      44.596 124.867  22.109  1.00  0.00    -0.000 A 
ATOM     24  C   UNL     1      45.746 124.183  22.397  1.00  0.00     0.045 A 
ATOM     25  C   UNL     1      43.571 123.948  22.054  1.00  0.00     0.028 A 
ATOM     26  N   UNL     1      45.500 122.869  22.526  1.00  0.00    -0.361 N 
ATOM     27  C   UNL     1      44.171 122.720  22.319  1.00  0.00     0.083 A 
ATOM     28  H   UNL     1      46.188 122.115  22.744  1.00  0.00     0.166 HD
ENDBRANCH  10  19
TORSDOF 3
ENDMDL
MODEL 3
REMARK VINA RESULT:      -3.4      1.342      1.464
REMARK SMILES O=C(c1cscn1)N1C[C@@H]2CCCC[C@@H]2N[C@@H]1c1ccc2[nH]ccc2c1
REMARK SMILES IDX 8 1 9 2 10 3 11 4 12 5 13 6 14 7 15 8 16 9 17 10 2 12 1 13
REMARK SMILES IDX 3 14 4 15 7 16 5 17 6 18 18 19 19 20 26 21 20 22 25 23 21 24
REMARK SMILES IDX 24 25 22 26 23 27
REMARK H PARENT 16 11 22 28
ROOT
ATOM      1  N   UNL     1      44.038 125.549  23.011  1.00  0.00    -0.317 N 
ATOM      2  C   UNL     1      42.690 125.675  23.579  1.00  0.00     0.127 C 
ATOM      3  C   UNL     1      41.714 124.790  22.798  1.00  0.00     0.026 C 
ATOM      4  C   UNL     1      40.251 124.952  23.261  1.00  0.00     0.007 C 
ATOM      5  C   UNL     1      39.960 124.223  24.574  1.00  0.00     0.000 C 
ATOM      6  C   UNL     1      40.332 122.746  24.458  1.00  0.00     0.002 C 
ATOM      7  C   UNL     1      41.816 122.593  24.121  1.00  0.00     0.019 C 
ATOM      8  C   UNL     1      42.197 123.312  22.813  1.00  0.00     0.060 C 
ATOM      9  N   UNL     1      43.662 123.179  22.645  1.00  0.00    -0.290 NA
ATOM     10  C   UNL     1      44.367 124.381  22.168  1.00  0.00     0.185 C 
ATOM     11  H   UNL     1      43.850 122.393  21.978  1.00  0.00     0.125 HD
ENDROOT
BRANCH   1  12
ATOM     12  C   UNL     1      44.868 126.726  22.970  1.00  0.00     0.274 C 
ATOM     13  O   UNL     1      46.116 126.603  22.844  1.00  0.00    -0.267 OA
BRANCH  12  14
ATOM     14  C   UNL     1      44.285 128.074  23.081  1.00  0.00     0.139 A 
ATOM     15  C   UNL     1      43.965 128.869  21.983  1.00  0.00     0.100 A 
ATOM     16  N   UNL     1      43.975 128.617  24.291  1.00  0.00    -0.240 NA
ATOM     17  S   UNL     1      43.289 130.293  22.564  1.00  0.00    -0.130 S 
ATOM     18  C   UNL     1      43.424 129.844  24.177  1.00  0.00     0.176 A 
ENDBRANCH  12  14
ENDBRANCH   1  12
BRANCH  10  19
ATOM     19  C   UNL     1      45.856 124.104  22.202  1.00  0.00    -0.010 A 
ATOM     20  C   UNL     1      46.619 124.171  21.005  1.00  0.00     0.009 A 
ATOM     21  C   UNL     1      46.492 123.770  23.418  1.00  0.00     0.017 A 
ATOM     22  C   UNL     1      47.999 123.903  21.016  1.00  0.00     0.027 A 
ATOM     23  C   UNL     1      47.861 123.511  23.391  1.00  0.00    -0.000 A 
ATOM     24  C   UNL     1      48.588 123.574  22.234  1.00  0.00     0.045 A 
ATOM     25  C   UNL     1      48.728 123.165  24.405  1.00  0.00     0.028 A 
ATOM     26  N   UNL     1      49.879 123.283  22.464  1.00  0.00    -0.361 N 
ATOM     27  C   UNL     1      49.969 123.033  23.791  1.00  0.00     0.083 A 
ATOM     28  H   UNL     1      50.655 123.256  21.767  1.00  0.00     0.166 HD
ENDBRANCH  10  19
TORSDOF 3
ENDMDL
MODEL 4
REMARK VINA RESULT:      -3.0      2.085      6.260
REMARK SMILES O=C(c1cscn1)N1C[C@@H]2CCCC[C@@H]2N[C@@H]1c1ccc2[nH]ccc2c1
REMARK SMILES IDX 8 1 9 2 10 3 11 4 12 5 13 6 14 7 15 8 16 9 17 10 2 12 1 13
REMARK SMILES IDX 3 14 4 15 7 16 5 17 6 18 18 19 19 20 26 21 20 22 25 23 21 24
REMARK SMILES IDX 24 25 22 26 23 27
REMARK H PARENT 16 11 22 28
ROOT
ATOM      1  N   UNL     1      45.017 126.358  23.246  1.00  0.00    -0.317 N 
ATOM      2  C   UNL     1      46.413 126.346  22.788  1.00  0.00     0.127 C 
ATOM      3  C   UNL     1      47.335 125.961  23.948  1.00  0.00     0.026 C 
ATOM      4  C   UNL     1      48.832 126.035  23.578  1.00  0.00     0.007 C 
ATOM      5  C   UNL     1      49.294 124.846  22.734  1.00  0.00     0.000 C 
ATOM      6  C   UNL     1      48.975 123.532  23.444  1.00  0.00     0.002 C 
ATOM      7  C   UNL     1      47.472 123.411  23.696  1.00  0.00     0.019 C 
ATOM      8  C   UNL     1      46.921 124.581  24.533  1.00  0.00     0.060 C 
ATOM      9  N   UNL     1      45.454 124.407  24.625  1.00  0.00    -0.290 NA
ATOM     10  C   UNL     1      44.650 125.634  24.481  1.00  0.00     0.185 C 
ATOM     11  H   UNL     1      45.228 123.966  25.548  1.00  0.00     0.125 HD
ENDROOT
BRANCH   1  12
ATOM     12  C   UNL     1      44.139 127.366  22.711  1.00  0.00     0.274 C 
ATOM     13  O   UNL     1      43.259 127.041  21.869  1.00  0.00    -0.267 OA
BRANCH  12  14
ATOM     14  C   UNL     1      44.254 128.775  23.124  1.00  0.00     0.139 A 
ATOM     15  C   UNL     1      44.253 129.843  22.230  1.00  0.00     0.100 A 
ATOM     16  N   UNL     1      44.322 129.127  24.438  1.00  0.00    -0.240 NA
ATOM     17  S   UNL     1      44.356 131.259  23.128  1.00  0.00    -0.130 S 
ATOM     18  C   UNL     1      44.392 130.465  24.607  1.00  0.00     0.176 A 
ENDBRANCH  12  14
ENDBRANCH   1  12
BRANCH  10  19
ATOM     19  C   UNL     1      43.187 125.243  24.451  1.00  0.00    -0.010 A 
ATOM     20  C   UNL     1      42.183 126.235  24.623  1.00  0.00     0.009 A 
ATOM     21  C   UNL     1      42.811 123.895  24.262  1.00  0.00     0.017 A 
ATOM     22  C   UNL     1      40.821 125.888  24.613  1.00  0.00     0.027 A 
ATOM     23  C   UNL     1      41.453 123.588  24.257  1.00  0.00    -0.000 A 
ATOM     24  C   UNL     1      40.492 124.548  24.426  1.00  0.00     0.045 A 
ATOM     25  C   UNL     1      40.807 122.381  24.101  1.00  0.00     0.028 A 
ATOM     26  N   UNL     1      39.264 124.007  24.385  1.00  0.00    -0.361 N 
ATOM     27  C   UNL     1      39.451 122.681  24.185  1.00  0.00     0.083 A 
ATOM     28  H   UNL     1      38.350 124.502  24.484  1.00  0.00     0.166 HD
ENDBRANCH  10  19
TORSDOF 3
ENDMDL
MODEL 5
REMARK VINA RESULT:      -3.0      1.718      6.171
REMARK SMILES O=C(c1cscn1)N1C[C@@H]2CCCC[C@@H]2N[C@@H]1c1ccc2[nH]ccc2c1
REMARK SMILES IDX 8 1 9 2 10 3 11 4 12 5 13 6 14 7 15 8 16 9 17 10 2 12 1 13
REMARK SMILES IDX 3 14 4 15 7 16 5 17 6 18 18 19 19 20 26 21 20 22 25 23 21 24
REMARK SMILES IDX 24 25 22 26 23 27
REMARK H PARENT 16 11 22 28
ROOT
ATOM      1  N   UNL     1      45.361 126.579  23.285  1.00  0.00    -0.317 N 
ATOM      2  C   UNL     1      46.754 126.593  22.820  1.00  0.00     0.127 C 
ATOM      3  C   UNL     1      47.521 125.425  23.447  1.00  0.00     0.026 C 
ATOM      4  C   UNL     1      49.025 125.435  23.097  1.00  0.00     0.007 C 
ATOM      5  C   UNL     1      49.307 124.940  21.676  1.00  0.00     0.000 C 
ATOM      6  C   UNL     1      48.709 123.550  21.467  1.00  0.00     0.002 C 
ATOM      7  C   UNL     1      47.198 123.577  21.695  1.00  0.00     0.019 C 
ATOM      8  C   UNL     1      46.826 124.077  23.104  1.00  0.00     0.060 C 
ATOM      9  N   UNL     1      45.349 124.153  23.171  1.00  0.00    -0.290 NA
ATOM     10  C   UNL     1      44.796 125.337  23.853  1.00  0.00     0.185 C 
ATOM     11  H   UNL     1      44.993 123.293  23.652  1.00  0.00     0.125 HD
ENDROOT
BRANCH   1  12
ATOM     12  C   UNL     1      44.717 127.843  23.529  1.00  0.00     0.274 C 
ATOM     13  O   UNL     1      44.068 128.015  24.597  1.00  0.00    -0.267 OA
BRANCH  12  14
ATOM     14  C   UNL     1      44.794 128.941  22.550  1.00  0.00     0.139 A 
ATOM     15  C   UNL     1      45.499 128.857  21.351  1.00  0.00     0.100 A 
ATOM     16  N   UNL     1      44.127 130.113  22.742  1.00  0.00    -0.240 NA
ATOM     17  S   UNL     1      45.280 130.306  20.530  1.00  0.00    -0.130 S 
ATOM     18  C   UNL     1      44.301 130.976  21.718  1.00  0.00     0.176 A 
ENDBRANCH  12  14
ENDBRANCH   1  12
BRANCH  10  19
ATOM     19  C   UNL     1      43.290 125.318  23.692  1.00  0.00    -0.010 A 
ATOM     20  C   UNL     1      42.541 126.512  23.873  1.00  0.00     0.009 A 
ATOM     21  C   UNL     1      42.621 124.116  23.369  1.00  0.00     0.017 A 
ATOM     22  C   UNL     1      41.141 126.510  23.742  1.00  0.00     0.027 A 
ATOM     23  C   UNL     1      41.234 124.152  23.246  1.00  0.00    -0.000 A 
ATOM     24  C   UNL     1      40.519 125.305  23.426  1.00  0.00     0.045 A 
ATOM     25  C   UNL     1      40.335 123.151  22.949  1.00  0.00     0.028 A 
ATOM     26  N   UNL     1      39.206 125.084  23.257  1.00  0.00    -0.361 N 
ATOM     27  C   UNL     1      39.088 123.768  22.963  1.00  0.00     0.083 A 
ATOM     28  H   UNL     1      38.432 125.780  23.333  1.00  0.00     0.166 HD
ENDBRANCH  10  19
TORSDOF 3
ENDMDL
MODEL 6
REMARK VINA RESULT:      -2.6      2.479      5.698
REMARK SMILES O=C(c1cscn1)N1C[C@@H]2CCCC[C@@H]2N[C@@H]1c1ccc2[nH]ccc2c1
REMARK SMILES IDX 8 1 9 2 10 3 11 4 12 5 13 6 14 7 15 8 16 9 17 10 2 12 1 13
REMARK SMILES IDX 3 14 4 15 7 16 5 17 6 18 18 19 19 20 26 21 20 22 25 23 21 24
REMARK SMILES IDX 24 25 22 26 23 27
REMARK H PARENT 16 11 22 28
ROOT
ATOM      1  N   UNL     1      43.630 125.890  22.915  1.00  0.00    -0.317 N 
ATOM      2  C   UNL     1      42.881 124.633  23.043  1.00  0.00     0.127 C 
ATOM      3  C   UNL     1      42.098 124.629  24.360  1.00  0.00     0.026 C 
ATOM      4  C   UNL     1      41.372 123.292  24.624  1.00  0.00     0.007 C 
ATOM      5  C   UNL     1      40.097 123.135  23.792  1.00  0.00     0.000 C 
ATOM      6  C   UNL     1      39.160 124.318  24.024  1.00  0.00     0.002 C 
ATOM      7  C   UNL     1      39.846 125.629  23.641  1.00  0.00     0.019 C 
ATOM      8  C   UNL     1      41.151 125.860  24.428  1.00  0.00     0.060 C 
ATOM      9  N   UNL     1      41.770 127.098  23.903  1.00  0.00    -0.290 NA
ATOM     10  C   UNL     1      43.233 127.061  23.725  1.00  0.00     0.185 C 
ATOM     11  H   UNL     1      41.532 127.888  24.549  1.00  0.00     0.125 HD
ENDROOT
BRANCH   1  12
ATOM     12  C   UNL     1      44.936 125.840  22.311  1.00  0.00     0.274 C 
ATOM     13  O   UNL     1      45.099 126.287  21.143  1.00  0.00    -0.267 OA
BRANCH  12  14
ATOM     14  C   UNL     1      46.088 125.268  23.028  1.00  0.00     0.139 A 
ATOM     15  C   UNL     1      46.749 125.916  24.069  1.00  0.00     0.100 A 
ATOM     16  N   UNL     1      46.557 124.022  22.740  1.00  0.00    -0.240 NA
ATOM     17  S   UNL     1      47.959 124.891  24.622  1.00  0.00    -0.130 S 
ATOM     18  C   UNL     1      47.596 123.670  23.528  1.00  0.00     0.176 A 
ENDBRANCH  12  14
ENDBRANCH   1  12
BRANCH  10  19
ATOM     19  C   UNL     1      43.662 128.345  23.047  1.00  0.00    -0.010 A 
ATOM     20  C   UNL     1      45.013 128.514  22.636  1.00  0.00     0.009 A 
ATOM     21  C   UNL     1      42.729 129.383  22.827  1.00  0.00     0.017 A 
ATOM     22  C   UNL     1      45.432 129.705  22.019  1.00  0.00     0.027 A 
ATOM     23  C   UNL     1      43.181 130.548  22.212  1.00  0.00    -0.000 A 
ATOM     24  C   UNL     1      44.483 130.706  21.822  1.00  0.00     0.045 A 
ATOM     25  C   UNL     1      42.508 131.704  21.880  1.00  0.00     0.028 A 
ATOM     26  N   UNL     1      44.671 131.909  21.257  1.00  0.00    -0.361 N 
ATOM     27  C   UNL     1      43.465 132.524  21.289  1.00  0.00     0.083 A 
ATOM     28  H   UNL     1      45.560 132.295  20.871  1.00  0.00     0.166 HD
ENDBRANCH  10  19
TORSDOF 3
ENDMDL
MODEL 7
REMARK VINA RESULT:      -2.0      4.772      8.843
REMARK SMILES O=C(c1cscn1)N1C[C@@H]2CCCC[C@@H]2N[C@@H]1c1ccc2[nH]ccc2c1
REMARK SMILES IDX 8 1 9 2 10 3 11 4 12 5 13 6 14 7 15 8 16 9 17 10 2 12 1 13
REMARK SMILES IDX 3 14 4 15 7 16 5 17 6 18 18 19 19 20 26 21 20 22 25 23 21 24
REMARK SMILES IDX 24 25 22 26 23 27
REMARK H PARENT 16 11 22 28
ROOT
ATOM      1  N   UNL     1      45.701 132.058  21.812  1.00  0.00    -0.317 N 
ATOM      2  C   UNL     1      46.934 132.827  21.603  1.00  0.00     0.127 C 
ATOM      3  C   UNL     1      46.849 134.157  22.359  1.00  0.00     0.026 C 
ATOM      4  C   UNL     1      48.062 135.076  22.098  1.00  0.00     0.007 C 
ATOM      5  C   UNL     1      49.311 134.644  22.870  1.00  0.00     0.000 C 
ATOM      6  C   UNL     1      49.009 134.553  24.365  1.00  0.00     0.002 C 
ATOM      7  C   UNL     1      47.889 133.546  24.625  1.00  0.00     0.019 C 
ATOM      8  C   UNL     1      46.593 133.902  23.871  1.00  0.00     0.060 C 
ATOM      9  N   UNL     1      45.623 132.811  24.119  1.00  0.00    -0.290 NA
ATOM     10  C   UNL     1      44.824 132.384  22.957  1.00  0.00     0.185 C 
ATOM     11  H   UNL     1      44.970 133.114  24.881  1.00  0.00     0.125 HD
ENDROOT
BRANCH   1  12
ATOM     12  C   UNL     1      45.191 131.285  20.709  1.00  0.00     0.274 C 
ATOM     13  O   UNL     1      45.780 130.223  20.369  1.00  0.00    -0.267 OA
BRANCH  12  14
ATOM     14  C   UNL     1      43.996 131.715  19.963  1.00  0.00     0.139 A 
ATOM     15  C   UNL     1      42.981 132.494  20.515  1.00  0.00     0.100 A 
ATOM     16  N   UNL     1      43.832 131.409  18.646  1.00  0.00    -0.240 NA
ATOM     17  S   UNL     1      41.849 132.784  19.308  1.00  0.00    -0.130 S 
ATOM     18  C   UNL     1      42.690 131.920  18.139  1.00  0.00     0.176 A 
ENDBRANCH  12  14
ENDBRANCH   1  12
BRANCH  10  19
ATOM     19  C   UNL     1      44.008 131.173  23.360  1.00  0.00    -0.010 A 
ATOM     20  C   UNL     1      42.714 131.346  23.924  1.00  0.00     0.009 A 
ATOM     21  C   UNL     1      44.527 129.871  23.188  1.00  0.00     0.017 A 
ATOM     22  C   UNL     1      41.948 130.235  24.318  1.00  0.00     0.027 A 
ATOM     23  C   UNL     1      43.740 128.795  23.589  1.00  0.00    -0.000 A 
ATOM     24  C   UNL     1      42.497 128.968  24.134  1.00  0.00     0.045 A 
ATOM     25  C   UNL     1      43.986 127.439  23.546  1.00  0.00     0.028 A 
ATOM     26  N   UNL     1      41.940 127.785  24.440  1.00  0.00    -0.361 N 
ATOM     27  C   UNL     1      42.846 126.847  24.081  1.00  0.00     0.083 A 
ATOM     28  H   UNL     1      41.001 127.619  24.865  1.00  0.00     0.166 HD
ENDBRANCH  10  19
TORSDOF 3
ENDMDL
MODEL 8
REMARK VINA RESULT:      -1.5      5.077      8.741
REMARK SMILES O=C(c1cscn1)N1C[C@@H]2CCCC[C@@H]2N[C@@H]1c1ccc2[nH]ccc2c1
REMARK SMILES IDX 8 1 9 2 10 3 11 4 12 5 13 6 14 7 15 8 16 9 17 10 2 12 1 13
REMARK SMILES IDX 3 14 4 15 7 16 5 17 6 18 18 19 19 20 26 21 20 22 25 23 21 24
REMARK SMILES IDX 24 25 22 26 23 27
REMARK H PARENT 16 11 22 28
ROOT
ATOM      1  N   UNL     1      45.643 131.688  21.816  1.00  0.00    -0.317 N 
ATOM      2  C   UNL     1      46.774 132.583  21.543  1.00  0.00     0.127 C 
ATOM      3  C   UNL     1      46.565 133.916  22.268  1.00  0.00     0.026 C 
ATOM      4  C   UNL     1      47.658 134.957  21.942  1.00  0.00     0.007 C 
ATOM      5  C   UNL     1      48.971 134.690  22.679  1.00  0.00     0.000 C 
ATOM      6  C   UNL     1      48.731 134.609  24.186  1.00  0.00     0.002 C 
ATOM      7  C   UNL     1      47.740 133.491  24.511  1.00  0.00     0.019 C 
ATOM      8  C   UNL     1      46.389 133.679  23.795  1.00  0.00     0.060 C 
ATOM      9  N   UNL     1      45.556 132.494  24.104  1.00  0.00    -0.290 NA
ATOM     10  C   UNL     1      44.773 131.946  22.982  1.00  0.00     0.185 C 
ATOM     11  H   UNL     1      44.898 132.744  24.881  1.00  0.00     0.125 HD
ENDROOT
BRANCH   1  12
ATOM     12  C   UNL     1      45.187 130.831  20.752  1.00  0.00     0.274 C 
ATOM     13  O   UNL     1      45.667 129.670  20.639  1.00  0.00    -0.267 OA
BRANCH  12  14
ATOM     14  C   UNL     1      44.175 131.287  19.784  1.00  0.00     0.139 A 
ATOM     15  C   UNL     1      42.891 131.692  20.144  1.00  0.00     0.100 A 
ATOM     16  N   UNL     1      44.456 131.387  18.455  1.00  0.00    -0.240 NA
ATOM     17  S   UNL     1      42.097 132.171  18.743  1.00  0.00    -0.130 S 
ATOM     18  C   UNL     1      43.408 131.853  17.743  1.00  0.00     0.176 A 
ENDBRANCH  12  14
ENDBRANCH   1  12
BRANCH  10  19
ATOM     19  C   UNL     1      44.111 130.665  23.445  1.00  0.00    -0.010 A 
ATOM     20  C   UNL     1      44.906 129.591  23.931  1.00  0.00     0.009 A 
ATOM     21  C   UNL     1      42.707 130.526  23.389  1.00  0.00     0.017 A 
ATOM     22  C   UNL     1      44.310 128.389  24.351  1.00  0.00     0.027 A 
ATOM     23  C   UNL     1      42.151 129.321  23.815  1.00  0.00    -0.000 A 
ATOM     24  C   UNL     1      42.922 128.290  24.278  1.00  0.00     0.045 A 
ATOM     25  C   UNL     1      40.837 128.910  23.868  1.00  0.00     0.028 A 
ATOM     26  N   UNL     1      42.160 127.241  24.624  1.00  0.00    -0.361 N 
ATOM     27  C   UNL     1      40.883 127.615  24.376  1.00  0.00     0.083 A 
ATOM     28  H   UNL     1      42.480 126.324  25.007  1.00  0.00     0.166 HD
ENDBRANCH  10  19
TORSDOF 3
ENDMDL
MODEL 9
REMARK VINA RESULT:      -1.5      5.028      7.758
REMARK SMILES O=C(c1cscn1)N1C[C@@H]2CCCC[C@@H]2N[C@@H]1c1ccc2[nH]ccc2c1
REMARK SMILES IDX 8 1 9 2 10 3 11 4 12 5 13 6 14 7 15 8 16 9 17 10 2 12 1 13
REMARK SMILES IDX 3 14 4 15 7 16 5 17 6 18 18 19 19 20 26 21 20 22 25 23 21 24
REMARK SMILES IDX 24 25 22 26 23 27
REMARK H PARENT 16 11 22 28
ROOT
ATOM      1  N   UNL     1      45.045 131.501  18.825  1.00  0.00    -0.317 N 
ATOM      2  C   UNL     1      44.923 131.895  17.416  1.00  0.00     0.127 C 
ATOM      3  C   UNL     1      46.157 131.426  16.639  1.00  0.00     0.026 C 
ATOM      4  C   UNL     1      46.161 131.900  15.170  1.00  0.00     0.007 C 
ATOM      5  C   UNL     1      45.215 131.087  14.282  1.00  0.00     0.000 C 
ATOM      6  C   UNL     1      45.545 129.599  14.374  1.00  0.00     0.002 C 
ATOM      7  C   UNL     1      45.418 129.109  15.817  1.00  0.00     0.019 C 
ATOM      8  C   UNL     1      46.332 129.888  16.782  1.00  0.00     0.060 C 
ATOM      9  N   UNL     1      46.050 129.397  18.151  1.00  0.00    -0.290 NA
ATOM     10  C   UNL     1      45.986 130.426  19.203  1.00  0.00     0.185 C 
ATOM     11  H   UNL     1      46.786 128.697  18.411  1.00  0.00     0.125 HD
ENDROOT
BRANCH   1  12
ATOM     12  C   UNL     1      44.545 132.409  19.826  1.00  0.00     0.274 C 
ATOM     13  O   UNL     1      45.358 133.071  20.527  1.00  0.00    -0.267 OA
BRANCH  12  14
ATOM     14  C   UNL     1      43.099 132.574  20.054  1.00  0.00     0.139 A 
ATOM     15  C   UNL     1      42.547 132.918  21.285  1.00  0.00     0.100 A 
ATOM     16  N   UNL     1      42.201 132.440  19.039  1.00  0.00    -0.240 NA
ATOM     17  S   UNL     1      40.884 133.042  21.080  1.00  0.00    -0.130 S 
ATOM     18  C   UNL     1      40.932 132.660  19.446  1.00  0.00     0.176 A 
ENDBRANCH  12  14
ENDBRANCH   1  12
BRANCH  10  19
ATOM     19  C   UNL     1      45.543 129.762  20.491  1.00  0.00    -0.010 A 
ATOM     20  C   UNL     1      44.859 130.519  21.481  1.00  0.00     0.009 A 
ATOM     21  C   UNL     1      45.814 128.395  20.719  1.00  0.00     0.017 A 
ATOM     22  C   UNL     1      44.454 129.923  22.688  1.00  0.00     0.027 A 
ATOM     23  C   UNL     1      45.398 127.838  21.926  1.00  0.00    -0.000 A 
ATOM     24  C   UNL     1      44.742 128.573  22.877  1.00  0.00     0.045 A 
ATOM     25  C   UNL     1      45.526 126.556  22.413  1.00  0.00     0.028 A 
ATOM     26  N   UNL     1      44.448 127.818  23.947  1.00  0.00    -0.361 N 
ATOM     27  C   UNL     1      44.925 126.582  23.668  1.00  0.00     0.083 A 
ATOM     28  H   UNL     1      43.953 128.117  24.815  1.00  0.00     0.166 HD
ENDBRANCH  10  19
TORSDOF 3
ENDMDL


