REMARK SMILES Cn1[nH+]nc2cc(N(C(=O)c3cc(F)c[nH]3)C(=O)[C@H](F)Cl)ccc21
REMARK SMILES IDX 8 1 7 2 2 3 3 4 24 5 4 6 23 7 5 8 22 9 6 10 1 11 9 13 10 14
REMARK SMILES IDX 11 15 12 16 16 17 13 18 15 19 14 21 17 22 18 23 19 24 20 25
REMARK SMILES IDX 21 26
REMARK H PARENT 3 12 16 20
ROOT
ATOM      1  N   UNL     1       1.742   0.791   0.761  1.00  0.00    -0.241 N 
ENDROOT
BRANCH   1   2
ATOM      2  C   UNL     1       0.773  -0.012   0.057  1.00  0.00     0.055 A 
ATOM      3  N   UNL     1      -1.892  -2.168  -2.179  1.00  0.00    -0.132 N 
ATOM      4  N   UNL     1      -1.357  -1.940  -3.375  1.00  0.00    -0.016 N 
ATOM      5  C   UNL     1      -1.125  -1.521  -1.288  1.00  0.00     0.133 A 
ATOM      6  N   UNL     1      -0.267  -1.180  -3.292  1.00  0.00     0.025 NA
ATOM      7  C   UNL     1      -1.253  -1.408   0.093  1.00  0.00     0.037 A 
ATOM      8  C   UNL     1      -0.120  -0.917  -1.980  1.00  0.00     0.164 A 
ATOM      9  C   UNL     1      -0.286  -0.640   0.769  1.00  0.00     0.029 A 
ATOM     10  C   UNL     1       0.853  -0.149  -1.350  1.00  0.00     0.064 A 
ATOM     11  C   UNL     1      -3.120  -2.914  -1.931  1.00  0.00     0.226 C 
ATOM     12  H   UNL     1      -1.744  -2.304  -4.274  1.00  0.00     0.526 HD
ENDBRANCH   1   2
BRANCH   1  13
ATOM     13  C   UNL     1       2.079   2.106   0.273  1.00  0.00     0.281 C 
ATOM     14  O   UNL     1       3.274   2.506   0.340  1.00  0.00    -0.266 OA
BRANCH  13  15
ATOM     15  C   UNL     1       1.061   2.999  -0.317  1.00  0.00     0.108 A 
ATOM     16  C   UNL     1       1.334   4.089  -1.126  1.00  0.00     0.072 A 
ATOM     17  N   UNL     1      -0.269   2.889  -0.113  1.00  0.00    -0.355 N 
ATOM     18  C   UNL     1       0.109   4.643  -1.427  1.00  0.00     0.141 A 
ATOM     19  C   UNL     1      -0.856   3.891  -0.793  1.00  0.00     0.122 A 
ATOM     20  H   UNL     1      -0.762   2.190   0.483  1.00  0.00     0.166 HD
ATOM     21  F   UNL     1      -0.107   5.738  -2.195  1.00  0.00    -0.205 F 
ENDBRANCH  13  15
ENDBRANCH   1  13
BRANCH   1  22
ATOM     22  C   UNL     1       2.476   0.244   1.876  1.00  0.00     0.284 C 
ATOM     23  O   UNL     1       2.923   1.018   2.766  1.00  0.00    -0.269 OA
BRANCH  22  24
ATOM     24  C   UNL     1       2.768  -1.229   1.977  1.00  0.00     0.347 C 
ATOM     25  F   UNL     1       3.458  -1.507   3.144  1.00  0.00    -0.219 F 
ATOM     26  Cl  UNL     1       3.759  -1.743   0.589  1.00  0.00    -0.075 Cl
ENDBRANCH  22  24
ENDBRANCH   1  22
TORSDOF 5


