MODEL 1
REMARK VINA RESULT:      -9.6      0.000      0.000
REMARK SMILES NNc1cccc2cc3ccccc3cc12
REMARK SMILES IDX 1 1 2 4 3 6 4 7 16 8 5 9 15 10 7 11 6 12 14 13 8 14 13 15
REMARK SMILES IDX 9 16 12 17 10 18 11 19
REMARK H PARENT 1 2 1 3 2 5
ROOT
ATOM      1  N   UNL     1      41.148 133.472  20.563  1.00  0.00    -0.250 NA
ATOM      2  H   UNL     1      41.423 133.008  21.459  1.00  0.00     0.143 HD
ATOM      3  H   UNL     1      40.130 133.284  20.421  1.00  0.00     0.143 HD
ENDROOT
BRANCH   1   4
ATOM      4  N   UNL     1      41.839 132.819  19.531  1.00  0.00    -0.324 N 
ATOM      5  H   UNL     1      41.306 132.577  18.663  1.00  0.00     0.181 HD
BRANCH   4   6
ATOM      6  C   UNL     1      43.029 132.071  19.819  1.00  0.00     0.056 A 
ATOM      7  C   UNL     1      43.338 131.798  21.160  1.00  0.00     0.028 A 
ATOM      8  C   UNL     1      43.902 131.617  18.795  1.00  0.00     0.007 A 
ATOM      9  C   UNL     1      44.515 131.132  21.500  1.00  0.00     0.003 A 
ATOM     10  C   UNL     1      43.593 131.775  17.429  1.00  0.00     0.019 A 
ATOM     11  C   UNL     1      45.103 130.948  19.154  1.00  0.00    -0.016 A 
ATOM     12  C   UNL     1      45.400 130.719  20.506  1.00  0.00     0.009 A 
ATOM     13  C   UNL     1      44.479 131.327  16.438  1.00  0.00    -0.018 A 
ATOM     14  C   UNL     1      45.989 130.505  18.160  1.00  0.00     0.017 A 
ATOM     15  C   UNL     1      44.173 131.498  15.078  1.00  0.00     0.009 A 
ATOM     16  C   UNL     1      45.688 130.694  16.807  1.00  0.00    -0.018 A 
ATOM     17  C   UNL     1      45.061 131.050  14.096  1.00  0.00     0.001 A 
ATOM     18  C   UNL     1      46.572 130.249  15.810  1.00  0.00     0.009 A 
ATOM     19  C   UNL     1      46.257 130.428  14.460  1.00  0.00     0.001 A 
ENDBRANCH   4   6
ENDBRANCH   1   4
TORSDOF 2
ENDMDL
MODEL 2
REMARK VINA RESULT:      -9.6      2.989      5.898
REMARK SMILES NNc1cccc2cc3ccccc3cc12
REMARK SMILES IDX 1 1 2 4 3 6 4 7 16 8 5 9 15 10 7 11 6 12 14 13 8 14 13 15
REMARK SMILES IDX 9 16 12 17 10 18 11 19
REMARK H PARENT 1 2 1 3 2 5
ROOT
ATOM      1  N   UNL     1      47.990 129.070  14.266  1.00  0.00    -0.250 NA
ATOM      2  H   UNL     1      47.806 128.046  14.365  1.00  0.00     0.143 HD
ATOM      3  H   UNL     1      49.027 129.198  14.274  1.00  0.00     0.143 HD
ENDROOT
BRANCH   1   4
ATOM      4  N   UNL     1      47.484 129.694  15.417  1.00  0.00    -0.324 N 
ATOM      5  H   UNL     1      47.854 129.380  16.344  1.00  0.00     0.181 HD
BRANCH   4   6
ATOM      6  C   UNL     1      46.201 130.335  15.386  1.00  0.00     0.056 A 
ATOM      7  C   UNL     1      45.618 130.602  14.138  1.00  0.00     0.028 A 
ATOM      8  C   UNL     1      45.519 130.715  16.572  1.00  0.00     0.007 A 
ATOM      9  C   UNL     1      44.403 131.280  14.050  1.00  0.00     0.003 A 
ATOM     10  C   UNL     1      46.008 130.385  17.852  1.00  0.00     0.019 A 
ATOM     11  C   UNL     1      44.287 131.416  16.468  1.00  0.00    -0.016 A 
ATOM     12  C   UNL     1      43.746 131.697  15.205  1.00  0.00     0.009 A 
ATOM     13  C   UNL     1      45.320 130.784  19.007  1.00  0.00    -0.018 A 
ATOM     14  C   UNL     1      43.603 131.817  17.626  1.00  0.00     0.017 A 
ATOM     15  C   UNL     1      45.818 130.464  20.280  1.00  0.00     0.009 A 
ATOM     16  C   UNL     1      44.113 131.511  18.893  1.00  0.00    -0.018 A 
ATOM     17  C   UNL     1      45.128 130.866  21.427  1.00  0.00     0.001 A 
ATOM     18  C   UNL     1      43.428 131.909  20.053  1.00  0.00     0.009 A 
ATOM     19  C   UNL     1      43.937 131.587  21.314  1.00  0.00     0.001 A 
ENDBRANCH   4   6
ENDBRANCH   1   4
TORSDOF 2
ENDMDL
MODEL 3
REMARK VINA RESULT:      -8.8      1.852      2.810
REMARK SMILES NNc1cccc2cc3ccccc3cc12
REMARK SMILES IDX 1 1 2 4 3 6 4 7 16 8 5 9 15 10 7 11 6 12 14 13 8 14 13 15
REMARK SMILES IDX 9 16 12 17 10 18 11 19
REMARK H PARENT 1 2 1 3 2 5
ROOT
ATOM      1  N   UNL     1      45.412 129.523  21.621  1.00  0.00    -0.250 NA
ATOM      2  H   UNL     1      44.494 129.130  21.313  1.00  0.00     0.143 HD
ATOM      3  H   UNL     1      45.379 129.598  22.663  1.00  0.00     0.143 HD
ENDROOT
BRANCH   1   4
ATOM      4  N   UNL     1      45.493 130.828  21.113  1.00  0.00    -0.324 N 
ATOM      5  H   UNL     1      46.122 131.505  21.604  1.00  0.00     0.181 HD
BRANCH   4   6
ATOM      6  C   UNL     1      44.427 131.360  20.314  1.00  0.00     0.056 A 
ATOM      7  C   UNL     1      43.316 131.915  20.967  1.00  0.00     0.028 A 
ATOM      8  C   UNL     1      44.458 131.327  18.895  1.00  0.00     0.007 A 
ATOM      9  C   UNL     1      42.224 132.387  20.240  1.00  0.00     0.003 A 
ATOM     10  C   UNL     1      45.587 130.873  18.185  1.00  0.00     0.019 A 
ATOM     11  C   UNL     1      43.334 131.801  18.166  1.00  0.00    -0.016 A 
ATOM     12  C   UNL     1      42.225 132.321  18.849  1.00  0.00     0.009 A 
ATOM     13  C   UNL     1      45.587 130.841  16.783  1.00  0.00    -0.018 A 
ATOM     14  C   UNL     1      43.335 131.764  16.763  1.00  0.00     0.017 A 
ATOM     15  C   UNL     1      46.711 130.376  16.079  1.00  0.00     0.009 A 
ATOM     16  C   UNL     1      44.450 131.282  16.067  1.00  0.00    -0.018 A 
ATOM     17  C   UNL     1      46.702 130.345  14.682  1.00  0.00     0.001 A 
ATOM     18  C   UNL     1      44.454 131.247  14.663  1.00  0.00     0.009 A 
ATOM     19  C   UNL     1      45.578 130.778  13.976  1.00  0.00     0.001 A 
ENDBRANCH   4   6
ENDBRANCH   1   4
TORSDOF 2
ENDMDL
MODEL 4
REMARK VINA RESULT:      -8.6      2.124      5.112
REMARK SMILES NNc1cccc2cc3ccccc3cc12
REMARK SMILES IDX 1 1 2 4 3 6 4 7 16 8 5 9 15 10 7 11 6 12 14 13 8 14 13 15
REMARK SMILES IDX 9 16 12 17 10 18 11 19
REMARK H PARENT 1 2 1 3 2 5
ROOT
ATOM      1  N   UNL     1      42.690 131.542  13.438  1.00  0.00    -0.250 NA
ATOM      2  H   UNL     1      41.885 132.181  13.249  1.00  0.00     0.143 HD
ATOM      3  H   UNL     1      42.289 130.618  13.715  1.00  0.00     0.143 HD
ENDROOT
BRANCH   1   4
ATOM      4  N   UNL     1      43.368 132.053  14.555  1.00  0.00    -0.324 N 
ATOM      5  H   UNL     1      43.238 133.066  14.785  1.00  0.00     0.181 HD
BRANCH   4   6
ATOM      6  C   UNL     1      44.547 131.398  15.045  1.00  0.00     0.056 A 
ATOM      7  C   UNL     1      45.487 130.932  14.114  1.00  0.00     0.028 A 
ATOM      8  C   UNL     1      44.779 131.199  16.432  1.00  0.00     0.007 A 
ATOM      9  C   UNL     1      46.618 130.232  14.533  1.00  0.00     0.003 A 
ATOM     10  C   UNL     1      43.920 131.731  17.415  1.00  0.00     0.019 A 
ATOM     11  C   UNL     1      45.929 130.475  16.845  1.00  0.00    -0.016 A 
ATOM     12  C   UNL     1      46.834 129.993  15.888  1.00  0.00     0.009 A 
ATOM     13  C   UNL     1      44.167 131.509  18.777  1.00  0.00    -0.018 A 
ATOM     14  C   UNL     1      46.171 130.251  18.209  1.00  0.00     0.017 A 
ATOM     15  C   UNL     1      43.301 132.031  19.753  1.00  0.00     0.009 A 
ATOM     16  C   UNL     1      45.296 130.758  19.177  1.00  0.00    -0.018 A 
ATOM     17  C   UNL     1      43.552 131.804  21.109  1.00  0.00     0.001 A 
ATOM     18  C   UNL     1      45.537 130.537  20.543  1.00  0.00     0.009 A 
ATOM     19  C   UNL     1      44.666 131.059  21.503  1.00  0.00     0.001 A 
ENDBRANCH   4   6
ENDBRANCH   1   4
TORSDOF 2
ENDMDL
MODEL 5
REMARK VINA RESULT:      -7.4      1.051      1.524
REMARK SMILES NNc1cccc2cc3ccccc3cc12
REMARK SMILES IDX 1 1 2 4 3 6 4 7 16 8 5 9 15 10 7 11 6 12 14 13 8 14 13 15
REMARK SMILES IDX 9 16 12 17 10 18 11 19
REMARK H PARENT 1 2 1 3 2 5
ROOT
ATOM      1  N   UNL     1      41.257 133.004  18.593  1.00  0.00    -0.250 NA
ATOM      2  H   UNL     1      40.597 132.194  18.555  1.00  0.00     0.143 HD
ATOM      3  H   UNL     1      40.773 133.816  18.148  1.00  0.00     0.143 HD
ENDROOT
BRANCH   1   4
ATOM      4  N   UNL     1      42.356 132.679  17.783  1.00  0.00    -0.324 N 
ATOM      5  H   UNL     1      42.219 132.693  16.746  1.00  0.00     0.181 HD
BRANCH   4   6
ATOM      6  C   UNL     1      43.432 131.888  18.308  1.00  0.00     0.056 A 
ATOM      7  C   UNL     1      43.451 131.618  19.685  1.00  0.00     0.028 A 
ATOM      8  C   UNL     1      44.474 131.389  17.483  1.00  0.00     0.007 A 
ATOM      9  C   UNL     1      44.506 130.909  20.257  1.00  0.00     0.003 A 
ATOM     10  C   UNL     1      44.456 131.545  16.083  1.00  0.00     0.019 A 
ATOM     11  C   UNL     1      45.550 130.678  18.081  1.00  0.00    -0.016 A 
ATOM     12  C   UNL     1      45.557 130.452  19.465  1.00  0.00     0.009 A 
ATOM     13  C   UNL     1      45.505 131.052  15.293  1.00  0.00    -0.018 A 
ATOM     14  C   UNL     1      46.600 130.190  17.288  1.00  0.00     0.017 A 
ATOM     15  C   UNL     1      45.488 131.221  13.899  1.00  0.00     0.009 A 
ATOM     16  C   UNL     1      46.588 130.376  15.901  1.00  0.00    -0.018 A 
ATOM     17  C   UNL     1      46.538 130.729  13.119  1.00  0.00     0.001 A 
ATOM     18  C   UNL     1      47.636 129.886  15.106  1.00  0.00     0.009 A 
ATOM     19  C   UNL     1      47.609 130.064  13.720  1.00  0.00     0.001 A 
ENDBRANCH   4   6
ENDBRANCH   1   4
TORSDOF 2
ENDMDL


