REMARK SMILES C=Cc1cc(-c2ccc(C)c3[nH]ncc23)ccc1[O-]
REMARK SMILES IDX 3 1 4 2 5 3 16 4 17 5 18 6 19 7 2 8 1 9 6 10 7 11 15 12 8 13
REMARK SMILES IDX 14 14 11 15 9 16 13 17 12 18 10 19
REMARK H PARENT 12 20
ROOT
ATOM      1  C   UNL     1      -0.283  -2.350   0.241  1.00  0.00    -0.034 A 
ATOM      2  C   UNL     1      -0.008  -0.985   0.460  1.00  0.00     0.016 A 
ATOM      3  C   UNL     1       1.298  -0.483   0.330  1.00  0.00    -0.017 A 
ATOM      4  C   UNL     1       2.331  -1.351  -0.052  1.00  0.00     0.008 A 
ATOM      5  C   UNL     1       2.067  -2.700  -0.290  1.00  0.00    -0.007 A 
ATOM      6  C   UNL     1       0.771  -3.202  -0.147  1.00  0.00    -0.102 A 
ATOM      7  O   UNL     1       0.541  -4.553  -0.385  1.00  0.00    -0.872 OA
ENDROOT
BRANCH   1   8
ATOM      8  C   UNL     1      -1.657  -2.899   0.370  1.00  0.00    -0.001 C 
ATOM      9  C   UNL     1      -2.607  -2.347   1.127  1.00  0.00     0.009 C 
ENDBRANCH   1   8
BRANCH   3  10
ATOM     10  C   UNL     1       1.579   0.954   0.561  1.00  0.00    -0.007 A 
ATOM     11  C   UNL     1       2.341   1.702  -0.365  1.00  0.00     0.010 A 
ATOM     12  C   UNL     1       1.113   1.635   1.695  1.00  0.00     0.028 A 
ATOM     13  C   UNL     1       2.602   3.073  -0.150  1.00  0.00     0.006 A 
ATOM     14  C   UNL     1       0.403   1.225   2.808  1.00  0.00     0.144 A 
ATOM     15  C   UNL     1       1.368   2.963   1.904  1.00  0.00     0.069 A 
ATOM     16  C   UNL     1       2.110   3.729   0.999  1.00  0.00    -0.025 A 
ATOM     17  N   UNL     1       0.244   2.288   3.631  1.00  0.00    -0.183 NA
ATOM     18  N   UNL     1       0.831   3.342   3.076  1.00  0.00    -0.278 N 
ATOM     19  C   UNL     1       2.391   5.181   1.250  1.00  0.00     0.046 C 
ATOM     20  H   UNL     1       0.866   4.292   3.507  1.00  0.00     0.190 HD
ENDBRANCH   3  10
TORSDOF 2


