REMARK SMILES O=C(Nc1ccc(Br)nc1Cl)N(c1cn2ccccc2n1)c1cc2ccccc2[nH]1
REMARK SMILES IDX 1 1 2 2 3 3 12 5 13 6 14 7 21 8 15 9 20 10 16 11 19 12 17 13
REMARK SMILES IDX 18 14 22 15 23 16 30 17 24 18 29 19 25 20 28 21 26 22 27 23
REMARK SMILES IDX 4 25 5 26 10 27 6 28 9 29 7 30 11 31 8 32
REMARK H PARENT 3 4 30 24
ROOT
ATOM      1  O   UNL     1      -0.382  -1.236  -1.333  1.00  0.00    -0.247 OA
ATOM      2  C   UNL     1      -0.651  -0.387  -0.439  1.00  0.00     0.333 C 
ATOM      3  N   UNL     1      -2.010   0.037  -0.254  1.00  0.00    -0.304 N 
ATOM      4  H   UNL     1      -2.176   1.002   0.110  1.00  0.00     0.172 HD
ENDROOT
BRANCH   2   5
ATOM      5  N   UNL     1       0.411   0.198   0.340  1.00  0.00    -0.230 N 
BRANCH   5   6
ATOM      6  C   UNL     1       0.186   0.628   1.700  1.00  0.00     0.161 A 
ATOM      7  C   UNL     1       1.125   1.232   2.530  1.00  0.00     0.140 A 
ATOM      8  N   UNL     1      -0.974   0.419   2.373  1.00  0.00    -0.211 NA
ATOM      9  N   UNL     1       0.528   1.414   3.716  1.00  0.00    -0.305 N 
ATOM     10  C   UNL     1      -0.716   0.923   3.596  1.00  0.00     0.139 A 
ATOM     11  C   UNL     1       1.011   1.964   4.859  1.00  0.00     0.093 A 
ATOM     12  C   UNL     1      -1.604   0.956   4.669  1.00  0.00     0.048 A 
ATOM     13  C   UNL     1       0.161   2.027   5.972  1.00  0.00     0.018 A 
ATOM     14  C   UNL     1      -1.151   1.521   5.872  1.00  0.00     0.005 A 
ENDBRANCH   5   6
BRANCH   5  15
ATOM     15  C   UNL     1       1.720   0.303  -0.242  1.00  0.00     0.121 A 
ATOM     16  C   UNL     1       2.403   1.499  -0.448  1.00  0.00     0.056 A 
ATOM     17  N   UNL     1       2.428  -0.760  -0.691  1.00  0.00    -0.341 N 
ATOM     18  C   UNL     1       3.586   1.123  -1.047  1.00  0.00     0.002 A 
ATOM     19  C   UNL     1       3.569  -0.243  -1.178  1.00  0.00     0.047 A 
ATOM     20  C   UNL     1       4.664   1.890  -1.483  1.00  0.00     0.010 A 
ATOM     21  C   UNL     1       4.633  -0.936  -1.754  1.00  0.00     0.027 A 
ATOM     22  C   UNL     1       5.753   1.218  -2.069  1.00  0.00     0.001 A 
ATOM     23  C   UNL     1       5.737  -0.189  -2.204  1.00  0.00     0.002 A 
ATOM     24  H   UNL     1       2.154  -1.767  -0.656  1.00  0.00     0.168 HD
ENDBRANCH   5  15
ENDBRANCH   2   5
BRANCH   3  25
ATOM     25  C   UNL     1      -3.125  -0.672  -0.815  1.00  0.00     0.080 A 
ATOM     26  C   UNL     1      -4.054   0.019  -1.601  1.00  0.00     0.032 A 
ATOM     27  C   UNL     1      -3.339  -2.043  -0.563  1.00  0.00     0.153 A 
ATOM     28  C   UNL     1      -5.142  -0.654  -2.158  1.00  0.00     0.038 A 
ATOM     29  N   UNL     1      -4.412  -2.672  -1.115  1.00  0.00    -0.227 NA
ATOM     30  C   UNL     1      -5.302  -2.018  -1.907  1.00  0.00     0.108 A 
ATOM     31  Cl  UNL     1      -2.302  -2.959   0.521  1.00  0.00    -0.060 Cl
ATOM     32  Br  UNL     1      -6.778  -2.967  -2.653  1.00  0.00    -0.029 Br
ENDBRANCH   3  25
TORSDOF 4


