REMARK SMILES Cc1cc(-c2c[nH+]c3ccnn3c2)ccc1C(=O)[N-][C@H]1CC12CCC2
REMARK SMILES IDX 1 1 2 2 3 3 4 4 14 5 15 6 16 7 17 8 18 9 19 10 20 11 21 12
REMARK SMILES IDX 22 13 23 14 25 15 24 16 5 17 6 18 13 19 7 20 12 21 8 22
REMARK SMILES IDX 11 23 9 24 10 25
REMARK H PARENT 7 26
ROOT
ATOM      1  C   UNL     1       2.748  -1.037   0.778  1.00  0.00     0.045 C 
ATOM      2  C   UNL     1       1.312  -1.177   0.341  1.00  0.00    -0.041 A 
ATOM      3  C   UNL     1       0.627  -2.364   0.657  1.00  0.00     0.013 A 
ATOM      4  C   UNL     1      -0.721  -2.540   0.309  1.00  0.00    -0.011 A 
ATOM      5  C   UNL     1      -1.386  -1.510  -0.371  1.00  0.00     0.010 A 
ATOM      6  C   UNL     1      -0.717  -0.333  -0.704  1.00  0.00     0.011 A 
ATOM      7  C   UNL     1       0.636  -0.150  -0.372  1.00  0.00     0.002 A 
ENDROOT
BRANCH   7   8
ATOM      8  C   UNL     1       1.298   1.115  -0.779  1.00  0.00     0.082 C 
ATOM      9  O   UNL     1       2.536   1.145  -1.019  1.00  0.00    -0.315 OA
BRANCH   8  10
ATOM     10  N   UNL     1       0.523   2.309  -0.922  1.00  0.00    -0.646 NA
BRANCH  10  11
ATOM     11  C   UNL     1       1.119   3.585  -1.290  1.00  0.00    -0.100 C 
ATOM     12  C   UNL     1       0.358   4.794  -0.731  1.00  0.00    -0.010 C 
ATOM     13  C   UNL     1       1.675   4.343  -0.110  1.00  0.00    -0.044 C 
ATOM     14  C   UNL     1       2.792   5.341  -0.047  1.00  0.00     0.006 C 
ATOM     15  C   UNL     1       1.684   4.029   1.359  1.00  0.00     0.006 C 
ATOM     16  C   UNL     1       2.837   5.048   1.468  1.00  0.00     0.001 C 
ENDBRANCH  10  11
ENDBRANCH   8  10
ENDBRANCH   7   8
BRANCH   4  17
ATOM     17  C   UNL     1      -1.434  -3.796   0.656  1.00  0.00     0.063 A 
ATOM     18  C   UNL     1      -1.223  -4.437   1.904  1.00  0.00     0.210 A 
ATOM     19  C   UNL     1      -2.345  -4.386  -0.244  1.00  0.00     0.245 A 
ATOM     20  N   UNL     1      -1.882  -5.591   2.215  1.00  0.00    -0.245 N 
ATOM     21  N   UNL     1      -2.963  -5.531   0.131  1.00  0.00    -0.104 N 
ATOM     22  C   UNL     1      -2.744  -6.115   1.311  1.00  0.00     0.306 A 
ATOM     23  N   UNL     1      -3.837  -6.231  -0.570  1.00  0.00    -0.086 NA
ATOM     24  C   UNL     1      -3.504  -7.256   1.414  1.00  0.00     0.125 A 
ATOM     25  C   UNL     1      -4.183  -7.293   0.198  1.00  0.00     0.167 A 
ATOM     26  H   UNL     1      -1.725  -6.058   3.137  1.00  0.00     0.312 HD
ENDBRANCH   4  17
TORSDOF 4


