MODEL 1
REMARK VINA RESULT:      -9.9      0.000      0.000
REMARK SMILES CC(=O)c1ccc(-c2cc(N)c([O-])c([NH2+]c3ccc(C)c(F)c3)c2)c(F)n1
REMARK SMILES IDX 8 1 9 2 10 3 12 4 13 5 14 6 24 7 7 8 4 9 5 10 27 11 6 12
REMARK SMILES IDX 25 13 26 14 2 15 1 16 3 17 11 18 15 21 16 24 17 25 23 26
REMARK SMILES IDX 18 27 21 28 19 29 22 30 20 31
REMARK H PARENT 11 19 11 20 15 22 15 23
ROOT
ATOM      1  C   UNL     1      44.603 131.470  18.318  1.00  0.00    -0.006 A 
ATOM      2  C   UNL     1      43.294 131.963  18.201  1.00  0.00     0.034 A 
ATOM      3  C   UNL     1      42.527 132.235  19.342  1.00  0.00     0.030 A 
ATOM      4  C   UNL     1      43.070 132.008  20.618  1.00  0.00    -0.021 A 
ATOM      5  O   UNL     1      42.307 132.276  21.750  1.00  0.00    -0.867 OA
ATOM      6  C   UNL     1      44.384 131.512  20.753  1.00  0.00     0.129 A 
ATOM      7  C   UNL     1      45.137 131.244  19.596  1.00  0.00     0.076 A 
ENDROOT
BRANCH   1   8
ATOM      8  C   UNL     1      45.405 131.166  17.109  1.00  0.00     0.037 A 
ATOM      9  C   UNL     1      46.926 130.587  14.835  1.00  0.00     0.109 A 
ATOM     10  C   UNL     1      46.319 131.846  14.965  1.00  0.00     0.033 A 
ATOM     11  N   UNL     1      46.757 129.663  15.820  1.00  0.00    -0.216 NA
ATOM     12  C   UNL     1      45.559 132.129  16.101  1.00  0.00     0.016 A 
ATOM     13  C   UNL     1      46.025 129.914  16.937  1.00  0.00     0.221 A 
ATOM     14  F   UNL     1      45.875 128.931  17.860  1.00  0.00    -0.184 F 
BRANCH   9  15
ATOM     15  C   UNL     1      47.738 130.251  13.646  1.00  0.00     0.178 C 
ATOM     16  C   UNL     1      47.759 131.160  12.456  1.00  0.00     0.095 C 
ATOM     17  O   UNL     1      48.423 129.193  13.622  1.00  0.00    -0.293 OA
ENDBRANCH   9  15
ENDBRANCH   1   8
BRANCH   3  18
ATOM     18  N   UNL     1      41.193 132.734  19.194  1.00  0.00    -0.399 N 
ATOM     19  H   UNL     1      40.868 133.163  18.299  1.00  0.00     0.156 HD
ATOM     20  H   UNL     1      40.512 132.680  19.984  1.00  0.00     0.156 HD
ENDBRANCH   3  18
BRANCH   6  21
ATOM     21  N   UNL     1      44.946 131.236  22.054  1.00  0.00    -0.282 N 
ATOM     22  H   UNL     1      44.606 131.932  22.759  1.00  0.00     0.358 HD
ATOM     23  H   UNL     1      45.988 131.337  22.023  1.00  0.00     0.358 HD
BRANCH  21  24
ATOM     24  C   UNL     1      44.597 129.898  22.462  1.00  0.00     0.137 A 
ATOM     25  C   UNL     1      43.514 129.674  23.329  1.00  0.00     0.068 A 
ATOM     26  C   UNL     1      45.315 128.794  21.967  1.00  0.00     0.107 A 
ATOM     27  C   UNL     1      43.158 128.374  23.697  1.00  0.00     0.012 A 
ATOM     28  C   UNL     1      44.958 127.492  22.335  1.00  0.00     0.132 A 
ATOM     29  C   UNL     1      43.870 127.274  23.195  1.00  0.00    -0.015 A 
ATOM     30  F   UNL     1      45.675 126.446  21.851  1.00  0.00    -0.206 F 
ATOM     31  C   UNL     1      43.503 125.878  23.610  1.00  0.00     0.047 C 
ENDBRANCH  21  24
ENDBRANCH   6  21
TORSDOF 5
ENDMDL
MODEL 2
REMARK VINA RESULT:      -9.8      0.888      1.288
REMARK SMILES CC(=O)c1ccc(-c2cc(N)c([O-])c([NH2+]c3ccc(C)c(F)c3)c2)c(F)n1
REMARK SMILES IDX 8 1 9 2 10 3 12 4 13 5 14 6 24 7 7 8 4 9 5 10 27 11 6 12
REMARK SMILES IDX 25 13 26 14 2 15 1 16 3 17 11 18 15 21 16 24 17 25 23 26
REMARK SMILES IDX 18 27 21 28 19 29 22 30 20 31
REMARK H PARENT 11 19 11 20 15 22 15 23
ROOT
ATOM      1  C   UNL     1      44.672 131.425  18.177  1.00  0.00    -0.006 A 
ATOM      2  C   UNL     1      43.368 131.931  18.065  1.00  0.00     0.034 A 
ATOM      3  C   UNL     1      42.602 132.194  19.207  1.00  0.00     0.030 A 
ATOM      4  C   UNL     1      43.140 131.945  20.481  1.00  0.00    -0.021 A 
ATOM      5  O   UNL     1      42.377 132.205  21.615  1.00  0.00    -0.867 OA
ATOM      6  C   UNL     1      44.448 131.436  20.612  1.00  0.00     0.129 A 
ATOM      7  C   UNL     1      45.202 131.177  19.453  1.00  0.00     0.076 A 
ENDROOT
BRANCH   1   8
ATOM      8  C   UNL     1      45.475 131.130  16.966  1.00  0.00     0.037 A 
ATOM      9  C   UNL     1      46.995 130.569  14.687  1.00  0.00     0.109 A 
ATOM     10  C   UNL     1      46.376 131.821  14.820  1.00  0.00     0.033 A 
ATOM     11  N   UNL     1      46.838 129.642  15.672  1.00  0.00    -0.216 NA
ATOM     12  C   UNL     1      45.616 132.096  15.958  1.00  0.00     0.016 A 
ATOM     13  C   UNL     1      46.107 129.885  16.791  1.00  0.00     0.221 A 
ATOM     14  F   UNL     1      45.969 128.899  17.713  1.00  0.00    -0.184 F 
BRANCH   9  15
ATOM     15  C   UNL     1      47.808 130.242  13.496  1.00  0.00     0.178 C 
ATOM     16  C   UNL     1      47.706 131.072  12.253  1.00  0.00     0.095 C 
ATOM     17  O   UNL     1      48.596 129.258  13.514  1.00  0.00    -0.293 OA
ENDBRANCH   9  15
ENDBRANCH   1   8
BRANCH   3  18
ATOM     18  N   UNL     1      41.272 132.707  19.063  1.00  0.00    -0.399 N 
ATOM     19  H   UNL     1      40.778 132.688  18.143  1.00  0.00     0.156 HD
ATOM     20  H   UNL     1      40.766 133.114  19.881  1.00  0.00     0.156 HD
ENDBRANCH   3  18
BRANCH   6  21
ATOM     21  N   UNL     1      45.005 131.137  21.910  1.00  0.00    -0.282 N 
ATOM     22  H   UNL     1      44.641 131.804  22.631  1.00  0.00     0.358 HD
ATOM     23  H   UNL     1      46.044 131.264  21.892  1.00  0.00     0.358 HD
BRANCH  21  24
ATOM     24  C   UNL     1      44.686 129.779  22.276  1.00  0.00     0.137 A 
ATOM     25  C   UNL     1      45.431 128.705  21.760  1.00  0.00     0.068 A 
ATOM     26  C   UNL     1      43.645 129.513  23.185  1.00  0.00     0.107 A 
ATOM     27  C   UNL     1      45.140 127.393  22.141  1.00  0.00     0.012 A 
ATOM     28  C   UNL     1      43.354 128.200  23.567  1.00  0.00     0.132 A 
ATOM     29  C   UNL     1      44.107 127.131  23.055  1.00  0.00    -0.015 A 
ATOM     30  F   UNL     1      42.337 127.972  24.437  1.00  0.00    -0.206 F 
ATOM     31  C   UNL     1      43.778 125.719  23.445  1.00  0.00     0.047 C 
ENDBRANCH  21  24
ENDBRANCH   6  21
TORSDOF 5
ENDMDL
MODEL 3
REMARK VINA RESULT:      -9.6      1.040      1.288
REMARK SMILES CC(=O)c1ccc(-c2cc(N)c([O-])c([NH2+]c3ccc(C)c(F)c3)c2)c(F)n1
REMARK SMILES IDX 8 1 9 2 10 3 12 4 13 5 14 6 24 7 7 8 4 9 5 10 27 11 6 12
REMARK SMILES IDX 25 13 26 14 2 15 1 16 3 17 11 18 15 21 16 24 17 25 23 26
REMARK SMILES IDX 18 27 21 28 19 29 22 30 20 31
REMARK H PARENT 11 19 11 20 15 22 15 23
ROOT
ATOM      1  C   UNL     1      44.668 131.315  18.188  1.00  0.00    -0.006 A 
ATOM      2  C   UNL     1      43.355 131.796  18.062  1.00  0.00     0.034 A 
ATOM      3  C   UNL     1      42.589 132.091  19.197  1.00  0.00     0.030 A 
ATOM      4  C   UNL     1      43.136 131.900  20.477  1.00  0.00    -0.021 A 
ATOM      5  O   UNL     1      42.374 132.192  21.604  1.00  0.00    -0.867 OA
ATOM      6  C   UNL     1      44.453 131.417  20.622  1.00  0.00     0.129 A 
ATOM      7  C   UNL     1      45.206 131.124  19.471  1.00  0.00     0.076 A 
ENDROOT
BRANCH   1   8
ATOM      8  C   UNL     1      45.470 130.985  16.986  1.00  0.00     0.037 A 
ATOM      9  C   UNL     1      46.976 130.370  14.712  1.00  0.00     0.109 A 
ATOM     10  C   UNL     1      46.531 129.338  15.552  1.00  0.00     0.033 A 
ATOM     11  N   UNL     1      46.671 131.660  15.024  1.00  0.00    -0.216 NA
ATOM     12  C   UNL     1      45.781 129.650  16.687  1.00  0.00     0.016 A 
ATOM     13  C   UNL     1      45.940 131.990  16.121  1.00  0.00     0.221 A 
ATOM     14  F   UNL     1      45.706 133.301  16.385  1.00  0.00    -0.184 F 
BRANCH   9  15
ATOM     15  C   UNL     1      47.773 130.078  13.501  1.00  0.00     0.178 C 
ATOM     16  C   UNL     1      47.758 131.018  12.334  1.00  0.00     0.095 C 
ATOM     17  O   UNL     1      48.474 129.032  13.438  1.00  0.00    -0.293 OA
ENDBRANCH   9  15
ENDBRANCH   1   8
BRANCH   3  18
ATOM     18  N   UNL     1      41.251 132.578  19.040  1.00  0.00    -0.399 N 
ATOM     19  H   UNL     1      41.037 133.600  19.068  1.00  0.00     0.156 HD
ATOM     20  H   UNL     1      40.457 131.917  18.893  1.00  0.00     0.156 HD
ENDBRANCH   3  18
BRANCH   6  21
ATOM     21  N   UNL     1      45.020 131.177  21.929  1.00  0.00    -0.282 N 
ATOM     22  H   UNL     1      44.698 131.904  22.610  1.00  0.00     0.358 HD
ATOM     23  H   UNL     1      46.063 131.257  21.887  1.00  0.00     0.358 HD
BRANCH  21  24
ATOM     24  C   UNL     1      44.649 129.861  22.386  1.00  0.00     0.137 A 
ATOM     25  C   UNL     1      43.583 129.691  23.286  1.00  0.00     0.068 A 
ATOM     26  C   UNL     1      45.328 128.725  21.910  1.00  0.00     0.107 A 
ATOM     27  C   UNL     1      43.205 128.412  23.704  1.00  0.00     0.012 A 
ATOM     28  C   UNL     1      44.950 127.444  22.327  1.00  0.00     0.132 A 
ATOM     29  C   UNL     1      43.879 127.279  23.219  1.00  0.00    -0.015 A 
ATOM     30  F   UNL     1      45.630 126.366  21.859  1.00  0.00    -0.206 F 
ATOM     31  C   UNL     1      43.488 125.907  23.687  1.00  0.00     0.047 C 
ENDBRANCH  21  24
ENDBRANCH   6  21
TORSDOF 5
ENDMDL
MODEL 4
REMARK VINA RESULT:      -9.0      1.743      2.117
REMARK SMILES CC(=O)c1ccc(-c2cc(N)c([O-])c([NH2+]c3ccc(C)c(F)c3)c2)c(F)n1
REMARK SMILES IDX 8 1 9 2 10 3 12 4 13 5 14 6 24 7 7 8 4 9 5 10 27 11 6 12
REMARK SMILES IDX 25 13 26 14 2 15 1 16 3 17 11 18 15 21 16 24 17 25 23 26
REMARK SMILES IDX 18 27 21 28 19 29 22 30 20 31
REMARK H PARENT 11 19 11 20 15 22 15 23
ROOT
ATOM      1  C   UNL     1      44.244 131.363  19.026  1.00  0.00    -0.006 A 
ATOM      2  C   UNL     1      43.043 132.088  19.071  1.00  0.00     0.034 A 
ATOM      3  C   UNL     1      42.407 132.345  20.293  1.00  0.00     0.030 A 
ATOM      4  C   UNL     1      42.973 131.868  21.487  1.00  0.00    -0.021 A 
ATOM      5  O   UNL     1      42.340 132.122  22.700  1.00  0.00    -0.867 OA
ATOM      6  C   UNL     1      44.179 131.137  21.459  1.00  0.00     0.129 A 
ATOM      7  C   UNL     1      44.801 130.888  20.224  1.00  0.00     0.076 A 
ENDROOT
BRANCH   1   8
ATOM      8  C   UNL     1      44.904 131.077  17.730  1.00  0.00     0.037 A 
ATOM      9  C   UNL     1      46.141 130.534  15.282  1.00  0.00     0.109 A 
ATOM     10  C   UNL     1      46.710 130.051  16.471  1.00  0.00     0.033 A 
ATOM     11  N   UNL     1      44.995 131.268  15.342  1.00  0.00    -0.216 NA
ATOM     12  C   UNL     1      46.089 130.326  17.690  1.00  0.00     0.016 A 
ATOM     13  C   UNL     1      44.371 131.547  16.516  1.00  0.00     0.221 A 
ATOM     14  F   UNL     1      43.251 132.313  16.499  1.00  0.00    -0.184 F 
BRANCH   9  15
ATOM     15  C   UNL     1      46.769 130.263  13.971  1.00  0.00     0.178 C 
ATOM     16  C   UNL     1      47.914 129.303  13.858  1.00  0.00     0.095 C 
ATOM     17  O   UNL     1      46.346 130.838  12.931  1.00  0.00    -0.293 OA
ENDBRANCH   9  15
ENDBRANCH   1   8
BRANCH   3  18
ATOM     18  N   UNL     1      41.181 133.085  20.309  1.00  0.00    -0.399 N 
ATOM     19  H   UNL     1      40.753 133.410  21.205  1.00  0.00     0.156 HD
ATOM     20  H   UNL     1      40.685 133.317  19.420  1.00  0.00     0.156 HD
ENDBRANCH   3  18
BRANCH   6  21
ATOM     21  N   UNL     1      44.755 130.605  22.672  1.00  0.00    -0.282 N 
ATOM     22  H   UNL     1      44.525 131.217  23.490  1.00  0.00     0.358 HD
ATOM     23  H   UNL     1      45.800 130.598  22.598  1.00  0.00     0.358 HD
BRANCH  21  24
ATOM     24  C   UNL     1      44.272 129.265  22.895  1.00  0.00     0.137 A 
ATOM     25  C   UNL     1      45.004 128.156  22.439  1.00  0.00     0.068 A 
ATOM     26  C   UNL     1      43.077 129.049  23.605  1.00  0.00     0.107 A 
ATOM     27  C   UNL     1      44.549 126.857  22.683  1.00  0.00     0.012 A 
ATOM     28  C   UNL     1      42.621 127.750  23.850  1.00  0.00     0.132 A 
ATOM     29  C   UNL     1      43.361 126.645  23.400  1.00  0.00    -0.015 A 
ATOM     30  F   UNL     1      41.459 127.571  24.528  1.00  0.00    -0.206 F 
ATOM     31  C   UNL     1      42.860 125.250  23.641  1.00  0.00     0.047 C 
ENDBRANCH  21  24
ENDBRANCH   6  21
TORSDOF 5
ENDMDL
MODEL 5
REMARK VINA RESULT:      -8.6      1.455      1.764
REMARK SMILES CC(=O)c1ccc(-c2cc(N)c([O-])c([NH2+]c3ccc(C)c(F)c3)c2)c(F)n1
REMARK SMILES IDX 8 1 9 2 10 3 12 4 13 5 14 6 24 7 7 8 4 9 5 10 27 11 6 12
REMARK SMILES IDX 25 13 26 14 2 15 1 16 3 17 11 18 15 21 16 24 17 25 23 26
REMARK SMILES IDX 18 27 21 28 19 29 22 30 20 31
REMARK H PARENT 11 19 11 20 15 22 15 23
ROOT
ATOM      1  C   UNL     1      44.123 131.413  19.548  1.00  0.00    -0.006 A 
ATOM      2  C   UNL     1      42.971 132.213  19.586  1.00  0.00     0.034 A 
ATOM      3  C   UNL     1      42.330 132.487  20.801  1.00  0.00     0.030 A 
ATOM      4  C   UNL     1      42.840 131.952  21.995  1.00  0.00    -0.021 A 
ATOM      5  O   UNL     1      42.202 132.223  23.201  1.00  0.00    -0.867 OA
ATOM      6  C   UNL     1      43.997 131.145  21.974  1.00  0.00     0.129 A 
ATOM      7  C   UNL     1      44.626 130.880  20.745  1.00  0.00     0.076 A 
ENDROOT
BRANCH   1   8
ATOM      8  C   UNL     1      44.789 131.109  18.258  1.00  0.00     0.037 A 
ATOM      9  C   UNL     1      46.035 130.534  15.822  1.00  0.00     0.109 A 
ATOM     10  C   UNL     1      46.636 130.128  17.024  1.00  0.00     0.033 A 
ATOM     11  N   UNL     1      44.854 131.209  15.864  1.00  0.00    -0.216 NA
ATOM     12  C   UNL     1      46.011 130.420  18.237  1.00  0.00     0.016 A 
ATOM     13  C   UNL     1      44.223 131.503  17.032  1.00  0.00     0.221 A 
ATOM     14  F   UNL     1      43.066 132.209  16.994  1.00  0.00    -0.184 F 
BRANCH   9  15
ATOM     15  C   UNL     1      46.668 130.243  14.518  1.00  0.00     0.178 C 
ATOM     16  C   UNL     1      47.185 131.354  13.657  1.00  0.00     0.095 C 
ATOM     17  O   UNL     1      46.778 129.053  14.115  1.00  0.00    -0.293 OA
ENDBRANCH   9  15
ENDBRANCH   1   8
BRANCH   3  18
ATOM     18  N   UNL     1      41.153 133.305  20.811  1.00  0.00    -0.399 N 
ATOM     19  H   UNL     1      40.483 133.284  21.611  1.00  0.00     0.156 HD
ATOM     20  H   UNL     1      40.941 133.943  20.012  1.00  0.00     0.156 HD
ENDBRANCH   3  18
BRANCH   6  21
ATOM     21  N   UNL     1      44.515 130.554  23.186  1.00  0.00    -0.282 N 
ATOM     22  H   UNL     1      44.196 131.093  24.026  1.00  0.00     0.358 HD
ATOM     23  H   UNL     1      45.561 130.601  23.188  1.00  0.00     0.358 HD
BRANCH  21  24
ATOM     24  C   UNL     1      44.087 129.180  23.280  1.00  0.00     0.137 A 
ATOM     25  C   UNL     1      42.892 128.847  23.940  1.00  0.00     0.068 A 
ATOM     26  C   UNL     1      44.844 128.157  22.680  1.00  0.00     0.107 A 
ATOM     27  C   UNL     1      42.464 127.518  24.002  1.00  0.00     0.012 A 
ATOM     28  C   UNL     1      44.415 126.827  22.741  1.00  0.00     0.132 A 
ATOM     29  C   UNL     1      43.216 126.501  23.394  1.00  0.00    -0.015 A 
ATOM     30  F   UNL     1      45.171 125.859  22.162  1.00  0.00    -0.206 F 
ATOM     31  C   UNL     1      42.768 125.070  23.481  1.00  0.00     0.047 C 
ENDBRANCH  21  24
ENDBRANCH   6  21
TORSDOF 5
ENDMDL


