REMARK SMILES Cc1cc(N)c(Nc2ccc3cc[nH]c3c2[O-])cc1F
REMARK SMILES IDX 1 1 2 2 3 3 4 4 6 5 18 6 19 7 20 8 5 9 7 12 8 14 9 15 16 16
REMARK SMILES IDX 10 17 15 18 11 19 14 20 12 21 13 22 17 23
REMARK H PARENT 5 10 5 11 7 13 14 24
ROOT
ATOM      1  C   UNL     1       3.337   4.486   1.905  1.00  0.00     0.047 C 
ATOM      2  C   UNL     1       2.116   3.668   1.596  1.00  0.00    -0.013 A 
ATOM      3  C   UNL     1       1.956   2.395   2.163  1.00  0.00     0.034 A 
ATOM      4  C   UNL     1       0.803   1.636   1.908  1.00  0.00     0.056 A 
ATOM      5  C   UNL     1      -0.196   2.156   1.055  1.00  0.00     0.065 A 
ATOM      6  C   UNL     1      -0.051   3.445   0.527  1.00  0.00     0.067 A 
ATOM      7  C   UNL     1       1.095   4.198   0.793  1.00  0.00     0.128 A 
ATOM      8  F   UNL     1       1.210   5.443   0.264  1.00  0.00    -0.207 F 
ENDROOT
BRANCH   4   9
ATOM      9  N   UNL     1       0.645   0.367   2.554  1.00  0.00    -0.397 N 
ATOM     10  H   UNL     1      -0.253  -0.163   2.515  1.00  0.00     0.156 HD
ATOM     11  H   UNL     1       1.414  -0.030   3.140  1.00  0.00     0.156 HD
ENDBRANCH   4   9
BRANCH   5  12
ATOM     12  N   UNL     1      -1.376   1.405   0.732  1.00  0.00    -0.354 N 
ATOM     13  H   UNL     1      -2.296   1.887   0.852  1.00  0.00     0.167 HD
BRANCH  12  14
ATOM     14  C   UNL     1      -1.353   0.121   0.080  1.00  0.00     0.033 A 
ATOM     15  C   UNL     1      -0.176  -0.356  -0.562  1.00  0.00     0.026 A 
ATOM     16  C   UNL     1      -2.525  -0.673   0.057  1.00  0.00    -0.060 A 
ATOM     17  C   UNL     1      -0.161  -1.607  -1.203  1.00  0.00     0.012 A 
ATOM     18  C   UNL     1      -2.474  -1.908  -0.589  1.00  0.00     0.039 A 
ATOM     19  C   UNL     1      -1.333  -2.357  -1.194  1.00  0.00    -0.001 A 
ATOM     20  N   UNL     1      -3.466  -2.807  -0.719  1.00  0.00    -0.362 N 
ATOM     21  C   UNL     1      -1.608  -3.594  -1.734  1.00  0.00     0.028 A 
ATOM     22  C   UNL     1      -2.941  -3.839  -1.418  1.00  0.00     0.083 A 
ATOM     23  O   UNL     1      -3.698  -0.244   0.668  1.00  0.00    -0.870 OA
ATOM     24  H   UNL     1      -4.442  -2.730  -0.357  1.00  0.00     0.166 HD
ENDBRANCH  12  14
ENDBRANCH   5  12
TORSDOF 3


