MODEL 1
REMARK VINA RESULT:      -4.1      0.000      0.000
REMARK SMILES Cc1ccc(Nc2ccc3cc[nH]c3c2OC(=O)Nc2ccc(C#N)c(C#N)c2)cc1
REMARK SMILES IDX 16 1 15 2 7 3 8 4 9 5 14 6 10 7 13 8 11 9 12 10 6 12 5 14
REMARK SMILES IDX 2 15 3 16 31 17 4 18 30 19 1 20 17 21 19 22 18 23 20 25
REMARK SMILES IDX 21 26 29 27 22 28 26 29 23 30 27 31 28 32 24 33 25 34
REMARK H PARENT 13 11 6 13 19 24
ROOT
ATOM      1  O   UNL     1      45.398 131.885  20.917  1.00  0.00    -0.406 OA
ENDROOT
BRANCH   1   2
ATOM      2  C   UNL     1      44.358 131.827  19.980  1.00  0.00     0.180 A 
ATOM      3  C   UNL     1      44.525 131.312  18.661  1.00  0.00     0.084 A 
ATOM      4  C   UNL     1      43.403 131.223  17.800  1.00  0.00     0.031 A 
ATOM      5  C   UNL     1      42.142 131.690  18.204  1.00  0.00     0.013 A 
ATOM      6  C   UNL     1      43.095 132.306  20.334  1.00  0.00     0.091 A 
ATOM      7  C   UNL     1      42.029 132.236  19.478  1.00  0.00     0.003 A 
ATOM      8  N   UNL     1      42.727 132.851  21.506  1.00  0.00    -0.358 N 
ATOM      9  C   UNL     1      40.938 132.762  20.132  1.00  0.00     0.028 A 
ATOM     10  C   UNL     1      41.410 133.134  21.386  1.00  0.00     0.083 A 
ATOM     11  H   UNL     1      43.328 133.019  22.342  1.00  0.00     0.166 HD
BRANCH   3  12
ATOM     12  N   UNL     1      45.804 130.879  18.169  1.00  0.00    -0.352 N 
ATOM     13  H   UNL     1      46.466 130.458  18.860  1.00  0.00     0.167 HD
BRANCH  12  14
ATOM     14  C   UNL     1      46.187 130.875  16.781  1.00  0.00     0.038 A 
ATOM     15  C   UNL     1      46.854 130.903  14.045  1.00  0.00    -0.051 A 
ATOM     16  C   UNL     1      46.323 132.048  14.656  1.00  0.00     0.005 A 
ATOM     17  C   UNL     1      47.097 129.760  14.819  1.00  0.00     0.005 A 
ATOM     18  C   UNL     1      45.998 132.034  16.015  1.00  0.00     0.026 A 
ATOM     19  C   UNL     1      46.768 129.745  16.177  1.00  0.00     0.026 A 
ATOM     20  C   UNL     1      47.233 130.929  12.593  1.00  0.00     0.044 C 
ENDBRANCH  12  14
ENDBRANCH   3  12
ENDBRANCH   1   2
BRANCH   1  21
ATOM     21  C   UNL     1      46.352 132.906  20.963  1.00  0.00     0.417 C 
ATOM     22  N   UNL     1      47.528 132.721  21.761  1.00  0.00    -0.291 N 
ATOM     23  O   UNL     1      46.202 133.948  20.268  1.00  0.00    -0.224 OA
ATOM     24  H   UNL     1      47.731 131.747  22.082  1.00  0.00     0.173 HD
BRANCH  22  25
ATOM     25  C   UNL     1      48.458 133.760  22.118  1.00  0.00     0.045 A 
ATOM     26  C   UNL     1      49.243 133.606  23.269  1.00  0.00     0.028 A 
ATOM     27  C   UNL     1      48.550 134.958  21.384  1.00  0.00     0.047 A 
ATOM     28  C   UNL     1      50.128 134.612  23.665  1.00  0.00     0.023 A 
ATOM     29  C   UNL     1      49.432 135.973  21.780  1.00  0.00     0.072 A 
ATOM     30  C   UNL     1      50.231 135.796  22.927  1.00  0.00     0.070 A 
BRANCH  29  31
ATOM     31  C   UNL     1      49.490 137.189  21.004  1.00  0.00     0.101 C 
ATOM     32  N   UNL     1      49.538 138.164  20.383  1.00  0.00    -0.192 NA
ENDBRANCH  29  31
BRANCH  30  33
ATOM     33  C   UNL     1      51.151 136.818  23.366  1.00  0.00     0.101 C 
ATOM     34  N   UNL     1      51.888 137.637  23.718  1.00  0.00    -0.192 NA
ENDBRANCH  30  33
ENDBRANCH  22  25
ENDBRANCH   1  21
TORSDOF 7
ENDMDL
MODEL 2
REMARK VINA RESULT:      -2.5      5.101      7.974
REMARK SMILES Cc1ccc(Nc2ccc3cc[nH]c3c2OC(=O)Nc2ccc(C#N)c(C#N)c2)cc1
REMARK SMILES IDX 16 1 15 2 7 3 8 4 9 5 14 6 10 7 13 8 11 9 12 10 6 12 5 14
REMARK SMILES IDX 2 15 3 16 31 17 4 18 30 19 1 20 17 21 19 22 18 23 20 25
REMARK SMILES IDX 21 26 29 27 22 28 26 29 23 30 27 31 28 32 24 33 25 34
REMARK H PARENT 13 11 6 13 19 24
ROOT
ATOM      1  O   UNL     1      44.617 130.106  22.396  1.00  0.00    -0.406 OA
ENDROOT
BRANCH   1   2
ATOM      2  C   UNL     1      44.019 128.940  22.891  1.00  0.00     0.180 A 
ATOM      3  C   UNL     1      44.616 127.650  22.780  1.00  0.00     0.084 A 
ATOM      4  C   UNL     1      43.977 126.532  23.370  1.00  0.00     0.031 A 
ATOM      5  C   UNL     1      42.734 126.664  24.011  1.00  0.00     0.013 A 
ATOM      6  C   UNL     1      42.770 129.025  23.510  1.00  0.00     0.091 A 
ATOM      7  C   UNL     1      42.155 127.928  24.052  1.00  0.00     0.003 A 
ATOM      8  N   UNL     1      42.025 130.127  23.697  1.00  0.00    -0.358 N 
ATOM      9  C   UNL     1      40.966 128.350  24.602  1.00  0.00     0.028 A 
ATOM     10  C   UNL     1      40.919 129.719  24.362  1.00  0.00     0.083 A 
ATOM     11  H   UNL     1      42.248 131.102  23.398  1.00  0.00     0.166 HD
BRANCH   3  12
ATOM     12  N   UNL     1      45.855 127.442  22.081  1.00  0.00    -0.352 N 
ATOM     13  H   UNL     1      46.232 128.244  21.525  1.00  0.00     0.167 HD
BRANCH  12  14
ATOM     14  C   UNL     1      46.665 126.256  22.188  1.00  0.00     0.038 A 
ATOM     15  C   UNL     1      48.173 123.890  22.419  1.00  0.00    -0.051 A 
ATOM     16  C   UNL     1      46.991 123.905  21.665  1.00  0.00     0.005 A 
ATOM     17  C   UNL     1      48.625 125.076  23.015  1.00  0.00     0.005 A 
ATOM     18  C   UNL     1      46.246 125.081  21.547  1.00  0.00     0.026 A 
ATOM     19  C   UNL     1      47.878 126.251  22.900  1.00  0.00     0.026 A 
ATOM     20  C   UNL     1      48.988 122.634  22.520  1.00  0.00     0.044 C 
ENDBRANCH  12  14
ENDBRANCH   3  12
ENDBRANCH   1   2
BRANCH   1  21
ATOM     21  C   UNL     1      45.231 130.199  21.144  1.00  0.00     0.417 C 
ATOM     22  N   UNL     1      44.482 130.729  20.042  1.00  0.00    -0.291 N 
ATOM     23  O   UNL     1      46.442 129.874  21.004  1.00  0.00    -0.224 OA
ATOM     24  H   UNL     1      43.598 131.236  20.274  1.00  0.00     0.173 HD
BRANCH  22  25
ATOM     25  C   UNL     1      44.873 130.646  18.660  1.00  0.00     0.045 A 
ATOM     26  C   UNL     1      46.100 130.051  18.333  1.00  0.00     0.028 A 
ATOM     27  C   UNL     1      44.093 131.211  17.632  1.00  0.00     0.047 A 
ATOM     28  C   UNL     1      46.529 129.989  17.005  1.00  0.00     0.023 A 
ATOM     29  C   UNL     1      44.521 131.157  16.299  1.00  0.00     0.072 A 
ATOM     30  C   UNL     1      45.746 130.536  15.982  1.00  0.00     0.070 A 
BRANCH  29  31
ATOM     31  C   UNL     1      43.696 131.754  15.276  1.00  0.00     0.101 C 
ATOM     32  N   UNL     1      43.033 132.233  14.456  1.00  0.00    -0.192 NA
ENDBRANCH  29  31
BRANCH  30  33
ATOM     33  C   UNL     1      46.220 130.461  14.620  1.00  0.00     0.101 C 
ATOM     34  N   UNL     1      46.600 130.400  13.529  1.00  0.00    -0.192 NA
ENDBRANCH  30  33
ENDBRANCH  22  25
ENDBRANCH   1  21
TORSDOF 7
ENDMDL
MODEL 3
REMARK VINA RESULT:      -2.3      2.453      3.098
REMARK SMILES Cc1ccc(Nc2ccc3cc[nH]c3c2OC(=O)Nc2ccc(C#N)c(C#N)c2)cc1
REMARK SMILES IDX 16 1 15 2 7 3 8 4 9 5 14 6 10 7 13 8 11 9 12 10 6 12 5 14
REMARK SMILES IDX 2 15 3 16 31 17 4 18 30 19 1 20 17 21 19 22 18 23 20 25
REMARK SMILES IDX 21 26 29 27 22 28 26 29 23 30 27 31 28 32 24 33 25 34
REMARK H PARENT 13 11 6 13 19 24
ROOT
ATOM      1  O   UNL     1      44.919 131.748  21.586  1.00  0.00    -0.406 OA
ENDROOT
BRANCH   1   2
ATOM      2  C   UNL     1      44.765 130.377  21.825  1.00  0.00     0.180 A 
ATOM      3  C   UNL     1      45.378 129.371  21.022  1.00  0.00     0.084 A 
ATOM      4  C   UNL     1      45.228 128.008  21.376  1.00  0.00     0.031 A 
ATOM      5  C   UNL     1      44.436 127.628  22.472  1.00  0.00     0.013 A 
ATOM      6  C   UNL     1      43.963 129.957  22.888  1.00  0.00     0.091 A 
ATOM      7  C   UNL     1      43.809 128.633  23.200  1.00  0.00     0.003 A 
ATOM      8  N   UNL     1      43.278 130.729  23.749  1.00  0.00    -0.358 N 
ATOM      9  C   UNL     1      42.988 128.559  24.302  1.00  0.00     0.028 A 
ATOM     10  C   UNL     1      42.678 129.879  24.614  1.00  0.00     0.083 A 
ATOM     11  H   UNL     1      43.220 131.771  23.758  1.00  0.00     0.166 HD
BRANCH   3  12
ATOM     12  N   UNL     1      46.147 129.696  19.852  1.00  0.00    -0.352 N 
ATOM     13  H   UNL     1      47.175 129.508  19.887  1.00  0.00     0.167 HD
BRANCH  12  14
ATOM     14  C   UNL     1      45.587 130.146  18.604  1.00  0.00     0.038 A 
ATOM     15  C   UNL     1      44.577 131.024  16.126  1.00  0.00    -0.051 A 
ATOM     16  C   UNL     1      45.418 129.903  16.191  1.00  0.00     0.005 A 
ATOM     17  C   UNL     1      44.204 131.673  17.311  1.00  0.00     0.005 A 
ATOM     18  C   UNL     1      45.913 129.465  17.422  1.00  0.00     0.026 A 
ATOM     19  C   UNL     1      44.703 131.238  18.541  1.00  0.00     0.026 A 
ATOM     20  C   UNL     1      44.020 131.474  14.808  1.00  0.00     0.044 C 
ENDBRANCH  12  14
ENDBRANCH   3  12
ENDBRANCH   1   2
BRANCH   1  21
ATOM     21  C   UNL     1      45.866 132.552  22.228  1.00  0.00     0.417 C 
ATOM     22  N   UNL     1      46.645 133.465  21.444  1.00  0.00    -0.291 N 
ATOM     23  O   UNL     1      45.989 132.511  23.482  1.00  0.00    -0.224 OA
ATOM     24  H   UNL     1      46.311 133.658  20.473  1.00  0.00     0.173 HD
BRANCH  22  25
ATOM     25  C   UNL     1      47.820 134.158  21.906  1.00  0.00     0.045 A 
ATOM     26  C   UNL     1      48.439 133.734  23.089  1.00  0.00     0.028 A 
ATOM     27  C   UNL     1      48.322 135.293  21.241  1.00  0.00     0.047 A 
ATOM     28  C   UNL     1      49.558 134.407  23.587  1.00  0.00     0.023 A 
ATOM     29  C   UNL     1      49.440 135.976  21.739  1.00  0.00     0.072 A 
ATOM     30  C   UNL     1      50.067 135.526  22.918  1.00  0.00     0.070 A 
BRANCH  29  31
ATOM     31  C   UNL     1      49.919 137.140  21.031  1.00  0.00     0.101 C 
ATOM     32  N   UNL     1      50.304 138.072  20.464  1.00  0.00    -0.192 NA
ENDBRANCH  29  31
BRANCH  30  33
ATOM     33  C   UNL     1      51.221 136.202  23.461  1.00  0.00     0.101 C 
ATOM     34  N   UNL     1      52.145 136.745  23.897  1.00  0.00    -0.192 NA
ENDBRANCH  30  33
ENDBRANCH  22  25
ENDBRANCH   1  21
TORSDOF 7
ENDMDL
MODEL 4
REMARK VINA RESULT:      -1.9      2.037      2.752
REMARK SMILES Cc1ccc(Nc2ccc3cc[nH]c3c2OC(=O)Nc2ccc(C#N)c(C#N)c2)cc1
REMARK SMILES IDX 16 1 15 2 7 3 8 4 9 5 14 6 10 7 13 8 11 9 12 10 6 12 5 14
REMARK SMILES IDX 2 15 3 16 31 17 4 18 30 19 1 20 17 21 19 22 18 23 20 25
REMARK SMILES IDX 21 26 29 27 22 28 26 29 23 30 27 31 28 32 24 33 25 34
REMARK H PARENT 13 11 6 13 19 24
ROOT
ATOM      1  O   UNL     1      44.862 132.692  21.054  1.00  0.00    -0.406 OA
ENDROOT
BRANCH   1   2
ATOM      2  C   UNL     1      44.771 131.383  21.543  1.00  0.00     0.180 A 
ATOM      3  C   UNL     1      45.401 130.270  20.914  1.00  0.00     0.084 A 
ATOM      4  C   UNL     1      45.318 128.989  21.514  1.00  0.00     0.031 A 
ATOM      5  C   UNL     1      44.574 128.788  22.688  1.00  0.00     0.013 A 
ATOM      6  C   UNL     1      44.017 131.136  22.693  1.00  0.00     0.091 A 
ATOM      7  C   UNL     1      43.927 129.886  23.244  1.00  0.00     0.003 A 
ATOM      8  N   UNL     1      43.327 132.027  23.424  1.00  0.00    -0.358 N 
ATOM      9  C   UNL     1      43.142 129.986  24.371  1.00  0.00     0.028 A 
ATOM     10  C   UNL     1      42.787 131.329  24.449  1.00  0.00     0.083 A 
ATOM     11  H   UNL     1      43.227 133.051  23.246  1.00  0.00     0.166 HD
BRANCH   3  12
ATOM     12  N   UNL     1      46.122 130.402  19.678  1.00  0.00    -0.352 N 
ATOM     13  H   UNL     1      47.146 130.191  19.695  1.00  0.00     0.167 HD
BRANCH  12  14
ATOM     14  C   UNL     1      45.515 130.687  18.403  1.00  0.00     0.038 A 
ATOM     15  C   UNL     1      44.410 131.275  15.881  1.00  0.00    -0.051 A 
ATOM     16  C   UNL     1      45.605 130.547  15.978  1.00  0.00     0.005 A 
ATOM     17  C   UNL     1      43.745 131.665  17.051  1.00  0.00     0.005 A 
ATOM     18  C   UNL     1      46.149 130.251  17.230  1.00  0.00     0.026 A 
ATOM     19  C   UNL     1      44.291 131.373  18.304  1.00  0.00     0.026 A 
ATOM     20  C   UNL     1      43.810 131.566  14.537  1.00  0.00     0.044 C 
ENDBRANCH  12  14
ENDBRANCH   3  12
ENDBRANCH   1   2
BRANCH   1  21
ATOM     21  C   UNL     1      45.892 133.579  21.381  1.00  0.00     0.417 C 
ATOM     22  N   UNL     1      47.215 133.062  21.579  1.00  0.00    -0.291 N 
ATOM     23  O   UNL     1      45.668 134.818  21.445  1.00  0.00    -0.224 OA
ATOM     24  H   UNL     1      47.396 132.089  21.242  1.00  0.00     0.173 HD
BRANCH  22  25
ATOM     25  C   UNL     1      48.308 133.790  22.167  1.00  0.00     0.045 A 
ATOM     26  C   UNL     1      48.770 133.419  23.437  1.00  0.00     0.028 A 
ATOM     27  C   UNL     1      48.880 134.910  21.533  1.00  0.00     0.047 A 
ATOM     28  C   UNL     1      49.803 134.128  24.054  1.00  0.00     0.023 A 
ATOM     29  C   UNL     1      49.913 135.629  22.149  1.00  0.00     0.072 A 
ATOM     30  C   UNL     1      50.382 135.232  23.417  1.00  0.00     0.070 A 
BRANCH  29  31
ATOM     31  C   UNL     1      50.467 136.777  21.470  1.00  0.00     0.101 C 
ATOM     32  N   UNL     1      50.911 137.695  20.924  1.00  0.00    -0.192 NA
ENDBRANCH  29  31
BRANCH  30  33
ATOM     33  C   UNL     1      51.444 135.947  24.083  1.00  0.00     0.101 C 
ATOM     34  N   UNL     1      52.296 136.520  24.618  1.00  0.00    -0.192 NA
ENDBRANCH  30  33
ENDBRANCH  22  25
ENDBRANCH   1  21
TORSDOF 7
ENDMDL
MODEL 5
REMARK VINA RESULT:      -1.2      2.685      7.988
REMARK SMILES Cc1ccc(Nc2ccc3cc[nH]c3c2OC(=O)Nc2ccc(C#N)c(C#N)c2)cc1
REMARK SMILES IDX 16 1 15 2 7 3 8 4 9 5 14 6 10 7 13 8 11 9 12 10 6 12 5 14
REMARK SMILES IDX 2 15 3 16 31 17 4 18 30 19 1 20 17 21 19 22 18 23 20 25
REMARK SMILES IDX 21 26 29 27 22 28 26 29 23 30 27 31 28 32 24 33 25 34
REMARK H PARENT 13 11 6 13 19 24
ROOT
ATOM      1  O   UNL     1      45.726 130.361  21.142  1.00  0.00    -0.406 OA
ENDROOT
BRANCH   1   2
ATOM      2  C   UNL     1      45.155 131.063  22.211  1.00  0.00     0.180 A 
ATOM      3  C   UNL     1      45.518 132.399  22.549  1.00  0.00     0.084 A 
ATOM      4  C   UNL     1      44.840 133.061  23.602  1.00  0.00     0.031 A 
ATOM      5  C   UNL     1      43.858 132.401  24.359  1.00  0.00     0.013 A 
ATOM      6  C   UNL     1      44.195 130.432  23.005  1.00  0.00     0.091 A 
ATOM      7  C   UNL     1      43.569 131.079  24.036  1.00  0.00     0.003 A 
ATOM      8  N   UNL     1      43.729 129.178  22.880  1.00  0.00    -0.358 N 
ATOM      9  C   UNL     1      42.670 130.199  24.594  1.00  0.00     0.028 A 
ATOM     10  C   UNL     1      42.798 129.029  23.851  1.00  0.00     0.083 A 
ATOM     11  H   UNL     1      44.017 128.461  22.177  1.00  0.00     0.166 HD
BRANCH   3  12
ATOM     12  N   UNL     1      46.559 133.105  21.853  1.00  0.00    -0.352 N 
ATOM     13  H   UNL     1      46.457 133.211  20.818  1.00  0.00     0.167 HD
BRANCH  12  14
ATOM     14  C   UNL     1      47.663 133.772  22.493  1.00  0.00     0.038 A 
ATOM     15  C   UNL     1      49.767 135.097  23.815  1.00  0.00    -0.051 A 
ATOM     16  C   UNL     1      48.982 134.158  24.499  1.00  0.00     0.005 A 
ATOM     17  C   UNL     1      49.528 135.334  22.454  1.00  0.00     0.005 A 
ATOM     18  C   UNL     1      47.942 133.497  23.840  1.00  0.00     0.026 A 
ATOM     19  C   UNL     1      48.485 134.676  21.796  1.00  0.00     0.026 A 
ATOM     20  C   UNL     1      50.904 135.784  24.514  1.00  0.00     0.044 C 
ENDBRANCH  12  14
ENDBRANCH   3  12
ENDBRANCH   1   2
BRANCH   1  21
ATOM     21  C   UNL     1      45.614 130.750  19.803  1.00  0.00     0.417 C 
ATOM     22  N   UNL     1      45.723 129.751  18.780  1.00  0.00    -0.291 N 
ATOM     23  O   UNL     1      45.366 131.951  19.509  1.00  0.00    -0.224 OA
ATOM     24  H   UNL     1      45.645 128.755  19.084  1.00  0.00     0.173 HD
BRANCH  22  25
ATOM     25  C   UNL     1      45.891 130.021  17.376  1.00  0.00     0.045 A 
ATOM     26  C   UNL     1      47.126 129.746  16.773  1.00  0.00     0.028 A 
ATOM     27  C   UNL     1      44.874 130.620  16.608  1.00  0.00     0.047 A 
ATOM     28  C   UNL     1      47.336 130.030  15.421  1.00  0.00     0.023 A 
ATOM     29  C   UNL     1      45.081 130.913  15.254  1.00  0.00     0.072 A 
ATOM     30  C   UNL     1      46.320 130.612  14.654  1.00  0.00     0.070 A 
BRANCH  29  31
ATOM     31  C   UNL     1      44.015 131.534  14.503  1.00  0.00     0.101 C 
ATOM     32  N   UNL     1      43.161 132.032  13.902  1.00  0.00    -0.192 NA
ENDBRANCH  29  31
BRANCH  30  33
ATOM     33  C   UNL     1      46.571 130.899  13.262  1.00  0.00     0.101 C 
ATOM     34  N   UNL     1      46.772 131.128  12.146  1.00  0.00    -0.192 NA
ENDBRANCH  30  33
ENDBRANCH  22  25
ENDBRANCH   1  21
TORSDOF 7
ENDMDL


