MODEL 1
REMARK VINA RESULT:     -10.0      0.000      0.000
REMARK SMILES Cc1cc(N)c([NH2+]c2cc(F)c(C)[nH+]c2F)cc1F
REMARK SMILES IDX 1 1 2 2 3 3 4 4 6 5 17 6 18 7 19 8 5 9 7 12 8 15 9 16 15 17
REMARK SMILES IDX 10 18 14 19 12 20 16 21 11 22 13 24
REMARK H PARENT 5 10 5 11 7 13 7 14 14 23
ROOT
ATOM      1  C   UNL     1      44.721 131.495  21.917  1.00  0.00     0.047 C 
ATOM      2  C   UNL     1      44.465 131.517  20.437  1.00  0.00    -0.013 A 
ATOM      3  C   UNL     1      43.252 132.007  19.936  1.00  0.00     0.038 A 
ATOM      4  C   UNL     1      42.988 132.010  18.556  1.00  0.00     0.094 A 
ATOM      5  C   UNL     1      43.964 131.505  17.656  1.00  0.00     0.161 A 
ATOM      6  C   UNL     1      45.172 131.003  18.177  1.00  0.00     0.110 A 
ATOM      7  C   UNL     1      45.419 131.004  19.549  1.00  0.00     0.132 A 
ATOM      8  F   UNL     1      46.593 130.504  20.013  1.00  0.00    -0.206 F 
ENDROOT
BRANCH   4   9
ATOM      9  N   UNL     1      41.731 132.526  18.099  1.00  0.00    -0.394 N 
ATOM     10  H   UNL     1      41.670 133.489  17.699  1.00  0.00     0.156 HD
ATOM     11  H   UNL     1      40.846 131.985  18.160  1.00  0.00     0.156 HD
ENDBRANCH   4   9
BRANCH   5  12
ATOM     12  N   UNL     1      43.758 131.509  16.222  1.00  0.00    -0.272 N 
ATOM     13  H   UNL     1      43.535 132.482  15.914  1.00  0.00     0.358 HD
ATOM     14  H   UNL     1      42.925 130.929  15.968  1.00  0.00     0.358 HD
BRANCH  12  15
ATOM     15  C   UNL     1      44.904 130.967  15.525  1.00  0.00     0.242 A 
ATOM     16  C   UNL     1      45.832 131.818  14.901  1.00  0.00     0.124 A 
ATOM     17  C   UNL     1      45.177 129.584  15.536  1.00  0.00     0.421 A 
ATOM     18  C   UNL     1      46.953 131.294  14.259  1.00  0.00     0.195 A 
ATOM     19  N   UNL     1      46.279 129.094  14.903  1.00  0.00    -0.176 N 
ATOM     20  C   UNL     1      47.157 129.908  14.251  1.00  0.00     0.215 A 
ATOM     21  F   UNL     1      44.356 128.725  16.192  1.00  0.00    -0.131 F 
ATOM     22  F   UNL     1      47.836 132.132  13.657  1.00  0.00    -0.200 F 
ATOM     23  H   UNL     1      46.448 128.063  14.930  1.00  0.00     0.457 HD
ATOM     24  C   UNL     1      48.374 129.330  13.589  1.00  0.00     0.127 C 
ENDBRANCH  12  15
ENDBRANCH   5  12
TORSDOF 3
ENDMDL
MODEL 2
REMARK VINA RESULT:      -9.2      1.204      2.038
REMARK SMILES Cc1cc(N)c([NH2+]c2cc(F)c(C)[nH+]c2F)cc1F
REMARK SMILES IDX 1 1 2 2 3 3 4 4 6 5 17 6 18 7 19 8 5 9 7 12 8 15 9 16 15 17
REMARK SMILES IDX 10 18 14 19 12 20 16 21 11 22 13 24
REMARK H PARENT 5 10 5 11 7 13 7 14 14 23
ROOT
ATOM      1  C   UNL     1      44.267 130.991  22.536  1.00  0.00     0.047 C 
ATOM      2  C   UNL     1      44.148 131.274  21.066  1.00  0.00    -0.013 A 
ATOM      3  C   UNL     1      42.963 131.808  20.542  1.00  0.00     0.038 A 
ATOM      4  C   UNL     1      42.827 132.055  19.166  1.00  0.00     0.094 A 
ATOM      5  C   UNL     1      43.904 131.752  18.291  1.00  0.00     0.161 A 
ATOM      6  C   UNL     1      45.083 131.203  18.831  1.00  0.00     0.110 A 
ATOM      7  C   UNL     1      45.203 130.961  20.199  1.00  0.00     0.132 A 
ATOM      8  F   UNL     1      46.352 130.422  20.680  1.00  0.00    -0.206 F 
ENDROOT
BRANCH   4   9
ATOM      9  N   UNL     1      41.593 132.606  18.686  1.00  0.00    -0.394 N 
ATOM     10  H   UNL     1      41.523 133.622  18.456  1.00  0.00     0.156 HD
ATOM     11  H   UNL     1      40.732 132.036  18.567  1.00  0.00     0.156 HD
ENDBRANCH   4   9
BRANCH   5  12
ATOM     12  N   UNL     1      43.831 132.011  16.868  1.00  0.00    -0.272 N 
ATOM     13  H   UNL     1      43.862 133.043  16.708  1.00  0.00     0.358 HD
ATOM     14  H   UNL     1      42.913 131.689  16.482  1.00  0.00     0.358 HD
BRANCH  12  15
ATOM     15  C   UNL     1      44.880 131.318  16.152  1.00  0.00     0.242 A 
ATOM     16  C   UNL     1      44.787 129.938  15.904  1.00  0.00     0.124 A 
ATOM     17  C   UNL     1      45.970 132.019  15.599  1.00  0.00     0.421 A 
ATOM     18  C   UNL     1      45.784 129.279  15.186  1.00  0.00     0.195 A 
ATOM     19  N   UNL     1      46.932 131.356  14.899  1.00  0.00    -0.176 N 
ATOM     20  C   UNL     1      46.877 130.008  14.698  1.00  0.00     0.215 A 
ATOM     21  F   UNL     1      46.068 133.365  15.741  1.00  0.00    -0.131 F 
ATOM     22  F   UNL     1      45.680 127.945  14.960  1.00  0.00    -0.200 F 
ATOM     23  H   UNL     1      47.728 131.907  14.506  1.00  0.00     0.457 HD
ATOM     24  C   UNL     1      47.944 129.320  13.897  1.00  0.00     0.127 C 
ENDBRANCH  12  15
ENDBRANCH   5  12
TORSDOF 3
ENDMDL
MODEL 3
REMARK VINA RESULT:      -8.9      1.350      5.797
REMARK SMILES Cc1cc(N)c([NH2+]c2cc(F)c(C)[nH+]c2F)cc1F
REMARK SMILES IDX 1 1 2 2 3 3 4 4 6 5 17 6 18 7 19 8 5 9 7 12 8 15 9 16 15 17
REMARK SMILES IDX 10 18 14 19 12 20 16 21 11 22 13 24
REMARK H PARENT 5 10 5 11 7 13 7 14 14 23
ROOT
ATOM      1  C   UNL     1      48.562 129.437  13.464  1.00  0.00     0.047 C 
ATOM      2  C   UNL     1      47.354 129.985  14.168  1.00  0.00    -0.013 A 
ATOM      3  C   UNL     1      46.458 129.121  14.812  1.00  0.00     0.038 A 
ATOM      4  C   UNL     1      45.310 129.616  15.453  1.00  0.00     0.094 A 
ATOM      5  C   UNL     1      45.051 131.013  15.443  1.00  0.00     0.161 A 
ATOM      6  C   UNL     1      45.953 131.865  14.779  1.00  0.00     0.110 A 
ATOM      7  C   UNL     1      47.088 131.360  14.145  1.00  0.00     0.132 A 
ATOM      8  F   UNL     1      47.930 132.214  13.509  1.00  0.00    -0.206 F 
ENDROOT
BRANCH   4   9
ATOM      9  N   UNL     1      44.431 128.687  16.099  1.00  0.00    -0.394 N 
ATOM     10  H   UNL     1      44.597 128.404  17.091  1.00  0.00     0.156 HD
ATOM     11  H   UNL     1      43.620 128.251  15.615  1.00  0.00     0.156 HD
ENDBRANCH   4   9
BRANCH   5  12
ATOM     12  N   UNL     1      43.899 131.582  16.111  1.00  0.00    -0.272 N 
ATOM     13  H   UNL     1      43.036 131.100  15.770  1.00  0.00     0.358 HD
ATOM     14  H   UNL     1      43.785 132.590  15.854  1.00  0.00     0.358 HD
BRANCH  12  15
ATOM     15  C   UNL     1      44.033 131.503  17.549  1.00  0.00     0.242 A 
ATOM     16  C   UNL     1      45.258 131.146  18.137  1.00  0.00     0.124 A 
ATOM     17  C   UNL     1      42.974 131.878  18.401  1.00  0.00     0.421 A 
ATOM     18  C   UNL     1      45.393 131.103  19.524  1.00  0.00     0.195 A 
ATOM     19  N   UNL     1      43.128 131.830  19.754  1.00  0.00    -0.176 N 
ATOM     20  C   UNL     1      44.298 131.435  20.332  1.00  0.00     0.215 A 
ATOM     21  F   UNL     1      41.794 132.307  17.886  1.00  0.00    -0.131 F 
ATOM     22  F   UNL     1      46.583 130.751  20.073  1.00  0.00    -0.200 F 
ATOM     23  H   UNL     1      42.321 132.112  20.354  1.00  0.00     0.457 HD
ATOM     24  C   UNL     1      44.434 131.423  21.827  1.00  0.00     0.127 C 
ENDBRANCH  12  15
ENDBRANCH   5  12
TORSDOF 3
ENDMDL
MODEL 4
REMARK VINA RESULT:      -8.4      1.773      5.801
REMARK SMILES Cc1cc(N)c([NH2+]c2cc(F)c(C)[nH+]c2F)cc1F
REMARK SMILES IDX 1 1 2 2 3 3 4 4 6 5 17 6 18 7 19 8 5 9 7 12 8 15 9 16 15 17
REMARK SMILES IDX 10 18 14 19 12 20 16 21 11 22 13 24
REMARK H PARENT 5 10 5 11 7 13 7 14 14 23
ROOT
ATOM      1  C   UNL     1      47.909 129.292  13.872  1.00  0.00     0.047 C 
ATOM      2  C   UNL     1      46.795 129.970  14.618  1.00  0.00    -0.013 A 
ATOM      3  C   UNL     1      46.807 131.360  14.796  1.00  0.00     0.038 A 
ATOM      4  C   UNL     1      45.785 132.005  15.513  1.00  0.00     0.094 A 
ATOM      5  C   UNL     1      44.729 131.237  16.071  1.00  0.00     0.161 A 
ATOM      6  C   UNL     1      44.740 129.840  15.896  1.00  0.00     0.110 A 
ATOM      7  C   UNL     1      45.762 129.212  15.183  1.00  0.00     0.132 A 
ATOM      8  F   UNL     1      45.741 127.863  15.043  1.00  0.00    -0.206 F 
ENDROOT
BRANCH   4   9
ATOM      9  N   UNL     1      45.846 133.430  15.661  1.00  0.00    -0.394 N 
ATOM     10  H   UNL     1      45.782 134.051  14.824  1.00  0.00     0.156 HD
ATOM     11  H   UNL     1      45.971 133.895  16.583  1.00  0.00     0.156 HD
ENDBRANCH   4   9
BRANCH   5  12
ATOM     12  N   UNL     1      43.636 131.852  16.796  1.00  0.00    -0.272 N 
ATOM     13  H   UNL     1      42.732 131.465  16.440  1.00  0.00     0.358 HD
ATOM     14  H   UNL     1      43.602 132.880  16.609  1.00  0.00     0.358 HD
BRANCH  12  15
ATOM     15  C   UNL     1      43.782 131.666  18.224  1.00  0.00     0.242 A 
ATOM     16  C   UNL     1      45.041 131.397  18.787  1.00  0.00     0.124 A 
ATOM     17  C   UNL     1      42.691 131.849  19.097  1.00  0.00     0.421 A 
ATOM     18  C   UNL     1      45.183 131.252  20.166  1.00  0.00     0.195 A 
ATOM     19  N   UNL     1      42.853 131.704  20.442  1.00  0.00    -0.176 N 
ATOM     20  C   UNL     1      44.061 131.391  20.993  1.00  0.00     0.215 A 
ATOM     21  F   UNL     1      41.469 132.188  18.613  1.00  0.00    -0.131 F 
ATOM     22  F   UNL     1      46.407 130.988  20.691  1.00  0.00    -0.200 F 
ATOM     23  H   UNL     1      42.021 131.843  21.059  1.00  0.00     0.457 HD
ATOM     24  C   UNL     1      44.202 131.267  22.482  1.00  0.00     0.127 C 
ENDBRANCH  12  15
ENDBRANCH   5  12
TORSDOF 3
ENDMDL
MODEL 5
REMARK VINA RESULT:      -8.3      1.540      1.729
REMARK SMILES Cc1cc(N)c([NH2+]c2cc(F)c(C)[nH+]c2F)cc1F
REMARK SMILES IDX 1 1 2 2 3 3 4 4 6 5 17 6 18 7 19 8 5 9 7 12 8 15 9 16 15 17
REMARK SMILES IDX 10 18 14 19 12 20 16 21 11 22 13 24
REMARK H PARENT 5 10 5 11 7 13 7 14 14 23
ROOT
ATOM      1  C   UNL     1      44.432 131.348  22.444  1.00  0.00     0.047 C 
ATOM      2  C   UNL     1      44.153 131.515  20.978  1.00  0.00    -0.013 A 
ATOM      3  C   UNL     1      42.919 132.020  20.546  1.00  0.00     0.038 A 
ATOM      4  C   UNL     1      42.634 132.158  19.177  1.00  0.00     0.094 A 
ATOM      5  C   UNL     1      43.608 131.776  18.217  1.00  0.00     0.161 A 
ATOM      6  C   UNL     1      44.837 131.257  18.667  1.00  0.00     0.110 A 
ATOM      7  C   UNL     1      45.106 131.123  20.029  1.00  0.00     0.132 A 
ATOM      8  F   UNL     1      46.299 130.611  20.423  1.00  0.00    -0.206 F 
ENDROOT
BRANCH   4   9
ATOM      9  N   UNL     1      41.356 132.684  18.793  1.00  0.00    -0.394 N 
ATOM     10  H   UNL     1      41.126 132.826  17.784  1.00  0.00     0.156 HD
ATOM     11  H   UNL     1      40.629 132.955  19.484  1.00  0.00     0.156 HD
ENDBRANCH   4   9
BRANCH   5  12
ATOM     12  N   UNL     1      43.379 131.922  16.794  1.00  0.00    -0.272 N 
ATOM     13  H   UNL     1      43.194 132.929  16.582  1.00  0.00     0.358 HD
ATOM     14  H   UNL     1      42.517 131.404  16.505  1.00  0.00     0.358 HD
BRANCH  12  15
ATOM     15  C   UNL     1      44.489 131.400  16.027  1.00  0.00     0.242 A 
ATOM     16  C   UNL     1      45.541 130.717  16.661  1.00  0.00     0.124 A 
ATOM     17  C   UNL     1      44.498 131.472  14.620  1.00  0.00     0.421 A 
ATOM     18  C   UNL     1      46.592 130.186  15.915  1.00  0.00     0.195 A 
ATOM     19  N   UNL     1      45.535 130.945  13.910  1.00  0.00    -0.176 N 
ATOM     20  C   UNL     1      46.586 130.326  14.521  1.00  0.00     0.215 A 
ATOM     21  F   UNL     1      43.469 132.050  13.951  1.00  0.00    -0.131 F 
ATOM     22  F   UNL     1      47.601 129.534  16.546  1.00  0.00    -0.200 F 
ATOM     23  H   UNL     1      45.511 131.019  12.868  1.00  0.00     0.457 HD
ATOM     24  C   UNL     1      47.695 129.735  13.700  1.00  0.00     0.127 C 
ENDBRANCH  12  15
ENDBRANCH   5  12
TORSDOF 3
ENDMDL
MODEL 6
REMARK VINA RESULT:      -8.3      1.892      5.672
REMARK SMILES Cc1cc(N)c([NH2+]c2cc(F)c(C)[nH+]c2F)cc1F
REMARK SMILES IDX 1 1 2 2 3 3 4 4 6 5 17 6 18 7 19 8 5 9 7 12 8 15 9 16 15 17
REMARK SMILES IDX 10 18 14 19 12 20 16 21 11 22 13 24
REMARK H PARENT 5 10 5 11 7 13 7 14 14 23
ROOT
ATOM      1  C   UNL     1      47.565 129.550  13.927  1.00  0.00     0.047 C 
ATOM      2  C   UNL     1      46.433 130.156  14.707  1.00  0.00    -0.013 A 
ATOM      3  C   UNL     1      45.368 130.778  14.041  1.00  0.00     0.038 A 
ATOM      4  C   UNL     1      44.315 131.370  14.757  1.00  0.00     0.094 A 
ATOM      5  C   UNL     1      44.332 131.344  16.177  1.00  0.00     0.161 A 
ATOM      6  C   UNL     1      45.416 130.728  16.831  1.00  0.00     0.110 A 
ATOM      7  C   UNL     1      46.457 130.146  16.107  1.00  0.00     0.132 A 
ATOM      8  F   UNL     1      47.488 129.569  16.774  1.00  0.00    -0.206 F 
ENDROOT
BRANCH   4   9
ATOM      9  N   UNL     1      43.250 131.989  14.023  1.00  0.00    -0.394 N 
ATOM     10  H   UNL     1      42.387 131.449  13.788  1.00  0.00     0.156 HD
ATOM     11  H   UNL     1      43.296 132.972  13.687  1.00  0.00     0.156 HD
ENDBRANCH   4   9
BRANCH   5  12
ATOM     12  N   UNL     1      43.260 131.915  16.966  1.00  0.00    -0.272 N 
ATOM     13  H   UNL     1      42.353 131.495  16.661  1.00  0.00     0.358 HD
ATOM     14  H   UNL     1      43.176 132.942  16.785  1.00  0.00     0.358 HD
BRANCH  12  15
ATOM     15  C   UNL     1      43.495 131.732  18.382  1.00  0.00     0.242 A 
ATOM     16  C   UNL     1      44.804 131.661  18.888  1.00  0.00     0.124 A 
ATOM     17  C   UNL     1      42.427 131.721  19.302  1.00  0.00     0.421 A 
ATOM     18  C   UNL     1      45.027 131.517  20.257  1.00  0.00     0.195 A 
ATOM     19  N   UNL     1      42.668 131.582  20.635  1.00  0.00    -0.176 N 
ATOM     20  C   UNL     1      43.933 131.459  21.130  1.00  0.00     0.215 A 
ATOM     21  F   UNL     1      41.147 131.866  18.874  1.00  0.00    -0.131 F 
ATOM     22  F   UNL     1      46.298 131.446  20.727  1.00  0.00    -0.200 F 
ATOM     23  H   UNL     1      41.852 131.574  21.288  1.00  0.00     0.457 HD
ATOM     24  C   UNL     1      44.156 131.335  22.610  1.00  0.00     0.127 C 
ENDBRANCH  12  15
ENDBRANCH   5  12
TORSDOF 3
ENDMDL
MODEL 7
REMARK VINA RESULT:      -7.9      2.650      6.451
REMARK SMILES Cc1cc(N)c([NH2+]c2cc(F)c(C)[nH+]c2F)cc1F
REMARK SMILES IDX 1 1 2 2 3 3 4 4 6 5 17 6 18 7 19 8 5 9 7 12 8 15 9 16 15 17
REMARK SMILES IDX 10 18 14 19 12 20 16 21 11 22 13 24
REMARK H PARENT 5 10 5 11 7 13 7 14 14 23
ROOT
ATOM      1  C   UNL     1      44.717 130.107  14.847  1.00  0.00     0.047 C 
ATOM      2  C   UNL     1      44.702 130.639  16.252  1.00  0.00    -0.013 A 
ATOM      3  C   UNL     1      43.595 131.355  16.726  1.00  0.00     0.038 A 
ATOM      4  C   UNL     1      43.577 131.881  18.028  1.00  0.00     0.094 A 
ATOM      5  C   UNL     1      44.701 131.689  18.876  1.00  0.00     0.161 A 
ATOM      6  C   UNL     1      45.811 130.980  18.379  1.00  0.00     0.110 A 
ATOM      7  C   UNL     1      45.816 130.465  17.083  1.00  0.00     0.132 A 
ATOM      8  F   UNL     1      46.909 129.795  16.638  1.00  0.00    -0.206 F 
ENDROOT
BRANCH   4   9
ATOM      9  N   UNL     1      42.416 132.602  18.462  1.00  0.00    -0.394 N 
ATOM     10  H   UNL     1      41.471 132.160  18.410  1.00  0.00     0.156 HD
ATOM     11  H   UNL     1      42.461 133.577  18.820  1.00  0.00     0.156 HD
ENDBRANCH   4   9
BRANCH   5  12
ATOM     12  N   UNL     1      44.727 132.184  20.236  1.00  0.00    -0.272 N 
ATOM     13  H   UNL     1      44.192 133.081  20.282  1.00  0.00     0.358 HD
ATOM     14  H   UNL     1      45.705 132.418  20.524  1.00  0.00     0.358 HD
BRANCH  12  15
ATOM     15  C   UNL     1      44.216 131.199  21.165  1.00  0.00     0.242 A 
ATOM     16  C   UNL     1      45.002 130.098  21.547  1.00  0.00     0.124 A 
ATOM     17  C   UNL     1      42.962 131.366  21.786  1.00  0.00     0.421 A 
ATOM     18  C   UNL     1      44.518 129.169  22.466  1.00  0.00     0.195 A 
ATOM     19  N   UNL     1      42.510 130.446  22.683  1.00  0.00    -0.176 N 
ATOM     20  C   UNL     1      43.244 129.347  23.021  1.00  0.00     0.215 A 
ATOM     21  F   UNL     1      42.195 132.452  21.513  1.00  0.00    -0.131 F 
ATOM     22  F   UNL     1      45.290 128.110  22.820  1.00  0.00    -0.200 F 
ATOM     23  H   UNL     1      41.574 130.600  23.122  1.00  0.00     0.457 HD
ATOM     24  C   UNL     1      42.720 128.372  24.035  1.00  0.00     0.127 C 
ENDBRANCH  12  15
ENDBRANCH   5  12
TORSDOF 3
ENDMDL
MODEL 8
REMARK VINA RESULT:      -7.9      3.328      5.233
REMARK SMILES Cc1cc(N)c([NH2+]c2cc(F)c(C)[nH+]c2F)cc1F
REMARK SMILES IDX 1 1 2 2 3 3 4 4 6 5 17 6 18 7 19 8 5 9 7 12 8 15 9 16 15 17
REMARK SMILES IDX 10 18 14 19 12 20 16 21 11 22 13 24
REMARK H PARENT 5 10 5 11 7 13 7 14 14 23
ROOT
ATOM      1  C   UNL     1      42.723 126.573  24.294  1.00  0.00     0.047 C 
ATOM      2  C   UNL     1      43.224 127.870  23.726  1.00  0.00    -0.013 A 
ATOM      3  C   UNL     1      42.493 129.051  23.908  1.00  0.00     0.038 A 
ATOM      4  C   UNL     1      42.936 130.267  23.362  1.00  0.00     0.094 A 
ATOM      5  C   UNL     1      44.139 130.298  22.608  1.00  0.00     0.161 A 
ATOM      6  C   UNL     1      44.854 129.100  22.422  1.00  0.00     0.110 A 
ATOM      7  C   UNL     1      44.402 127.899  22.968  1.00  0.00     0.132 A 
ATOM      8  F   UNL     1      45.115 126.763  22.759  1.00  0.00    -0.206 F 
ENDROOT
BRANCH   4   9
ATOM      9  N   UNL     1      42.150 131.445  23.583  1.00  0.00    -0.394 N 
ATOM     10  H   UNL     1      42.613 132.373  23.707  1.00  0.00     0.156 HD
ATOM     11  H   UNL     1      41.112 131.425  23.646  1.00  0.00     0.156 HD
ENDBRANCH   4   9
BRANCH   5  12
ATOM     12  N   UNL     1      44.658 131.528  22.045  1.00  0.00    -0.272 N 
ATOM     13  H   UNL     1      45.656 131.640  22.334  1.00  0.00     0.358 HD
ATOM     14  H   UNL     1      44.151 132.355  22.436  1.00  0.00     0.358 HD
BRANCH  12  15
ATOM     15  C   UNL     1      44.503 131.553  20.606  1.00  0.00     0.242 A 
ATOM     16  C   UNL     1      45.480 130.986  19.770  1.00  0.00     0.124 A 
ATOM     17  C   UNL     1      43.329 132.054  20.009  1.00  0.00     0.421 A 
ATOM     18  C   UNL     1      45.312 130.983  18.386  1.00  0.00     0.195 A 
ATOM     19  N   UNL     1      43.185 132.040  18.654  1.00  0.00    -0.176 N 
ATOM     20  C   UNL     1      44.151 131.539  17.832  1.00  0.00     0.215 A 
ATOM     21  F   UNL     1      42.320 132.541  20.774  1.00  0.00    -0.131 F 
ATOM     22  F   UNL     1      46.268 130.435  17.594  1.00  0.00    -0.200 F 
ATOM     23  H   UNL     1      42.303 132.423  18.246  1.00  0.00     0.457 HD
ATOM     24  C   UNL     1      43.940 131.517  16.346  1.00  0.00     0.127 C 
ENDBRANCH  12  15
ENDBRANCH   5  12
TORSDOF 3
ENDMDL
MODEL 9
REMARK VINA RESULT:      -7.6      3.498      7.020
REMARK SMILES Cc1cc(N)c([NH2+]c2cc(F)c(C)[nH+]c2F)cc1F
REMARK SMILES IDX 1 1 2 2 3 3 4 4 6 5 17 6 18 7 19 8 5 9 7 12 8 15 9 16 15 17
REMARK SMILES IDX 10 18 14 19 12 20 16 21 11 22 13 24
REMARK H PARENT 5 10 5 11 7 13 7 14 14 23
ROOT
ATOM      1  C   UNL     1      43.969 131.444  16.277  1.00  0.00     0.047 C 
ATOM      2  C   UNL     1      44.152 131.406  17.767  1.00  0.00    -0.013 A 
ATOM      3  C   UNL     1      43.152 131.900  18.615  1.00  0.00     0.038 A 
ATOM      4  C   UNL     1      43.319 131.895  20.010  1.00  0.00     0.094 A 
ATOM      5  C   UNL     1      44.521 131.386  20.569  1.00  0.00     0.161 A 
ATOM      6  C   UNL     1      45.522 130.906  19.702  1.00  0.00     0.110 A 
ATOM      7  C   UNL     1      45.344 130.920  18.319  1.00  0.00     0.132 A 
ATOM      8  F   UNL     1      46.335 130.456  17.517  1.00  0.00    -0.206 F 
ENDROOT
BRANCH   4   9
ATOM      9  N   UNL     1      42.261 132.410  20.829  1.00  0.00    -0.394 N 
ATOM     10  H   UNL     1      41.625 133.155  20.465  1.00  0.00     0.156 HD
ATOM     11  H   UNL     1      42.095 132.085  21.803  1.00  0.00     0.156 HD
ENDBRANCH   4   9
BRANCH   5  12
ATOM     12  N   UNL     1      44.736 131.329  22.000  1.00  0.00    -0.272 N 
ATOM     13  H   UNL     1      44.331 132.187  22.438  1.00  0.00     0.358 HD
ATOM     14  H   UNL     1      45.759 131.351  22.219  1.00  0.00     0.358 HD
BRANCH  12  15
ATOM     15  C   UNL     1      44.187 130.117  22.567  1.00  0.00     0.242 A 
ATOM     16  C   UNL     1      44.847 128.887  22.407  1.00  0.00     0.124 A 
ATOM     17  C   UNL     1      43.034 130.149  23.376  1.00  0.00     0.421 A 
ATOM     18  C   UNL     1      44.332 127.727  22.983  1.00  0.00     0.195 A 
ATOM     19  N   UNL     1      42.548 129.003  23.931  1.00  0.00    -0.176 N 
ATOM     20  C   UNL     1      43.154 127.797  23.738  1.00  0.00     0.215 A 
ATOM     21  F   UNL     1      42.401 131.323  23.629  1.00  0.00    -0.131 F 
ATOM     22  F   UNL     1      44.982 126.547  22.813  1.00  0.00    -0.200 F 
ATOM     23  H   UNL     1      41.689 129.065  24.523  1.00  0.00     0.457 HD
ATOM     24  C   UNL     1      42.602 126.562  24.389  1.00  0.00     0.127 C 
ENDBRANCH  12  15
ENDBRANCH   5  12
TORSDOF 3
ENDMDL


