REMARK SMILES C=Cc1cccc(-c2ccc3ccnc(O)c3c2)c1
REMARK SMILES IDX 8 1 9 2 10 3 11 4 12 5 13 6 14 7 15 8 17 9 18 10 7 11 3 12
REMARK SMILES IDX 4 13 19 14 5 15 6 16 2 17 1 18 16 19
REMARK H PARENT 16 20
ROOT
ATOM      1  C   UNL     1       0.670   0.020  -0.459  1.00  0.00    -0.018 A 
ATOM      2  C   UNL     1       1.692  -0.838  -0.902  1.00  0.00     0.009 A 
ATOM      3  C   UNL     1       2.881  -0.962  -0.179  1.00  0.00     0.009 A 
ATOM      4  C   UNL     1       3.069  -0.231   1.001  1.00  0.00    -0.011 A 
ATOM      5  C   UNL     1       4.258  -0.350   1.731  1.00  0.00     0.029 A 
ATOM      6  C   UNL     1       4.419   0.389   2.904  1.00  0.00     0.116 A 
ATOM      7  N   UNL     1       3.431   1.216   3.332  1.00  0.00    -0.222 NA
ATOM      8  C   UNL     1       2.262   1.359   2.650  1.00  0.00     0.218 A 
ATOM      9  C   UNL     1       2.051   0.636   1.460  1.00  0.00     0.044 A 
ATOM     10  C   UNL     1       0.858   0.755   0.727  1.00  0.00     0.023 A 
ENDROOT
BRANCH   1  11
ATOM     11  C   UNL     1      -0.591   0.149  -1.233  1.00  0.00    -0.018 A 
ATOM     12  C   UNL     1      -2.405  -0.874  -2.524  1.00  0.00    -0.026 A 
ATOM     13  C   UNL     1      -2.985   0.394  -2.683  1.00  0.00     0.008 A 
ATOM     14  C   UNL     1      -1.210  -0.989  -1.784  1.00  0.00     0.016 A 
ATOM     15  C   UNL     1      -2.377   1.526  -2.138  1.00  0.00     0.001 A 
ATOM     16  C   UNL     1      -1.187   1.408  -1.421  1.00  0.00     0.009 A 
BRANCH  12  17
ATOM     17  C   UNL     1      -3.095  -2.047  -3.114  1.00  0.00     0.000 C 
ATOM     18  C   UNL     1      -2.509  -3.222  -3.348  1.00  0.00     0.009 C 
ENDBRANCH  12  17
ENDBRANCH   1  11
BRANCH   8  19
ATOM     19  O   UNL     1       1.285   2.224   3.139  1.00  0.00    -0.493 OA
ATOM     20  H   UNL     1       1.433   2.746   3.994  1.00  0.00     0.295 HD
ENDBRANCH   8  19
TORSDOF 3


