REMARK SMILES Cc1ccc([NH2+]c2cc(F)c(CN3CC[C@H]4CCC[C@H]43)cc2N)c(F)n1
REMARK SMILES IDX 7 1 8 2 9 3 10 4 11 5 21 6 22 7 6 8 5 11 2 12 3 13 26 14
REMARK SMILES IDX 4 15 24 16 1 17 25 18 23 19 12 22 13 23 14 24 20 25 15 26
REMARK SMILES IDX 19 27 16 28 18 29 17 30
REMARK H PARENT 6 9 6 10 23 20 23 21
ROOT
ATOM      1  C   UNL     1       0.605  -2.721   1.447  1.00  0.00     0.160 A 
ATOM      2  C   UNL     1       1.645  -1.780   1.572  1.00  0.00     0.110 A 
ATOM      3  C   UNL     1       2.056  -1.008   0.486  1.00  0.00     0.133 A 
ATOM      4  F   UNL     1       3.057  -0.108   0.659  1.00  0.00    -0.206 F 
ATOM      5  C   UNL     1       1.434  -1.158  -0.761  1.00  0.00     0.004 A 
ATOM      6  C   UNL     1       0.401  -2.093  -0.902  1.00  0.00     0.040 A 
ATOM      7  C   UNL     1      -0.028  -2.877   0.181  1.00  0.00     0.094 A 
ENDROOT
BRANCH   1   8
ATOM      8  N   UNL     1       0.199  -3.462   2.622  1.00  0.00    -0.276 N 
ATOM      9  H   UNL     1       1.053  -3.740   3.159  1.00  0.00     0.358 HD
ATOM     10  H   UNL     1      -0.270  -4.362   2.389  1.00  0.00     0.358 HD
BRANCH   8  11
ATOM     11  C   UNL     1      -0.668  -2.650   3.445  1.00  0.00     0.190 A 
ATOM     12  C   UNL     1      -2.322  -1.052   5.028  1.00  0.00     0.041 A 
ATOM     13  C   UNL     1      -2.845  -1.667   3.885  1.00  0.00     0.030 A 
ATOM     14  N   UNL     1      -1.010  -1.218   5.341  1.00  0.00    -0.220 NA
ATOM     15  C   UNL     1      -2.019  -2.471   3.100  1.00  0.00     0.075 A 
ATOM     16  C   UNL     1      -0.180  -1.991   4.591  1.00  0.00     0.274 A 
ATOM     17  C   UNL     1      -3.176  -0.157   5.869  1.00  0.00     0.067 C 
ATOM     18  F   UNL     1       1.117  -2.119   4.965  1.00  0.00    -0.178 F 
ENDBRANCH   8  11
ENDBRANCH   1   8
BRANCH   7  19
ATOM     19  N   UNL     1      -1.095  -3.812  -0.047  1.00  0.00    -0.394 N 
ATOM     20  H   UNL     1      -1.477  -4.449   0.681  1.00  0.00     0.156 HD
ATOM     21  H   UNL     1      -1.532  -3.886  -0.994  1.00  0.00     0.156 HD
ENDBRANCH   7  19
BRANCH   5  22
ATOM     22  C   UNL     1       1.841  -0.317  -1.947  1.00  0.00     0.123 C 
BRANCH  22  23
ATOM     23  N   UNL     1       0.713   0.529  -2.388  1.00  0.00    -0.296 NA
ATOM     24  C   UNL     1       0.990   1.170  -3.683  1.00  0.00     0.085 C 
ATOM     25  C   UNL     1       0.415   1.611  -1.422  1.00  0.00     0.060 C 
ATOM     26  C   UNL     1       1.294   2.629  -3.423  1.00  0.00     0.021 C 
ATOM     27  C   UNL     1      -1.037   1.515  -0.971  1.00  0.00     0.019 C 
ATOM     28  C   UNL     1       0.551   2.950  -2.139  1.00  0.00     0.007 C 
ATOM     29  C   UNL     1      -1.824   2.367  -1.949  1.00  0.00     0.002 C 
ATOM     30  C   UNL     1      -0.876   3.479  -2.369  1.00  0.00     0.005 C 
ENDBRANCH  22  23
ENDBRANCH   5  22
TORSDOF 5


