REMARK SMILES CC(=O)c1ccc(-c2ccc(OC(=O)C(=O)[C@@H](F)[C@@H](O)C(C)C)cc2)c2c[nH]nc12
REMARK SMILES IDX 13 1 14 2 12 3 11 4 8 5 9 6 25 7 10 8 24 9 7 10 4 11 5 12
REMARK SMILES IDX 30 13 6 14 29 15 26 16 28 17 27 18 2 20 1 21 3 22 15 23
REMARK SMILES IDX 16 24 17 25 18 26 19 27 20 28 21 30 22 31 23 32
REMARK H PARENT 28 19 20 29
ROOT
ATOM      1  C   UNL     1       1.285  -0.799   1.414  1.00  0.00     0.383 C 
ATOM      2  O   UNL     1       1.976  -1.029   0.385  1.00  0.00    -0.242 OA
ENDROOT
BRANCH   1   3
ATOM      3  O   UNL     1      -0.042  -0.359   1.305  1.00  0.00    -0.421 OA
BRANCH   3   4
ATOM      4  C   UNL     1      -0.628   0.174   0.147  1.00  0.00     0.131 A 
ATOM      5  C   UNL     1      -1.899   1.245  -2.131  1.00  0.00    -0.017 A 
ATOM      6  C   UNL     1      -2.638   0.540  -1.167  1.00  0.00     0.012 A 
ATOM      7  C   UNL     1      -0.516   1.410  -1.945  1.00  0.00     0.012 A 
ATOM      8  C   UNL     1      -2.006   0.019  -0.034  1.00  0.00     0.048 A 
ATOM      9  C   UNL     1       0.114   0.887  -0.812  1.00  0.00     0.048 A 
BRANCH   5  10
ATOM     10  C   UNL     1      -2.560   1.792  -3.338  1.00  0.00    -0.007 A 
ATOM     11  C   UNL     1      -3.842   2.836  -5.684  1.00  0.00     0.045 A 
ATOM     12  C   UNL     1      -2.650   2.076  -5.776  1.00  0.00     0.015 A 
ATOM     13  C   UNL     1      -4.350   3.051  -4.393  1.00  0.00     0.103 A 
ATOM     14  C   UNL     1      -2.018   1.567  -4.622  1.00  0.00     0.010 A 
ATOM     15  N   UNL     1      -5.438   3.763  -4.040  1.00  0.00    -0.175 NA
ATOM     16  C   UNL     1      -3.735   2.550  -3.272  1.00  0.00     0.028 A 
ATOM     17  N   UNL     1      -5.514   3.721  -2.716  1.00  0.00    -0.284 N 
ATOM     18  C   UNL     1      -4.492   2.998  -2.211  1.00  0.00     0.114 A 
ATOM     19  H   UNL     1      -6.259   4.195  -2.159  1.00  0.00     0.189 HD
BRANCH  11  20
ATOM     20  C   UNL     1      -4.515   3.384  -6.893  1.00  0.00     0.162 C 
ATOM     21  C   UNL     1      -3.956   3.177  -8.268  1.00  0.00     0.093 C 
ATOM     22  O   UNL     1      -5.587   4.038  -6.776  1.00  0.00    -0.294 OA
ENDBRANCH  11  20
ENDBRANCH   5  10
ENDBRANCH   3   4
ENDBRANCH   1   3
BRANCH   1  23
ATOM     23  C   UNL     1       1.848  -1.048   2.750  1.00  0.00     0.277 C 
ATOM     24  O   UNL     1       1.134  -0.837   3.767  1.00  0.00    -0.283 OA
BRANCH  23  25
ATOM     25  C   UNL     1       3.246  -1.584   2.924  1.00  0.00     0.274 C 
ATOM     26  F   UNL     1       3.723  -1.282   4.189  1.00  0.00    -0.235 F 
BRANCH  25  27
ATOM     27  C   UNL     1       3.340  -3.106   2.651  1.00  0.00     0.159 C 
BRANCH  27  28
ATOM     28  O   UNL     1       4.654  -3.545   2.890  1.00  0.00    -0.389 OA
ATOM     29  H   UNL     1       5.211  -3.217   2.137  1.00  0.00     0.211 HD
ENDBRANCH  27  28
BRANCH  27  30
ATOM     30  C   UNL     1       2.338  -3.975   3.465  1.00  0.00     0.015 C 
ATOM     31  C   UNL     1       2.386  -5.434   2.985  1.00  0.00     0.010 C 
ATOM     32  C   UNL     1       2.584  -3.919   4.982  1.00  0.00     0.010 C 
ENDBRANCH  27  30
ENDBRANCH  25  27
ENDBRANCH  23  25
ENDBRANCH   1  23
TORSDOF 9


