REMARK SMILES O/C(CCF)=N\c1cc(F)c(F)cc1Nc1ccc(F)cc1
REMARK SMILES IDX 6 1 2 2 1 3 3 5 4 6 5 7 7 8 8 9 14 10 9 11 13 12 11 13 10 14
REMARK SMILES IDX 12 15 15 16 16 18 17 19 22 20 18 21 21 22 19 23 20 24
REMARK H PARENT 1 4 15 17
ROOT
ATOM      1  N   UNL     1      -0.408   0.189  -0.145  1.00  0.00    -0.216 NA
ENDROOT
BRANCH   1   2
ATOM      2  C   UNL     1      -1.705   0.261  -0.209  1.00  0.00     0.188 C 
BRANCH   2   3
ATOM      3  O   UNL     1      -2.356   0.440  -1.429  1.00  0.00    -0.496 OA
ATOM      4  H   UNL     1      -3.365   0.499  -1.483  1.00  0.00     0.294 HD
ENDBRANCH   2   3
BRANCH   2   5
ATOM      5  C   UNL     1      -2.507   0.135   1.051  1.00  0.00     0.131 C 
BRANCH   5   6
ATOM      6  C   UNL     1      -2.811   1.511   1.633  1.00  0.00     0.224 C 
ATOM      7  F   UNL     1      -3.553   1.372   2.791  1.00  0.00    -0.251 F 
ENDBRANCH   5   6
ENDBRANCH   2   5
ENDBRANCH   1   2
BRANCH   1   8
ATOM      8  C   UNL     1       0.501   0.328  -1.249  1.00  0.00     0.093 A 
ATOM      9  C   UNL     1       0.314   1.330  -2.220  1.00  0.00     0.073 A 
ATOM     10  C   UNL     1       1.664  -0.473  -1.298  1.00  0.00     0.068 A 
ATOM     11  C   UNL     1       1.254   1.516  -3.236  1.00  0.00     0.161 A 
ATOM     12  C   UNL     1       2.612  -0.258  -2.308  1.00  0.00     0.070 A 
ATOM     13  C   UNL     1       2.403   0.723  -3.280  1.00  0.00     0.161 A 
ATOM     14  F   UNL     1       1.062   2.484  -4.166  1.00  0.00    -0.204 F 
ATOM     15  F   UNL     1       3.323   0.913  -4.258  1.00  0.00    -0.204 F 
BRANCH  10  16
ATOM     16  N   UNL     1       1.919  -1.486  -0.309  1.00  0.00    -0.354 N 
ATOM     17  H   UNL     1       2.892  -1.566   0.065  1.00  0.00     0.167 HD
BRANCH  16  18
ATOM     18  C   UNL     1       0.942  -2.443   0.136  1.00  0.00     0.039 A 
ATOM     19  C   UNL     1      -0.133  -2.829  -0.688  1.00  0.00     0.029 A 
ATOM     20  C   UNL     1       1.079  -3.032   1.402  1.00  0.00     0.029 A 
ATOM     21  C   UNL     1      -1.072  -3.759  -0.231  1.00  0.00     0.041 A 
ATOM     22  C   UNL     1       0.139  -3.963   1.855  1.00  0.00     0.041 A 
ATOM     23  C   UNL     1      -0.939  -4.323   1.040  1.00  0.00     0.123 A 
ATOM     24  F   UNL     1      -1.850  -5.224   1.481  1.00  0.00    -0.207 F 
ENDBRANCH  16  18
ENDBRANCH  10  16
ENDBRANCH   1   8
TORSDOF 7


