REMARK SMILES C/C=C(\C)C(=O)N1CC[C@H](C)[C@H](F)[C@H]1c1ccc(C(C)=O)cc1
REMARK SMILES IDX 7 1 8 2 9 3 10 4 11 5 12 6 13 7 14 8 5 9 6 10 3 11 4 12 2 13
REMARK SMILES IDX 1 14 15 15 16 16 23 17 17 18 22 19 18 20 19 21 21 22 20 23
REMARK H PARENT
ROOT
ATOM      1  N   UNL     1       0.223  -1.512   0.351  1.00  0.00    -0.329 N 
ATOM      2  C   UNL     1       1.391  -2.400   0.424  1.00  0.00     0.121 C 
ATOM      3  C   UNL     1       2.697  -1.616   0.309  1.00  0.00     0.028 C 
ATOM      4  C   UNL     1       2.761  -0.460   1.319  1.00  0.00     0.024 C 
ATOM      5  C   UNL     1       2.931  -0.959   2.765  1.00  0.00     0.011 C 
ATOM      6  C   UNL     1       1.538   0.461   1.145  1.00  0.00     0.196 C 
ATOM      7  F   UNL     1       1.556   1.459   2.110  1.00  0.00    -0.245 F 
ATOM      8  C   UNL     1       0.196  -0.307   1.210  1.00  0.00     0.150 C 
ENDROOT
BRANCH   1   9
ATOM      9  C   UNL     1      -1.019  -2.137  -0.032  1.00  0.00     0.249 C 
ATOM     10  O   UNL     1      -1.948  -2.231   0.814  1.00  0.00    -0.269 OA
BRANCH   9  11
ATOM     11  C   UNL     1      -1.212  -2.689  -1.397  1.00  0.00     0.010 C 
ATOM     12  C   UNL     1      -2.322  -3.687  -1.630  1.00  0.00     0.050 C 
BRANCH  11  13
ATOM     13  C   UNL     1      -0.457  -2.236  -2.416  1.00  0.00    -0.021 C 
ATOM     14  C   UNL     1      -0.623  -2.687  -3.837  1.00  0.00     0.036 C 
ENDBRANCH  11  13
ENDBRANCH   9  11
ENDBRANCH   1   9
BRANCH   8  15
ATOM     15  C   UNL     1      -0.934   0.634   0.819  1.00  0.00    -0.022 A 
ATOM     16  C   UNL     1      -1.074   1.079  -0.506  1.00  0.00     0.007 A 
ATOM     17  C   UNL     1      -1.843   1.088   1.787  1.00  0.00     0.007 A 
ATOM     18  C   UNL     1      -2.109   1.949  -0.859  1.00  0.00     0.012 A 
ATOM     19  C   UNL     1      -2.881   1.956   1.435  1.00  0.00     0.012 A 
ATOM     20  C   UNL     1      -3.030   2.397   0.107  1.00  0.00     0.017 A 
BRANCH  20  21
ATOM     21  C   UNL     1      -4.142   3.318  -0.252  1.00  0.00     0.159 C 
ATOM     22  O   UNL     1      -4.963   3.681   0.634  1.00  0.00    -0.295 OA
ATOM     23  C   UNL     1      -4.320   3.846  -1.645  1.00  0.00     0.093 C 
ENDBRANCH  20  21
ENDBRANCH   8  15
TORSDOF 5


