REMARK SMILES Nc1c([C@@H]2O[C@H]2c2ccccc2)cc(C(=O)[O-])c([NH2+]c2cc3ccccc3[n-]2)c1[O-]
REMARK SMILES IDX 2 1 3 2 13 3 14 4 18 5 29 6 30 7 1 8 4 11 5 12 6 13 7 14
REMARK SMILES IDX 8 15 12 16 9 17 11 18 10 19 19 20 20 23 21 24 28 25 22 26
REMARK SMILES IDX 27 27 23 28 26 29 24 30 25 31 15 32 16 33 17 34
REMARK H PARENT 1 9 1 10 19 21 19 22
ROOT
ATOM      1  C   UNL     1      -0.646  -2.054  -0.019  1.00  0.00     0.035 A 
ATOM      2  C   UNL     1       0.710  -1.821   0.290  1.00  0.00     0.007 A 
ATOM      3  C   UNL     1       1.083  -0.615   0.894  1.00  0.00     0.024 A 
ATOM      4  C   UNL     1       0.130   0.352   1.249  1.00  0.00     0.058 A 
ATOM      5  C   UNL     1      -1.246   0.095   1.005  1.00  0.00     0.136 A 
ATOM      6  C   UNL     1      -1.614  -1.105   0.354  1.00  0.00    -0.020 A 
ATOM      7  O   UNL     1      -2.955  -1.351   0.071  1.00  0.00    -0.867 OA
ENDROOT
BRANCH   1   8
ATOM      8  N   UNL     1      -1.050  -3.241  -0.721  1.00  0.00    -0.399 N 
ATOM      9  H   UNL     1      -2.057  -3.441  -0.911  1.00  0.00     0.156 HD
ATOM     10  H   UNL     1      -0.358  -3.921  -1.103  1.00  0.00     0.156 HD
ENDBRANCH   1   8
BRANCH   2  11
ATOM     11  C   UNL     1       1.783  -2.809  -0.077  1.00  0.00     0.185 C 
ATOM     12  O   UNL     1       1.599  -4.044   0.579  1.00  0.00    -0.359 OA
ATOM     13  C   UNL     1       2.673  -3.252   1.029  1.00  0.00     0.183 C 
BRANCH  13  14
ATOM     14  C   UNL     1       3.995  -3.820   0.608  1.00  0.00    -0.016 A 
ATOM     15  C   UNL     1       4.945  -2.999  -0.018  1.00  0.00     0.006 A 
ATOM     16  C   UNL     1       4.318  -5.155   0.896  1.00  0.00     0.006 A 
ATOM     17  C   UNL     1       6.192  -3.518  -0.383  1.00  0.00     0.000 A 
ATOM     18  C   UNL     1       5.566  -5.670   0.533  1.00  0.00     0.000 A 
ATOM     19  C   UNL     1       6.501  -4.853  -0.110  1.00  0.00     0.000 A 
ENDBRANCH  13  14
ENDBRANCH   2  11
BRANCH   5  20
ATOM     20  N   UNL     1      -2.279   1.025   1.412  1.00  0.00    -0.299 N 
ATOM     21  H   UNL     1      -1.998   1.529   2.284  1.00  0.00     0.356 HD
ATOM     22  H   UNL     1      -3.160   0.515   1.649  1.00  0.00     0.356 HD
BRANCH  20  23
ATOM     23  C   UNL     1      -2.571   1.960   0.358  1.00  0.00     0.036 A 
ATOM     24  C   UNL     1      -2.872   3.304   0.566  1.00  0.00     0.050 A 
ATOM     25  N   UNL     1      -2.711   1.600  -0.943  1.00  0.00    -0.610 NA
ATOM     26  C   UNL     1      -3.176   3.784  -0.683  1.00  0.00    -0.036 A 
ATOM     27  C   UNL     1      -3.069   2.739  -1.562  1.00  0.00    -0.125 A 
ATOM     28  C   UNL     1      -3.543   5.063  -1.097  1.00  0.00     0.007 A 
ATOM     29  C   UNL     1      -3.327   2.902  -2.922  1.00  0.00    -0.015 A 
ATOM     30  C   UNL     1      -3.805   5.258  -2.465  1.00  0.00     0.001 A 
ATOM     31  C   UNL     1      -3.699   4.182  -3.374  1.00  0.00    -0.001 A 
ENDBRANCH  20  23
ENDBRANCH   5  20
BRANCH   4  32
ATOM     32  C   UNL     1       0.615   1.604   1.877  1.00  0.00     0.077 C 
ATOM     33  O   UNL     1       1.622   1.581   2.634  1.00  0.00    -0.545 OA
ATOM     34  O   UNL     1       0.013   2.824   1.601  1.00  0.00    -0.545 OA
ENDBRANCH   4  32
TORSDOF 6


