REMARK SMILES Cc1cc(-c2cccc3[nH+]coc23)cc([O-])c1F
REMARK SMILES IDX 5 1 6 2 7 3 8 4 9 5 10 6 11 7 12 8 13 9 4 11 2 12 3 13 17 14
REMARK SMILES IDX 15 15 14 16 1 17 18 18 16 19
REMARK H PARENT 10 10
ROOT
ATOM      1  C   UNL     1       0.401  -0.065  -0.135  1.00  0.00     0.032 A 
ATOM      2  C   UNL     1       0.247   0.987  -1.071  1.00  0.00     0.013 A 
ATOM      3  C   UNL     1       1.247   1.251  -2.034  1.00  0.00     0.008 A 
ATOM      4  C   UNL     1       2.416   0.471  -2.084  1.00  0.00     0.083 A 
ATOM      5  C   UNL     1       2.541  -0.558  -1.156  1.00  0.00     0.249 A 
ATOM      6  N   UNL     1       3.542  -1.438  -1.016  1.00  0.00    -0.176 N 
ATOM      7  C   UNL     1       3.140  -2.217   0.016  1.00  0.00     0.521 A 
ATOM      8  O   UNL     1       1.961  -1.849   0.492  1.00  0.00    -0.403 OA
ATOM      9  C   UNL     1       1.579  -0.819  -0.224  1.00  0.00     0.212 A 
ATOM     10  H   UNL     1       4.423  -1.512  -1.573  1.00  0.00     0.457 HD
ENDROOT
BRANCH   1  11
ATOM     11  C   UNL     1      -0.639  -0.354   0.883  1.00  0.00    -0.015 A 
ATOM     12  C   UNL     1      -1.262  -0.947   3.169  1.00  0.00    -0.015 A 
ATOM     13  C   UNL     1      -0.279  -0.667   2.206  1.00  0.00     0.015 A 
ATOM     14  C   UNL     1      -2.618  -0.886   2.810  1.00  0.00     0.118 A 
ATOM     15  C   UNL     1      -2.983  -0.571   1.498  1.00  0.00    -0.071 A 
ATOM     16  C   UNL     1      -2.001  -0.308   0.539  1.00  0.00     0.003 A 
ATOM     17  C   UNL     1      -0.868  -1.249   4.586  1.00  0.00     0.047 C 
ATOM     18  F   UNL     1      -3.584  -1.128   3.733  1.00  0.00    -0.207 F 
ATOM     19  O   UNL     1      -4.326  -0.519   1.143  1.00  0.00    -0.870 OA
ENDBRANCH   1  11
TORSDOF 1


