REMARK SMILES Cn1c[nH+]c2cc(-c3ccc(CC[NH3+])cc3)c[nH+]c21
REMARK SMILES IDX 12 1 11 2 8 3 9 4 16 5 10 6 15 7 7 8 2 9 3 10 19 11 4 12
REMARK SMILES IDX 18 13 5 14 17 15 6 16 1 17 13 20 14 21
REMARK H PARENT 4 18 18 19 14 22 14 23 14 24
ROOT
ATOM      1  C   UNL     1      -4.779   0.562  -0.070  1.00  0.00     0.096 C 
ENDROOT
BRANCH   1   2
ATOM      2  C   UNL     1      -3.275   0.509  -0.152  1.00  0.00    -0.042 A 
ATOM      3  C   UNL     1      -0.459   0.364  -0.274  1.00  0.00    -0.015 A 
ATOM      4  C   UNL     1      -1.093   1.207   0.658  1.00  0.00     0.009 A 
ATOM      5  C   UNL     1      -1.253  -0.409  -1.140  1.00  0.00     0.009 A 
ATOM      6  C   UNL     1      -2.487   1.276   0.720  1.00  0.00     0.004 A 
ATOM      7  C   UNL     1      -2.648  -0.338  -1.078  1.00  0.00     0.004 A 
BRANCH   3   8
ATOM      8  C   UNL     1       1.022   0.288  -0.338  1.00  0.00     0.025 A 
ATOM      9  N   UNL     1       5.084  -0.082  -0.524  1.00  0.00    -0.199 N 
ATOM     10  C   UNL     1       5.134  -1.427  -0.707  1.00  0.00     0.405 A 
ATOM     11  C   UNL     1       3.771   0.192  -0.449  1.00  0.00     0.329 A 
ATOM     12  N   UNL     1       3.899  -1.988  -0.758  1.00  0.00    -0.240 N 
ATOM     13  N   UNL     1       3.182   1.397  -0.246  1.00  0.00    -0.243 N 
ATOM     14  C   UNL     1       3.057  -0.954  -0.594  1.00  0.00     0.215 A 
ATOM     15  C   UNL     1       1.816   1.462  -0.190  1.00  0.00     0.206 A 
ATOM     16  C   UNL     1       1.669  -0.954  -0.545  1.00  0.00     0.073 A 
ATOM     17  C   UNL     1       6.205   0.839  -0.382  1.00  0.00     0.300 C 
ATOM     18  H   UNL     1       3.661  -2.997  -0.885  1.00  0.00     0.312 HD
ATOM     19  H   UNL     1       3.755   2.264  -0.137  1.00  0.00     0.312 HD
ENDBRANCH   3   8
ENDBRANCH   1   2
BRANCH   1  20
ATOM     20  C   UNL     1      -5.352  -0.630   0.712  1.00  0.00     0.263 C 
BRANCH  20  21
ATOM     21  N   UNL     1      -4.973  -0.588   2.126  1.00  0.00    -0.357 N 
ATOM     22  H   UNL     1      -3.942  -0.729   2.229  1.00  0.00     0.344 HD
ATOM     23  H   UNL     1      -5.252   0.326   2.549  1.00  0.00     0.344 HD
ATOM     24  H   UNL     1      -5.466  -1.359   2.632  1.00  0.00     0.344 HD
ENDBRANCH  20  21
ENDBRANCH   1  20
TORSDOF 4


