REMARK SMILES N/[NH+]=c1\cccc2cc(-c3ccc(O)cc3)c3c[nH][nH]c3c12
REMARK SMILES IDX 9 1 8 2 7 3 6 4 5 5 4 6 3 7 22 8 21 9 17 10 18 11 19 12
REMARK SMILES IDX 20 14 10 16 13 17 12 18 15 19 11 20 16 21 14 22 2 24 1 26
REMARK H PARENT 19 13 20 15 14 23 2 25 1 27 1 28
ROOT
ATOM      1  C   UNL     1      -1.418  -0.103  -0.520  1.00  0.00    -0.007 A 
ATOM      2  C   UNL     1      -1.584  -1.480  -0.767  1.00  0.00     0.018 A 
ATOM      3  C   UNL     1      -0.930  -2.451   0.029  1.00  0.00    -0.009 A 
ATOM      4  C   UNL     1      -1.192  -3.807  -0.194  1.00  0.00     0.009 A 
ATOM      5  C   UNL     1      -0.579  -4.778   0.589  1.00  0.00     0.008 A 
ATOM      6  C   UNL     1       0.367  -4.421   1.547  1.00  0.00     0.082 A 
ATOM      7  C   UNL     1       0.718  -3.066   1.759  1.00  0.00     0.236 A 
ATOM      8  C   UNL     1      -0.031  -2.062   1.069  1.00  0.00     0.081 A 
ATOM      9  C   UNL     1       0.022  -0.677   1.358  1.00  0.00     0.078 A 
ATOM     10  C   UNL     1      -0.625   0.253   0.575  1.00  0.00     0.026 A 
ATOM     11  C   UNL     1      -0.465   1.467   1.216  1.00  0.00     0.112 A 
ATOM     12  N   UNL     1       0.223   1.241   2.353  1.00  0.00    -0.307 N 
ATOM     13  H   UNL     1       0.442   1.951   3.087  1.00  0.00     0.187 HD
ATOM     14  N   UNL     1       0.501  -0.051   2.455  1.00  0.00    -0.300 N 
ATOM     15  H   UNL     1       0.904  -0.478   3.317  1.00  0.00     0.188 HD
ENDROOT
BRANCH   1  16
ATOM     16  C   UNL     1      -2.118   0.908  -1.348  1.00  0.00    -0.017 A 
ATOM     17  C   UNL     1      -3.438   2.819  -2.935  1.00  0.00     0.115 A 
ATOM     18  C   UNL     1      -2.084   2.979  -2.625  1.00  0.00     0.047 A 
ATOM     19  C   UNL     1      -4.133   1.701  -2.456  1.00  0.00     0.047 A 
ATOM     20  C   UNL     1      -1.426   2.029  -1.838  1.00  0.00     0.012 A 
ATOM     21  C   UNL     1      -3.477   0.750  -1.669  1.00  0.00     0.012 A 
BRANCH  17  22
ATOM     22  O   UNL     1      -4.082   3.773  -3.720  1.00  0.00    -0.508 OA
ATOM     23  H   UNL     1      -5.062   3.686  -3.963  1.00  0.00     0.293 HD
ENDBRANCH  17  22
ENDBRANCH   1  16
BRANCH   7  24
ATOM     24  N   UNL     1       1.790  -2.759   2.451  1.00  0.00    -0.132 N 
ATOM     25  H   UNL     1       2.242  -1.828   2.327  1.00  0.00     0.488 HD
BRANCH  24  26
ATOM     26  N   UNL     1       2.469  -3.666   3.285  1.00  0.00    -0.212 NA
ATOM     27  H   UNL     1       3.423  -3.425   3.633  1.00  0.00     0.228 HD
ATOM     28  H   UNL     1       1.981  -4.467   3.742  1.00  0.00     0.228 HD
ENDBRANCH  24  26
ENDBRANCH   7  24
TORSDOF 4


