REMARK SMILES Cc1ccc(-c2ccc(C#N)cc2)c2cn[nH]c12
REMARK SMILES IDX 6 1 7 2 8 3 9 4 12 5 13 6 5 7 2 8 3 9 18 10 4 11 17 12 14 13
REMARK SMILES IDX 16 14 15 15 1 16 10 18 11 19
REMARK H PARENT 17 17
ROOT
ATOM      1  C   UNL     1       1.324  -0.292   0.250  1.00  0.00    -0.018 A 
ATOM      2  C   UNL     1       2.078  -0.025   1.406  1.00  0.00     0.010 A 
ATOM      3  C   UNL     1       3.470  -0.158   1.390  1.00  0.00     0.020 A 
ATOM      4  C   UNL     1       4.123  -0.565   0.221  1.00  0.00     0.052 A 
ATOM      5  C   UNL     1       3.378  -0.843  -0.932  1.00  0.00     0.020 A 
ATOM      6  C   UNL     1       1.986  -0.710  -0.917  1.00  0.00     0.010 A 
ENDROOT
BRANCH   1   7
ATOM      7  C   UNL     1      -0.151  -0.159   0.274  1.00  0.00    -0.007 A 
ATOM      8  C   UNL     1      -2.999   0.082   0.317  1.00  0.00    -0.025 A 
ATOM      9  C   UNL     1      -2.319  -0.611   1.341  1.00  0.00     0.006 A 
ATOM     10  C   UNL     1      -2.222   0.645  -0.700  1.00  0.00     0.069 A 
ATOM     11  C   UNL     1      -0.912  -0.729   1.321  1.00  0.00     0.010 A 
ATOM     12  N   UNL     1      -2.624   1.378  -1.751  1.00  0.00    -0.278 N 
ATOM     13  C   UNL     1      -0.859   0.529  -0.722  1.00  0.00     0.028 A 
ATOM     14  N   UNL     1      -1.554   1.746  -2.444  1.00  0.00    -0.183 NA
ATOM     15  C   UNL     1      -0.455   1.242  -1.835  1.00  0.00     0.144 A 
ATOM     16  C   UNL     1      -4.492   0.230   0.333  1.00  0.00     0.046 C 
ATOM     17  H   UNL     1      -3.604   1.641  -1.998  1.00  0.00     0.190 HD
ENDBRANCH   1   7
BRANCH   4  18
ATOM     18  C   UNL     1       5.556  -0.703   0.205  1.00  0.00     0.099 C 
ATOM     19  N   UNL     1       6.707  -0.813   0.192  1.00  0.00    -0.192 NA
ENDBRANCH   4  18
TORSDOF 2


