MODEL 1
REMARK VINA RESULT:      -9.5      0.000      0.000
REMARK SMILES Nc1cc(F)c[nH]/c1=N\c1c[n-]c2nccc-2c1
REMARK SMILES IDX 8 1 2 2 3 3 4 4 5 5 6 6 7 7 9 9 10 10 15 11 14 12 16 13
REMARK SMILES IDX 13 14 17 15 12 16 18 17 11 18 1 19
REMARK H PARENT 7 8 1 20 1 21
ROOT
ATOM      1  C   UNL     1      44.248 131.751  18.614  1.00  0.00     0.154 A 
ATOM      2  C   UNL     1      42.969 131.967  19.169  1.00  0.00     0.078 A 
ATOM      3  C   UNL     1      42.781 131.777  20.543  1.00  0.00     0.070 A 
ATOM      4  C   UNL     1      43.844 131.369  21.344  1.00  0.00     0.141 A 
ATOM      5  F   UNL     1      43.665 131.182  22.676  1.00  0.00    -0.205 F 
ATOM      6  C   UNL     1      45.089 131.141  20.764  1.00  0.00     0.123 A 
ATOM      7  N   UNL     1      45.268 131.326  19.427  1.00  0.00    -0.342 N 
ATOM      8  H   UNL     1      46.209 131.093  19.041  1.00  0.00     0.168 HD
ENDROOT
BRANCH   1   9
ATOM      9  N   UNL     1      44.423 131.927  17.332  1.00  0.00    -0.230 NA
BRANCH   9  10
ATOM     10  C   UNL     1      45.343 131.237  16.474  1.00  0.00     0.062 A 
ATOM     11  C   UNL     1      48.121 130.237  13.075  1.00  0.00    -0.022 A 
ATOM     12  N   UNL     1      47.799 129.208  13.904  1.00  0.00    -0.442 NA
ATOM     13  C   UNL     1      47.513 131.440  13.445  1.00  0.00     0.003 A 
ATOM     14  C   UNL     1      46.983 129.761  14.814  1.00  0.00    -0.052 A 
ATOM     15  C   UNL     1      46.778 131.148  14.565  1.00  0.00    -0.025 A 
ATOM     16  N   UNL     1      46.372 129.127  15.840  1.00  0.00    -0.440 NA
ATOM     17  C   UNL     1      45.949 131.899  15.380  1.00  0.00     0.036 A 
ATOM     18  C   UNL     1      45.551 129.845  16.665  1.00  0.00     0.006 A 
ENDBRANCH   9  10
ENDBRANCH   1   9
BRANCH   2  19
ATOM     19  N   UNL     1      41.864 132.387  18.357  1.00  0.00    -0.396 N 
ATOM     20  H   UNL     1      40.888 132.066  18.550  1.00  0.00     0.156 HD
ATOM     21  H   UNL     1      42.012 133.030  17.547  1.00  0.00     0.156 HD
ENDBRANCH   2  19
TORSDOF 3
ENDMDL
MODEL 2
REMARK VINA RESULT:      -9.4      2.955      6.470
REMARK SMILES Nc1cc(F)c[nH]/c1=N\c1c[n-]c2nccc-2c1
REMARK SMILES IDX 8 1 2 2 3 3 4 4 5 5 6 6 7 7 9 9 10 10 15 11 14 12 16 13
REMARK SMILES IDX 13 14 17 15 12 16 18 17 11 18 1 19
REMARK H PARENT 7 8 1 20 1 21
ROOT
ATOM      1  C   UNL     1      45.464 130.922  15.078  1.00  0.00     0.154 A 
ATOM      2  C   UNL     1      45.819 129.559  14.998  1.00  0.00     0.078 A 
ATOM      3  C   UNL     1      46.993 129.199  14.327  1.00  0.00     0.070 A 
ATOM      4  C   UNL     1      47.789 130.177  13.737  1.00  0.00     0.141 A 
ATOM      5  F   UNL     1      48.927 129.832  13.084  1.00  0.00    -0.205 F 
ATOM      6  C   UNL     1      47.400 131.512  13.812  1.00  0.00     0.123 A 
ATOM      7  N   UNL     1      46.258 131.859  14.465  1.00  0.00    -0.342 N 
ATOM      8  H   UNL     1      45.992 132.868  14.447  1.00  0.00     0.168 HD
ENDROOT
BRANCH   1   9
ATOM      9  N   UNL     1      44.367 131.258  15.703  1.00  0.00    -0.230 NA
BRANCH   9  10
ATOM     10  C   UNL     1      44.188 131.440  17.115  1.00  0.00     0.062 A 
ATOM     11  C   UNL     1      44.845 131.403  21.568  1.00  0.00    -0.022 A 
ATOM     12  N   UNL     1      43.599 131.754  21.153  1.00  0.00    -0.442 NA
ATOM     13  C   UNL     1      45.707 131.112  20.507  1.00  0.00     0.003 A 
ATOM     14  C   UNL     1      43.668 131.694  19.814  1.00  0.00    -0.052 A 
ATOM     15  C   UNL     1      44.962 131.297  19.371  1.00  0.00    -0.025 A 
ATOM     16  N   UNL     1      42.662 131.931  18.944  1.00  0.00    -0.440 NA
ATOM     17  C   UNL     1      45.235 131.153  18.022  1.00  0.00     0.036 A 
ATOM     18  C   UNL     1      42.904 131.801  17.603  1.00  0.00     0.006 A 
ENDBRANCH   9  10
ENDBRANCH   1   9
BRANCH   2  19
ATOM     19  N   UNL     1      45.009 128.540  15.599  1.00  0.00    -0.396 N 
ATOM     20  H   UNL     1      44.308 128.763  16.341  1.00  0.00     0.156 HD
ATOM     21  H   UNL     1      45.104 127.542  15.305  1.00  0.00     0.156 HD
ENDBRANCH   2  19
TORSDOF 3
ENDMDL
MODEL 3
REMARK VINA RESULT:      -9.3      1.594      2.449
REMARK SMILES Nc1cc(F)c[nH]/c1=N\c1c[n-]c2nccc-2c1
REMARK SMILES IDX 8 1 2 2 3 3 4 4 5 5 6 6 7 7 9 9 10 10 15 11 14 12 16 13
REMARK SMILES IDX 13 14 17 15 12 16 18 17 11 18 1 19
REMARK H PARENT 7 8 1 20 1 21
ROOT
ATOM      1  C   UNL     1      44.238 131.334  18.903  1.00  0.00     0.154 A 
ATOM      2  C   UNL     1      44.263 131.608  20.287  1.00  0.00     0.078 A 
ATOM      3  C   UNL     1      43.178 132.273  20.869  1.00  0.00     0.070 A 
ATOM      4  C   UNL     1      42.098 132.670  20.085  1.00  0.00     0.141 A 
ATOM      5  F   UNL     1      41.046 133.317  20.645  1.00  0.00    -0.205 F 
ATOM      6  C   UNL     1      42.114 132.407  18.717  1.00  0.00     0.123 A 
ATOM      7  N   UNL     1      43.170 131.759  18.154  1.00  0.00    -0.342 N 
ATOM      8  H   UNL     1      43.148 131.633  17.119  1.00  0.00     0.168 HD
ENDROOT
BRANCH   1   9
ATOM      9  N   UNL     1      45.251 130.714  18.359  1.00  0.00    -0.230 NA
BRANCH   9  10
ATOM     10  C   UNL     1      45.746 130.857  17.020  1.00  0.00     0.062 A 
ATOM     11  C   UNL     1      47.883 130.111  13.129  1.00  0.00    -0.022 A 
ATOM     12  N   UNL     1      47.340 131.348  13.283  1.00  0.00    -0.442 NA
ATOM     13  C   UNL     1      47.670 129.285  14.236  1.00  0.00     0.003 A 
ATOM     14  C   UNL     1      46.769 131.309  14.496  1.00  0.00    -0.052 A 
ATOM     15  C   UNL     1      46.952 130.044  15.123  1.00  0.00    -0.025 A 
ATOM     16  N   UNL     1      46.121 132.321  15.115  1.00  0.00    -0.440 NA
ATOM     17  C   UNL     1      46.456 129.806  16.394  1.00  0.00     0.036 A 
ATOM     18  C   UNL     1      45.616 132.112  16.369  1.00  0.00     0.006 A 
ENDBRANCH   9  10
ENDBRANCH   1   9
BRANCH   2  19
ATOM     19  N   UNL     1      45.368 131.207  21.108  1.00  0.00    -0.396 N 
ATOM     20  H   UNL     1      45.334 131.284  22.149  1.00  0.00     0.156 HD
ATOM     21  H   UNL     1      46.240 130.825  20.678  1.00  0.00     0.156 HD
ENDBRANCH   2  19
TORSDOF 3
ENDMDL
MODEL 4
REMARK VINA RESULT:      -8.8      3.042      6.598
REMARK SMILES Nc1cc(F)c[nH]/c1=N\c1c[n-]c2nccc-2c1
REMARK SMILES IDX 8 1 2 2 3 3 4 4 5 5 6 6 7 7 9 9 10 10 15 11 14 12 16 13
REMARK SMILES IDX 13 14 17 15 12 16 18 17 11 18 1 19
REMARK H PARENT 7 8 1 20 1 21
ROOT
ATOM      1  C   UNL     1      45.537 130.917  15.107  1.00  0.00     0.154 A 
ATOM      2  C   UNL     1      45.860 129.551  14.958  1.00  0.00     0.078 A 
ATOM      3  C   UNL     1      46.997 129.196  14.223  1.00  0.00     0.070 A 
ATOM      4  C   UNL     1      47.787 130.182  13.637  1.00  0.00     0.141 A 
ATOM      5  F   UNL     1      48.888 129.841  12.922  1.00  0.00    -0.205 F 
ATOM      6  C   UNL     1      47.429 131.520  13.782  1.00  0.00     0.123 A 
ATOM      7  N   UNL     1      46.323 131.862  14.497  1.00  0.00    -0.342 N 
ATOM      8  H   UNL     1      46.077 132.875  14.530  1.00  0.00     0.168 HD
ENDROOT
BRANCH   1   9
ATOM      9  N   UNL     1      44.476 131.248  15.792  1.00  0.00    -0.230 NA
BRANCH   9  10
ATOM     10  C   UNL     1      44.338 131.298  17.220  1.00  0.00     0.062 A 
ATOM     11  C   UNL     1      42.786 132.155  21.357  1.00  0.00    -0.022 A 
ATOM     12  N   UNL     1      44.041 131.637  21.287  1.00  0.00    -0.442 NA
ATOM     13  C   UNL     1      42.201 132.329  20.100  1.00  0.00     0.003 A 
ATOM     14  C   UNL     1      44.257 131.472  19.973  1.00  0.00    -0.052 A 
ATOM     15  C   UNL     1      43.138 131.890  19.200  1.00  0.00    -0.025 A 
ATOM     16  N   UNL     1      45.386 131.007  19.394  1.00  0.00    -0.440 NA
ATOM     17  C   UNL     1      43.168 131.822  17.817  1.00  0.00     0.036 A 
ATOM     18  C   UNL     1      45.442 130.923  18.030  1.00  0.00     0.006 A 
ENDBRANCH   9  10
ENDBRANCH   1   9
BRANCH   2  19
ATOM     19  N   UNL     1      45.056 128.524  15.555  1.00  0.00    -0.396 N 
ATOM     20  H   UNL     1      44.437 128.719  16.373  1.00  0.00     0.156 HD
ATOM     21  H   UNL     1      45.073 127.550  15.179  1.00  0.00     0.156 HD
ENDBRANCH   2  19
TORSDOF 3
ENDMDL
MODEL 5
REMARK VINA RESULT:      -8.7      2.801      6.464
REMARK SMILES Nc1cc(F)c[nH]/c1=N\c1c[n-]c2nccc-2c1
REMARK SMILES IDX 8 1 2 2 3 3 4 4 5 5 6 6 7 7 9 9 10 10 15 11 14 12 16 13
REMARK SMILES IDX 13 14 17 15 12 16 18 17 11 18 1 19
REMARK H PARENT 7 8 1 20 1 21
ROOT
ATOM      1  C   UNL     1      44.903 130.879  15.756  1.00  0.00     0.154 A 
ATOM      2  C   UNL     1      45.993 131.636  15.275  1.00  0.00     0.078 A 
ATOM      3  C   UNL     1      47.037 130.980  14.612  1.00  0.00     0.070 A 
ATOM      4  C   UNL     1      47.002 129.598  14.446  1.00  0.00     0.141 A 
ATOM      5  F   UNL     1      48.014 128.960  13.806  1.00  0.00    -0.205 F 
ATOM      6  C   UNL     1      45.925 128.877  14.953  1.00  0.00     0.123 A 
ATOM      7  N   UNL     1      44.911 129.516  15.596  1.00  0.00    -0.342 N 
ATOM      8  H   UNL     1      44.155 128.919  15.997  1.00  0.00     0.168 HD
ENDROOT
BRANCH   1   9
ATOM      9  N   UNL     1      43.929 131.490  16.375  1.00  0.00    -0.230 NA
BRANCH   9  10
ATOM     10  C   UNL     1      43.733 131.609  17.792  1.00  0.00     0.062 A 
ATOM     11  C   UNL     1      44.359 131.415  22.245  1.00  0.00    -0.022 A 
ATOM     12  N   UNL     1      43.106 131.743  21.834  1.00  0.00    -0.442 NA
ATOM     13  C   UNL     1      45.238 131.194  21.181  1.00  0.00     0.003 A 
ATOM     14  C   UNL     1      43.186 131.738  20.494  1.00  0.00    -0.052 A 
ATOM     15  C   UNL     1      44.495 131.401  20.047  1.00  0.00    -0.025 A 
ATOM     16  N   UNL     1      42.179 131.977  19.625  1.00  0.00    -0.440 NA
ATOM     17  C   UNL     1      44.782 131.319  18.695  1.00  0.00     0.036 A 
ATOM     18  C   UNL     1      42.435 131.910  18.283  1.00  0.00     0.006 A 
ENDBRANCH   9  10
ENDBRANCH   1   9
BRANCH   2  19
ATOM     19  N   UNL     1      46.044 133.059  15.439  1.00  0.00    -0.396 N 
ATOM     20  H   UNL     1      45.706 133.710  14.695  1.00  0.00     0.156 HD
ATOM     21  H   UNL     1      46.425 133.480  16.316  1.00  0.00     0.156 HD
ENDBRANCH   2  19
TORSDOF 3
ENDMDL
MODEL 6
REMARK VINA RESULT:      -8.3      2.779      6.603
REMARK SMILES Nc1cc(F)c[nH]/c1=N\c1c[n-]c2nccc-2c1
REMARK SMILES IDX 8 1 2 2 3 3 4 4 5 5 6 6 7 7 9 9 10 10 15 11 14 12 16 13
REMARK SMILES IDX 13 14 17 15 12 16 18 17 11 18 1 19
REMARK H PARENT 7 8 1 20 1 21
ROOT
ATOM      1  C   UNL     1      45.200 130.832  16.020  1.00  0.00     0.154 A 
ATOM      2  C   UNL     1      46.090 131.663  15.306  1.00  0.00     0.078 A 
ATOM      3  C   UNL     1      47.012 131.079  14.429  1.00  0.00     0.070 A 
ATOM      4  C   UNL     1      47.053 129.696  14.277  1.00  0.00     0.141 A 
ATOM      5  F   UNL     1      47.946 129.127  13.429  1.00  0.00    -0.205 F 
ATOM      6  C   UNL     1      46.178 128.901  15.013  1.00  0.00     0.123 A 
ATOM      7  N   UNL     1      45.283 129.471  15.865  1.00  0.00    -0.342 N 
ATOM      8  H   UNL     1      44.687 128.824  16.425  1.00  0.00     0.168 HD
ENDROOT
BRANCH   1   9
ATOM      9  N   UNL     1      44.341 131.376  16.839  1.00  0.00    -0.230 NA
BRANCH   9  10
ATOM     10  C   UNL     1      44.341 131.313  18.273  1.00  0.00     0.062 A 
ATOM     11  C   UNL     1      43.185 131.818  22.594  1.00  0.00    -0.022 A 
ATOM     12  N   UNL     1      44.434 131.332  22.364  1.00  0.00    -0.442 NA
ATOM     13  C   UNL     1      42.480 132.077  21.415  1.00  0.00     0.003 A 
ATOM     14  C   UNL     1      44.524 131.273  21.027  1.00  0.00    -0.052 A 
ATOM     15  C   UNL     1      43.331 131.727  20.398  1.00  0.00    -0.025 A 
ATOM     16  N   UNL     1      45.598 130.876  20.308  1.00  0.00    -0.440 NA
ATOM     17  C   UNL     1      43.227 131.766  19.018  1.00  0.00     0.036 A 
ATOM     18  C   UNL     1      45.523 130.899  18.942  1.00  0.00     0.006 A 
ENDBRANCH   9  10
ENDBRANCH   1   9
BRANCH   2  19
ATOM     19  N   UNL     1      46.060 133.089  15.453  1.00  0.00    -0.396 N 
ATOM     20  H   UNL     1      46.714 133.588  16.097  1.00  0.00     0.156 HD
ATOM     21  H   UNL     1      45.377 133.665  14.912  1.00  0.00     0.156 HD
ENDBRANCH   2  19
TORSDOF 3
ENDMDL
MODEL 7
REMARK VINA RESULT:      -8.0      0.877      1.770
REMARK SMILES Nc1cc(F)c[nH]/c1=N\c1c[n-]c2nccc-2c1
REMARK SMILES IDX 8 1 2 2 3 3 4 4 5 5 6 6 7 7 9 9 10 10 15 11 14 12 16 13
REMARK SMILES IDX 13 14 17 15 12 16 18 17 11 18 1 19
REMARK H PARENT 7 8 1 20 1 21
ROOT
ATOM      1  C   UNL     1      43.447 131.776  17.733  1.00  0.00     0.154 A 
ATOM      2  C   UNL     1      44.486 131.460  18.635  1.00  0.00     0.078 A 
ATOM      3  C   UNL     1      44.263 131.607  20.009  1.00  0.00     0.070 A 
ATOM      4  C   UNL     1      43.035 132.072  20.473  1.00  0.00     0.141 A 
ATOM      5  F   UNL     1      42.817 132.217  21.803  1.00  0.00    -0.205 F 
ATOM      6  C   UNL     1      42.038 132.397  19.557  1.00  0.00     0.123 A 
ATOM      7  N   UNL     1      42.258 132.254  18.222  1.00  0.00    -0.342 N 
ATOM      8  H   UNL     1      41.492 132.560  17.582  1.00  0.00     0.168 HD
ENDROOT
BRANCH   1   9
ATOM      9  N   UNL     1      43.655 131.640  16.451  1.00  0.00    -0.230 NA
BRANCH   9  10
ATOM     10  C   UNL     1      44.768 131.001  15.810  1.00  0.00     0.062 A 
ATOM     11  C   UNL     1      48.302 130.190  13.142  1.00  0.00    -0.022 A 
ATOM     12  N   UNL     1      47.808 129.118  13.818  1.00  0.00    -0.442 NA
ATOM     13  C   UNL     1      47.601 131.369  13.409  1.00  0.00     0.003 A 
ATOM     14  C   UNL     1      46.787 129.620  14.529  1.00  0.00    -0.052 A 
ATOM     15  C   UNL     1      46.623 131.016  14.303  1.00  0.00    -0.025 A 
ATOM     16  N   UNL     1      45.958 128.931  15.345  1.00  0.00    -0.440 NA
ATOM     17  C   UNL     1      45.608 131.720  14.927  1.00  0.00     0.036 A 
ATOM     18  C   UNL     1      44.948 129.602  15.980  1.00  0.00     0.006 A 
ENDBRANCH   9  10
ENDBRANCH   1   9
BRANCH   2  19
ATOM     19  N   UNL     1      45.756 130.982  18.173  1.00  0.00    -0.396 N 
ATOM     20  H   UNL     1      46.014 129.971  18.226  1.00  0.00     0.156 HD
ATOM     21  H   UNL     1      46.459 131.641  17.770  1.00  0.00     0.156 HD
ENDBRANCH   2  19
TORSDOF 3
ENDMDL
MODEL 8
REMARK VINA RESULT:      -8.0      2.824      6.489
REMARK SMILES Nc1cc(F)c[nH]/c1=N\c1c[n-]c2nccc-2c1
REMARK SMILES IDX 8 1 2 2 3 3 4 4 5 5 6 6 7 7 9 9 10 10 15 11 14 12 16 13
REMARK SMILES IDX 13 14 17 15 12 16 18 17 11 18 1 19
REMARK H PARENT 7 8 1 20 1 21
ROOT
ATOM      1  C   UNL     1      44.600 131.136  16.113  1.00  0.00     0.154 A 
ATOM      2  C   UNL     1      44.571 131.139  14.702  1.00  0.00     0.078 A 
ATOM      3  C   UNL     1      45.627 130.548  13.998  1.00  0.00     0.070 A 
ATOM      4  C   UNL     1      46.694 129.978  14.686  1.00  0.00     0.141 A 
ATOM      5  F   UNL     1      47.719 129.406  14.007  1.00  0.00    -0.205 F 
ATOM      6  C   UNL     1      46.705 130.011  16.078  1.00  0.00     0.123 A 
ATOM      7  N   UNL     1      45.678 130.587  16.760  1.00  0.00    -0.342 N 
ATOM      8  H   UNL     1      45.765 130.626  17.799  1.00  0.00     0.168 HD
ENDROOT
BRANCH   1   9
ATOM      9  N   UNL     1      43.616 131.689  16.770  1.00  0.00    -0.230 NA
BRANCH   9  10
ATOM     10  C   UNL     1      43.456 131.774  18.193  1.00  0.00     0.062 A 
ATOM     11  C   UNL     1      44.142 131.376  22.624  1.00  0.00    -0.022 A 
ATOM     12  N   UNL     1      42.911 131.817  22.249  1.00  0.00    -0.442 NA
ATOM     13  C   UNL     1      44.981 131.123  21.535  1.00  0.00     0.003 A 
ATOM     14  C   UNL     1      42.968 131.852  20.909  1.00  0.00    -0.052 A 
ATOM     15  C   UNL     1      44.237 131.428  20.425  1.00  0.00    -0.025 A 
ATOM     16  N   UNL     1      41.968 132.201  20.069  1.00  0.00    -0.440 NA
ATOM     17  C   UNL     1      44.494 131.371  19.065  1.00  0.00     0.036 A 
ATOM     18  C   UNL     1      42.194 132.160  18.720  1.00  0.00     0.006 A 
ENDBRANCH   9  10
ENDBRANCH   1   9
BRANCH   2  19
ATOM     19  N   UNL     1      43.479 131.723  13.978  1.00  0.00    -0.396 N 
ATOM     20  H   UNL     1      43.559 131.962  12.964  1.00  0.00     0.156 HD
ATOM     21  H   UNL     1      42.572 131.924  14.455  1.00  0.00     0.156 HD
ENDBRANCH   2  19
TORSDOF 3
ENDMDL
MODEL 9
REMARK VINA RESULT:      -7.9      1.086      1.520
REMARK SMILES Nc1cc(F)c[nH]/c1=N\c1c[n-]c2nccc-2c1
REMARK SMILES IDX 8 1 2 2 3 3 4 4 5 5 6 6 7 7 9 9 10 10 15 11 14 12 16 13
REMARK SMILES IDX 13 14 17 15 12 16 18 17 11 18 1 19
REMARK H PARENT 7 8 1 20 1 21
ROOT
ATOM      1  C   UNL     1      44.108 131.397  18.503  1.00  0.00     0.154 A 
ATOM      2  C   UNL     1      43.089 131.982  19.283  1.00  0.00     0.078 A 
ATOM      3  C   UNL     1      43.263 132.078  20.669  1.00  0.00     0.070 A 
ATOM      4  C   UNL     1      44.422 131.588  21.264  1.00  0.00     0.141 A 
ATOM      5  F   UNL     1      44.593 131.677  22.607  1.00  0.00    -0.205 F 
ATOM      6  C   UNL     1      45.399 130.994  20.469  1.00  0.00     0.123 A 
ATOM      7  N   UNL     1      45.228 130.902  19.122  1.00  0.00    -0.342 N 
ATOM      8  H   UNL     1      45.970 130.404  18.585  1.00  0.00     0.168 HD
ENDROOT
BRANCH   1   9
ATOM      9  N   UNL     1      43.946 131.306  17.210  1.00  0.00    -0.230 NA
BRANCH   9  10
ATOM     10  C   UNL     1      44.966 131.194  16.207  1.00  0.00     0.062 A 
ATOM     11  C   UNL     1      48.172 129.554  13.507  1.00  0.00    -0.022 A 
ATOM     12  N   UNL     1      48.025 130.906  13.504  1.00  0.00    -0.442 NA
ATOM     13  C   UNL     1      47.279 128.914  14.370  1.00  0.00     0.003 A 
ATOM     14  C   UNL     1      47.023 131.130  14.368  1.00  0.00    -0.052 A 
ATOM     15  C   UNL     1      46.531 129.918  14.929  1.00  0.00    -0.025 A 
ATOM     16  N   UNL     1      46.525 132.334  14.729  1.00  0.00    -0.440 NA
ATOM     17  C   UNL     1      45.509 129.934  15.863  1.00  0.00     0.036 A 
ATOM     18  C   UNL     1      45.510 132.380  15.645  1.00  0.00     0.006 A 
ENDBRANCH   9  10
ENDBRANCH   1   9
BRANCH   2  19
ATOM     19  N   UNL     1      41.889 132.491  18.686  1.00  0.00    -0.396 N 
ATOM     20  H   UNL     1      41.709 133.517  18.604  1.00  0.00     0.156 HD
ATOM     21  H   UNL     1      41.162 131.839  18.315  1.00  0.00     0.156 HD
ENDBRANCH   2  19
TORSDOF 3
ENDMDL


