REMARK SMILES Cc1ccc(-c2ccc(NCC(C)(C)F)c(C=O)c2)cc1
REMARK SMILES IDX 10 1 9 3 6 4 7 5 19 6 8 7 16 8 5 9 2 10 3 11 21 12 4 13
REMARK SMILES IDX 20 14 1 15 17 16 18 17 11 18 12 19 13 20 14 21 15 22
REMARK H PARENT 10 2
ROOT
ATOM      1  N   UNL     1       2.961   1.383   1.034  1.00  0.00    -0.381 N 
ATOM      2  H   UNL     1       3.478   1.533   1.928  1.00  0.00     0.160 HD
ENDROOT
BRANCH   1   3
ATOM      3  C   UNL     1       1.767   0.576   1.055  1.00  0.00     0.045 A 
ATOM      4  C   UNL     1      -0.676  -0.847   1.200  1.00  0.00    -0.018 A 
ATOM      5  C   UNL     1      -0.503   0.178   0.260  1.00  0.00     0.011 A 
ATOM      6  C   UNL     1       0.389  -1.169   2.058  1.00  0.00     0.022 A 
ATOM      7  C   UNL     1       0.699   0.882   0.191  1.00  0.00     0.027 A 
ATOM      8  C   UNL     1       1.615  -0.486   1.985  1.00  0.00     0.038 A 
BRANCH   4   9
ATOM      9  C   UNL     1      -1.962  -1.586   1.282  1.00  0.00    -0.018 A 
ATOM     10  C   UNL     1      -4.410  -2.979   1.437  1.00  0.00    -0.051 A 
ATOM     11  C   UNL     1      -3.855  -2.659   0.189  1.00  0.00     0.004 A 
ATOM     12  C   UNL     1      -3.724  -2.622   2.606  1.00  0.00     0.004 A 
ATOM     13  C   UNL     1      -2.646  -1.962   0.112  1.00  0.00     0.009 A 
ATOM     14  C   UNL     1      -2.513  -1.926   2.530  1.00  0.00     0.009 A 
ATOM     15  C   UNL     1      -5.688  -3.760   1.518  1.00  0.00     0.044 C 
ENDBRANCH   4   9
BRANCH   8  16
ATOM     16  C   UNL     1       2.708  -0.954   2.866  1.00  0.00     0.262 C 
ATOM     17  O   UNL     1       3.918  -0.756   2.582  1.00  0.00    -0.298 OA
ENDBRANCH   8  16
ENDBRANCH   1   3
BRANCH   1  18
ATOM     18  C   UNL     1       3.420   2.082  -0.171  1.00  0.00     0.153 C 
BRANCH  18  19
ATOM     19  C   UNL     1       4.880   2.567  -0.039  1.00  0.00     0.122 C 
ATOM     20  C   UNL     1       5.845   1.379   0.101  1.00  0.00     0.050 C 
ATOM     21  C   UNL     1       5.264   3.400  -1.270  1.00  0.00     0.050 C 
ATOM     22  F   UNL     1       4.995   3.373   1.082  1.00  0.00    -0.243 F 
ENDBRANCH  18  19
ENDBRANCH   1  18
TORSDOF 5


