REMARK SMILES C[C@H]1NN(C(=O)C(C)(C)[NH2+]C2CC2)[C@H](c2cc3ccc(F)cc3[nH]2)O1
REMARK SMILES IDX 5 1 6 2 4 3 2 4 3 5 25 6 14 7 1 8 15 10 16 11 24 12 17 13
REMARK SMILES IDX 23 14 18 15 22 16 19 17 20 18 21 20 7 21 8 22 9 23 10 24
REMARK SMILES IDX 11 27 12 28 13 29
REMARK H PARENT 3 9 24 19 10 25 10 26
ROOT
ATOM      1  C   UNL     1       0.355  -1.000   0.648  1.00  0.00     0.300 C 
ATOM      2  O   UNL     1      -0.423  -1.825   1.200  1.00  0.00    -0.266 OA
ENDROOT
BRANCH   1   3
ATOM      3  N   UNL     1       0.590   0.262   1.294  1.00  0.00    -0.236 N 
ATOM      4  C   UNL     1       1.559   2.110   2.087  1.00  0.00     0.204 C 
ATOM      5  N   UNL     1       1.853   0.815   1.458  1.00  0.00    -0.201 NA
ATOM      6  O   UNL     1       0.193   2.177   2.467  1.00  0.00    -0.332 OA
ATOM      7  C   UNL     1      -0.442   1.056   1.907  1.00  0.00     0.283 C 
ATOM      8  C   UNL     1       2.447   2.370   3.306  1.00  0.00     0.058 C 
ATOM      9  H   UNL     1       2.369   0.189   2.119  1.00  0.00     0.151 HD
BRANCH   7  10
ATOM     10  C   UNL     1      -1.445   1.480   0.874  1.00  0.00     0.068 A 
ATOM     11  C   UNL     1      -1.202   2.393  -0.151  1.00  0.00     0.036 A 
ATOM     12  N   UNL     1      -2.639   0.866   0.703  1.00  0.00    -0.355 N 
ATOM     13  C   UNL     1      -2.309   2.314  -0.966  1.00  0.00     0.000 A 
ATOM     14  C   UNL     1      -3.156   1.384  -0.423  1.00  0.00     0.049 A 
ATOM     15  C   UNL     1      -2.593   2.953  -2.171  1.00  0.00     0.013 A 
ATOM     16  C   UNL     1      -4.348   1.025  -1.050  1.00  0.00     0.065 A 
ATOM     17  C   UNL     1      -3.795   2.620  -2.822  1.00  0.00     0.040 A 
ATOM     18  C   UNL     1      -4.669   1.659  -2.264  1.00  0.00     0.125 A 
ATOM     19  H   UNL     1      -3.045   0.100   1.287  1.00  0.00     0.166 HD
ATOM     20  F   UNL     1      -5.818   1.339  -2.908  1.00  0.00    -0.207 F 
ENDBRANCH   7  10
ENDBRANCH   1   3
BRANCH   1  21
ATOM     21  C   UNL     1       1.028  -1.371  -0.673  1.00  0.00     0.171 C 
ATOM     22  C   UNL     1       1.445  -0.109  -1.472  1.00  0.00     0.090 C 
ATOM     23  C   UNL     1       2.300  -2.178  -0.342  1.00  0.00     0.090 C 
BRANCH  21  24
ATOM     24  N   UNL     1       0.127  -2.215  -1.507  1.00  0.00    -0.332 N 
ATOM     25  H   UNL     1      -0.106  -3.095  -0.991  1.00  0.00     0.347 HD
ATOM     26  H   UNL     1       0.632  -2.505  -2.378  1.00  0.00     0.347 HD
BRANCH  24  27
ATOM     27  C   UNL     1      -1.151  -1.543  -1.831  1.00  0.00     0.183 C 
ATOM     28  C   UNL     1      -1.244  -0.916  -3.216  1.00  0.00     0.071 C 
ATOM     29  C   UNL     1      -1.938  -2.238  -2.933  1.00  0.00     0.071 C 
ENDBRANCH  24  27
ENDBRANCH  21  24
ENDBRANCH   1  21
TORSDOF 5


