REMARK SMILES CC(F)(F)C[N-]C(=O)CCSc1ccc([C@H]2O[C@@H]2C(=O)c2ccc(F)cc2)cc1F
REMARK SMILES IDX 10 1 9 2 7 3 8 4 6 5 5 6 2 7 1 8 3 9 4 10 11 11 12 12 13 13
REMARK SMILES IDX 29 14 14 15 28 16 15 17 30 18 16 19 17 20 18 21 19 22 20 23
REMARK SMILES IDX 21 24 22 25 27 26 23 27 26 28 24 29 25 30
REMARK H PARENT
ROOT
ATOM      1  C   UNL     1      -4.833   2.596   0.616  1.00  0.00     0.081 C 
ENDROOT
BRANCH   1   2
ATOM      2  C   UNL     1      -4.930   1.208   1.260  1.00  0.00     0.066 C 
BRANCH   2   3
ATOM      3  C   UNL     1      -5.779   0.285   0.423  1.00  0.00     0.052 C 
ATOM      4  O   UNL     1      -6.987   0.588   0.227  1.00  0.00    -0.320 OA
BRANCH   3   5
ATOM      5  N   UNL     1      -5.284  -0.942  -0.137  1.00  0.00    -0.649 NA
BRANCH   5   6
ATOM      6  C   UNL     1      -3.931  -1.483  -0.028  1.00  0.00    -0.040 C 
BRANCH   6   7
ATOM      7  C   UNL     1      -3.010  -0.890  -1.104  1.00  0.00     0.229 C 
ATOM      8  C   UNL     1      -1.600  -1.466  -0.988  1.00  0.00     0.085 C 
ATOM      9  F   UNL     1      -3.517  -1.188  -2.358  1.00  0.00    -0.209 F 
ATOM     10  F   UNL     1      -2.938   0.483  -0.972  1.00  0.00    -0.209 F 
ENDBRANCH   6   7
ENDBRANCH   5   6
ENDBRANCH   3   5
ENDBRANCH   2   3
ENDBRANCH   1   2
BRANCH   1  11
ATOM     11  S   UNL     1      -3.710   3.692   1.559  1.00  0.00    -0.123 SA
BRANCH  11  12
ATOM     12  C   UNL     1      -2.196   3.005   0.872  1.00  0.00     0.043 A 
ATOM     13  C   UNL     1      -1.489   2.032   1.586  1.00  0.00     0.018 A 
ATOM     14  C   UNL     1      -1.726   3.428  -0.380  1.00  0.00     0.137 A 
ATOM     15  C   UNL     1      -0.343   1.452   1.038  1.00  0.00     0.008 A 
ATOM     16  C   UNL     1      -0.579   2.847  -0.930  1.00  0.00     0.047 A 
ATOM     17  C   UNL     1       0.121   1.860  -0.223  1.00  0.00    -0.013 A 
ATOM     18  F   UNL     1      -2.400   4.371  -1.085  1.00  0.00    -0.206 F 
BRANCH  17  19
ATOM     19  C   UNL     1       1.307   1.189  -0.850  1.00  0.00     0.186 C 
ATOM     20  O   UNL     1       2.299   2.131  -1.187  1.00  0.00    -0.356 OA
ATOM     21  C   UNL     1       2.591   1.272  -0.109  1.00  0.00     0.224 C 
BRANCH  21  22
ATOM     22  C   UNL     1       3.627   0.258  -0.494  1.00  0.00     0.194 C 
ATOM     23  O   UNL     1       4.649   0.649  -1.124  1.00  0.00    -0.291 OA
BRANCH  22  24
ATOM     24  C   UNL     1       3.491  -1.174  -0.121  1.00  0.00     0.021 A 
ATOM     25  C   UNL     1       4.312  -2.143  -0.730  1.00  0.00     0.015 A 
ATOM     26  C   UNL     1       2.551  -1.590   0.845  1.00  0.00     0.015 A 
ATOM     27  C   UNL     1       4.190  -3.493  -0.383  1.00  0.00     0.040 A 
ATOM     28  C   UNL     1       2.431  -2.941   1.187  1.00  0.00     0.040 A 
ATOM     29  C   UNL     1       3.250  -3.893   0.573  1.00  0.00     0.123 A 
ATOM     30  F   UNL     1       3.140  -5.201   0.915  1.00  0.00    -0.207 F 
ENDBRANCH  22  24
ENDBRANCH  21  22
ENDBRANCH  17  19
ENDBRANCH  11  12
ENDBRANCH   1  11
TORSDOF 10


