MODEL 1
REMARK VINA RESULT:      -9.5      0.000      0.000
REMARK SMILES Cc1c(F)c(F)c(CCC(O)=C2CCC2)c(N)c1Nc1ccc(F)cc1
REMARK SMILES IDX 8 1 7 2 2 3 3 4 18 5 5 6 16 7 1 8 4 9 6 10 19 11 20 13 21 14
REMARK SMILES IDX 26 15 22 16 25 17 23 18 24 19 17 20 9 23 10 24 11 25 12 27
REMARK SMILES IDX 13 28 15 29 14 30
REMARK H PARENT 19 12 17 21 17 22 11 26
ROOT
ATOM      1  C   UNL     1      45.901 130.592  17.665  1.00  0.00     0.049 C 
ENDROOT
BRANCH   1   2
ATOM      2  C   UNL     1      44.949 130.985  18.780  1.00  0.00     0.016 A 
ATOM      3  C   UNL     1      43.117 131.769  20.786  1.00  0.00     0.013 A 
ATOM      4  C   UNL     1      42.940 132.182  19.459  1.00  0.00     0.164 A 
ATOM      5  C   UNL     1      44.256 131.007  21.129  1.00  0.00     0.068 A 
ATOM      6  C   UNL     1      43.839 131.790  18.468  1.00  0.00     0.164 A 
ATOM      7  C   UNL     1      45.173 130.605  20.130  1.00  0.00     0.062 A 
ATOM      8  C   UNL     1      42.113 132.186  21.830  1.00  0.00     0.050 C 
ATOM      9  F   UNL     1      41.884 132.964  19.116  1.00  0.00    -0.203 F 
ATOM     10  F   UNL     1      43.623 132.208  17.194  1.00  0.00    -0.203 F 
BRANCH   5  11
ATOM     11  N   UNL     1      44.467 130.603  22.492  1.00  0.00    -0.354 N 
ATOM     12  H   UNL     1      44.925 131.293  23.131  1.00  0.00     0.167 HD
BRANCH  11  13
ATOM     13  C   UNL     1      44.000 129.355  23.038  1.00  0.00     0.039 A 
ATOM     14  C   UNL     1      42.724 129.236  23.624  1.00  0.00     0.029 A 
ATOM     15  C   UNL     1      44.842 128.232  23.004  1.00  0.00     0.029 A 
ATOM     16  C   UNL     1      42.302 128.013  24.153  1.00  0.00     0.041 A 
ATOM     17  C   UNL     1      44.415 127.011  23.536  1.00  0.00     0.041 A 
ATOM     18  C   UNL     1      43.146 126.901  24.110  1.00  0.00     0.123 A 
ATOM     19  F   UNL     1      42.735 125.716  24.624  1.00  0.00    -0.207 F 
ENDBRANCH  11  13
ENDBRANCH   5  11
BRANCH   7  20
ATOM     20  N   UNL     1      46.337 129.844  20.505  1.00  0.00    -0.397 N 
ATOM     21  H   UNL     1      46.758 129.139  19.861  1.00  0.00     0.156 HD
ATOM     22  H   UNL     1      46.786 129.924  21.441  1.00  0.00     0.156 HD
ENDBRANCH   7  20
ENDBRANCH   1   2
BRANCH   1  23
ATOM     23  C   UNL     1      45.237 130.669  16.283  1.00  0.00     0.079 C 
BRANCH  23  24
ATOM     24  C   UNL     1      46.089 131.428  15.304  1.00  0.00     0.092 C 
BRANCH  24  25
ATOM     25  O   UNL     1      46.040 132.821  15.305  1.00  0.00    -0.512 OA
ATOM     26  H   UNL     1      45.220 133.327  15.618  1.00  0.00     0.293 HD
ENDBRANCH  24  25
BRANCH  24  27
ATOM     27  C   UNL     1      46.905 130.786  14.467  1.00  0.00    -0.033 C 
ATOM     28  C   UNL     1      47.628 131.086  13.169  1.00  0.00     0.035 C 
ATOM     29  C   UNL     1      47.565 129.423  14.371  1.00  0.00     0.035 C 
ATOM     30  C   UNL     1      48.271 129.739  13.094  1.00  0.00     0.009 C 
ENDBRANCH  24  27
ENDBRANCH  23  24
ENDBRANCH   1  23
TORSDOF 8
ENDMDL
MODEL 2
REMARK VINA RESULT:      -9.5      0.874      1.243
REMARK SMILES Cc1c(F)c(F)c(CCC(O)=C2CCC2)c(N)c1Nc1ccc(F)cc1
REMARK SMILES IDX 8 1 7 2 2 3 3 4 18 5 5 6 16 7 1 8 4 9 6 10 19 11 20 13 21 14
REMARK SMILES IDX 26 15 22 16 25 17 23 18 24 19 17 20 9 23 10 24 11 25 12 27
REMARK SMILES IDX 13 28 15 29 14 30
REMARK H PARENT 19 12 17 21 17 22 11 26
ROOT
ATOM      1  C   UNL     1      45.297 131.295  17.382  1.00  0.00     0.049 C 
ENDROOT
BRANCH   1   2
ATOM      2  C   UNL     1      44.539 131.411  18.691  1.00  0.00     0.016 A 
ATOM      3  C   UNL     1      43.046 131.671  21.078  1.00  0.00     0.013 A 
ATOM      4  C   UNL     1      42.545 132.167  19.867  1.00  0.00     0.164 A 
ATOM      5  C   UNL     1      44.335 131.093  21.111  1.00  0.00     0.068 A 
ATOM      6  C   UNL     1      43.278 132.032  18.689  1.00  0.00     0.164 A 
ATOM      7  C   UNL     1      45.085 130.954  19.920  1.00  0.00     0.062 A 
ATOM      8  C   UNL     1      42.219 131.807  22.331  1.00  0.00     0.050 C 
ATOM      9  F   UNL     1      41.334 132.779  19.822  1.00  0.00    -0.203 F 
ATOM     10  F   UNL     1      42.749 132.520  17.536  1.00  0.00    -0.203 F 
BRANCH   5  11
ATOM     11  N   UNL     1      44.874 130.609  22.352  1.00  0.00    -0.354 N 
ATOM     12  H   UNL     1      45.459 131.272  22.912  1.00  0.00     0.167 HD
BRANCH  11  13
ATOM     13  C   UNL     1      44.576 129.313  22.903  1.00  0.00     0.039 A 
ATOM     14  C   UNL     1      45.095 128.132  22.337  1.00  0.00     0.029 A 
ATOM     15  C   UNL     1      43.732 129.218  24.021  1.00  0.00     0.029 A 
ATOM     16  C   UNL     1      44.781 126.887  22.889  1.00  0.00     0.041 A 
ATOM     17  C   UNL     1      43.420 127.971  24.569  1.00  0.00     0.041 A 
ATOM     18  C   UNL     1      43.944 126.805  24.004  1.00  0.00     0.123 A 
ATOM     19  F   UNL     1      43.639 125.597  24.538  1.00  0.00    -0.207 F 
ENDBRANCH  11  13
ENDBRANCH   5  11
BRANCH   7  20
ATOM     20  N   UNL     1      46.403 130.378  19.980  1.00  0.00    -0.397 N 
ATOM     21  H   UNL     1      46.824 129.893  19.158  1.00  0.00     0.156 HD
ATOM     22  H   UNL     1      46.980 130.377  20.847  1.00  0.00     0.156 HD
ENDBRANCH   7  20
ENDBRANCH   1   2
BRANCH   1  23
ATOM     23  C   UNL     1      44.421 130.736  16.252  1.00  0.00     0.079 C 
BRANCH  23  24
ATOM     24  C   UNL     1      44.919 131.170  14.902  1.00  0.00     0.092 C 
BRANCH  24  25
ATOM     25  O   UNL     1      44.197 132.128  14.192  1.00  0.00    -0.512 OA
ATOM     26  H   UNL     1      44.561 133.060  14.031  1.00  0.00     0.293 HD
ENDBRANCH  24  25
BRANCH  24  27
ATOM     27  C   UNL     1      46.051 130.674  14.399  1.00  0.00    -0.033 C 
ATOM     28  C   UNL     1      47.061 131.063  13.338  1.00  0.00     0.035 C 
ATOM     29  C   UNL     1      46.945 129.469  14.627  1.00  0.00     0.035 C 
ATOM     30  C   UNL     1      47.931 129.872  13.580  1.00  0.00     0.009 C 
ENDBRANCH  24  27
ENDBRANCH  23  24
ENDBRANCH   1  23
TORSDOF 8
ENDMDL
MODEL 3
REMARK VINA RESULT:      -9.4      1.199      1.315
REMARK SMILES Cc1c(F)c(F)c(CCC(O)=C2CCC2)c(N)c1Nc1ccc(F)cc1
REMARK SMILES IDX 8 1 7 2 2 3 3 4 18 5 5 6 16 7 1 8 4 9 6 10 19 11 20 13 21 14
REMARK SMILES IDX 26 15 22 16 25 17 23 18 24 19 17 20 9 23 10 24 11 25 12 27
REMARK SMILES IDX 13 28 15 29 14 30
REMARK H PARENT 19 12 17 21 17 22 11 26
ROOT
ATOM      1  C   UNL     1      45.174 131.520  17.593  1.00  0.00     0.049 C 
ENDROOT
BRANCH   1   2
ATOM      2  C   UNL     1      44.451 131.547  18.927  1.00  0.00     0.016 A 
ATOM      3  C   UNL     1      43.023 131.644  21.365  1.00  0.00     0.013 A 
ATOM      4  C   UNL     1      42.486 132.212  20.202  1.00  0.00     0.164 A 
ATOM      5  C   UNL     1      44.315 131.075  21.326  1.00  0.00     0.068 A 
ATOM      6  C   UNL     1      43.186 132.158  18.998  1.00  0.00     0.164 A 
ATOM      7  C   UNL     1      45.033 131.017  20.109  1.00  0.00     0.062 A 
ATOM      8  C   UNL     1      42.229 131.694  22.646  1.00  0.00     0.050 C 
ATOM      9  F   UNL     1      41.270 132.816  20.229  1.00  0.00    -0.203 F 
ATOM     10  F   UNL     1      42.624 132.714  17.894  1.00  0.00    -0.203 F 
BRANCH   5  11
ATOM     11  N   UNL     1      44.891 130.518  22.519  1.00  0.00    -0.354 N 
ATOM     12  H   UNL     1      45.526 131.133  23.077  1.00  0.00     0.167 HD
BRANCH  11  13
ATOM     13  C   UNL     1      44.567 129.211  23.028  1.00  0.00     0.039 A 
ATOM     14  C   UNL     1      43.729 129.040  24.148  1.00  0.00     0.029 A 
ATOM     15  C   UNL     1      45.114 128.076  22.408  1.00  0.00     0.029 A 
ATOM     16  C   UNL     1      43.440 127.758  24.625  1.00  0.00     0.041 A 
ATOM     17  C   UNL     1      44.822 126.796  22.889  1.00  0.00     0.041 A 
ATOM     18  C   UNL     1      43.985 126.637  23.997  1.00  0.00     0.123 A 
ATOM     19  F   UNL     1      43.704 125.394  24.460  1.00  0.00    -0.207 F 
ENDBRANCH  11  13
ENDBRANCH   5  11
BRANCH   7  20
ATOM     20  N   UNL     1      46.356 130.449  20.097  1.00  0.00    -0.397 N 
ATOM     21  H   UNL     1      47.066 130.737  19.389  1.00  0.00     0.156 HD
ATOM     22  H   UNL     1      46.655 129.700  20.755  1.00  0.00     0.156 HD
ENDBRANCH   7  20
ENDBRANCH   1   2
BRANCH   1  23
ATOM     23  C   UNL     1      45.937 130.206  17.374  1.00  0.00     0.079 C 
BRANCH  23  24
ATOM     24  C   UNL     1      45.751 129.687  15.975  1.00  0.00     0.092 C 
BRANCH  24  25
ATOM     25  O   UNL     1      44.792 128.702  15.743  1.00  0.00    -0.512 OA
ATOM     26  H   UNL     1      44.147 128.404  16.464  1.00  0.00     0.293 HD
ENDBRANCH  24  25
BRANCH  24  27
ATOM     27  C   UNL     1      46.465 130.180  14.962  1.00  0.00    -0.033 C 
ATOM     28  C   UNL     1      46.494 131.451  14.137  1.00  0.00     0.035 C 
ATOM     29  C   UNL     1      47.639 129.748  14.104  1.00  0.00     0.035 C 
ATOM     30  C   UNL     1      47.654 131.009  13.305  1.00  0.00     0.009 C 
ENDBRANCH  24  27
ENDBRANCH  23  24
ENDBRANCH   1  23
TORSDOF 8
ENDMDL
MODEL 4
REMARK VINA RESULT:      -9.0      1.057      1.323
REMARK SMILES Cc1c(F)c(F)c(CCC(O)=C2CCC2)c(N)c1Nc1ccc(F)cc1
REMARK SMILES IDX 8 1 7 2 2 3 3 4 18 5 5 6 16 7 1 8 4 9 6 10 19 11 20 13 21 14
REMARK SMILES IDX 26 15 22 16 25 17 23 18 24 19 17 20 9 23 10 24 11 25 12 27
REMARK SMILES IDX 13 28 15 29 14 30
REMARK H PARENT 19 12 17 21 17 22 11 26
ROOT
ATOM      1  C   UNL     1      45.144 131.676  17.844  1.00  0.00     0.049 C 
ENDROOT
BRANCH   1   2
ATOM      2  C   UNL     1      44.449 131.590  19.191  1.00  0.00     0.016 A 
ATOM      3  C   UNL     1      43.078 131.490  21.662  1.00  0.00     0.013 A 
ATOM      4  C   UNL     1      42.569 132.242  20.594  1.00  0.00     0.164 A 
ATOM      5  C   UNL     1      44.318 130.828  21.515  1.00  0.00     0.068 A 
ATOM      6  C   UNL     1      43.241 132.287  19.374  1.00  0.00     0.164 A 
ATOM      7  C   UNL     1      45.006 130.869  20.280  1.00  0.00     0.062 A 
ATOM      8  C   UNL     1      42.315 131.439  22.961  1.00  0.00     0.050 C 
ATOM      9  F   UNL     1      41.409 132.933  20.731  1.00  0.00    -0.203 F 
ATOM     10  F   UNL     1      42.707 133.023  18.365  1.00  0.00    -0.203 F 
BRANCH   5  11
ATOM     11  N   UNL     1      44.867 130.079  22.611  1.00  0.00    -0.354 N 
ATOM     12  H   UNL     1      45.472 130.596  23.290  1.00  0.00     0.167 HD
BRANCH  11  13
ATOM     13  C   UNL     1      44.552 128.699  22.874  1.00  0.00     0.039 A 
ATOM     14  C   UNL     1      43.412 128.328  23.614  1.00  0.00     0.029 A 
ATOM     15  C   UNL     1      45.411 127.695  22.398  1.00  0.00     0.029 A 
ATOM     16  C   UNL     1      43.138 126.980  23.860  1.00  0.00     0.041 A 
ATOM     17  C   UNL     1      45.132 126.348  22.647  1.00  0.00     0.041 A 
ATOM     18  C   UNL     1      43.997 125.990  23.378  1.00  0.00     0.123 A 
ATOM     19  F   UNL     1      43.729 124.682  23.617  1.00  0.00    -0.207 F 
ENDBRANCH  11  13
ENDBRANCH   5  11
BRANCH   7  20
ATOM     20  N   UNL     1      46.277 130.203  20.159  1.00  0.00    -0.397 N 
ATOM     21  H   UNL     1      46.919 130.101  20.975  1.00  0.00     0.156 HD
ATOM     22  H   UNL     1      46.637 129.833  19.255  1.00  0.00     0.156 HD
ENDBRANCH   7  20
ENDBRANCH   1   2
BRANCH   1  23
ATOM     23  C   UNL     1      44.420 130.857  16.766  1.00  0.00     0.079 C 
BRANCH  23  24
ATOM     24  C   UNL     1      44.859 131.254  15.384  1.00  0.00     0.092 C 
BRANCH  24  25
ATOM     25  O   UNL     1      44.137 132.232  14.702  1.00  0.00    -0.512 OA
ATOM     26  H   UNL     1      43.467 132.829  15.174  1.00  0.00     0.293 HD
ENDBRANCH  24  25
BRANCH  24  27
ATOM     27  C   UNL     1      45.940 130.708  14.827  1.00  0.00    -0.033 C 
ATOM     28  C   UNL     1      46.951 129.634  15.178  1.00  0.00     0.035 C 
ATOM     29  C   UNL     1      46.731 130.852  13.540  1.00  0.00     0.035 C 
ATOM     30  C   UNL     1      47.714 129.788  13.902  1.00  0.00     0.009 C 
ENDBRANCH  24  27
ENDBRANCH  23  24
ENDBRANCH   1  23
TORSDOF 8
ENDMDL
MODEL 5
REMARK VINA RESULT:      -8.9      1.362      1.705
REMARK SMILES Cc1c(F)c(F)c(CCC(O)=C2CCC2)c(N)c1Nc1ccc(F)cc1
REMARK SMILES IDX 8 1 7 2 2 3 3 4 18 5 5 6 16 7 1 8 4 9 6 10 19 11 20 13 21 14
REMARK SMILES IDX 26 15 22 16 25 17 23 18 24 19 17 20 9 23 10 24 11 25 12 27
REMARK SMILES IDX 13 28 15 29 14 30
REMARK H PARENT 19 12 17 21 17 22 11 26
ROOT
ATOM      1  C   UNL     1      44.497 131.604  16.626  1.00  0.00     0.049 C 
ENDROOT
BRANCH   1   2
ATOM      2  C   UNL     1      44.017 131.683  18.063  1.00  0.00     0.016 A 
ATOM      3  C   UNL     1      43.029 131.870  20.706  1.00  0.00     0.013 A 
ATOM      4  C   UNL     1      42.261 132.322  19.625  1.00  0.00     0.164 A 
ATOM      5  C   UNL     1      44.332 131.376  20.473  1.00  0.00     0.068 A 
ATOM      6  C   UNL     1      42.744 132.223  18.322  1.00  0.00     0.164 A 
ATOM      7  C   UNL     1      44.830 131.273  19.153  1.00  0.00     0.062 A 
ATOM      8  C   UNL     1      42.469 131.965  22.103  1.00  0.00     0.050 C 
ATOM      9  F   UNL     1      41.029 132.855  19.831  1.00  0.00    -0.203 F 
ATOM     10  F   UNL     1      41.961 132.666  17.304  1.00  0.00    -0.203 F 
BRANCH   5  11
ATOM     11  N   UNL     1      45.143 130.938  21.575  1.00  0.00    -0.354 N 
ATOM     12  H   UNL     1      45.928 131.564  21.870  1.00  0.00     0.167 HD
BRANCH  11  13
ATOM     13  C   UNL     1      44.876 129.751  22.344  1.00  0.00     0.039 A 
ATOM     14  C   UNL     1      45.224 128.470  21.871  1.00  0.00     0.029 A 
ATOM     15  C   UNL     1      44.236 129.867  23.588  1.00  0.00     0.029 A 
ATOM     16  C   UNL     1      44.943 127.335  22.637  1.00  0.00     0.041 A 
ATOM     17  C   UNL     1      43.958 128.728  24.350  1.00  0.00     0.041 A 
ATOM     18  C   UNL     1      44.311 127.462  23.875  1.00  0.00     0.123 A 
ATOM     19  F   UNL     1      44.040 126.360  24.617  1.00  0.00    -0.207 F 
ENDBRANCH  11  13
ENDBRANCH   5  11
BRANCH   7  20
ATOM     20  N   UNL     1      46.167 130.783  18.940  1.00  0.00    -0.397 N 
ATOM     21  H   UNL     1      46.689 130.989  18.060  1.00  0.00     0.156 HD
ATOM     22  H   UNL     1      46.660 130.171  19.623  1.00  0.00     0.156 HD
ENDBRANCH   7  20
ENDBRANCH   1   2
BRANCH   1  23
ATOM     23  C   UNL     1      44.713 130.155  16.167  1.00  0.00     0.079 C 
BRANCH  23  24
ATOM     24  C   UNL     1      46.166 129.866  15.915  1.00  0.00     0.092 C 
BRANCH  24  25
ATOM     25  O   UNL     1      46.881 129.131  16.859  1.00  0.00    -0.512 OA
ATOM     26  H   UNL     1      47.888 129.032  16.808  1.00  0.00     0.293 HD
ENDBRANCH  24  25
BRANCH  24  27
ATOM     27  C   UNL     1      46.760 130.275  14.793  1.00  0.00    -0.033 C 
ATOM     28  C   UNL     1      46.788 131.529  13.942  1.00  0.00     0.035 C 
ATOM     29  C   UNL     1      47.738 129.717  13.775  1.00  0.00     0.035 C 
ATOM     30  C   UNL     1      47.754 130.963  12.953  1.00  0.00     0.009 C 
ENDBRANCH  24  27
ENDBRANCH  23  24
ENDBRANCH   1  23
TORSDOF 8
ENDMDL
MODEL 6
REMARK VINA RESULT:      -8.3      1.362      1.511
REMARK SMILES Cc1c(F)c(F)c(CCC(O)=C2CCC2)c(N)c1Nc1ccc(F)cc1
REMARK SMILES IDX 8 1 7 2 2 3 3 4 18 5 5 6 16 7 1 8 4 9 6 10 19 11 20 13 21 14
REMARK SMILES IDX 26 15 22 16 25 17 23 18 24 19 17 20 9 23 10 24 11 25 12 27
REMARK SMILES IDX 13 28 15 29 14 30
REMARK H PARENT 19 12 17 21 17 22 11 26
ROOT
ATOM      1  C   UNL     1      45.466 130.983  16.815  1.00  0.00     0.049 C 
ENDROOT
BRANCH   1   2
ATOM      2  C   UNL     1      44.600 131.319  18.016  1.00  0.00     0.016 A 
ATOM      3  C   UNL     1      42.912 131.974  20.187  1.00  0.00     0.013 A 
ATOM      4  C   UNL     1      42.495 132.196  18.868  1.00  0.00     0.164 A 
ATOM      5  C   UNL     1      44.211 131.476  20.429  1.00  0.00     0.068 A 
ATOM      6  C   UNL     1      43.324 131.867  17.797  1.00  0.00     0.164 A 
ATOM      7  C   UNL     1      45.060 131.140  19.348  1.00  0.00     0.062 A 
ATOM      8  C   UNL     1      41.982 132.314  21.324  1.00  0.00     0.050 C 
ATOM      9  F   UNL     1      41.272 132.728  18.614  1.00  0.00    -0.203 F 
ATOM     10  F   UNL     1      42.875 132.092  16.535  1.00  0.00    -0.203 F 
BRANCH   5  11
ATOM     11  N   UNL     1      44.664 131.272  21.778  1.00  0.00    -0.354 N 
ATOM     12  H   UNL     1      45.115 132.084  22.260  1.00  0.00     0.167 HD
BRANCH  11  13
ATOM     13  C   UNL     1      44.446 130.059  22.521  1.00  0.00     0.039 A 
ATOM     14  C   UNL     1      43.792 130.064  23.769  1.00  0.00     0.029 A 
ATOM     15  C   UNL     1      44.911 128.841  22.001  1.00  0.00     0.029 A 
ATOM     16  C   UNL     1      43.602 128.870  24.471  1.00  0.00     0.041 A 
ATOM     17  C   UNL     1      44.719 127.649  22.707  1.00  0.00     0.041 A 
ATOM     18  C   UNL     1      44.065 127.663  23.941  1.00  0.00     0.123 A 
ATOM     19  F   UNL     1      43.880 126.506  24.623  1.00  0.00    -0.207 F 
ENDBRANCH  11  13
ENDBRANCH   5  11
BRANCH   7  20
ATOM     20  N   UNL     1      46.387 130.651  19.618  1.00  0.00    -0.397 N 
ATOM     21  H   UNL     1      46.902 130.063  18.927  1.00  0.00     0.156 HD
ATOM     22  H   UNL     1      46.878 130.820  20.521  1.00  0.00     0.156 HD
ENDBRANCH   7  20
ENDBRANCH   1   2
BRANCH   1  23
ATOM     23  C   UNL     1      44.978 129.725  16.084  1.00  0.00     0.079 C 
BRANCH  23  24
ATOM     24  C   UNL     1      45.988 129.244  15.079  1.00  0.00     0.092 C 
BRANCH  24  25
ATOM     25  O   UNL     1      46.175 127.873  14.913  1.00  0.00    -0.512 OA
ATOM     26  H   UNL     1      47.097 127.469  14.796  1.00  0.00     0.293 HD
ENDBRANCH  24  25
BRANCH  24  27
ATOM     27  C   UNL     1      46.675 130.110  14.332  1.00  0.00    -0.033 C 
ATOM     28  C   UNL     1      46.910 131.607  14.297  1.00  0.00     0.035 C 
ATOM     29  C   UNL     1      47.600 130.065  13.131  1.00  0.00     0.035 C 
ATOM     30  C   UNL     1      47.822 131.542  13.115  1.00  0.00     0.009 C 
ENDBRANCH  24  27
ENDBRANCH  23  24
ENDBRANCH   1  23
TORSDOF 8
ENDMDL
MODEL 7
REMARK VINA RESULT:      -7.3      1.771      2.635
REMARK SMILES Cc1c(F)c(F)c(CCC(O)=C2CCC2)c(N)c1Nc1ccc(F)cc1
REMARK SMILES IDX 8 1 7 2 2 3 3 4 18 5 5 6 16 7 1 8 4 9 6 10 19 11 20 13 21 14
REMARK SMILES IDX 26 15 22 16 25 17 23 18 24 19 17 20 9 23 10 24 11 25 12 27
REMARK SMILES IDX 13 28 15 29 14 30
REMARK H PARENT 19 12 17 21 17 22 11 26
ROOT
ATOM      1  C   UNL     1      45.642 131.041  19.088  1.00  0.00     0.049 C 
ENDROOT
BRANCH   1   2
ATOM      2  C   UNL     1      44.806 130.905  20.347  1.00  0.00     0.016 A 
ATOM      3  C   UNL     1      43.190 130.732  22.660  1.00  0.00     0.013 A 
ATOM      4  C   UNL     1      42.966 131.736  21.708  1.00  0.00     0.164 A 
ATOM      5  C   UNL     1      44.272 129.840  22.487  1.00  0.00     0.068 A 
ATOM      6  C   UNL     1      43.759 131.817  20.565  1.00  0.00     0.164 A 
ATOM      7  C   UNL     1      45.081 129.917  21.329  1.00  0.00     0.062 A 
ATOM      8  C   UNL     1      42.299 130.652  23.874  1.00  0.00     0.050 C 
ATOM      9  F   UNL     1      41.969 132.640  21.883  1.00  0.00    -0.203 F 
ATOM     10  F   UNL     1      43.501 132.802  19.665  1.00  0.00    -0.203 F 
BRANCH   5  11
ATOM     11  N   UNL     1      44.532 128.826  23.471  1.00  0.00    -0.354 N 
ATOM     12  H   UNL     1      45.061 129.112  24.326  1.00  0.00     0.167 HD
BRANCH  11  13
ATOM     13  C   UNL     1      44.025 127.481  23.386  1.00  0.00     0.039 A 
ATOM     14  C   UNL     1      44.742 126.460  22.731  1.00  0.00     0.029 A 
ATOM     15  C   UNL     1      42.777 127.180  23.954  1.00  0.00     0.029 A 
ATOM     16  C   UNL     1      44.219 125.166  22.658  1.00  0.00     0.041 A 
ATOM     17  C   UNL     1      42.258 125.883  23.878  1.00  0.00     0.041 A 
ATOM     18  C   UNL     1      42.978 124.877  23.231  1.00  0.00     0.123 A 
ATOM     19  F   UNL     1      42.473 123.621  23.159  1.00  0.00    -0.207 F 
ENDBRANCH  11  13
ENDBRANCH   5  11
BRANCH   7  20
ATOM     20  N   UNL     1      46.190 129.010  21.183  1.00  0.00    -0.397 N 
ATOM     21  H   UNL     1      47.176 129.349  21.190  1.00  0.00     0.156 HD
ATOM     22  H   UNL     1      46.066 127.989  21.020  1.00  0.00     0.156 HD
ENDBRANCH   7  20
ENDBRANCH   1   2
BRANCH   1  23
ATOM     23  C   UNL     1      45.464 129.846  18.142  1.00  0.00     0.079 C 
BRANCH  23  24
ATOM     24  C   UNL     1      45.983 130.150  16.764  1.00  0.00     0.092 C 
BRANCH  24  25
ATOM     25  O   UNL     1      47.286 129.778  16.437  1.00  0.00    -0.512 OA
ATOM     26  H   UNL     1      48.091 130.206  16.880  1.00  0.00     0.293 HD
ENDBRANCH  24  25
BRANCH  24  27
ATOM     27  C   UNL     1      45.204 130.735  15.854  1.00  0.00    -0.033 C 
ATOM     28  C   UNL     1      45.241 130.998  14.361  1.00  0.00     0.035 C 
ATOM     29  C   UNL     1      43.858 131.435  15.814  1.00  0.00     0.035 C 
ATOM     30  C   UNL     1      43.912 131.681  14.342  1.00  0.00     0.009 C 
ENDBRANCH  24  27
ENDBRANCH  23  24
ENDBRANCH   1  23
TORSDOF 8
ENDMDL


