REMARK SMILES C=C/C(C)=C(\O)N1C[C@H](c2ccc3c(C)n[nH]c3c2)[C@H](C)C[C@@H]1F
REMARK SMILES IDX 5 1 6 2 3 4 4 5 2 6 1 7 7 8 8 9 23 10 9 11 22 12 20 13 24 14
REMARK SMILES IDX 21 15 10 16 11 17 19 18 12 19 18 20 13 21 17 22 14 23 16 24
REMARK SMILES IDX 15 26
REMARK H PARENT 6 3 17 25
ROOT
ATOM      1  C   UNL     1      -3.402   0.265  -0.820  1.00  0.00     0.192 C 
ENDROOT
BRANCH   1   2
ATOM      2  O   UNL     1      -4.347   0.155   0.200  1.00  0.00    -0.494 OA
ATOM      3  H   UNL     1      -4.176   0.548   1.118  1.00  0.00     0.295 HD
ENDBRANCH   1   2
BRANCH   1   4
ATOM      4  C   UNL     1      -3.639  -0.293  -2.026  1.00  0.00     0.008 C 
ATOM      5  C   UNL     1      -2.639  -0.146  -3.151  1.00  0.00     0.050 C 
BRANCH   4   6
ATOM      6  C   UNL     1      -4.883  -1.082  -2.237  1.00  0.00     0.001 C 
ATOM      7  C   UNL     1      -5.019  -1.987  -3.207  1.00  0.00     0.009 C 
ENDBRANCH   4   6
ENDBRANCH   1   4
BRANCH   1   8
ATOM      8  N   UNL     1      -2.178   0.971  -0.558  1.00  0.00    -0.312 N 
ATOM      9  C   UNL     1      -0.969   0.204  -0.243  1.00  0.00     0.131 C 
ATOM     10  C   UNL     1      -2.241   2.384  -0.169  1.00  0.00     0.265 C 
ATOM     11  C   UNL     1       0.269   0.936  -0.797  1.00  0.00     0.042 C 
ATOM     12  C   UNL     1      -0.996   3.135  -0.668  1.00  0.00     0.064 C 
ATOM     13  C   UNL     1       0.328   2.414  -0.323  1.00  0.00    -0.000 C 
ATOM     14  F   UNL     1      -2.350   2.490   1.206  1.00  0.00    -0.224 F 
ATOM     15  C   UNL     1       0.694   2.578   1.164  1.00  0.00     0.008 C 
BRANCH  11  16
ATOM     16  C   UNL     1       1.574   0.190  -0.558  1.00  0.00    -0.041 A 
ATOM     17  C   UNL     1       2.559   0.178  -1.586  1.00  0.00     0.005 A 
ATOM     18  C   UNL     1       1.859  -0.445   0.679  1.00  0.00     0.032 A 
ATOM     19  C   UNL     1       3.792  -0.473  -1.403  1.00  0.00     0.012 A 
ATOM     20  C   UNL     1       3.090  -1.078   0.821  1.00  0.00     0.066 A 
ATOM     21  C   UNL     1       4.015  -1.095  -0.179  1.00  0.00     0.023 A 
ATOM     22  N   UNL     1       3.575  -1.725   1.894  1.00  0.00    -0.278 N 
ATOM     23  C   UNL     1       5.088  -1.793   0.336  1.00  0.00     0.067 A 
ATOM     24  N   UNL     1       4.797  -2.160   1.607  1.00  0.00    -0.180 NA
ATOM     25  H   UNL     1       3.095  -1.866   2.810  1.00  0.00     0.190 HD
ATOM     26  C   UNL     1       6.393  -2.055  -0.340  1.00  0.00     0.069 C 
ENDBRANCH  11  16
ENDBRANCH   1   8
TORSDOF 5


