MODEL 1
REMARK VINA RESULT:      -9.8      0.000      0.000
REMARK SMILES Nc1cc(F)c[nH]/c1=N\c1cnc2[nH]ccc2c1
REMARK SMILES IDX 8 1 2 2 3 3 4 4 5 5 6 6 7 7 9 9 10 10 11 11 12 12 13 13
REMARK SMILES IDX 18 14 17 15 14 16 16 17 15 18 1 20
REMARK H PARENT 7 8 14 19 1 21 1 22
ROOT
ATOM      1  C   UNL     1      44.008 131.681  18.423  1.00  0.00     0.154 A 
ATOM      2  C   UNL     1      42.828 132.089  19.081  1.00  0.00     0.078 A 
ATOM      3  C   UNL     1      42.769 132.020  20.478  1.00  0.00     0.070 A 
ATOM      4  C   UNL     1      43.868 131.568  21.204  1.00  0.00     0.141 A 
ATOM      5  F   UNL     1      43.816 131.504  22.556  1.00  0.00    -0.205 F 
ATOM      6  C   UNL     1      45.028 131.197  20.526  1.00  0.00     0.123 A 
ATOM      7  N   UNL     1      45.082 131.264  19.167  1.00  0.00    -0.342 N 
ATOM      8  H   UNL     1      45.993 131.021  18.721  1.00  0.00     0.168 HD
ENDROOT
BRANCH   1   9
ATOM      9  N   UNL     1      44.064 131.747  17.119  1.00  0.00    -0.227 NA
BRANCH   9  10
ATOM     10  C   UNL     1      44.967 131.052  16.248  1.00  0.00     0.085 A 
ATOM     11  C   UNL     1      45.175 129.663  16.434  1.00  0.00     0.142 A 
ATOM     12  N   UNL     1      46.075 128.982  15.662  1.00  0.00    -0.236 NA
ATOM     13  C   UNL     1      46.780 129.659  14.723  1.00  0.00     0.137 A 
ATOM     14  C   UNL     1      45.739 131.743  15.289  1.00  0.00     0.042 A 
ATOM     15  C   UNL     1      46.636 131.000  14.530  1.00  0.00     0.021 A 
ATOM     16  N   UNL     1      47.702 129.140  13.898  1.00  0.00    -0.346 N 
ATOM     17  C   UNL     1      47.510 131.366  13.531  1.00  0.00     0.030 A 
ATOM     18  C   UNL     1      48.153 130.184  13.162  1.00  0.00     0.085 A 
ATOM     19  H   UNL     1      48.013 128.146  13.838  1.00  0.00     0.167 HD
ENDBRANCH   9  10
ENDBRANCH   1   9
BRANCH   2  20
ATOM     20  N   UNL     1      41.687 132.557  18.348  1.00  0.00    -0.396 N 
ATOM     21  H   UNL     1      41.007 131.895  17.912  1.00  0.00     0.156 HD
ATOM     22  H   UNL     1      41.512 133.580  18.234  1.00  0.00     0.156 HD
ENDBRANCH   2  20
TORSDOF 3
ENDMDL
MODEL 2
REMARK VINA RESULT:      -9.3      2.925      6.408
REMARK SMILES Nc1cc(F)c[nH]/c1=N\c1cnc2[nH]ccc2c1
REMARK SMILES IDX 8 1 2 2 3 3 4 4 5 5 6 6 7 7 9 9 10 10 11 11 12 12 13 13
REMARK SMILES IDX 18 14 17 15 14 16 16 17 15 18 1 20
REMARK H PARENT 7 8 14 19 1 21 1 22
ROOT
ATOM      1  C   UNL     1      45.533 130.923  14.964  1.00  0.00     0.154 A 
ATOM      2  C   UNL     1      45.865 129.552  14.979  1.00  0.00     0.078 A 
ATOM      3  C   UNL     1      47.028 129.126  14.327  1.00  0.00     0.070 A 
ATOM      4  C   UNL     1      47.850 130.050  13.686  1.00  0.00     0.141 A 
ATOM      5  F   UNL     1      48.979 129.641  13.057  1.00  0.00    -0.205 F 
ATOM      6  C   UNL     1      47.508 131.400  13.711  1.00  0.00     0.123 A 
ATOM      7  N   UNL     1      46.376 131.812  14.345  1.00  0.00    -0.342 N 
ATOM      8  H   UNL     1      46.199 132.839  14.373  1.00  0.00     0.168 HD
ENDROOT
BRANCH   1   9
ATOM      9  N   UNL     1      44.448 131.321  15.574  1.00  0.00    -0.227 NA
BRANCH   9  10
ATOM     10  C   UNL     1      44.216 131.383  16.988  1.00  0.00     0.085 A 
ATOM     11  C   UNL     1      42.944 131.787  17.463  1.00  0.00     0.142 A 
ATOM     12  N   UNL     1      42.707 131.916  18.803  1.00  0.00    -0.236 NA
ATOM     13  C   UNL     1      43.714 131.667  19.676  1.00  0.00     0.137 A 
ATOM     14  C   UNL     1      45.260 131.164  17.913  1.00  0.00     0.042 A 
ATOM     15  C   UNL     1      44.962 131.306  19.263  1.00  0.00     0.021 A 
ATOM     16  N   UNL     1      43.645 131.759  21.012  1.00  0.00    -0.346 N 
ATOM     17  C   UNL     1      45.738 131.160  20.392  1.00  0.00     0.030 A 
ATOM     18  C   UNL     1      44.886 131.447  21.457  1.00  0.00     0.085 A 
ATOM     19  H   UNL     1      42.816 132.022  21.589  1.00  0.00     0.167 HD
ENDBRANCH   9  10
ENDBRANCH   1   9
BRANCH   2  20
ATOM     20  N   UNL     1      45.029 128.588  15.634  1.00  0.00    -0.396 N 
ATOM     21  H   UNL     1      45.386 127.995  16.416  1.00  0.00     0.156 HD
ATOM     22  H   UNL     1      44.036 128.457  15.339  1.00  0.00     0.156 HD
ENDBRANCH   2  20
TORSDOF 3
ENDMDL
MODEL 3
REMARK VINA RESULT:      -9.2      1.610      2.454
REMARK SMILES Nc1cc(F)c[nH]/c1=N\c1cnc2[nH]ccc2c1
REMARK SMILES IDX 8 1 2 2 3 3 4 4 5 5 6 6 7 7 9 9 10 10 11 11 12 12 13 13
REMARK SMILES IDX 18 14 17 15 14 16 16 17 15 18 1 20
REMARK H PARENT 7 8 14 19 1 21 1 22
ROOT
ATOM      1  C   UNL     1      44.234 131.267  18.909  1.00  0.00     0.154 A 
ATOM      2  C   UNL     1      44.289 131.565  20.288  1.00  0.00     0.078 A 
ATOM      3  C   UNL     1      43.223 132.256  20.877  1.00  0.00     0.070 A 
ATOM      4  C   UNL     1      42.122 132.630  20.112  1.00  0.00     0.141 A 
ATOM      5  F   UNL     1      41.088 133.296  20.680  1.00  0.00    -0.205 F 
ATOM      6  C   UNL     1      42.087 132.299  18.759  1.00  0.00     0.123 A 
ATOM      7  N   UNL     1      43.124 131.627  18.188  1.00  0.00    -0.342 N 
ATOM      8  H   UNL     1      43.018 131.363  17.184  1.00  0.00     0.168 HD
ENDROOT
BRANCH   1   9
ATOM      9  N   UNL     1      45.227 130.620  18.359  1.00  0.00    -0.227 NA
BRANCH   9  10
ATOM     10  C   UNL     1      45.810 130.850  17.069  1.00  0.00     0.085 A 
ATOM     11  C   UNL     1      45.604 132.096  16.429  1.00  0.00     0.142 A 
ATOM     12  N   UNL     1      46.093 132.326  15.174  1.00  0.00    -0.236 NA
ATOM     13  C   UNL     1      46.769 131.336  14.540  1.00  0.00     0.137 A 
ATOM     14  C   UNL     1      46.486 129.821  16.377  1.00  0.00     0.042 A 
ATOM     15  C   UNL     1      46.966 130.111  15.105  1.00  0.00     0.021 A 
ATOM     16  N   UNL     1      47.299 131.401  13.310  1.00  0.00    -0.346 N 
ATOM     17  C   UNL     1      47.657 129.347  14.191  1.00  0.00     0.030 A 
ATOM     18  C   UNL     1      47.847 130.182  13.091  1.00  0.00     0.085 A 
ATOM     19  H   UNL     1      47.288 132.214  12.655  1.00  0.00     0.167 HD
ENDBRANCH   9  10
ENDBRANCH   1   9
BRANCH   2  20
ATOM     20  N   UNL     1      45.416 131.187  21.090  1.00  0.00    -0.396 N 
ATOM     21  H   UNL     1      45.970 130.326  20.885  1.00  0.00     0.156 HD
ATOM     22  H   UNL     1      45.707 131.771  21.905  1.00  0.00     0.156 HD
ENDBRANCH   2  20
TORSDOF 3
ENDMDL
MODEL 4
REMARK VINA RESULT:      -8.9      2.870      6.567
REMARK SMILES Nc1cc(F)c[nH]/c1=N\c1cnc2[nH]ccc2c1
REMARK SMILES IDX 8 1 2 2 3 3 4 4 5 5 6 6 7 7 9 9 10 10 11 11 12 12 13 13
REMARK SMILES IDX 18 14 17 15 14 16 16 17 15 18 1 20
REMARK H PARENT 7 8 14 19 1 21 1 22
ROOT
ATOM      1  C   UNL     1      45.308 131.132  15.761  1.00  0.00     0.154 A 
ATOM      2  C   UNL     1      45.650 129.832  15.332  1.00  0.00     0.078 A 
ATOM      3  C   UNL     1      46.664 129.675  14.380  1.00  0.00     0.070 A 
ATOM      4  C   UNL     1      47.332 130.788  13.877  1.00  0.00     0.141 A 
ATOM      5  F   UNL     1      48.316 130.639  12.957  1.00  0.00    -0.205 F 
ATOM      6  C   UNL     1      46.988 132.057  14.339  1.00  0.00     0.123 A 
ATOM      7  N   UNL     1      46.001 132.208  15.265  1.00  0.00    -0.342 N 
ATOM      8  H   UNL     1      45.823 133.176  15.610  1.00  0.00     0.168 HD
ENDROOT
BRANCH   1   9
ATOM      9  N   UNL     1      44.363 131.280  16.651  1.00  0.00    -0.227 NA
BRANCH   9  10
ATOM     10  C   UNL     1      44.504 131.295  18.079  1.00  0.00     0.085 A 
ATOM     11  C   UNL     1      45.680 130.765  18.664  1.00  0.00     0.142 A 
ATOM     12  N   UNL     1      45.820 130.707  20.022  1.00  0.00    -0.236 NA
ATOM     13  C   UNL     1      44.808 131.151  20.807  1.00  0.00     0.137 A 
ATOM     14  C   UNL     1      43.448 131.718  18.915  1.00  0.00     0.042 A 
ATOM     15  C   UNL     1      43.646 131.641  20.289  1.00  0.00     0.021 A 
ATOM     16  N   UNL     1      44.787 131.152  22.148  1.00  0.00    -0.346 N 
ATOM     17  C   UNL     1      42.834 131.973  21.350  1.00  0.00     0.030 A 
ATOM     18  C   UNL     1      43.577 131.657  22.487  1.00  0.00     0.085 A 
ATOM     19  H   UNL     1      45.539 130.827  22.795  1.00  0.00     0.167 HD
ENDBRANCH   9  10
ENDBRANCH   1   9
BRANCH   2  20
ATOM     20  N   UNL     1      44.972 128.675  15.840  1.00  0.00    -0.396 N 
ATOM     21  H   UNL     1      45.484 127.918  16.346  1.00  0.00     0.156 HD
ATOM     22  H   UNL     1      43.942 128.564  15.712  1.00  0.00     0.156 HD
ENDBRANCH   2  20
TORSDOF 3
ENDMDL
MODEL 5
REMARK VINA RESULT:      -8.9      2.991      6.574
REMARK SMILES Nc1cc(F)c[nH]/c1=N\c1cnc2[nH]ccc2c1
REMARK SMILES IDX 8 1 2 2 3 3 4 4 5 5 6 6 7 7 9 9 10 10 11 11 12 12 13 13
REMARK SMILES IDX 18 14 17 15 14 16 16 17 15 18 1 20
REMARK H PARENT 7 8 14 19 1 21 1 22
ROOT
ATOM      1  C   UNL     1      45.585 130.874  14.988  1.00  0.00     0.154 A 
ATOM      2  C   UNL     1      45.947 129.511  14.938  1.00  0.00     0.078 A 
ATOM      3  C   UNL     1      47.097 129.137  14.233  1.00  0.00     0.070 A 
ATOM      4  C   UNL     1      47.877 130.104  13.603  1.00  0.00     0.141 A 
ATOM      5  F   UNL     1      48.993 129.746  12.922  1.00  0.00    -0.205 F 
ATOM      6  C   UNL     1      47.507 131.444  13.692  1.00  0.00     0.123 A 
ATOM      7  N   UNL     1      46.387 131.804  14.378  1.00  0.00    -0.342 N 
ATOM      8  H   UNL     1      46.189 132.826  14.452  1.00  0.00     0.168 HD
ENDROOT
BRANCH   1   9
ATOM      9  N   UNL     1      44.513 131.223  15.648  1.00  0.00    -0.227 NA
BRANCH   9  10
ATOM     10  C   UNL     1      44.384 131.413  17.064  1.00  0.00     0.085 A 
ATOM     11  C   UNL     1      45.474 131.090  17.908  1.00  0.00     0.142 A 
ATOM     12  N   UNL     1      45.363 131.201  19.266  1.00  0.00    -0.236 NA
ATOM     13  C   UNL     1      44.186 131.611  19.799  1.00  0.00     0.137 A 
ATOM     14  C   UNL     1      43.155 131.804  17.642  1.00  0.00     0.042 A 
ATOM     15  C   UNL     1      43.101 131.904  19.027  1.00  0.00     0.021 A 
ATOM     16  N   UNL     1      43.916 131.760  21.104  1.00  0.00    -0.346 N 
ATOM     17  C   UNL     1      42.078 132.258  19.879  1.00  0.00     0.030 A 
ATOM     18  C   UNL     1      42.622 132.158  21.159  1.00  0.00     0.085 A 
ATOM     19  H   UNL     1      44.560 131.597  21.908  1.00  0.00     0.167 HD
ENDBRANCH   9  10
ENDBRANCH   1   9
BRANCH   2  20
ATOM     20  N   UNL     1      45.155 128.503  15.582  1.00  0.00    -0.396 N 
ATOM     21  H   UNL     1      44.736 128.655  16.526  1.00  0.00     0.156 HD
ATOM     22  H   UNL     1      44.979 127.586  15.114  1.00  0.00     0.156 HD
ENDBRANCH   2  20
TORSDOF 3
ENDMDL
MODEL 6
REMARK VINA RESULT:      -8.6      2.731      6.476
REMARK SMILES Nc1cc(F)c[nH]/c1=N\c1cnc2[nH]ccc2c1
REMARK SMILES IDX 8 1 2 2 3 3 4 4 5 5 6 6 7 7 9 9 10 10 11 11 12 12 13 13
REMARK SMILES IDX 18 14 17 15 14 16 16 17 15 18 1 20
REMARK H PARENT 7 8 14 19 1 21 1 22
ROOT
ATOM      1  C   UNL     1      44.920 130.990  15.913  1.00  0.00     0.154 A 
ATOM      2  C   UNL     1      46.008 131.668  15.322  1.00  0.00     0.078 A 
ATOM      3  C   UNL     1      46.987 130.927  14.650  1.00  0.00     0.070 A 
ATOM      4  C   UNL     1      46.876 129.542  14.556  1.00  0.00     0.141 A 
ATOM      5  F   UNL     1      47.820 128.822  13.903  1.00  0.00    -0.205 F 
ATOM      6  C   UNL     1      45.776 128.905  15.127  1.00  0.00     0.123 A 
ATOM      7  N   UNL     1      44.826 129.628  15.781  1.00  0.00    -0.342 N 
ATOM      8  H   UNL     1      44.001 129.102  16.144  1.00  0.00     0.168 HD
ENDROOT
BRANCH   1   9
ATOM      9  N   UNL     1      44.005 131.682  16.538  1.00  0.00    -0.227 NA
BRANCH   9  10
ATOM     10  C   UNL     1      43.679 131.636  17.935  1.00  0.00     0.085 A 
ATOM     11  C   UNL     1      42.361 131.948  18.348  1.00  0.00     0.142 A 
ATOM     12  N   UNL     1      42.033 131.975  19.675  1.00  0.00    -0.236 NA
ATOM     13  C   UNL     1      42.993 131.713  20.595  1.00  0.00     0.137 A 
ATOM     14  C   UNL     1      44.672 131.403  18.911  1.00  0.00     0.042 A 
ATOM     15  C   UNL     1      44.282 131.439  20.245  1.00  0.00     0.021 A 
ATOM     16  N   UNL     1      42.835 131.711  21.927  1.00  0.00    -0.346 N 
ATOM     17  C   UNL     1      44.991 131.251  21.411  1.00  0.00     0.030 A 
ATOM     18  C   UNL     1      44.059 131.426  22.433  1.00  0.00     0.085 A 
ATOM     19  H   UNL     1      41.958 131.895  22.463  1.00  0.00     0.167 HD
ENDBRANCH   9  10
ENDBRANCH   1   9
BRANCH   2  20
ATOM     20  N   UNL     1      46.138 133.093  15.410  1.00  0.00    -0.396 N 
ATOM     21  H   UNL     1      45.395 133.686  15.844  1.00  0.00     0.156 HD
ATOM     22  H   UNL     1      46.987 133.573  15.038  1.00  0.00     0.156 HD
ENDBRANCH   2  20
TORSDOF 3
ENDMDL
MODEL 7
REMARK VINA RESULT:      -8.6      2.805      6.570
REMARK SMILES Nc1cc(F)c[nH]/c1=N\c1cnc2[nH]ccc2c1
REMARK SMILES IDX 8 1 2 2 3 3 4 4 5 5 6 6 7 7 9 9 10 10 11 11 12 12 13 13
REMARK SMILES IDX 18 14 17 15 14 16 16 17 15 18 1 20
REMARK H PARENT 7 8 14 19 1 21 1 22
ROOT
ATOM      1  C   UNL     1      45.358 130.672  16.039  1.00  0.00     0.154 A 
ATOM      2  C   UNL     1      46.145 131.563  15.279  1.00  0.00     0.078 A 
ATOM      3  C   UNL     1      47.082 131.044  14.378  1.00  0.00     0.070 A 
ATOM      4  C   UNL     1      47.222 129.667  14.228  1.00  0.00     0.141 A 
ATOM      5  F   UNL     1      48.125 129.161  13.354  1.00  0.00    -0.205 F 
ATOM      6  C   UNL     1      46.411 128.814  14.974  1.00  0.00     0.123 A 
ATOM      7  N   UNL     1      45.501 129.321  15.850  1.00  0.00    -0.342 N 
ATOM      8  H   UNL     1      44.889 128.635  16.343  1.00  0.00     0.168 HD
ENDROOT
BRANCH   1   9
ATOM      9  N   UNL     1      44.481 131.156  16.878  1.00  0.00    -0.227 NA
BRANCH   9  10
ATOM     10  C   UNL     1      44.576 131.203  18.309  1.00  0.00     0.085 A 
ATOM     11  C   UNL     1      45.726 130.673  18.944  1.00  0.00     0.142 A 
ATOM     12  N   UNL     1      45.821 130.645  20.307  1.00  0.00    -0.236 NA
ATOM     13  C   UNL     1      44.789 131.118  21.048  1.00  0.00     0.137 A 
ATOM     14  C   UNL     1      43.498 131.657  19.100  1.00  0.00     0.042 A 
ATOM     15  C   UNL     1      43.651 131.609  20.481  1.00  0.00     0.021 A 
ATOM     16  N   UNL     1      44.725 131.150  22.387  1.00  0.00    -0.346 N 
ATOM     17  C   UNL     1      42.808 131.974  21.508  1.00  0.00     0.030 A 
ATOM     18  C   UNL     1      43.511 131.677  22.675  1.00  0.00     0.085 A 
ATOM     19  H   UNL     1      45.451 130.832  23.066  1.00  0.00     0.167 HD
ENDBRANCH   9  10
ENDBRANCH   1   9
BRANCH   2  20
ATOM     20  N   UNL     1      46.014 132.984  15.421  1.00  0.00    -0.396 N 
ATOM     21  H   UNL     1      45.084 133.456  15.374  1.00  0.00     0.156 HD
ATOM     22  H   UNL     1      46.856 133.582  15.576  1.00  0.00     0.156 HD
ENDBRANCH   2  20
TORSDOF 3
ENDMDL
MODEL 8
REMARK VINA RESULT:      -8.2      0.776      1.732
REMARK SMILES Nc1cc(F)c[nH]/c1=N\c1cnc2[nH]ccc2c1
REMARK SMILES IDX 8 1 2 2 3 3 4 4 5 5 6 6 7 7 9 9 10 10 11 11 12 12 13 13
REMARK SMILES IDX 18 14 17 15 14 16 16 17 15 18 1 20
REMARK H PARENT 7 8 14 19 1 21 1 22
ROOT
ATOM      1  C   UNL     1      43.437 131.775  17.600  1.00  0.00     0.154 A 
ATOM      2  C   UNL     1      44.510 131.492  18.471  1.00  0.00     0.078 A 
ATOM      3  C   UNL     1      44.327 131.648  19.850  1.00  0.00     0.070 A 
ATOM      4  C   UNL     1      43.096 132.065  20.350  1.00  0.00     0.141 A 
ATOM      5  F   UNL     1      42.915 132.214  21.685  1.00  0.00    -0.205 F 
ATOM      6  C   UNL     1      42.049 132.312  19.466  1.00  0.00     0.123 A 
ATOM      7  N   UNL     1      42.229 132.159  18.125  1.00  0.00    -0.342 N 
ATOM      8  H   UNL     1      41.395 132.310  17.518  1.00  0.00     0.168 HD
ENDROOT
BRANCH   1   9
ATOM      9  N   UNL     1      43.607 131.626  16.313  1.00  0.00    -0.227 NA
BRANCH   9  10
ATOM     10  C   UNL     1      44.670 130.930  15.648  1.00  0.00     0.085 A 
ATOM     11  C   UNL     1      44.903 129.567  15.956  1.00  0.00     0.142 A 
ATOM     12  N   UNL     1      45.945 128.891  15.387  1.00  0.00    -0.236 NA
ATOM     13  C   UNL     1      46.767 129.548  14.531  1.00  0.00     0.137 A 
ATOM     14  C   UNL     1      45.559 131.604  14.783  1.00  0.00     0.042 A 
ATOM     15  C   UNL     1      46.599 130.866  14.229  1.00  0.00     0.021 A 
ATOM     16  N   UNL     1      47.833 129.031  13.903  1.00  0.00    -0.346 N 
ATOM     17  C   UNL     1      47.611 131.218  13.363  1.00  0.00     0.030 A 
ATOM     18  C   UNL     1      48.355 130.053  13.183  1.00  0.00     0.085 A 
ATOM     19  H   UNL     1      48.192 128.053  13.960  1.00  0.00     0.167 HD
ENDBRANCH   9  10
ENDBRANCH   1   9
BRANCH   2  20
ATOM     20  N   UNL     1      45.785 131.062  17.972  1.00  0.00    -0.396 N 
ATOM     21  H   UNL     1      45.879 130.216  17.367  1.00  0.00     0.156 HD
ATOM     22  H   UNL     1      46.653 131.592  18.207  1.00  0.00     0.156 HD
ENDBRANCH   2  20
TORSDOF 3
ENDMDL
MODEL 9
REMARK VINA RESULT:      -8.1      2.793      6.539
REMARK SMILES Nc1cc(F)c[nH]/c1=N\c1cnc2[nH]ccc2c1
REMARK SMILES IDX 8 1 2 2 3 3 4 4 5 5 6 6 7 7 9 9 10 10 11 11 12 12 13 13
REMARK SMILES IDX 18 14 17 15 14 16 16 17 15 18 1 20
REMARK H PARENT 7 8 14 19 1 21 1 22
ROOT
ATOM      1  C   UNL     1      45.027 131.095  16.368  1.00  0.00     0.154 A 
ATOM      2  C   UNL     1      44.725 131.301  15.005  1.00  0.00     0.078 A 
ATOM      3  C   UNL     1      45.592 130.793  14.031  1.00  0.00     0.070 A 
ATOM      4  C   UNL     1      46.729 130.082  14.407  1.00  0.00     0.141 A 
ATOM      5  F   UNL     1      47.568 129.586  13.466  1.00  0.00    -0.205 F 
ATOM      6  C   UNL     1      46.986 129.874  15.760  1.00  0.00     0.123 A 
ATOM      7  N   UNL     1      46.142 130.370  16.706  1.00  0.00    -0.342 N 
ATOM      8  H   UNL     1      46.360 130.139  17.699  1.00  0.00     0.168 HD
ENDROOT
BRANCH   1   9
ATOM      9  N   UNL     1      44.217 131.567  17.277  1.00  0.00    -0.227 NA
BRANCH   9  10
ATOM     10  C   UNL     1      44.357 131.477  18.702  1.00  0.00     0.085 A 
ATOM     11  C   UNL     1      45.535 130.910  19.247  1.00  0.00     0.142 A 
ATOM     12  N   UNL     1      45.674 130.753  20.598  1.00  0.00    -0.236 NA
ATOM     13  C   UNL     1      44.659 131.132  21.412  1.00  0.00     0.137 A 
ATOM     14  C   UNL     1      43.297 131.832  19.566  1.00  0.00     0.042 A 
ATOM     15  C   UNL     1      43.495 131.653  20.931  1.00  0.00     0.021 A 
ATOM     16  N   UNL     1      44.637 131.033  22.749  1.00  0.00    -0.346 N 
ATOM     17  C   UNL     1      42.680 131.901  22.013  1.00  0.00     0.030 A 
ATOM     18  C   UNL     1      43.424 131.505  23.124  1.00  0.00     0.085 A 
ATOM     19  H   UNL     1      45.389 130.664  23.372  1.00  0.00     0.167 HD
ENDBRANCH   9  10
ENDBRANCH   1   9
BRANCH   2  20
ATOM     20  N   UNL     1      43.558 132.031  14.600  1.00  0.00    -0.396 N 
ATOM     21  H   UNL     1      42.647 131.929  15.100  1.00  0.00     0.156 HD
ATOM     22  H   UNL     1      43.596 132.686  13.788  1.00  0.00     0.156 HD
ENDBRANCH   2  20
TORSDOF 3
ENDMDL


