REMARK SMILES O=C1c2cc(-c3ccc4[nH]ccc4c3)cnc2C/[N+]1=C(\O)OCCOCC(F)(F)F
REMARK SMILES IDX 23 1 22 2 20 3 21 4 19 6 2 7 18 8 3 9 17 10 4 11 16 12 5 13
REMARK SMILES IDX 15 14 1 15 6 16 7 17 14 18 8 19 13 20 9 21 12 22 10 23 11 24
REMARK SMILES IDX 24 26 25 27 26 28 27 29 28 30 29 31 30 32
REMARK H PARENT 21 5 10 25
ROOT
ATOM      1  C   UNL     1      -0.172  -0.770  -5.590  1.00  0.00     0.268 C 
ENDROOT
BRANCH   1   2
ATOM      2  O   UNL     1      -0.344  -0.350  -4.241  1.00  0.00    -0.412 OA
BRANCH   2   3
ATOM      3  C   UNL     1      -0.872   0.896  -3.872  1.00  0.00     0.555 C 
BRANCH   3   4
ATOM      4  O   UNL     1      -1.299   1.810  -4.840  1.00  0.00    -0.430 OA
ATOM      5  H   UNL     1      -1.246   1.619  -5.832  1.00  0.00     0.303 HD
ENDBRANCH   3   4
BRANCH   3   6
ATOM      6  N   UNL     1      -0.966   1.211  -2.611  1.00  0.00    -0.083 N 
ATOM      7  C   UNL     1      -0.577   0.401  -1.497  1.00  0.00     0.427 C 
ATOM      8  C   UNL     1      -1.495   2.485  -2.099  1.00  0.00     0.426 C 
ATOM      9  C   UNL     1      -0.837   1.113  -0.272  1.00  0.00     0.119 A 
ATOM     10  C   UNL     1      -1.369   2.330  -0.614  1.00  0.00     0.123 A 
ATOM     11  C   UNL     1      -0.621   0.766   1.056  1.00  0.00     0.031 A 
ATOM     12  N   UNL     1      -1.708   3.240   0.333  1.00  0.00    -0.253 NA
ATOM     13  C   UNL     1      -0.971   1.704   2.053  1.00  0.00     0.001 A 
ATOM     14  C   UNL     1      -1.520   2.950   1.654  1.00  0.00     0.120 A 
ATOM     15  O   UNL     1      -0.081  -0.754  -1.580  1.00  0.00    -0.214 OA
BRANCH  13  16
ATOM     16  C   UNL     1      -0.762   1.392   3.489  1.00  0.00    -0.016 A 
ATOM     17  C   UNL     1      -1.012   0.082   3.985  1.00  0.00     0.011 A 
ATOM     18  C   UNL     1      -0.309   2.395   4.380  1.00  0.00     0.019 A 
ATOM     19  C   UNL     1      -0.809  -0.227   5.342  1.00  0.00     0.027 A 
ATOM     20  C   UNL     1      -0.124   2.053   5.718  1.00  0.00    -0.000 A 
ATOM     21  C   UNL     1      -0.363   0.789   6.183  1.00  0.00     0.045 A 
ATOM     22  C   UNL     1       0.308   2.810   6.785  1.00  0.00     0.028 A 
ATOM     23  N   UNL     1      -0.106   0.707   7.498  1.00  0.00    -0.361 N 
ATOM     24  C   UNL     1       0.304   1.940   7.872  1.00  0.00     0.083 A 
ATOM     25  H   UNL     1      -0.201  -0.135   8.110  1.00  0.00     0.166 HD
ENDBRANCH  13  16
ENDBRANCH   3   6
ENDBRANCH   2   3
ENDBRANCH   1   2
BRANCH   1  26
ATOM     26  C   UNL     1       0.438  -2.165  -5.615  1.00  0.00     0.202 C 
BRANCH  26  27
ATOM     27  O   UNL     1       1.703  -2.132  -4.991  1.00  0.00    -0.368 OA
BRANCH  27  28
ATOM     28  C   UNL     1       2.278  -3.421  -5.020  1.00  0.00     0.275 C 
BRANCH  28  29
ATOM     29  C   UNL     1       3.609  -3.397  -4.277  1.00  0.00     0.411 C 
ATOM     30  F   UNL     1       4.477  -2.509  -4.891  1.00  0.00    -0.168 F 
ATOM     31  F   UNL     1       4.171  -4.659  -4.290  1.00  0.00    -0.168 F 
ATOM     32  F   UNL     1       3.409  -3.005  -2.965  1.00  0.00    -0.168 F 
ENDBRANCH  28  29
ENDBRANCH  27  28
ENDBRANCH  26  27
ENDBRANCH   1  26
TORSDOF 9


