MODEL 1
REMARK VINA RESULT:     -10.0      0.000      0.000
REMARK SMILES Fc1ccc2nc(-c3ccc[nH+]c3F)ccc2c1
REMARK SMILES IDX 1 1 2 2 3 3 4 4 5 5 6 6 7 7 15 8 16 9 17 10 18 11 8 12 9 13
REMARK SMILES IDX 13 14 10 15 12 16 11 17 14 18
REMARK H PARENT 12 19
ROOT
ATOM      1  F   UNL     1      42.256 132.335  22.139  1.00  0.00    -0.207 F 
ATOM      2  C   UNL     1      43.043 132.017  21.081  1.00  0.00     0.123 A 
ATOM      3  C   UNL     1      44.349 131.563  21.295  1.00  0.00     0.041 A 
ATOM      4  C   UNL     1      45.165 131.233  20.208  1.00  0.00     0.032 A 
ATOM      5  C   UNL     1      44.676 131.359  18.902  1.00  0.00     0.071 A 
ATOM      6  N   UNL     1      45.466 131.040  17.844  1.00  0.00    -0.247 NA
ATOM      7  C   UNL     1      45.050 131.140  16.548  1.00  0.00     0.080 A 
ATOM      8  C   UNL     1      43.735 131.596  16.303  1.00  0.00     0.030 A 
ATOM      9  C   UNL     1      42.899 131.931  17.371  1.00  0.00     0.013 A 
ATOM     10  C   UNL     1      43.362 131.816  18.685  1.00  0.00     0.003 A 
ATOM     11  C   UNL     1      42.547 132.145  19.779  1.00  0.00     0.049 A 
ENDROOT
BRANCH   7  12
ATOM     12  C   UNL     1      46.001 130.762  15.445  1.00  0.00     0.104 A 
ATOM     13  C   UNL     1      46.628 131.732  14.632  1.00  0.00     0.026 A 
ATOM     14  C   UNL     1      46.304 129.402  15.181  1.00  0.00     0.367 A 
ATOM     15  C   UNL     1      47.505 131.352  13.617  1.00  0.00     0.072 A 
ATOM     16  N   UNL     1      47.166 129.066  14.182  1.00  0.00    -0.186 N 
ATOM     17  C   UNL     1      47.765 130.003  13.405  1.00  0.00     0.309 A 
ATOM     18  F   UNL     1      45.749 128.401  15.910  1.00  0.00    -0.135 F 
ATOM     19  H   UNL     1      47.373 128.057  14.006  1.00  0.00     0.456 HD
ENDBRANCH   7  12
TORSDOF 1
ENDMDL
MODEL 2
REMARK VINA RESULT:      -9.7      1.395      1.671
REMARK SMILES Fc1ccc2nc(-c3ccc[nH+]c3F)ccc2c1
REMARK SMILES IDX 1 1 2 2 3 3 4 4 5 5 6 6 7 7 15 8 16 9 17 10 18 11 8 12 9 13
REMARK SMILES IDX 13 14 10 15 12 16 11 17 14 18
REMARK H PARENT 12 19
ROOT
ATOM      1  F   UNL     1      42.410 131.878  22.695  1.00  0.00    -0.207 F 
ATOM      2  C   UNL     1      43.154 131.646  21.585  1.00  0.00     0.123 A 
ATOM      3  C   UNL     1      44.475 131.204  21.711  1.00  0.00     0.041 A 
ATOM      4  C   UNL     1      45.247 130.963  20.569  1.00  0.00     0.032 A 
ATOM      5  C   UNL     1      44.698 131.165  19.297  1.00  0.00     0.071 A 
ATOM      6  N   UNL     1      45.444 130.933  18.186  1.00  0.00    -0.247 NA
ATOM      7  C   UNL     1      44.969 131.110  16.920  1.00  0.00     0.080 A 
ATOM      8  C   UNL     1      43.636 131.556  16.764  1.00  0.00     0.030 A 
ATOM      9  C   UNL     1      42.844 131.803  17.888  1.00  0.00     0.013 A 
ATOM     10  C   UNL     1      43.368 131.611  19.169  1.00  0.00     0.003 A 
ATOM     11  C   UNL     1      42.597 131.850  20.317  1.00  0.00     0.049 A 
ENDROOT
BRANCH   7  12
ATOM     12  C   UNL     1      45.874 130.825  15.753  1.00  0.00     0.104 A 
ATOM     13  C   UNL     1      46.162 129.507  15.334  1.00  0.00     0.026 A 
ATOM     14  C   UNL     1      46.475 131.882  15.024  1.00  0.00     0.367 A 
ATOM     15  C   UNL     1      47.006 129.273  14.249  1.00  0.00     0.072 A 
ATOM     16  N   UNL     1      47.293 131.618  13.967  1.00  0.00    -0.186 N 
ATOM     17  C   UNL     1      47.566 130.349  13.571  1.00  0.00     0.309 A 
ATOM     18  F   UNL     1      46.256 133.180  15.353  1.00  0.00    -0.135 F 
ATOM     19  H   UNL     1      47.725 132.414  13.446  1.00  0.00     0.456 HD
ENDBRANCH   7  12
TORSDOF 1
ENDMDL
MODEL 3
REMARK VINA RESULT:      -9.2      1.677      2.498
REMARK SMILES Fc1ccc2nc(-c3ccc[nH+]c3F)ccc2c1
REMARK SMILES IDX 1 1 2 2 3 3 4 4 5 5 6 6 7 7 15 8 16 9 17 10 18 11 8 12 9 13
REMARK SMILES IDX 13 14 10 15 12 16 11 17 14 18
REMARK H PARENT 12 19
ROOT
ATOM      1  F   UNL     1      42.030 132.279  22.934  1.00  0.00    -0.207 F 
ATOM      2  C   UNL     1      42.579 132.101  21.706  1.00  0.00     0.123 A 
ATOM      3  C   UNL     1      41.929 132.600  20.572  1.00  0.00     0.041 A 
ATOM      4  C   UNL     1      42.491 132.419  19.304  1.00  0.00     0.032 A 
ATOM      5  C   UNL     1      43.706 131.736  19.167  1.00  0.00     0.071 A 
ATOM      6  N   UNL     1      44.254 131.558  17.938  1.00  0.00    -0.247 NA
ATOM      7  C   UNL     1      45.434 130.903  17.736  1.00  0.00     0.080 A 
ATOM      8  C   UNL     1      46.112 130.388  18.865  1.00  0.00     0.030 A 
ATOM      9  C   UNL     1      45.572 130.556  20.143  1.00  0.00     0.013 A 
ATOM     10  C   UNL     1      44.361 131.233  20.308  1.00  0.00     0.003 A 
ATOM     11  C   UNL     1      43.794 131.417  21.578  1.00  0.00     0.049 A 
ENDROOT
BRANCH   7  12
ATOM     12  C   UNL     1      45.960 130.758  16.334  1.00  0.00     0.104 A 
ATOM     13  C   UNL     1      46.240 129.495  15.766  1.00  0.00     0.026 A 
ATOM     14  C   UNL     1      46.193 131.899  15.524  1.00  0.00     0.367 A 
ATOM     15  C   UNL     1      46.726 129.392  14.464  1.00  0.00     0.072 A 
ATOM     16  N   UNL     1      46.667 131.762  14.255  1.00  0.00    -0.186 N 
ATOM     17  C   UNL     1      46.935 130.545  13.717  1.00  0.00     0.309 A 
ATOM     18  F   UNL     1      45.951 133.152  15.984  1.00  0.00    -0.135 F 
ATOM     19  H   UNL     1      46.831 132.617  13.678  1.00  0.00     0.456 HD
ENDBRANCH   7  12
TORSDOF 1
ENDMDL
MODEL 4
REMARK VINA RESULT:      -8.7      1.183      1.435
REMARK SMILES Fc1ccc2nc(-c3ccc[nH+]c3F)ccc2c1
REMARK SMILES IDX 1 1 2 2 3 3 4 4 5 5 6 6 7 7 15 8 16 9 17 10 18 11 8 12 9 13
REMARK SMILES IDX 13 14 10 15 12 16 11 17 14 18
REMARK H PARENT 12 19
ROOT
ATOM      1  F   UNL     1      42.550 132.075  23.633  1.00  0.00    -0.207 F 
ATOM      2  C   UNL     1      43.175 131.816  22.457  1.00  0.00     0.123 A 
ATOM      3  C   UNL     1      44.473 131.296  22.457  1.00  0.00     0.041 A 
ATOM      4  C   UNL     1      45.123 131.027  21.248  1.00  0.00     0.032 A 
ATOM      5  C   UNL     1      44.474 131.280  20.034  1.00  0.00     0.071 A 
ATOM      6  N   UNL     1      45.101 131.021  18.857  1.00  0.00    -0.247 NA
ATOM      7  C   UNL     1      44.524 131.244  17.641  1.00  0.00     0.080 A 
ATOM      8  C   UNL     1      43.212 131.770  17.611  1.00  0.00     0.030 A 
ATOM      9  C   UNL     1      42.542 132.046  18.805  1.00  0.00     0.013 A 
ATOM     10  C   UNL     1      43.166 131.804  20.032  1.00  0.00     0.003 A 
ATOM     11  C   UNL     1      42.519 132.071  21.247  1.00  0.00     0.049 A 
ENDROOT
BRANCH   7  12
ATOM     12  C   UNL     1      45.302 130.924  16.394  1.00  0.00     0.104 A 
ATOM     13  C   UNL     1      44.979 131.495  15.142  1.00  0.00     0.026 A 
ATOM     14  C   UNL     1      46.401 130.028  16.432  1.00  0.00     0.367 A 
ATOM     15  C   UNL     1      45.718 131.179  14.003  1.00  0.00     0.072 A 
ATOM     16  N   UNL     1      47.102 129.743  15.300  1.00  0.00    -0.186 N 
ATOM     17  C   UNL     1      46.785 130.294  14.102  1.00  0.00     0.309 A 
ATOM     18  F   UNL     1      46.786 129.433  17.589  1.00  0.00    -0.135 F 
ATOM     19  H   UNL     1      47.908 129.079  15.354  1.00  0.00     0.456 HD
ENDBRANCH   7  12
TORSDOF 1
ENDMDL
MODEL 5
REMARK VINA RESULT:      -8.7      1.803      2.695
REMARK SMILES Fc1ccc2nc(-c3ccc[nH+]c3F)ccc2c1
REMARK SMILES IDX 1 1 2 2 3 3 4 4 5 5 6 6 7 7 15 8 16 9 17 10 18 11 8 12 9 13
REMARK SMILES IDX 13 14 10 15 12 16 11 17 14 18
REMARK H PARENT 12 19
ROOT
ATOM      1  F   UNL     1      42.690 131.951  23.961  1.00  0.00    -0.207 F 
ATOM      2  C   UNL     1      43.016 131.857  22.648  1.00  0.00     0.123 A 
ATOM      3  C   UNL     1      42.158 132.385  21.677  1.00  0.00     0.041 A 
ATOM      4  C   UNL     1      42.489 132.291  20.321  1.00  0.00     0.032 A 
ATOM      5  C   UNL     1      43.681 131.667  19.933  1.00  0.00     0.071 A 
ATOM      6  N   UNL     1      44.006 131.574  18.618  1.00  0.00    -0.247 NA
ATOM      7  C   UNL     1      45.151 130.979  18.174  1.00  0.00     0.080 A 
ATOM      8  C   UNL     1      46.036 130.438  19.134  1.00  0.00     0.030 A 
ATOM      9  C   UNL     1      45.729 130.519  20.495  1.00  0.00     0.013 A 
ATOM     10  C   UNL     1      44.546 131.135  20.910  1.00  0.00     0.003 A 
ATOM     11  C   UNL     1      44.209 131.233  22.268  1.00  0.00     0.049 A 
ENDROOT
BRANCH   7  12
ATOM     12  C   UNL     1      45.421 130.926  16.695  1.00  0.00     0.104 A 
ATOM     13  C   UNL     1      46.606 130.362  16.170  1.00  0.00     0.026 A 
ATOM     14  C   UNL     1      44.484 131.446  15.766  1.00  0.00     0.367 A 
ATOM     15  C   UNL     1      46.829 130.328  14.795  1.00  0.00     0.072 A 
ATOM     16  N   UNL     1      44.734 131.394  14.428  1.00  0.00    -0.186 N 
ATOM     17  C   UNL     1      45.874 130.852  13.931  1.00  0.00     0.309 A 
ATOM     18  F   UNL     1      43.319 132.005  16.178  1.00  0.00    -0.135 F 
ATOM     19  H   UNL     1      44.028 131.784  13.763  1.00  0.00     0.456 HD
ENDBRANCH   7  12
TORSDOF 1
ENDMDL
MODEL 6
REMARK VINA RESULT:      -8.7      2.056      6.302
REMARK SMILES Fc1ccc2nc(-c3ccc[nH+]c3F)ccc2c1
REMARK SMILES IDX 1 1 2 2 3 3 4 4 5 5 6 6 7 7 15 8 16 9 17 10 18 11 8 12 9 13
REMARK SMILES IDX 13 14 10 15 12 16 11 17 14 18
REMARK H PARENT 12 19
ROOT
ATOM      1  F   UNL     1      46.395 130.695  12.654  1.00  0.00    -0.207 F 
ATOM      2  C   UNL     1      46.150 130.720  13.987  1.00  0.00     0.123 A 
ATOM      3  C   UNL     1      47.085 130.180  14.878  1.00  0.00     0.041 A 
ATOM      4  C   UNL     1      46.837 130.203  16.255  1.00  0.00     0.032 A 
ATOM      5  C   UNL     1      45.653 130.765  16.744  1.00  0.00     0.071 A 
ATOM      6  N   UNL     1      45.409 130.788  18.080  1.00  0.00    -0.247 NA
ATOM      7  C   UNL     1      44.275 131.322  18.621  1.00  0.00     0.080 A 
ATOM      8  C   UNL     1      43.314 131.874  17.744  1.00  0.00     0.030 A 
ATOM      9  C   UNL     1      43.537 131.864  16.365  1.00  0.00     0.013 A 
ATOM     10  C   UNL     1      44.711 131.308  15.849  1.00  0.00     0.003 A 
ATOM     11  C   UNL     1      44.963 131.284  14.469  1.00  0.00     0.049 A 
ENDROOT
BRANCH   7  12
ATOM     12  C   UNL     1      44.098 131.300  20.115  1.00  0.00     0.104 A 
ATOM     13  C   UNL     1      42.930 131.793  20.738  1.00  0.00     0.026 A 
ATOM     14  C   UNL     1      45.110 130.776  20.959  1.00  0.00     0.367 A 
ATOM     15  C   UNL     1      42.794 131.761  22.124  1.00  0.00     0.072 A 
ATOM     16  N   UNL     1      44.944 130.758  22.310  1.00  0.00    -0.186 N 
ATOM     17  C   UNL     1      43.819 131.234  22.902  1.00  0.00     0.309 A 
ATOM     18  F   UNL     1      46.266 130.279  20.450  1.00  0.00    -0.135 F 
ATOM     19  H   UNL     1      45.704 130.367  22.912  1.00  0.00     0.456 HD
ENDBRANCH   7  12
TORSDOF 1
ENDMDL
MODEL 7
REMARK VINA RESULT:      -8.6      0.948      1.846
REMARK SMILES Fc1ccc2nc(-c3ccc[nH+]c3F)ccc2c1
REMARK SMILES IDX 1 1 2 2 3 3 4 4 5 5 6 6 7 7 15 8 16 9 17 10 18 11 8 12 9 13
REMARK SMILES IDX 13 14 10 15 12 16 11 17 14 18
REMARK H PARENT 12 19
ROOT
ATOM      1  F   UNL     1      41.596 132.648  22.267  1.00  0.00    -0.207 F 
ATOM      2  C   UNL     1      42.214 132.390  21.089  1.00  0.00     0.123 A 
ATOM      3  C   UNL     1      41.585 132.718  19.884  1.00  0.00     0.041 A 
ATOM      4  C   UNL     1      42.219 132.453  18.664  1.00  0.00     0.032 A 
ATOM      5  C   UNL     1      43.486 131.858  18.649  1.00  0.00     0.071 A 
ATOM      6  N   UNL     1      44.104 131.600  17.468  1.00  0.00    -0.247 NA
ATOM      7  C   UNL     1      45.338 131.023  17.384  1.00  0.00     0.080 A 
ATOM      8  C   UNL     1      45.997 130.681  18.587  1.00  0.00     0.030 A 
ATOM      9  C   UNL     1      45.386 130.935  19.817  1.00  0.00     0.013 A 
ATOM     10  C   UNL     1      44.121 131.527  19.862  1.00  0.00     0.003 A 
ATOM     11  C   UNL     1      43.482 131.795  21.082  1.00  0.00     0.049 A 
ENDROOT
BRANCH   7  12
ATOM     12  C   UNL     1      45.939 130.778  16.027  1.00  0.00     0.104 A 
ATOM     13  C   UNL     1      46.495 131.822  15.255  1.00  0.00     0.026 A 
ATOM     14  C   UNL     1      45.971 129.473  15.471  1.00  0.00     0.367 A 
ATOM     15  C   UNL     1      47.045 131.565  14.000  1.00  0.00     0.072 A 
ATOM     16  N   UNL     1      46.517 129.257  14.243  1.00  0.00    -0.186 N 
ATOM     17  C   UNL     1      47.049 130.265  13.506  1.00  0.00     0.309 A 
ATOM     18  F   UNL     1      45.462 128.408  16.140  1.00  0.00    -0.135 F 
ATOM     19  H   UNL     1      46.529 128.287  13.854  1.00  0.00     0.456 HD
ENDBRANCH   7  12
TORSDOF 1
ENDMDL
MODEL 8
REMARK VINA RESULT:      -8.5      1.939      6.508
REMARK SMILES Fc1ccc2nc(-c3ccc[nH+]c3F)ccc2c1
REMARK SMILES IDX 1 1 2 2 3 3 4 4 5 5 6 6 7 7 15 8 16 9 17 10 18 11 8 12 9 13
REMARK SMILES IDX 13 14 10 15 12 16 11 17 14 18
REMARK H PARENT 12 19
ROOT
ATOM      1  F   UNL     1      48.178 130.258  12.083  1.00  0.00    -0.207 F 
ATOM      2  C   UNL     1      47.641 130.253  13.328  1.00  0.00     0.123 A 
ATOM      3  C   UNL     1      47.728 129.104  14.121  1.00  0.00     0.041 A 
ATOM      4  C   UNL     1      47.175 129.094  15.407  1.00  0.00     0.032 A 
ATOM      5  C   UNL     1      46.532 130.235  15.901  1.00  0.00     0.071 A 
ATOM      6  N   UNL     1      45.994 130.229  17.148  1.00  0.00    -0.247 NA
ATOM      7  C   UNL     1      45.356 131.307  17.689  1.00  0.00     0.080 A 
ATOM      8  C   UNL     1      45.254 132.482  16.909  1.00  0.00     0.030 A 
ATOM      9  C   UNL     1      45.798 132.518  15.623  1.00  0.00     0.013 A 
ATOM     10  C   UNL     1      46.444 131.393  15.103  1.00  0.00     0.003 A 
ATOM     11  C   UNL     1      47.000 131.399  13.816  1.00  0.00     0.049 A 
ENDROOT
BRANCH   7  12
ATOM     12  C   UNL     1      44.793 131.202  19.080  1.00  0.00     0.104 A 
ATOM     13  C   UNL     1      45.545 130.674  20.153  1.00  0.00     0.026 A 
ATOM     14  C   UNL     1      43.474 131.635  19.366  1.00  0.00     0.367 A 
ATOM     15  C   UNL     1      44.997 130.587  21.432  1.00  0.00     0.072 A 
ATOM     16  N   UNL     1      42.970 131.538  20.627  1.00  0.00    -0.186 N 
ATOM     17  C   UNL     1      43.698 131.029  21.653  1.00  0.00     0.309 A 
ATOM     18  F   UNL     1      42.678 132.157  18.398  1.00  0.00    -0.135 F 
ATOM     19  H   UNL     1      41.995 131.864  20.812  1.00  0.00     0.456 HD
ENDBRANCH   7  12
TORSDOF 1
ENDMDL
MODEL 9
REMARK VINA RESULT:      -8.3      2.067      6.709
REMARK SMILES Fc1ccc2nc(-c3ccc[nH+]c3F)ccc2c1
REMARK SMILES IDX 1 1 2 2 3 3 4 4 5 5 6 6 7 7 15 8 16 9 17 10 18 11 8 12 9 13
REMARK SMILES IDX 13 14 10 15 12 16 11 17 14 18
REMARK H PARENT 12 19
ROOT
ATOM      1  F   UNL     1      46.423 130.637  13.009  1.00  0.00    -0.207 F 
ATOM      2  C   UNL     1      45.826 130.867  14.205  1.00  0.00     0.123 A 
ATOM      3  C   UNL     1      44.585 131.511  14.254  1.00  0.00     0.041 A 
ATOM      4  C   UNL     1      43.965 131.751  15.485  1.00  0.00     0.032 A 
ATOM      5  C   UNL     1      44.587 131.346  16.672  1.00  0.00     0.071 A 
ATOM      6  N   UNL     1      43.989 131.577  17.869  1.00  0.00    -0.247 NA
ATOM      7  C   UNL     1      44.541 131.208  19.061  1.00  0.00     0.080 A 
ATOM      8  C   UNL     1      45.794 130.554  19.041  1.00  0.00     0.030 A 
ATOM      9  C   UNL     1      46.434 130.303  17.825  1.00  0.00     0.013 A 
ATOM     10  C   UNL     1      45.837 130.697  16.625  1.00  0.00     0.003 A 
ATOM     11  C   UNL     1      46.454 130.459  15.388  1.00  0.00     0.049 A 
ENDROOT
BRANCH   7  12
ATOM     12  C   UNL     1      43.798 131.508  20.334  1.00  0.00     0.104 A 
ATOM     13  C   UNL     1      44.277 131.091  21.597  1.00  0.00     0.026 A 
ATOM     14  C   UNL     1      42.578 132.230  20.311  1.00  0.00     0.367 A 
ATOM     15  C   UNL     1      43.567 131.383  22.760  1.00  0.00     0.072 A 
ATOM     16  N   UNL     1      41.910 132.500  21.467  1.00  0.00    -0.186 N 
ATOM     17  C   UNL     1      42.376 132.095  22.676  1.00  0.00     0.309 A 
ATOM     18  F   UNL     1      42.042 132.672  19.146  1.00  0.00    -0.135 F 
ATOM     19  H   UNL     1      41.013 133.033  21.425  1.00  0.00     0.456 HD
ENDBRANCH   7  12
TORSDOF 1
ENDMDL


