MODEL 1
REMARK VINA RESULT:      -2.2      0.000      0.000
REMARK SMILES CC1=CCC=C[C@H]1C(=O)Oc1cc(F)c(Nc2ccc3cc[nH]c3c2)c(-c2ccc(C(N)=O)cc2)c1O
REMARK SMILES IDX 11 1 12 2 13 3 14 4 15 5 26 6 36 7 10 8 8 9 9 10 7 11 2 12
REMARK SMILES IDX 3 13 4 14 6 15 5 16 1 17 37 18 27 20 28 21 35 22 29 23 34 24
REMARK SMILES IDX 30 25 31 26 32 27 33 28 16 31 17 33 18 34 25 35 19 36 24 37
REMARK SMILES IDX 20 38 23 39 21 40 22 41
REMARK H PARENT 37 19 32 29 32 30 16 32 23 42
ROOT
ATOM      1  C   UNL     1      47.084 133.491  22.914  1.00  0.00     0.176 A 
ATOM      2  C   UNL     1      46.085 133.388  23.897  1.00  0.00     0.092 A 
ATOM      3  C   UNL     1      44.922 132.657  23.652  1.00  0.00     0.151 A 
ATOM      4  F   UNL     1      43.976 132.571  24.622  1.00  0.00    -0.205 F 
ATOM      5  C   UNL     1      44.732 132.008  22.424  1.00  0.00     0.087 A 
ATOM      6  C   UNL     1      45.713 132.141  21.405  1.00  0.00     0.054 A 
ATOM      7  C   UNL     1      46.886 132.880  21.662  1.00  0.00     0.168 A 
ENDROOT
BRANCH   1   8
ATOM      8  O   UNL     1      48.253 134.237  23.125  1.00  0.00    -0.422 OA
BRANCH   8   9
ATOM      9  C   UNL     1      48.772 135.208  22.260  1.00  0.00     0.322 C 
ATOM     10  O   UNL     1      48.009 135.909  21.538  1.00  0.00    -0.251 OA
BRANCH   9  11
ATOM     11  C   UNL     1      50.249 135.471  22.267  1.00  0.00     0.147 C 
ATOM     12  C   UNL     1      50.539 136.899  21.839  1.00  0.00    -0.059 C 
ATOM     13  C   UNL     1      51.058 137.802  22.691  1.00  0.00    -0.023 C 
ATOM     14  C   UNL     1      51.377 137.490  24.129  1.00  0.00     0.054 C 
ATOM     15  C   UNL     1      50.815 135.111  23.618  1.00  0.00    -0.012 C 
ATOM     16  C   UNL     1      51.322 136.023  24.458  1.00  0.00    -0.026 C 
ATOM     17  C   UNL     1      50.221 137.323  20.432  1.00  0.00     0.040 C 
ENDBRANCH   9  11
ENDBRANCH   8   9
ENDBRANCH   1   8
BRANCH   7  18
ATOM     18  O   UNL     1      47.846 133.015  20.656  1.00  0.00    -0.504 OA
ATOM     19  H   UNL     1      47.604 133.257  19.702  1.00  0.00     0.293 HD
ENDBRANCH   7  18
BRANCH   6  20
ATOM     20  C   UNL     1      45.508 131.553  20.060  1.00  0.00    -0.012 A 
ATOM     21  C   UNL     1      46.189 130.387  19.682  1.00  0.00     0.010 A 
ATOM     22  C   UNL     1      44.677 132.196  19.130  1.00  0.00     0.010 A 
ATOM     23  C   UNL     1      46.067 129.888  18.381  1.00  0.00     0.014 A 
ATOM     24  C   UNL     1      44.557 131.701  17.830  1.00  0.00     0.014 A 
ATOM     25  C   UNL     1      45.251 130.543  17.440  1.00  0.00     0.039 A 
BRANCH  25  26
ATOM     26  C   UNL     1      45.143 130.050  16.047  1.00  0.00     0.248 C 
ATOM     27  N   UNL     1      44.590 130.865  15.010  1.00  0.00    -0.366 N 
ATOM     28  O   UNL     1      45.558 128.895  15.760  1.00  0.00    -0.270 OA
ATOM     29  H   UNL     1      44.473 130.472  14.050  1.00  0.00     0.159 HD
ATOM     30  H   UNL     1      44.368 131.874  15.162  1.00  0.00     0.159 HD
ENDBRANCH  25  26
ENDBRANCH   6  20
BRANCH   5  31
ATOM     31  N   UNL     1      43.521 131.255  22.223  1.00  0.00    -0.352 N 
ATOM     32  H   UNL     1      42.776 131.672  21.619  1.00  0.00     0.167 HD
BRANCH  31  33
ATOM     33  C   UNL     1      43.280 129.960  22.803  1.00  0.00     0.041 A 
ATOM     34  C   UNL     1      42.038 129.702  23.433  1.00  0.00     0.027 A 
ATOM     35  C   UNL     1      44.246 128.932  22.707  1.00  0.00     0.052 A 
ATOM     36  C   UNL     1      41.725 128.413  23.907  1.00  0.00     0.012 A 
ATOM     37  C   UNL     1      43.904 127.667  23.188  1.00  0.00     0.047 A 
ATOM     38  C   UNL     1      42.685 127.418  23.757  1.00  0.00    -0.001 A 
ATOM     39  N   UNL     1      44.641 126.546  23.129  1.00  0.00    -0.361 N 
ATOM     40  C   UNL     1      42.642 126.077  24.072  1.00  0.00     0.028 A 
ATOM     41  C   UNL     1      43.872 125.570  23.667  1.00  0.00     0.083 A 
ATOM     42  H   UNL     1      45.599 126.440  22.729  1.00  0.00     0.166 HD
ENDBRANCH  31  33
ENDBRANCH   5  31
TORSDOF 8
ENDMDL


