MODEL 1
REMARK VINA RESULT:      -4.7      0.000      0.000
REMARK SMILES N#C[C@H]1C[C@@H]1C(=O)N(c1ccc2cc[nH]c2c1)c1c2o[n-]cc-2cc(-n2nc3ccccc3n2)c1=O
REMARK SMILES IDX 6 1 7 2 5 3 3 4 4 5 2 6 1 7 8 8 9 9 10 10 17 11 11 12 16 13
REMARK SMILES IDX 12 14 15 15 13 16 14 17 18 19 19 20 35 21 20 22 23 23 25 24
REMARK SMILES IDX 21 25 22 26 24 27 36 28 26 29 27 30 34 31 28 32 33 33 29 34
REMARK SMILES IDX 32 35 30 36 31 37
REMARK H PARENT 15 18
ROOT
ATOM      1  C   UNL     1      44.331 130.190  22.721  1.00  0.00     0.236 C 
ATOM      2  O   UNL     1      43.829 130.369  23.863  1.00  0.00    -0.274 OA
ENDROOT
BRANCH   1   3
ATOM      3  C   UNL     1      44.434 128.791  22.181  1.00  0.00     0.098 C 
ATOM      4  C   UNL     1      44.626 127.729  23.257  1.00  0.00     0.106 C 
ATOM      5  C   UNL     1      45.794 128.127  22.368  1.00  0.00     0.034 C 
BRANCH   4   6
ATOM      6  C   UNL     1      44.025 126.432  22.922  1.00  0.00     0.066 C 
ATOM      7  N   UNL     1      43.548 125.411  22.660  1.00  0.00    -0.198 NA
ENDBRANCH   4   6
ENDBRANCH   1   3
BRANCH   1   8
ATOM      8  N   UNL     1      44.827 131.315  21.966  1.00  0.00    -0.273 N 
BRANCH   8   9
ATOM      9  C   UNL     1      45.736 132.259  22.566  1.00  0.00     0.051 A 
ATOM     10  C   UNL     1      45.496 132.743  23.880  1.00  0.00     0.027 A 
ATOM     11  C   UNL     1      46.896 132.678  21.872  1.00  0.00     0.053 A 
ATOM     12  C   UNL     1      46.391 133.638  24.494  1.00  0.00     0.012 A 
ATOM     13  C   UNL     1      47.761 133.564  22.510  1.00  0.00     0.047 A 
ATOM     14  C   UNL     1      47.517 134.025  23.775  1.00  0.00    -0.000 A 
ATOM     15  N   UNL     1      48.909 134.070  22.031  1.00  0.00    -0.361 N 
ATOM     16  C   UNL     1      48.555 134.864  24.115  1.00  0.00     0.028 A 
ATOM     17  C   UNL     1      49.399 134.866  23.009  1.00  0.00     0.083 A 
ATOM     18  H   UNL     1      49.342 133.886  21.098  1.00  0.00     0.166 HD
ENDBRANCH   8   9
BRANCH   8  19
ATOM     19  C   UNL     1      44.351 131.549  20.626  1.00  0.00     0.141 A 
ATOM     20  C   UNL     1      43.100 132.111  20.406  1.00  0.00     0.141 A 
ATOM     21  C   UNL     1      45.122 131.205  19.485  1.00  0.00     0.233 A 
ATOM     22  O   UNL     1      42.196 132.512  21.262  1.00  0.00    -0.555 OA
ATOM     23  C   UNL     1      42.600 132.321  19.096  1.00  0.00     0.000 A 
ATOM     24  C   UNL     1      44.618 131.417  18.157  1.00  0.00     0.136 A 
ATOM     25  N   UNL     1      41.144 132.971  20.631  1.00  0.00    -0.513 NA
ATOM     26  C   UNL     1      41.356 132.870  19.294  1.00  0.00    -0.098 A 
ATOM     27  C   UNL     1      43.330 131.980  17.971  1.00  0.00     0.044 A 
ATOM     28  O   UNL     1      46.270 130.714  19.656  1.00  0.00    -0.285 OA
BRANCH  24  29
ATOM     29  N   UNL     1      45.403 131.070  16.995  1.00  0.00    -0.146 N 
ATOM     30  N   UNL     1      46.001 129.891  16.818  1.00  0.00    -0.148 NA
ATOM     31  N   UNL     1      45.621 131.910  15.982  1.00  0.00    -0.148 NA
ATOM     32  C   UNL     1      46.623 129.990  15.635  1.00  0.00     0.113 A 
ATOM     33  C   UNL     1      46.391 131.226  15.123  1.00  0.00     0.113 A 
ATOM     34  C   UNL     1      47.406 129.048  14.976  1.00  0.00     0.032 A 
ATOM     35  C   UNL     1      46.917 131.636  13.902  1.00  0.00     0.032 A 
ATOM     36  C   UNL     1      47.960 129.422  13.735  1.00  0.00     0.002 A 
ATOM     37  C   UNL     1      47.715 130.711  13.200  1.00  0.00     0.002 A 
ENDBRANCH  24  29
ENDBRANCH   8  19
ENDBRANCH   1   8
TORSDOF 6
ENDMDL
MODEL 2
REMARK VINA RESULT:      -4.0      2.138      7.232
REMARK SMILES N#C[C@H]1C[C@@H]1C(=O)N(c1ccc2cc[nH]c2c1)c1c2o[n-]cc-2cc(-n2nc3ccccc3n2)c1=O
REMARK SMILES IDX 6 1 7 2 5 3 3 4 4 5 2 6 1 7 8 8 9 9 10 10 17 11 11 12 16 13
REMARK SMILES IDX 12 14 15 15 13 16 14 17 18 19 19 20 35 21 20 22 23 23 25 24
REMARK SMILES IDX 21 25 22 26 24 27 36 28 26 29 27 30 34 31 28 32 33 33 29 34
REMARK SMILES IDX 32 35 30 36 31 37
REMARK H PARENT 15 18
ROOT
ATOM      1  C   UNL     1      45.890 132.703  20.940  1.00  0.00     0.236 C 
ATOM      2  O   UNL     1      45.524 133.808  20.457  1.00  0.00    -0.274 OA
ENDROOT
BRANCH   1   3
ATOM      3  C   UNL     1      47.005 132.683  21.949  1.00  0.00     0.098 C 
ATOM      4  C   UNL     1      47.650 134.043  22.181  1.00  0.00     0.106 C 
ATOM      5  C   UNL     1      48.390 132.981  21.384  1.00  0.00     0.034 C 
BRANCH   4   6
ATOM      6  C   UNL     1      48.152 134.234  23.547  1.00  0.00     0.066 C 
ATOM      7  N   UNL     1      48.547 134.389  24.624  1.00  0.00    -0.198 NA
ENDBRANCH   4   6
ENDBRANCH   1   3
BRANCH   1   8
ATOM      8  N   UNL     1      45.266 131.480  20.499  1.00  0.00    -0.273 N 
BRANCH   8   9
ATOM      9  C   UNL     1      45.097 131.207  19.094  1.00  0.00     0.051 A 
ATOM     10  C   UNL     1      43.938 131.666  18.413  1.00  0.00     0.027 A 
ATOM     11  C   UNL     1      46.100 130.517  18.373  1.00  0.00     0.053 A 
ATOM     12  C   UNL     1      43.774 131.438  17.035  1.00  0.00     0.012 A 
ATOM     13  C   UNL     1      45.905 130.309  17.009  1.00  0.00     0.047 A 
ATOM     14  C   UNL     1      44.784 130.755  16.365  1.00  0.00    -0.000 A 
ATOM     15  N   UNL     1      46.734 129.691  16.152  1.00  0.00    -0.361 N 
ATOM     16  C   UNL     1      44.903 130.403  15.038  1.00  0.00     0.028 A 
ATOM     17  C   UNL     1      46.126 129.745  14.945  1.00  0.00     0.083 A 
ATOM     18  H   UNL     1      47.661 129.260  16.367  1.00  0.00     0.166 HD
ENDBRANCH   8   9
BRANCH   8  19
ATOM     19  C   UNL     1      44.730 130.556  21.467  1.00  0.00     0.141 A 
ATOM     20  C   UNL     1      43.742 130.956  22.357  1.00  0.00     0.141 A 
ATOM     21  C   UNL     1      45.193 129.219  21.564  1.00  0.00     0.233 A 
ATOM     22  O   UNL     1      43.146 132.113  22.489  1.00  0.00    -0.555 OA
ATOM     23  C   UNL     1      43.223 130.071  23.337  1.00  0.00     0.000 A 
ATOM     24  C   UNL     1      44.669 128.320  22.555  1.00  0.00     0.136 A 
ATOM     25  N   UNL     1      42.277 132.069  23.468  1.00  0.00    -0.513 NA
ATOM     26  C   UNL     1      42.297 130.827  24.015  1.00  0.00    -0.098 A 
ATOM     27  C   UNL     1      43.671 128.768  23.457  1.00  0.00     0.044 A 
ATOM     28  O   UNL     1      46.073 128.822  20.753  1.00  0.00    -0.285 OA
BRANCH  24  29
ATOM     29  N   UNL     1      45.138 126.958  22.652  1.00  0.00    -0.146 N 
ATOM     30  N   UNL     1      44.402 125.940  23.101  1.00  0.00    -0.148 NA
ATOM     31  N   UNL     1      46.374 126.584  22.314  1.00  0.00    -0.148 NA
ATOM     32  C   UNL     1      45.210 124.872  23.039  1.00  0.00     0.113 A 
ATOM     33  C   UNL     1      46.417 125.266  22.558  1.00  0.00     0.113 A 
ATOM     34  C   UNL     1      44.948 123.554  23.399  1.00  0.00     0.032 A 
ATOM     35  C   UNL     1      47.475 124.379  22.387  1.00  0.00     0.032 A 
ATOM     36  C   UNL     1      45.993 122.622  23.243  1.00  0.00     0.002 A 
ATOM     37  C   UNL     1      47.252 123.033  22.739  1.00  0.00     0.002 A 
ENDBRANCH  24  29
ENDBRANCH   8  19
ENDBRANCH   1   8
TORSDOF 6
ENDMDL
MODEL 3
REMARK VINA RESULT:      -3.6      1.145      1.357
REMARK SMILES N#C[C@H]1C[C@@H]1C(=O)N(c1ccc2cc[nH]c2c1)c1c2o[n-]cc-2cc(-n2nc3ccccc3n2)c1=O
REMARK SMILES IDX 6 1 7 2 5 3 3 4 4 5 2 6 1 7 8 8 9 9 10 10 17 11 11 12 16 13
REMARK SMILES IDX 12 14 15 15 13 16 14 17 18 19 19 20 35 21 20 22 23 23 25 24
REMARK SMILES IDX 21 25 22 26 24 27 36 28 26 29 27 30 34 31 28 32 33 33 29 34
REMARK SMILES IDX 32 35 30 36 31 37
REMARK H PARENT 15 18
ROOT
ATOM      1  C   UNL     1      44.606 131.399  22.530  1.00  0.00     0.236 C 
ATOM      2  O   UNL     1      44.531 131.943  23.664  1.00  0.00    -0.274 OA
ENDROOT
BRANCH   1   3
ATOM      3  C   UNL     1      44.090 129.998  22.359  1.00  0.00     0.098 C 
ATOM      4  C   UNL     1      44.332 129.100  23.566  1.00  0.00     0.106 C 
ATOM      5  C   UNL     1      45.165 128.917  22.307  1.00  0.00     0.034 C 
BRANCH   4   6
ATOM      6  C   UNL     1      43.297 128.078  23.761  1.00  0.00     0.066 C 
ATOM      7  N   UNL     1      42.478 127.275  23.914  1.00  0.00    -0.198 NA
ENDBRANCH   4   6
ENDBRANCH   1   3
BRANCH   1   8
ATOM      8  N   UNL     1      45.211 132.107  21.428  1.00  0.00    -0.273 N 
BRANCH   8   9
ATOM      9  C   UNL     1      46.325 132.995  21.650  1.00  0.00     0.051 A 
ATOM     10  C   UNL     1      46.330 134.291  21.067  1.00  0.00     0.027 A 
ATOM     11  C   UNL     1      47.400 132.603  22.482  1.00  0.00     0.053 A 
ATOM     12  C   UNL     1      47.392 135.183  21.301  1.00  0.00     0.012 A 
ATOM     13  C   UNL     1      48.436 133.511  22.692  1.00  0.00     0.047 A 
ATOM     14  C   UNL     1      48.429 134.755  22.123  1.00  0.00    -0.000 A 
ATOM     15  N   UNL     1      49.532 133.337  23.448  1.00  0.00    -0.361 N 
ATOM     16  C   UNL     1      49.575 135.402  22.533  1.00  0.00     0.028 A 
ATOM     17  C   UNL     1      50.232 134.491  23.354  1.00  0.00     0.083 A 
ATOM     18  H   UNL     1      49.792 132.490  24.001  1.00  0.00     0.166 HD
ENDBRANCH   8   9
BRANCH   8  19
ATOM     19  C   UNL     1      44.652 131.993  20.106  1.00  0.00     0.141 A 
ATOM     20  C   UNL     1      43.306 132.252  19.880  1.00  0.00     0.141 A 
ATOM     21  C   UNL     1      45.436 131.601  18.990  1.00  0.00     0.233 A 
ATOM     22  O   UNL     1      42.369 132.621  20.715  1.00  0.00    -0.555 OA
ATOM     23  C   UNL     1      42.729 132.116  18.592  1.00  0.00     0.000 A 
ATOM     24  C   UNL     1      44.855 131.463  17.684  1.00  0.00     0.136 A 
ATOM     25  N   UNL     1      41.225 132.743  20.090  1.00  0.00    -0.513 NA
ATOM     26  C   UNL     1      41.407 132.440  18.779  1.00  0.00    -0.098 A 
ATOM     27  C   UNL     1      43.474 131.721  17.495  1.00  0.00     0.044 A 
ATOM     28  O   UNL     1      46.666 131.382  19.162  1.00  0.00    -0.285 OA
BRANCH  24  29
ATOM     29  N   UNL     1      45.653 131.066  16.548  1.00  0.00    -0.146 N 
ATOM     30  N   UNL     1      46.210 129.862  16.404  1.00  0.00    -0.148 NA
ATOM     31  N   UNL     1      45.929 131.880  15.527  1.00  0.00    -0.148 NA
ATOM     32  C   UNL     1      46.864 129.918  15.236  1.00  0.00     0.113 A 
ATOM     33  C   UNL     1      46.692 131.153  14.699  1.00  0.00     0.113 A 
ATOM     34  C   UNL     1      47.626 128.935  14.611  1.00  0.00     0.032 A 
ATOM     35  C   UNL     1      47.263 131.521  13.485  1.00  0.00     0.032 A 
ATOM     36  C   UNL     1      48.223 129.267  13.379  1.00  0.00     0.002 A 
ATOM     37  C   UNL     1      48.042 130.555  12.817  1.00  0.00     0.002 A 
ENDBRANCH  24  29
ENDBRANCH   8  19
ENDBRANCH   1   8
TORSDOF 6
ENDMDL
MODEL 4
REMARK VINA RESULT:      -2.3      1.467      1.901
REMARK SMILES N#C[C@H]1C[C@@H]1C(=O)N(c1ccc2cc[nH]c2c1)c1c2o[n-]cc-2cc(-n2nc3ccccc3n2)c1=O
REMARK SMILES IDX 6 1 7 2 5 3 3 4 4 5 2 6 1 7 8 8 9 9 10 10 17 11 11 12 16 13
REMARK SMILES IDX 12 14 15 15 13 16 14 17 18 19 19 20 35 21 20 22 23 23 25 24
REMARK SMILES IDX 21 25 22 26 24 27 36 28 26 29 27 30 34 31 28 32 33 33 29 34
REMARK SMILES IDX 32 35 30 36 31 37
REMARK H PARENT 15 18
ROOT
ATOM      1  C   UNL     1      44.538 129.990  22.113  1.00  0.00     0.236 C 
ATOM      2  O   UNL     1      45.262 128.960  22.156  1.00  0.00    -0.274 OA
ENDROOT
BRANCH   1   3
ATOM      3  C   UNL     1      43.190 129.963  22.778  1.00  0.00     0.098 C 
ATOM      4  C   UNL     1      43.080 130.887  23.985  1.00  0.00     0.106 C 
ATOM      5  C   UNL     1      43.180 129.383  24.189  1.00  0.00     0.034 C 
BRANCH   4   6
ATOM      6  C   UNL     1      41.735 131.437  24.188  1.00  0.00     0.066 C 
ATOM      7  N   UNL     1      40.675 131.873  24.351  1.00  0.00    -0.198 NA
ENDBRANCH   4   6
ENDBRANCH   1   3
BRANCH   1   8
ATOM      8  N   UNL     1      44.992 131.162  21.404  1.00  0.00    -0.273 N 
BRANCH   8   9
ATOM      9  C   UNL     1      45.824 132.140  22.059  1.00  0.00     0.051 A 
ATOM     10  C   UNL     1      45.562 132.513  23.405  1.00  0.00     0.027 A 
ATOM     11  C   UNL     1      46.932 132.706  21.384  1.00  0.00     0.053 A 
ATOM     12  C   UNL     1      46.384 133.440  24.069  1.00  0.00     0.012 A 
ATOM     13  C   UNL     1      47.725 133.621  22.072  1.00  0.00     0.047 A 
ATOM     14  C   UNL     1      47.461 133.972  23.367  1.00  0.00    -0.000 A 
ATOM     15  N   UNL     1      48.817 134.257  21.618  1.00  0.00    -0.361 N 
ATOM     16  C   UNL     1      48.427 134.876  23.755  1.00  0.00     0.028 A 
ATOM     17  C   UNL     1      49.250 135.027  22.643  1.00  0.00     0.083 A 
ATOM     18  H   UNL     1      49.250 134.175  20.671  1.00  0.00     0.166 HD
ENDBRANCH   8   9
BRANCH   8  19
ATOM     19  C   UNL     1      44.546 131.404  20.055  1.00  0.00     0.141 A 
ATOM     20  C   UNL     1      43.298 131.959  19.810  1.00  0.00     0.141 A 
ATOM     21  C   UNL     1      45.347 131.075  18.931  1.00  0.00     0.233 A 
ATOM     22  O   UNL     1      42.370 132.347  20.647  1.00  0.00    -0.555 OA
ATOM     23  C   UNL     1      42.828 132.177  18.489  1.00  0.00     0.000 A 
ATOM     24  C   UNL     1      44.874 131.296  17.592  1.00  0.00     0.136 A 
ATOM     25  N   UNL     1      41.331 132.804  19.995  1.00  0.00    -0.513 NA
ATOM     26  C   UNL     1      41.576 132.715  18.662  1.00  0.00    -0.098 A 
ATOM     27  C   UNL     1      43.587 131.851  17.380  1.00  0.00     0.044 A 
ATOM     28  O   UNL     1      46.494 130.591  19.124  1.00  0.00    -0.285 OA
BRANCH  24  29
ATOM     29  N   UNL     1      45.689 130.964  16.447  1.00  0.00    -0.146 N 
ATOM     30  N   UNL     1      46.365 129.822  16.312  1.00  0.00    -0.148 NA
ATOM     31  N   UNL     1      45.860 131.784  15.408  1.00  0.00    -0.148 NA
ATOM     32  C   UNL     1      46.989 129.924  15.130  1.00  0.00     0.113 A 
ATOM     33  C   UNL     1      46.680 131.125  14.577  1.00  0.00     0.113 A 
ATOM     34  C   UNL     1      47.838 129.015  14.506  1.00  0.00     0.032 A 
ATOM     35  C   UNL     1      47.188 131.529  13.346  1.00  0.00     0.032 A 
ATOM     36  C   UNL     1      48.375 129.385  13.257  1.00  0.00     0.002 A 
ATOM     37  C   UNL     1      48.051 130.637  12.679  1.00  0.00     0.002 A 
ENDBRANCH  24  29
ENDBRANCH   8  19
ENDBRANCH   1   8
TORSDOF 6
ENDMDL
MODEL 5
REMARK VINA RESULT:      -1.9      1.036      1.779
REMARK SMILES N#C[C@H]1C[C@@H]1C(=O)N(c1ccc2cc[nH]c2c1)c1c2o[n-]cc-2cc(-n2nc3ccccc3n2)c1=O
REMARK SMILES IDX 6 1 7 2 5 3 3 4 4 5 2 6 1 7 8 8 9 9 10 10 17 11 11 12 16 13
REMARK SMILES IDX 12 14 15 15 13 16 14 17 18 19 19 20 35 21 20 22 23 23 25 24
REMARK SMILES IDX 21 25 22 26 24 27 36 28 26 29 27 30 34 31 28 32 33 33 29 34
REMARK SMILES IDX 32 35 30 36 31 37
REMARK H PARENT 15 18
ROOT
ATOM      1  C   UNL     1      44.614 131.711  23.130  1.00  0.00     0.236 C 
ATOM      2  O   UNL     1      43.867 132.400  23.875  1.00  0.00    -0.274 OA
ENDROOT
BRANCH   1   3
ATOM      3  C   UNL     1      44.872 130.273  23.485  1.00  0.00     0.098 C 
ATOM      4  C   UNL     1      44.216 129.277  22.537  1.00  0.00     0.106 C 
ATOM      5  C   UNL     1      43.642 129.489  23.929  1.00  0.00     0.034 C 
BRANCH   4   6
ATOM      6  C   UNL     1      44.970 128.028  22.377  1.00  0.00     0.066 C 
ATOM      7  N   UNL     1      45.568 127.046  22.251  1.00  0.00    -0.198 NA
ENDBRANCH   4   6
ENDBRANCH   1   3
BRANCH   1   8
ATOM      8  N   UNL     1      45.235 132.313  21.975  1.00  0.00    -0.273 N 
BRANCH   8   9
ATOM      9  C   UNL     1      46.419 133.124  22.117  1.00  0.00     0.051 A 
ATOM     10  C   UNL     1      46.687 134.162  21.185  1.00  0.00     0.027 A 
ATOM     11  C   UNL     1      47.299 132.921  23.206  1.00  0.00     0.053 A 
ATOM     12  C   UNL     1      47.819 134.984  21.328  1.00  0.00     0.012 A 
ATOM     13  C   UNL     1      48.411 133.754  23.318  1.00  0.00     0.047 A 
ATOM     14  C   UNL     1      48.659 134.749  22.413  1.00  0.00    -0.000 A 
ATOM     15  N   UNL     1      49.352 133.733  24.274  1.00  0.00    -0.361 N 
ATOM     16  C   UNL     1      49.813 135.389  22.809  1.00  0.00     0.028 A 
ATOM     17  C   UNL     1      50.214 134.730  23.968  1.00  0.00     0.083 A 
ATOM     18  H   UNL     1      49.411 133.085  25.092  1.00  0.00     0.166 HD
ENDBRANCH   8   9
BRANCH   8  19
ATOM     19  C   UNL     1      44.626 132.175  20.677  1.00  0.00     0.141 A 
ATOM     20  C   UNL     1      43.269 132.411  20.501  1.00  0.00     0.141 A 
ATOM     21  C   UNL     1      45.372 131.780  19.536  1.00  0.00     0.233 A 
ATOM     22  O   UNL     1      42.359 132.777  21.368  1.00  0.00    -0.555 OA
ATOM     23  C   UNL     1      42.644 132.251  19.238  1.00  0.00     0.000 A 
ATOM     24  C   UNL     1      44.742 131.617  18.255  1.00  0.00     0.136 A 
ATOM     25  N   UNL     1      41.190 132.875  20.786  1.00  0.00    -0.513 NA
ATOM     26  C   UNL     1      41.326 132.558  19.473  1.00  0.00    -0.098 A 
ATOM     27  C   UNL     1      43.351 131.854  18.118  1.00  0.00     0.044 A 
ATOM     28  O   UNL     1      46.610 131.581  19.662  1.00  0.00    -0.285 OA
BRANCH  24  29
ATOM     29  N   UNL     1      45.502 131.218  17.094  1.00  0.00    -0.146 N 
ATOM     30  N   UNL     1      45.800 132.027  16.076  1.00  0.00    -0.148 NA
ATOM     31  N   UNL     1      45.971 129.981  16.916  1.00  0.00    -0.148 NA
ATOM     32  C   UNL     1      46.493 131.267  15.218  1.00  0.00     0.113 A 
ATOM     33  C   UNL     1      46.598 130.015  15.732  1.00  0.00     0.113 A 
ATOM     34  C   UNL     1      47.036 131.612  13.984  1.00  0.00     0.032 A 
ATOM     35  C   UNL     1      47.260 128.989  15.063  1.00  0.00     0.032 A 
ATOM     36  C   UNL     1      47.714 130.602  13.271  1.00  0.00     0.002 A 
ATOM     37  C   UNL     1      47.826 129.296  13.809  1.00  0.00     0.002 A 
ENDBRANCH  24  29
ENDBRANCH   8  19
ENDBRANCH   1   8
TORSDOF 6
ENDMDL


