MODEL 1
REMARK VINA RESULT:      -5.3      0.000      0.000
REMARK SMILES N#C[C@H]1C[C@@H]1C(=O)N(c1ccc2cc[nH]c2c1)c1c2o[n-]cc-2cc(-n2nc3ccccc3n2)c1=O
REMARK SMILES IDX 6 1 7 2 5 3 3 4 4 5 2 6 1 7 8 8 9 9 10 10 17 11 11 12 16 13
REMARK SMILES IDX 12 14 15 15 13 16 14 17 18 19 19 20 35 21 20 22 23 23 25 24
REMARK SMILES IDX 21 25 22 26 24 27 36 28 26 29 27 30 34 31 28 32 33 33 29 34
REMARK SMILES IDX 32 35 30 36 31 37
REMARK H PARENT 15 18
ROOT
ATOM      1  C   UNL     1      45.653 132.398  22.358  1.00  0.00     0.236 C 
ATOM      2  O   UNL     1      45.024 133.091  23.203  1.00  0.00    -0.274 OA
ENDROOT
BRANCH   1   3
ATOM      3  C   UNL     1      47.074 132.759  22.030  1.00  0.00     0.098 C 
ATOM      4  C   UNL     1      47.666 133.810  22.959  1.00  0.00     0.106 C 
ATOM      5  C   UNL     1      47.279 134.188  21.538  1.00  0.00     0.034 C 
BRANCH   4   6
ATOM      6  C   UNL     1      49.109 133.661  23.178  1.00  0.00     0.066 C 
ATOM      7  N   UNL     1      50.248 133.542  23.347  1.00  0.00    -0.198 NA
ENDBRANCH   4   6
ENDBRANCH   1   3
BRANCH   1   8
ATOM      8  N   UNL     1      45.001 131.296  21.696  1.00  0.00    -0.273 N 
BRANCH   8   9
ATOM      9  C   UNL     1      44.883 130.016  22.350  1.00  0.00     0.051 A 
ATOM     10  C   UNL     1      44.340 129.931  23.659  1.00  0.00     0.027 A 
ATOM     11  C   UNL     1      45.273 128.833  21.679  1.00  0.00     0.053 A 
ATOM     12  C   UNL     1      44.196 128.687  24.299  1.00  0.00     0.012 A 
ATOM     13  C   UNL     1      45.113 127.618  22.341  1.00  0.00     0.047 A 
ATOM     14  C   UNL     1      44.596 127.550  23.606  1.00  0.00    -0.000 A 
ATOM     15  N   UNL     1      45.407 126.392  21.879  1.00  0.00    -0.361 N 
ATOM     16  C   UNL     1      44.561 126.221  23.966  1.00  0.00     0.028 A 
ATOM     17  C   UNL     1      45.071 125.535  22.869  1.00  0.00     0.083 A 
ATOM     18  H   UNL     1      45.800 126.147  20.943  1.00  0.00     0.166 HD
ENDBRANCH   8   9
BRANCH   8  19
ATOM     19  C   UNL     1      44.489 131.465  20.361  1.00  0.00     0.141 A 
ATOM     20  C   UNL     1      43.222 131.990  20.145  1.00  0.00     0.141 A 
ATOM     21  C   UNL     1      45.258 131.125  19.216  1.00  0.00     0.233 A 
ATOM     22  O   UNL     1      42.316 132.384  21.002  1.00  0.00    -0.555 OA
ATOM     23  C   UNL     1      42.707 132.175  18.835  1.00  0.00     0.000 A 
ATOM     24  C   UNL     1      44.743 131.321  17.890  1.00  0.00     0.136 A 
ATOM     25  N   UNL     1      41.251 132.815  20.375  1.00  0.00    -0.513 NA
ATOM     26  C   UNL     1      41.455 132.702  19.037  1.00  0.00    -0.098 A 
ATOM     27  C   UNL     1      43.440 131.849  17.708  1.00  0.00     0.044 A 
ATOM     28  O   UNL     1      46.414 130.651  19.381  1.00  0.00    -0.285 OA
BRANCH  24  29
ATOM     29  N   UNL     1      45.534 130.997  16.727  1.00  0.00    -0.146 N 
ATOM     30  N   UNL     1      46.055 129.794  16.487  1.00  0.00    -0.148 NA
ATOM     31  N   UNL     1      45.856 131.891  15.791  1.00  0.00    -0.148 NA
ATOM     32  C   UNL     1      46.733 129.933  15.338  1.00  0.00     0.113 A 
ATOM     33  C   UNL     1      46.610 131.217  14.911  1.00  0.00     0.113 A 
ATOM     34  C   UNL     1      47.479 128.986  14.643  1.00  0.00     0.032 A 
ATOM     35  C   UNL     1      47.215 131.673  13.744  1.00  0.00     0.032 A 
ATOM     36  C   UNL     1      48.110 129.408  13.455  1.00  0.00     0.002 A 
ATOM     37  C   UNL     1      47.976 130.745  13.006  1.00  0.00     0.002 A 
ENDBRANCH  24  29
ENDBRANCH   8  19
ENDBRANCH   1   8
TORSDOF 6
ENDMDL
MODEL 2
REMARK VINA RESULT:      -4.6      1.022      4.574
REMARK SMILES N#C[C@H]1C[C@@H]1C(=O)N(c1ccc2cc[nH]c2c1)c1c2o[n-]cc-2cc(-n2nc3ccccc3n2)c1=O
REMARK SMILES IDX 6 1 7 2 5 3 3 4 4 5 2 6 1 7 8 8 9 9 10 10 17 11 11 12 16 13
REMARK SMILES IDX 12 14 15 15 13 16 14 17 18 19 19 20 35 21 20 22 23 23 25 24
REMARK SMILES IDX 21 25 22 26 24 27 36 28 26 29 27 30 34 31 28 32 33 33 29 34
REMARK SMILES IDX 32 35 30 36 31 37
REMARK H PARENT 15 18
ROOT
ATOM      1  C   UNL     1      44.515 130.203  22.816  1.00  0.00     0.236 C 
ATOM      2  O   UNL     1      44.218 130.335  24.034  1.00  0.00    -0.274 OA
ENDROOT
BRANCH   1   3
ATOM      3  C   UNL     1      44.470 128.835  22.196  1.00  0.00     0.098 C 
ATOM      4  C   UNL     1      44.809 127.714  23.170  1.00  0.00     0.106 C 
ATOM      5  C   UNL     1      45.816 128.124  22.106  1.00  0.00     0.034 C 
BRANCH   4   6
ATOM      6  C   UNL     1      44.108 126.457  22.892  1.00  0.00     0.066 C 
ATOM      7  N   UNL     1      43.557 125.463  22.671  1.00  0.00    -0.198 NA
ENDBRANCH   4   6
ENDBRANCH   1   3
BRANCH   1   8
ATOM      8  N   UNL     1      44.923 131.349  22.042  1.00  0.00    -0.273 N 
BRANCH   8   9
ATOM      9  C   UNL     1      45.840 132.316  22.594  1.00  0.00     0.051 A 
ATOM     10  C   UNL     1      45.680 132.770  23.929  1.00  0.00     0.027 A 
ATOM     11  C   UNL     1      46.925 132.792  21.821  1.00  0.00     0.053 A 
ATOM     12  C   UNL     1      46.581 133.694  24.488  1.00  0.00     0.012 A 
ATOM     13  C   UNL     1      47.799 133.704  22.407  1.00  0.00     0.047 A 
ATOM     14  C   UNL     1      47.630 134.141  23.693  1.00  0.00    -0.000 A 
ATOM     15  N   UNL     1      48.888 134.262  21.854  1.00  0.00    -0.361 N 
ATOM     16  C   UNL     1      48.656 135.017  23.969  1.00  0.00     0.028 A 
ATOM     17  C   UNL     1      49.415 135.065  22.805  1.00  0.00     0.083 A 
ATOM     18  H   UNL     1      49.262 134.101  20.892  1.00  0.00     0.166 HD
ENDBRANCH   8   9
BRANCH   8  19
ATOM     19  C   UNL     1      44.391 131.545  20.718  1.00  0.00     0.141 A 
ATOM     20  C   UNL     1      43.139 132.113  20.530  1.00  0.00     0.141 A 
ATOM     21  C   UNL     1      45.126 131.187  19.556  1.00  0.00     0.233 A 
ATOM     22  O   UNL     1      42.263 132.531  21.408  1.00  0.00    -0.555 OA
ATOM     23  C   UNL     1      42.605 132.324  19.232  1.00  0.00     0.000 A 
ATOM     24  C   UNL     1      44.592 131.409  18.242  1.00  0.00     0.136 A 
ATOM     25  N   UNL     1      41.201 133.002  20.804  1.00  0.00    -0.513 NA
ATOM     26  C   UNL     1      41.375 132.892  19.462  1.00  0.00    -0.098 A 
ATOM     27  C   UNL     1      43.305 131.982  18.089  1.00  0.00     0.044 A 
ATOM     28  O   UNL     1      46.269 130.673  19.696  1.00  0.00    -0.285 OA
BRANCH  24  29
ATOM     29  N   UNL     1      45.349 131.068  17.062  1.00  0.00    -0.146 N 
ATOM     30  N   UNL     1      45.862 129.860  16.824  1.00  0.00    -0.148 NA
ATOM     31  N   UNL     1      45.646 131.947  16.104  1.00  0.00    -0.148 NA
ATOM     32  C   UNL     1      46.506 129.981  15.655  1.00  0.00     0.113 A 
ATOM     33  C   UNL     1      46.373 131.259  15.212  1.00  0.00     0.113 A 
ATOM     34  C   UNL     1      47.231 129.023  14.952  1.00  0.00     0.032 A 
ATOM     35  C   UNL     1      46.944 131.697  14.023  1.00  0.00     0.032 A 
ATOM     36  C   UNL     1      47.828 129.426  13.741  1.00  0.00     0.002 A 
ATOM     37  C   UNL     1      47.683 130.757  13.276  1.00  0.00     0.002 A 
ENDBRANCH  24  29
ENDBRANCH   8  19
ENDBRANCH   1   8
TORSDOF 6
ENDMDL
MODEL 3
REMARK VINA RESULT:      -3.7      1.719      6.473
REMARK SMILES N#C[C@H]1C[C@@H]1C(=O)N(c1ccc2cc[nH]c2c1)c1c2o[n-]cc-2cc(-n2nc3ccccc3n2)c1=O
REMARK SMILES IDX 6 1 7 2 5 3 3 4 4 5 2 6 1 7 8 8 9 9 10 10 17 11 11 12 16 13
REMARK SMILES IDX 12 14 15 15 13 16 14 17 18 19 19 20 35 21 20 22 23 23 25 24
REMARK SMILES IDX 21 25 22 26 24 27 36 28 26 29 27 30 34 31 28 32 33 33 29 34
REMARK SMILES IDX 32 35 30 36 31 37
REMARK H PARENT 15 18
ROOT
ATOM      1  C   UNL     1      45.843 132.635  20.962  1.00  0.00     0.236 C 
ATOM      2  O   UNL     1      45.440 133.743  20.517  1.00  0.00    -0.274 OA
ENDROOT
BRANCH   1   3
ATOM      3  C   UNL     1      46.983 132.611  21.940  1.00  0.00     0.098 C 
ATOM      4  C   UNL     1      47.654 133.965  22.127  1.00  0.00     0.106 C 
ATOM      5  C   UNL     1      48.358 132.875  21.334  1.00  0.00     0.034 C 
BRANCH   4   6
ATOM      6  C   UNL     1      48.190 134.179  23.476  1.00  0.00     0.066 C 
ATOM      7  N   UNL     1      48.609 134.347  24.541  1.00  0.00    -0.198 NA
ENDBRANCH   4   6
ENDBRANCH   1   3
BRANCH   1   8
ATOM      8  N   UNL     1      45.236 131.408  20.509  1.00  0.00    -0.273 N 
BRANCH   8   9
ATOM      9  C   UNL     1      45.088 131.142  19.099  1.00  0.00     0.051 A 
ATOM     10  C   UNL     1      43.926 131.572  18.409  1.00  0.00     0.027 A 
ATOM     11  C   UNL     1      46.117 130.480  18.388  1.00  0.00     0.053 A 
ATOM     12  C   UNL     1      43.780 131.341  17.030  1.00  0.00     0.012 A 
ATOM     13  C   UNL     1      45.941 130.270  17.022  1.00  0.00     0.047 A 
ATOM     14  C   UNL     1      44.812 130.683  16.369  1.00  0.00    -0.000 A 
ATOM     15  N   UNL     1      46.794 129.680  16.171  1.00  0.00    -0.361 N 
ATOM     16  C   UNL     1      44.952 130.338  15.043  1.00  0.00     0.028 A 
ATOM     17  C   UNL     1      46.194 129.719  14.960  1.00  0.00     0.083 A 
ATOM     18  H   UNL     1      47.736 129.283  16.391  1.00  0.00     0.166 HD
ENDBRANCH   8   9
BRANCH   8  19
ATOM     19  C   UNL     1      44.747 130.454  21.471  1.00  0.00     0.141 A 
ATOM     20  C   UNL     1      43.775 130.809  22.396  1.00  0.00     0.141 A 
ATOM     21  C   UNL     1      45.218 129.115  21.501  1.00  0.00     0.233 A 
ATOM     22  O   UNL     1      43.172 131.954  22.587  1.00  0.00    -0.555 OA
ATOM     23  C   UNL     1      43.274 129.877  23.343  1.00  0.00     0.000 A 
ATOM     24  C   UNL     1      44.705 128.168  22.451  1.00  0.00     0.136 A 
ATOM     25  N   UNL     1      42.316 131.860  23.574  1.00  0.00    -0.513 NA
ATOM     26  C   UNL     1      42.350 130.595  24.064  1.00  0.00    -0.098 A 
ATOM     27  C   UNL     1      43.721 128.569  23.388  1.00  0.00     0.044 A 
ATOM     28  O   UNL     1      46.098 128.762  20.670  1.00  0.00    -0.285 OA
BRANCH  24  29
ATOM     29  N   UNL     1      45.167 126.801  22.466  1.00  0.00    -0.146 N 
ATOM     30  N   UNL     1      46.426 126.433  22.224  1.00  0.00    -0.148 NA
ATOM     31  N   UNL     1      44.363 125.760  22.687  1.00  0.00    -0.148 NA
ATOM     32  C   UNL     1      46.417 125.095  22.304  1.00  0.00     0.113 A 
ATOM     33  C   UNL     1      45.154 124.682  22.589  1.00  0.00     0.113 A 
ATOM     34  C   UNL     1      47.468 124.201  22.121  1.00  0.00     0.032 A 
ATOM     35  C   UNL     1      44.825 123.338  22.726  1.00  0.00     0.032 A 
ATOM     36  C   UNL     1      47.176 122.828  22.249  1.00  0.00     0.002 A 
ATOM     37  C   UNL     1      45.861 122.398  22.553  1.00  0.00     0.002 A 
ENDBRANCH  24  29
ENDBRANCH   8  19
ENDBRANCH   1   8
TORSDOF 6
ENDMDL
MODEL 4
REMARK VINA RESULT:      -3.2      1.037      4.702
REMARK SMILES N#C[C@H]1C[C@@H]1C(=O)N(c1ccc2cc[nH]c2c1)c1c2o[n-]cc-2cc(-n2nc3ccccc3n2)c1=O
REMARK SMILES IDX 6 1 7 2 5 3 3 4 4 5 2 6 1 7 8 8 9 9 10 10 17 11 11 12 16 13
REMARK SMILES IDX 12 14 15 15 13 16 14 17 18 19 19 20 35 21 20 22 23 23 25 24
REMARK SMILES IDX 21 25 22 26 24 27 36 28 26 29 27 30 34 31 28 32 33 33 29 34
REMARK SMILES IDX 32 35 30 36 31 37
REMARK H PARENT 15 18
ROOT
ATOM      1  C   UNL     1      44.552 131.311  22.423  1.00  0.00     0.236 C 
ATOM      2  O   UNL     1      44.407 131.849  23.554  1.00  0.00    -0.274 OA
ENDROOT
BRANCH   1   3
ATOM      3  C   UNL     1      44.128 129.882  22.233  1.00  0.00     0.098 C 
ATOM      4  C   UNL     1      44.577 128.959  23.358  1.00  0.00     0.106 C 
ATOM      5  C   UNL     1      45.268 128.896  22.005  1.00  0.00     0.034 C 
BRANCH   4   6
ATOM      6  C   UNL     1      43.651 127.852  23.621  1.00  0.00     0.066 C 
ATOM      7  N   UNL     1      42.920 126.980  23.831  1.00  0.00    -0.198 NA
ENDBRANCH   4   6
ENDBRANCH   1   3
BRANCH   1   8
ATOM      8  N   UNL     1      45.149 132.052  21.340  1.00  0.00    -0.273 N 
BRANCH   8   9
ATOM      9  C   UNL     1      46.258 132.940  21.584  1.00  0.00     0.051 A 
ATOM     10  C   UNL     1      46.254 134.253  21.044  1.00  0.00     0.027 A 
ATOM     11  C   UNL     1      47.341 132.522  22.392  1.00  0.00     0.053 A 
ATOM     12  C   UNL     1      47.318 135.137  21.294  1.00  0.00     0.012 A 
ATOM     13  C   UNL     1      48.376 133.425  22.623  1.00  0.00     0.047 A 
ATOM     14  C   UNL     1      48.365 134.685  22.089  1.00  0.00    -0.000 A 
ATOM     15  N   UNL     1      49.478 133.232  23.365  1.00  0.00    -0.361 N 
ATOM     16  C   UNL     1      49.513 135.321  22.510  1.00  0.00     0.028 A 
ATOM     17  C   UNL     1      50.175 134.388  23.298  1.00  0.00     0.083 A 
ATOM     18  H   UNL     1      49.740 132.372  23.897  1.00  0.00     0.166 HD
ENDBRANCH   8   9
BRANCH   8  19
ATOM     19  C   UNL     1      44.615 131.926  20.008  1.00  0.00     0.141 A 
ATOM     20  C   UNL     1      43.282 132.208  19.744  1.00  0.00     0.141 A 
ATOM     21  C   UNL     1      45.427 131.531  18.911  1.00  0.00     0.233 A 
ATOM     22  O   UNL     1      42.326 132.590  20.552  1.00  0.00    -0.555 OA
ATOM     23  C   UNL     1      42.744 132.101  18.435  1.00  0.00     0.000 A 
ATOM     24  C   UNL     1      44.887 131.431  17.585  1.00  0.00     0.136 A 
ATOM     25  N   UNL     1      41.206 132.746  19.892  1.00  0.00    -0.513 NA
ATOM     26  C   UNL     1      41.424 132.455  18.584  1.00  0.00    -0.098 A 
ATOM     27  C   UNL     1      43.518 131.717  17.355  1.00  0.00     0.044 A 
ATOM     28  O   UNL     1      46.643 131.272  19.120  1.00  0.00    -0.285 OA
BRANCH  24  29
ATOM     29  N   UNL     1      45.718 131.052  16.467  1.00  0.00    -0.146 N 
ATOM     30  N   UNL     1      45.991 131.849  15.434  1.00  0.00    -0.148 NA
ATOM     31  N   UNL     1      46.266 129.843  16.341  1.00  0.00    -0.148 NA
ATOM     32  C   UNL     1      46.756 131.108  14.618  1.00  0.00     0.113 A 
ATOM     33  C   UNL     1      46.926 129.880  15.174  1.00  0.00     0.113 A 
ATOM     34  C   UNL     1      47.307 131.449  13.387  1.00  0.00     0.032 A 
ATOM     35  C   UNL     1      47.669 128.880  14.556  1.00  0.00     0.032 A 
ATOM     36  C   UNL     1      48.067 130.463  12.725  1.00  0.00     0.002 A 
ATOM     37  C   UNL     1      48.249 129.185  13.308  1.00  0.00     0.002 A 
ENDBRANCH  24  29
ENDBRANCH   8  19
ENDBRANCH   1   8
TORSDOF 6
ENDMDL
MODEL 5
REMARK VINA RESULT:      -3.0      1.563      5.050
REMARK SMILES N#C[C@H]1C[C@@H]1C(=O)N(c1ccc2cc[nH]c2c1)c1c2o[n-]cc-2cc(-n2nc3ccccc3n2)c1=O
REMARK SMILES IDX 6 1 7 2 5 3 3 4 4 5 2 6 1 7 8 8 9 9 10 10 17 11 11 12 16 13
REMARK SMILES IDX 12 14 15 15 13 16 14 17 18 19 19 20 35 21 20 22 23 23 25 24
REMARK SMILES IDX 21 25 22 26 24 27 36 28 26 29 27 30 34 31 28 32 33 33 29 34
REMARK SMILES IDX 32 35 30 36 31 37
REMARK H PARENT 15 18
ROOT
ATOM      1  C   UNL     1      44.673 131.605  22.837  1.00  0.00     0.236 C 
ATOM      2  O   UNL     1      44.688 132.162  23.968  1.00  0.00    -0.274 OA
ENDROOT
BRANCH   1   3
ATOM      3  C   UNL     1      44.077 130.231  22.707  1.00  0.00     0.098 C 
ATOM      4  C   UNL     1      43.322 129.775  23.948  1.00  0.00     0.106 C 
ATOM      5  C   UNL     1      44.683 129.176  23.627  1.00  0.00     0.034 C 
BRANCH   4   6
ATOM      6  C   UNL     1      42.186 128.894  23.658  1.00  0.00     0.066 C 
ATOM      7  N   UNL     1      41.290 128.197  23.433  1.00  0.00    -0.198 NA
ENDBRANCH   4   6
ENDBRANCH   1   3
BRANCH   1   8
ATOM      8  N   UNL     1      45.251 132.268  21.695  1.00  0.00    -0.273 N 
BRANCH   8   9
ATOM      9  C   UNL     1      46.400 133.127  21.850  1.00  0.00     0.051 A 
ATOM     10  C   UNL     1      47.457 132.753  22.720  1.00  0.00     0.027 A 
ATOM     11  C   UNL     1      46.496 134.329  21.112  1.00  0.00     0.053 A 
ATOM     12  C   UNL     1      48.594 133.568  22.862  1.00  0.00     0.012 A 
ATOM     13  C   UNL     1      47.637 135.111  21.275  1.00  0.00     0.047 A 
ATOM     14  C   UNL     1      48.647 134.744  22.122  1.00  0.00    -0.000 A 
ATOM     15  N   UNL     1      47.926 136.270  20.662  1.00  0.00    -0.361 N 
ATOM     16  C   UNL     1      49.621 135.715  22.047  1.00  0.00     0.028 A 
ATOM     17  C   UNL     1      49.138 136.642  21.132  1.00  0.00     0.083 A 
ATOM     18  H   UNL     1      47.344 136.776  19.958  1.00  0.00     0.166 HD
ENDBRANCH   8   9
BRANCH   8  19
ATOM     19  C   UNL     1      44.661 132.094  20.392  1.00  0.00     0.141 A 
ATOM     20  C   UNL     1      43.310 132.338  20.183  1.00  0.00     0.141 A 
ATOM     21  C   UNL     1      45.432 131.689  19.270  1.00  0.00     0.233 A 
ATOM     22  O   UNL     1      42.383 132.718  21.024  1.00  0.00    -0.555 OA
ATOM     23  C   UNL     1      42.717 132.183  18.903  1.00  0.00     0.000 A 
ATOM     24  C   UNL     1      44.835 131.542  17.972  1.00  0.00     0.136 A 
ATOM     25  N   UNL     1      41.231 132.830  20.412  1.00  0.00    -0.513 NA
ATOM     26  C   UNL     1      41.397 132.510  19.104  1.00  0.00    -0.098 A 
ATOM     27  C   UNL     1      43.450 131.789  17.799  1.00  0.00     0.044 A 
ATOM     28  O   UNL     1      46.662 131.465  19.429  1.00  0.00    -0.285 OA
BRANCH  24  29
ATOM     29  N   UNL     1      45.624 131.154  16.828  1.00  0.00    -0.146 N 
ATOM     30  N   UNL     1      45.929 131.968  15.818  1.00  0.00    -0.148 NA
ATOM     31  N   UNL     1      46.095 129.918  16.650  1.00  0.00    -0.148 NA
ATOM     32  C   UNL     1      46.634 131.212  14.964  1.00  0.00     0.113 A 
ATOM     33  C   UNL     1      46.737 129.957  15.474  1.00  0.00     0.113 A 
ATOM     34  C   UNL     1      47.186 131.563  13.735  1.00  0.00     0.032 A 
ATOM     35  C   UNL     1      47.408 128.937  14.808  1.00  0.00     0.032 A 
ATOM     36  C   UNL     1      47.873 130.557  13.026  1.00  0.00     0.002 A 
ATOM     37  C   UNL     1      47.986 129.251  13.562  1.00  0.00     0.002 A 
ENDBRANCH  24  29
ENDBRANCH   8  19
ENDBRANCH   1   8
TORSDOF 6
ENDMDL
MODEL 6
REMARK VINA RESULT:      -2.7      1.339      4.848
REMARK SMILES N#C[C@H]1C[C@@H]1C(=O)N(c1ccc2cc[nH]c2c1)c1c2o[n-]cc-2cc(-n2nc3ccccc3n2)c1=O
REMARK SMILES IDX 6 1 7 2 5 3 3 4 4 5 2 6 1 7 8 8 9 9 10 10 17 11 11 12 16 13
REMARK SMILES IDX 12 14 15 15 13 16 14 17 18 19 19 20 35 21 20 22 23 23 25 24
REMARK SMILES IDX 21 25 22 26 24 27 36 28 26 29 27 30 34 31 28 32 33 33 29 34
REMARK SMILES IDX 32 35 30 36 31 37
REMARK H PARENT 15 18
ROOT
ATOM      1  C   UNL     1      44.631 131.239  22.755  1.00  0.00     0.236 C 
ATOM      2  O   UNL     1      44.598 131.698  23.929  1.00  0.00    -0.274 OA
ENDROOT
BRANCH   1   3
ATOM      3  C   UNL     1      44.137 129.843  22.502  1.00  0.00     0.098 C 
ATOM      4  C   UNL     1      44.026 128.997  23.764  1.00  0.00     0.106 C 
ATOM      5  C   UNL     1      45.154 128.740  22.777  1.00  0.00     0.034 C 
BRANCH   4   6
ATOM      6  C   UNL     1      42.943 128.010  23.722  1.00  0.00     0.066 C 
ATOM      7  N   UNL     1      42.086 127.233  23.686  1.00  0.00    -0.198 NA
ENDBRANCH   4   6
ENDBRANCH   1   3
BRANCH   1   8
ATOM      8  N   UNL     1      45.168 132.036  21.681  1.00  0.00    -0.273 N 
BRANCH   8   9
ATOM      9  C   UNL     1      46.267 132.940  21.918  1.00  0.00     0.051 A 
ATOM     10  C   UNL     1      47.123 132.745  23.033  1.00  0.00     0.027 A 
ATOM     11  C   UNL     1      46.520 134.004  21.021  1.00  0.00     0.053 A 
ATOM     12  C   UNL     1      48.212 133.604  23.262  1.00  0.00     0.012 A 
ATOM     13  C   UNL     1      47.610 134.833  21.277  1.00  0.00     0.047 A 
ATOM     14  C   UNL     1      48.424 134.640  22.360  1.00  0.00    -0.000 A 
ATOM     15  N   UNL     1      48.027 135.881  20.549  1.00  0.00    -0.361 N 
ATOM     16  C   UNL     1      49.401 135.611  22.320  1.00  0.00     0.028 A 
ATOM     17  C   UNL     1      49.121 136.359  21.183  1.00  0.00     0.083 A 
ATOM     18  H   UNL     1      47.604 136.246  19.666  1.00  0.00     0.166 HD
ENDBRANCH   8   9
BRANCH   8  19
ATOM     19  C   UNL     1      44.584 131.951  20.366  1.00  0.00     0.141 A 
ATOM     20  C   UNL     1      43.253 132.284  20.155  1.00  0.00     0.141 A 
ATOM     21  C   UNL     1      45.343 131.547  19.236  1.00  0.00     0.233 A 
ATOM     22  O   UNL     1      42.340 132.685  21.002  1.00  0.00    -0.555 OA
ATOM     23  C   UNL     1      42.666 132.218  18.864  1.00  0.00     0.000 A 
ATOM     24  C   UNL     1      44.754 131.489  17.928  1.00  0.00     0.136 A 
ATOM     25  N   UNL     1      41.204 132.891  20.384  1.00  0.00    -0.513 NA
ATOM     26  C   UNL     1      41.366 132.614  19.065  1.00  0.00    -0.098 A 
ATOM     27  C   UNL     1      43.388 131.826  17.752  1.00  0.00     0.044 A 
ATOM     28  O   UNL     1      46.556 131.243  19.397  1.00  0.00    -0.285 OA
BRANCH  24  29
ATOM     29  N   UNL     1      45.532 131.101  16.776  1.00  0.00    -0.146 N 
ATOM     30  N   UNL     1      46.187 129.945  16.670  1.00  0.00    -0.148 NA
ATOM     31  N   UNL     1      45.703 131.887  15.712  1.00  0.00    -0.148 NA
ATOM     32  C   UNL     1      46.796 130.001  15.476  1.00  0.00     0.113 A 
ATOM     33  C   UNL     1      46.498 131.189  14.889  1.00  0.00     0.113 A 
ATOM     34  C   UNL     1      47.625 129.059  14.873  1.00  0.00     0.032 A 
ATOM     35  C   UNL     1      46.995 131.545  13.639  1.00  0.00     0.032 A 
ATOM     36  C   UNL     1      48.151 129.382  13.605  1.00  0.00     0.002 A 
ATOM     37  C   UNL     1      47.835 130.618  12.990  1.00  0.00     0.002 A 
ENDBRANCH  24  29
ENDBRANCH   8  19
ENDBRANCH   1   8
TORSDOF 6
ENDMDL


