REMARK SMILES C[C@H](Cn1cccc1C/N=C(\O)c1ccc2cc[nH]c2c1N)OCCC#N
REMARK SMILES IDX 8 1 7 2 6 3 5 4 4 5 9 6 10 7 11 8 12 9 13 11 14 12 21 13
REMARK SMILES IDX 15 14 20 15 16 16 19 17 17 18 18 19 22 21 3 24 2 25 1 26
REMARK SMILES IDX 23 27 24 28 25 29 26 30 27 31
REMARK H PARENT 12 10 19 20 22 22 22 23
ROOT
ATOM      1  C   UNL     1      -1.568   0.504  -1.310  1.00  0.00     0.039 A 
ATOM      2  C   UNL     1      -2.343   0.253  -2.427  1.00  0.00     0.025 A 
ATOM      3  C   UNL     1      -3.658   0.329  -2.015  1.00  0.00     0.020 A 
ATOM      4  C   UNL     1      -3.636   0.615  -0.665  1.00  0.00     0.086 A 
ATOM      5  N   UNL     1      -2.362   0.710  -0.235  1.00  0.00    -0.347 N 
ENDROOT
BRANCH   1   6
ATOM      6  C   UNL     1      -0.069   0.483  -1.288  1.00  0.00     0.200 C 
BRANCH   6   7
ATOM      7  N   UNL     1       0.385  -0.754  -0.665  1.00  0.00    -0.245 NA
BRANCH   7   8
ATOM      8  C   UNL     1       1.629  -1.077  -0.459  1.00  0.00     0.216 C 
BRANCH   8   9
ATOM      9  O   UNL     1       2.676  -0.238  -0.856  1.00  0.00    -0.493 OA
ATOM     10  H   UNL     1       2.531   0.657  -1.306  1.00  0.00     0.295 HD
ENDBRANCH   8   9
BRANCH   8  11
ATOM     11  C   UNL     1       1.942  -2.374   0.179  1.00  0.00     0.061 A 
ATOM     12  C   UNL     1       1.160  -3.508  -0.166  1.00  0.00     0.016 A 
ATOM     13  C   UNL     1       3.028  -2.520   1.093  1.00  0.00     0.069 A 
ATOM     14  C   UNL     1       1.455  -4.777   0.354  1.00  0.00     0.011 A 
ATOM     15  C   UNL     1       3.296  -3.809   1.581  1.00  0.00     0.070 A 
ATOM     16  C   UNL     1       2.534  -4.890   1.220  1.00  0.00     0.002 A 
ATOM     17  N   UNL     1       4.254  -4.186   2.450  1.00  0.00    -0.359 N 
ATOM     18  C   UNL     1       3.031  -5.993   1.877  1.00  0.00     0.028 A 
ATOM     19  C   UNL     1       4.096  -5.517   2.630  1.00  0.00     0.083 A 
ATOM     20  H   UNL     1       4.977  -3.590   2.909  1.00  0.00     0.166 HD
BRANCH  13  21
ATOM     21  N   UNL     1       3.786  -1.393   1.557  1.00  0.00    -0.396 N 
ATOM     22  H   UNL     1       4.679  -1.518   2.081  1.00  0.00     0.156 HD
ATOM     23  H   UNL     1       3.425  -0.419   1.469  1.00  0.00     0.156 HD
ENDBRANCH  13  21
ENDBRANCH   8  11
ENDBRANCH   7   8
ENDBRANCH   6   7
ENDBRANCH   1   6
BRANCH   5  24
ATOM     24  C   UNL     1      -1.956   1.046   1.132  1.00  0.00     0.153 C 
BRANCH  24  25
ATOM     25  C   UNL     1      -2.030   2.564   1.361  1.00  0.00     0.135 C 
ATOM     26  C   UNL     1      -1.662   2.896   2.807  1.00  0.00     0.040 C 
BRANCH  25  27
ATOM     27  O   UNL     1      -1.108   3.216   0.503  1.00  0.00    -0.376 OA
BRANCH  27  28
ATOM     28  C   UNL     1      -1.777   4.012  -0.452  1.00  0.00     0.176 C 
BRANCH  28  29
ATOM     29  C   UNL     1      -0.754   4.569  -1.437  1.00  0.00     0.148 C 
BRANCH  29  30
ATOM     30  C   UNL     1      -1.412   5.405  -2.446  1.00  0.00     0.065 C 
ATOM     31  N   UNL     1      -1.931   6.065  -3.243  1.00  0.00    -0.198 NA
ENDBRANCH  29  30
ENDBRANCH  28  29
ENDBRANCH  27  28
ENDBRANCH  25  27
ENDBRANCH  24  25
ENDBRANCH   5  24
TORSDOF 12


