REMARK SMILES C=Cc1ccc(-c2cnc3ocnc3c2)c(NC[C@@H](C)C(C)C)c1F
REMARK SMILES IDX 17 1 16 3 3 4 4 5 24 6 5 7 6 8 25 9 2 10 1 11 7 12 8 13
REMARK SMILES IDX 15 14 9 15 14 16 10 17 13 18 11 19 12 20 18 21 19 22 20 23
REMARK SMILES IDX 21 24 22 25 23 26
REMARK H PARENT 17 2
ROOT
ATOM      1  N   UNL     1      -0.156  -0.002   1.579  1.00  0.00    -0.382 N 
ATOM      2  H   UNL     1      -0.543   0.375   2.471  1.00  0.00     0.160 HD
ENDROOT
BRANCH   1   3
ATOM      3  C   UNL     1      -0.960   0.151   0.402  1.00  0.00     0.079 A 
ATOM      4  C   UNL     1      -3.057  -0.315  -0.762  1.00  0.00     0.012 A 
ATOM      5  C   UNL     1      -2.547   0.330  -1.903  1.00  0.00     0.012 A 
ATOM      6  C   UNL     1      -2.257  -0.384   0.393  1.00  0.00     0.154 A 
ATOM      7  C   UNL     1      -1.267   0.886  -1.892  1.00  0.00     0.012 A 
ATOM      8  C   UNL     1      -0.465   0.816  -0.744  1.00  0.00     0.010 A 
ATOM      9  F   UNL     1      -2.723  -1.010   1.506  1.00  0.00    -0.204 F 
BRANCH   4  10
ATOM     10  C   UNL     1      -4.424  -0.896  -0.732  1.00  0.00     0.003 C 
ATOM     11  C   UNL     1      -5.106  -1.252  -1.821  1.00  0.00     0.009 C 
ENDBRANCH   4  10
BRANCH   8  12
ATOM     12  C   UNL     1       0.855   1.490  -0.746  1.00  0.00     0.005 A 
ATOM     13  C   UNL     1       1.783   1.251  -1.798  1.00  0.00     0.124 A 
ATOM     14  C   UNL     1       1.210   2.381   0.293  1.00  0.00     0.044 A 
ATOM     15  N   UNL     1       3.010   1.857  -1.799  1.00  0.00    -0.219 NA
ATOM     16  C   UNL     1       2.469   2.963   0.235  1.00  0.00     0.130 A 
ATOM     17  C   UNL     1       3.320   2.695  -0.782  1.00  0.00     0.246 A 
ATOM     18  N   UNL     1       3.039   3.823   1.095  1.00  0.00    -0.215 NA
ATOM     19  O   UNL     1       4.428   3.358  -0.607  1.00  0.00    -0.425 OA
ATOM     20  C   UNL     1       4.255   4.033   0.520  1.00  0.00     0.311 A 
ENDBRANCH   8  12
ENDBRANCH   1   3
BRANCH   1  21
ATOM     21  C   UNL     1       1.026  -0.870   1.570  1.00  0.00     0.116 C 
BRANCH  21  22
ATOM     22  C   UNL     1       1.767  -0.937   2.933  1.00  0.00     0.008 C 
ATOM     23  C   UNL     1       2.072   0.460   3.500  1.00  0.00     0.010 C 
BRANCH  22  24
ATOM     24  C   UNL     1       1.134  -1.888   3.999  1.00  0.00    -0.013 C 
ATOM     25  C   UNL     1       1.263  -3.366   3.597  1.00  0.00     0.008 C 
ATOM     26  C   UNL     1      -0.326  -1.567   4.350  1.00  0.00     0.008 C 
ENDBRANCH  22  24
ENDBRANCH  21  22
ENDBRANCH   1  21
TORSDOF 6


