MODEL 1
REMARK VINA RESULT:      -8.7      0.000      0.000
REMARK SMILES Cc1ncnc(O[C@@H](c2ccccc2)[C@@H]2CO2)c1C
REMARK SMILES IDX 7 1 6 2 2 3 3 4 18 5 4 6 5 7 1 8 19 9 8 10 9 11 10 12 14 13
REMARK SMILES IDX 11 14 13 15 12 16 15 17 16 18 17 19
REMARK H PARENT
ROOT
ATOM      1  O   UNL     1      45.451 131.254  17.246  1.00  0.00    -0.466 OA
ENDROOT
BRANCH   1   2
ATOM      2  C   UNL     1      44.505 131.460  18.259  1.00  0.00     0.220 A 
ATOM      3  C   UNL     1      43.861 131.455  20.588  1.00  0.00     0.047 A 
ATOM      4  N   UNL     1      42.616 131.846  20.209  1.00  0.00    -0.241 NA
ATOM      5  C   UNL     1      44.861 131.269  19.607  1.00  0.00     0.032 A 
ATOM      6  C   UNL     1      42.303 132.043  18.904  1.00  0.00     0.226 A 
ATOM      7  N   UNL     1      43.239 131.846  17.945  1.00  0.00    -0.202 NA
ATOM      8  C   UNL     1      44.136 131.254  22.049  1.00  0.00     0.067 C 
ATOM      9  C   UNL     1      46.254 130.824  19.981  1.00  0.00     0.052 C 
ENDBRANCH   1   2
BRANCH   1  10
ATOM     10  C   UNL     1      45.230 131.594  15.876  1.00  0.00     0.236 C 
BRANCH  10  11
ATOM     11  C   UNL     1      46.281 130.954  14.998  1.00  0.00    -0.005 A 
ATOM     12  C   UNL     1      46.684 129.628  15.229  1.00  0.00     0.007 A 
ATOM     13  C   UNL     1      46.893 131.688  13.965  1.00  0.00     0.007 A 
ATOM     14  C   UNL     1      47.667 129.040  14.427  1.00  0.00     0.000 A 
ATOM     15  C   UNL     1      47.875 131.095  13.165  1.00  0.00     0.000 A 
ATOM     16  C   UNL     1      48.260 129.772  13.395  1.00  0.00     0.000 A 
ENDBRANCH  10  11
BRANCH  10  17
ATOM     17  C   UNL     1      43.847 131.087  15.462  1.00  0.00     0.189 C 
ATOM     18  C   UNL     1      43.493 131.206  14.030  1.00  0.00     0.197 C 
ATOM     19  O   UNL     1      43.027 132.128  14.989  1.00  0.00    -0.369 OA
ENDBRANCH  10  17
ENDBRANCH   1  10
TORSDOF 4
ENDMDL
MODEL 2
REMARK VINA RESULT:      -8.5      0.371      1.172
REMARK SMILES Cc1ncnc(O[C@@H](c2ccccc2)[C@@H]2CO2)c1C
REMARK SMILES IDX 7 1 6 2 2 3 3 4 18 5 4 6 5 7 1 8 19 9 8 10 9 11 10 12 14 13
REMARK SMILES IDX 11 14 13 15 12 16 15 17 16 18 17 19
REMARK H PARENT
ROOT
ATOM      1  O   UNL     1      45.362 131.131  17.453  1.00  0.00    -0.466 OA
ENDROOT
BRANCH   1   2
ATOM      2  C   UNL     1      44.463 131.423  18.487  1.00  0.00     0.220 A 
ATOM      3  C   UNL     1      43.888 131.507  20.832  1.00  0.00     0.047 A 
ATOM      4  N   UNL     1      42.664 131.980  20.480  1.00  0.00    -0.241 NA
ATOM      5  C   UNL     1      44.844 131.232  19.829  1.00  0.00     0.032 A 
ATOM      6  C   UNL     1      42.328 132.176  19.181  1.00  0.00     0.226 A 
ATOM      7  N   UNL     1      43.219 131.893  18.200  1.00  0.00    -0.202 NA
ATOM      8  C   UNL     1      44.190 131.313  22.289  1.00  0.00     0.067 C 
ATOM      9  C   UNL     1      46.212 130.694  20.172  1.00  0.00     0.052 C 
ENDBRANCH   1   2
BRANCH   1  10
ATOM     10  C   UNL     1      45.291 131.719  16.153  1.00  0.00     0.236 C 
BRANCH  10  11
ATOM     11  C   UNL     1      46.283 131.062  15.221  1.00  0.00    -0.005 A 
ATOM     12  C   UNL     1      46.814 131.777  14.134  1.00  0.00     0.007 A 
ATOM     13  C   UNL     1      46.657 129.718  15.407  1.00  0.00     0.007 A 
ATOM     14  C   UNL     1      47.719 131.165  13.262  1.00  0.00     0.000 A 
ATOM     15  C   UNL     1      47.563 129.111  14.533  1.00  0.00     0.000 A 
ATOM     16  C   UNL     1      48.095 129.834  13.462  1.00  0.00     0.000 A 
ENDBRANCH  10  11
BRANCH  10  17
ATOM     17  C   UNL     1      43.875 131.524  15.604  1.00  0.00     0.189 C 
ATOM     18  C   UNL     1      43.735 130.663  14.408  1.00  0.00     0.197 C 
ATOM     19  O   UNL     1      43.733 132.070  14.315  1.00  0.00    -0.369 OA
ENDBRANCH  10  17
ENDBRANCH   1  10
TORSDOF 4
ENDMDL
MODEL 3
REMARK VINA RESULT:      -7.2      1.251      1.874
REMARK SMILES Cc1ncnc(O[C@@H](c2ccccc2)[C@@H]2CO2)c1C
REMARK SMILES IDX 7 1 6 2 2 3 3 4 18 5 4 6 5 7 1 8 19 9 8 10 9 11 10 12 14 13
REMARK SMILES IDX 11 14 13 15 12 16 15 17 16 18 17 19
REMARK H PARENT
ROOT
ATOM      1  O   UNL     1      44.726 130.834  16.580  1.00  0.00    -0.466 OA
ENDROOT
BRANCH   1   2
ATOM      2  C   UNL     1      44.817 130.989  17.970  1.00  0.00     0.220 A 
ATOM      3  C   UNL     1      43.885 131.681  20.088  1.00  0.00     0.047 A 
ATOM      4  N   UNL     1      45.046 131.304  20.684  1.00  0.00    -0.241 NA
ATOM      5  C   UNL     1      43.729 131.511  18.694  1.00  0.00     0.032 A 
ATOM      6  C   UNL     1      46.073 130.785  19.966  1.00  0.00     0.226 A 
ATOM      7  N   UNL     1      45.956 130.637  18.624  1.00  0.00    -0.202 NA
ATOM      8  C   UNL     1      42.792 132.249  20.944  1.00  0.00     0.067 C 
ATOM      9  C   UNL     1      42.461 131.926  17.989  1.00  0.00     0.052 C 
ENDBRANCH   1   2
BRANCH   1  10
ATOM     10  C   UNL     1      45.349 131.714  15.643  1.00  0.00     0.236 C 
BRANCH  10  11
ATOM     11  C   UNL     1      46.385 130.973  14.829  1.00  0.00    -0.005 A 
ATOM     12  C   UNL     1      46.745 129.659  15.172  1.00  0.00     0.007 A 
ATOM     13  C   UNL     1      47.027 131.601  13.746  1.00  0.00     0.007 A 
ATOM     14  C   UNL     1      47.715 128.978  14.430  1.00  0.00     0.000 A 
ATOM     15  C   UNL     1      47.995 130.915  13.007  1.00  0.00     0.000 A 
ATOM     16  C   UNL     1      48.338 129.604  13.347  1.00  0.00     0.000 A 
ENDBRANCH  10  11
BRANCH  10  17
ATOM     17  C   UNL     1      44.274 132.272  14.706  1.00  0.00     0.189 C 
ATOM     18  C   UNL     1      42.963 131.584  14.708  1.00  0.00     0.197 C 
ATOM     19  O   UNL     1      43.923 131.350  13.703  1.00  0.00    -0.369 OA
ENDBRANCH  10  17
ENDBRANCH   1  10
TORSDOF 4
ENDMDL
MODEL 4
REMARK VINA RESULT:      -7.1      3.328      7.394
REMARK SMILES Cc1ncnc(O[C@@H](c2ccccc2)[C@@H]2CO2)c1C
REMARK SMILES IDX 7 1 6 2 2 3 3 4 18 5 4 6 5 7 1 8 19 9 8 10 9 11 10 12 14 13
REMARK SMILES IDX 11 14 13 15 12 16 15 17 16 18 17 19
REMARK H PARENT
ROOT
ATOM      1  O   UNL     1      43.987 131.255  22.194  1.00  0.00    -0.466 OA
ENDROOT
BRANCH   1   2
ATOM      2  C   UNL     1      43.650 131.479  20.852  1.00  0.00     0.220 A 
ATOM      3  C   UNL     1      44.239 131.596  18.513  1.00  0.00     0.047 A 
ATOM      4  N   UNL     1      42.956 131.954  18.243  1.00  0.00    -0.241 NA
ATOM      5  C   UNL     1      44.620 131.323  19.845  1.00  0.00     0.032 A 
ATOM      6  C   UNL     1      42.034 132.078  19.229  1.00  0.00     0.226 A 
ATOM      7  N   UNL     1      42.384 131.847  20.517  1.00  0.00    -0.202 NA
ATOM      8  C   UNL     1      45.206 131.481  17.372  1.00  0.00     0.067 C 
ATOM      9  C   UNL     1      46.036 130.933  20.193  1.00  0.00     0.052 C 
ENDBRANCH   1   2
BRANCH   1  10
ATOM     10  C   UNL     1      43.138 130.575  23.121  1.00  0.00     0.236 C 
BRANCH  10  11
ATOM     11  C   UNL     1      43.490 129.107  23.180  1.00  0.00    -0.005 A 
ATOM     12  C   UNL     1      42.619 128.195  23.800  1.00  0.00     0.007 A 
ATOM     13  C   UNL     1      44.708 128.641  22.651  1.00  0.00     0.007 A 
ATOM     14  C   UNL     1      42.951 126.839  23.870  1.00  0.00     0.000 A 
ATOM     15  C   UNL     1      45.035 127.284  22.722  1.00  0.00     0.000 A 
ATOM     16  C   UNL     1      44.157 126.383  23.330  1.00  0.00     0.000 A 
ENDBRANCH  10  11
BRANCH  10  17
ATOM     17  C   UNL     1      43.327 131.198  24.506  1.00  0.00     0.189 C 
ATOM     18  C   UNL     1      43.429 132.673  24.568  1.00  0.00     0.197 C 
ATOM     19  O   UNL     1      44.570 131.847  24.624  1.00  0.00    -0.369 OA
ENDBRANCH  10  17
ENDBRANCH   1  10
TORSDOF 4
ENDMDL
MODEL 5
REMARK VINA RESULT:      -7.0      2.565      4.009
REMARK SMILES Cc1ncnc(O[C@@H](c2ccccc2)[C@@H]2CO2)c1C
REMARK SMILES IDX 7 1 6 2 2 3 3 4 18 5 4 6 5 7 1 8 19 9 8 10 9 11 10 12 14 13
REMARK SMILES IDX 11 14 13 15 12 16 15 17 16 18 17 19
REMARK H PARENT
ROOT
ATOM      1  O   UNL     1      45.078 131.678  20.406  1.00  0.00    -0.466 OA
ENDROOT
BRANCH   1   2
ATOM      2  C   UNL     1      44.601 131.180  21.626  1.00  0.00     0.220 A 
ATOM      3  C   UNL     1      44.284 129.372  23.197  1.00  0.00     0.047 A 
ATOM      4  N   UNL     1      43.625 130.240  24.009  1.00  0.00    -0.241 NA
ATOM      5  C   UNL     1      44.817 129.834  21.972  1.00  0.00     0.032 A 
ATOM      6  C   UNL     1      43.447 131.538  23.662  1.00  0.00     0.226 A 
ATOM      7  N   UNL     1      43.927 131.996  22.481  1.00  0.00    -0.202 NA
ATOM      8  C   UNL     1      44.442 127.949  23.644  1.00  0.00     0.067 C 
ATOM      9  C   UNL     1      45.546 128.904  21.033  1.00  0.00     0.052 C 
ENDBRANCH   1   2
BRANCH   1  10
ATOM     10  C   UNL     1      44.230 132.097  19.336  1.00  0.00     0.236 C 
BRANCH  10  11
ATOM     11  C   UNL     1      44.651 131.441  18.041  1.00  0.00    -0.005 A 
ATOM     12  C   UNL     1      43.942 131.696  16.855  1.00  0.00     0.007 A 
ATOM     13  C   UNL     1      45.731 130.539  18.014  1.00  0.00     0.007 A 
ATOM     14  C   UNL     1      44.320 131.077  15.660  1.00  0.00     0.000 A 
ATOM     15  C   UNL     1      46.106 129.923  16.817  1.00  0.00     0.000 A 
ATOM     16  C   UNL     1      45.402 130.193  15.641  1.00  0.00     0.000 A 
ENDBRANCH  10  11
BRANCH  10  17
ATOM     17  C   UNL     1      42.791 131.692  19.664  1.00  0.00     0.189 C 
ATOM     18  C   UNL     1      41.718 132.350  18.885  1.00  0.00     0.197 C 
ATOM     19  O   UNL     1      42.051 132.768  20.190  1.00  0.00    -0.369 OA
ENDBRANCH  10  17
ENDBRANCH   1  10
TORSDOF 4
ENDMDL
MODEL 6
REMARK VINA RESULT:      -7.0      2.502      3.835
REMARK SMILES Cc1ncnc(O[C@@H](c2ccccc2)[C@@H]2CO2)c1C
REMARK SMILES IDX 7 1 6 2 2 3 3 4 18 5 4 6 5 7 1 8 19 9 8 10 9 11 10 12 14 13
REMARK SMILES IDX 11 14 13 15 12 16 15 17 16 18 17 19
REMARK H PARENT
ROOT
ATOM      1  O   UNL     1      45.130 131.685  20.352  1.00  0.00    -0.466 OA
ENDROOT
BRANCH   1   2
ATOM      2  C   UNL     1      44.637 131.164  21.556  1.00  0.00     0.220 A 
ATOM      3  C   UNL     1      44.338 129.337  23.108  1.00  0.00     0.047 A 
ATOM      4  N   UNL     1      43.629 130.178  23.907  1.00  0.00    -0.241 NA
ATOM      5  C   UNL     1      44.888 129.823  21.901  1.00  0.00     0.032 A 
ATOM      6  C   UNL     1      43.418 131.472  23.563  1.00  0.00     0.226 A 
ATOM      7  N   UNL     1      43.914 131.952  22.397  1.00  0.00    -0.202 NA
ATOM      8  C   UNL     1      44.530 127.917  23.552  1.00  0.00     0.067 C 
ATOM      9  C   UNL     1      45.672 128.924  20.977  1.00  0.00     0.052 C 
ENDBRANCH   1   2
BRANCH   1  10
ATOM     10  C   UNL     1      44.296 132.098  19.268  1.00  0.00     0.236 C 
BRANCH  10  11
ATOM     11  C   UNL     1      44.716 131.413  17.988  1.00  0.00    -0.005 A 
ATOM     12  C   UNL     1      45.799 130.517  17.988  1.00  0.00     0.007 A 
ATOM     13  C   UNL     1      44.054 131.690  16.777  1.00  0.00     0.007 A 
ATOM     14  C   UNL     1      46.198 129.894  16.801  1.00  0.00     0.000 A 
ATOM     15  C   UNL     1      44.457 131.064  15.594  1.00  0.00     0.000 A 
ATOM     16  C   UNL     1      45.527 130.166  15.606  1.00  0.00     0.000 A 
ENDBRANCH  10  11
BRANCH  10  17
ATOM     17  C   UNL     1      42.848 131.722  19.592  1.00  0.00     0.189 C 
ATOM     18  C   UNL     1      41.792 132.372  18.783  1.00  0.00     0.197 C 
ATOM     19  O   UNL     1      42.118 132.822  20.079  1.00  0.00    -0.369 OA
ENDBRANCH  10  17
ENDBRANCH   1  10
TORSDOF 4
ENDMDL
MODEL 7
REMARK VINA RESULT:      -6.9      0.975      1.102
REMARK SMILES Cc1ncnc(O[C@@H](c2ccccc2)[C@@H]2CO2)c1C
REMARK SMILES IDX 7 1 6 2 2 3 3 4 18 5 4 6 5 7 1 8 19 9 8 10 9 11 10 12 14 13
REMARK SMILES IDX 11 14 13 15 12 16 15 17 16 18 17 19
REMARK H PARENT
ROOT
ATOM      1  O   UNL     1      44.351 130.748  16.051  1.00  0.00    -0.466 OA
ENDROOT
BRANCH   1   2
ATOM      2  C   UNL     1      43.964 131.218  17.314  1.00  0.00     0.220 A 
ATOM      3  C   UNL     1      44.390 131.564  19.666  1.00  0.00     0.047 A 
ATOM      4  N   UNL     1      43.156 132.124  19.772  1.00  0.00    -0.241 NA
ATOM      5  C   UNL     1      44.842 131.108  18.408  1.00  0.00     0.032 A 
ATOM      6  C   UNL     1      42.336 132.237  18.698  1.00  0.00     0.226 A 
ATOM      7  N   UNL     1      42.738 131.782  17.487  1.00  0.00    -0.202 NA
ATOM      8  C   UNL     1      45.243 131.470  20.897  1.00  0.00     0.067 C 
ATOM      9  C   UNL     1      46.200 130.470  18.245  1.00  0.00     0.052 C 
ENDBRANCH   1   2
BRANCH   1  10
ATOM     10  C   UNL     1      45.001 131.558  15.071  1.00  0.00     0.236 C 
BRANCH  10  11
ATOM     11  C   UNL     1      46.200 130.836  14.500  1.00  0.00    -0.005 A 
ATOM     12  C   UNL     1      46.594 129.594  15.026  1.00  0.00     0.007 A 
ATOM     13  C   UNL     1      46.956 131.414  13.463  1.00  0.00     0.007 A 
ATOM     14  C   UNL     1      47.712 128.933  14.509  1.00  0.00     0.000 A 
ATOM     15  C   UNL     1      48.073 130.748  12.950  1.00  0.00     0.000 A 
ATOM     16  C   UNL     1      48.450 129.508  13.471  1.00  0.00     0.000 A 
ENDBRANCH  10  11
BRANCH  10  17
ATOM     17  C   UNL     1      44.007 131.858  13.945  1.00  0.00     0.189 C 
ATOM     18  C   UNL     1      42.580 131.958  14.324  1.00  0.00     0.197 C 
ATOM     19  O   UNL     1      43.113 130.791  13.738  1.00  0.00    -0.369 OA
ENDBRANCH  10  17
ENDBRANCH   1  10
TORSDOF 4
ENDMDL
MODEL 8
REMARK VINA RESULT:      -6.8      1.323      2.233
REMARK SMILES Cc1ncnc(O[C@@H](c2ccccc2)[C@@H]2CO2)c1C
REMARK SMILES IDX 7 1 6 2 2 3 3 4 18 5 4 6 5 7 1 8 19 9 8 10 9 11 10 12 14 13
REMARK SMILES IDX 11 14 13 15 12 16 15 17 16 18 17 19
REMARK H PARENT
ROOT
ATOM      1  O   UNL     1      44.483 130.803  16.232  1.00  0.00    -0.466 OA
ENDROOT
BRANCH   1   2
ATOM      2  C   UNL     1      44.571 130.963  17.621  1.00  0.00     0.220 A 
ATOM      3  C   UNL     1      43.667 131.732  19.725  1.00  0.00     0.047 A 
ATOM      4  N   UNL     1      44.795 131.281  20.335  1.00  0.00    -0.241 NA
ATOM      5  C   UNL     1      43.514 131.563  18.331  1.00  0.00     0.032 A 
ATOM      6  C   UNL     1      45.790 130.687  19.631  1.00  0.00     0.226 A 
ATOM      7  N   UNL     1      45.677 130.538  18.290  1.00  0.00    -0.202 NA
ATOM      8  C   UNL     1      42.608 132.381  20.566  1.00  0.00     0.067 C 
ATOM      9  C   UNL     1      42.285 132.058  17.610  1.00  0.00     0.052 C 
ENDBRANCH   1   2
BRANCH   1  10
ATOM     10  C   UNL     1      45.169 131.636  15.295  1.00  0.00     0.236 C 
BRANCH  10  11
ATOM     11  C   UNL     1      46.311 130.881  14.655  1.00  0.00    -0.005 A 
ATOM     12  C   UNL     1      47.019 131.446  13.580  1.00  0.00     0.007 A 
ATOM     13  C   UNL     1      46.655 129.590  15.100  1.00  0.00     0.007 A 
ATOM     14  C   UNL     1      48.065 130.741  12.977  1.00  0.00     0.000 A 
ATOM     15  C   UNL     1      47.702 128.891  14.494  1.00  0.00     0.000 A 
ATOM     16  C   UNL     1      48.408 129.466  13.434  1.00  0.00     0.000 A 
ENDBRANCH  10  11
BRANCH  10  17
ATOM     17  C   UNL     1      44.180 132.071  14.211  1.00  0.00     0.189 C 
ATOM     18  C   UNL     1      42.748 131.789  14.460  1.00  0.00     0.197 C 
ATOM     19  O   UNL     1      43.531 130.971  13.620  1.00  0.00    -0.369 OA
ENDBRANCH  10  17
ENDBRANCH   1  10
TORSDOF 4
ENDMDL
MODEL 9
REMARK VINA RESULT:      -6.8      0.849      1.455
REMARK SMILES Cc1ncnc(O[C@@H](c2ccccc2)[C@@H]2CO2)c1C
REMARK SMILES IDX 7 1 6 2 2 3 3 4 18 5 4 6 5 7 1 8 19 9 8 10 9 11 10 12 14 13
REMARK SMILES IDX 11 14 13 15 12 16 15 17 16 18 17 19
REMARK H PARENT
ROOT
ATOM      1  O   UNL     1      44.440 130.561  16.341  1.00  0.00    -0.466 OA
ENDROOT
BRANCH   1   2
ATOM      2  C   UNL     1      44.056 131.168  17.545  1.00  0.00     0.220 A 
ATOM      3  C   UNL     1      44.488 131.773  19.843  1.00  0.00     0.047 A 
ATOM      4  N   UNL     1      43.254 132.339  19.890  1.00  0.00    -0.241 NA
ATOM      5  C   UNL     1      44.938 131.181  18.642  1.00  0.00     0.032 A 
ATOM      6  C   UNL     1      42.430 132.331  18.813  1.00  0.00     0.226 A 
ATOM      7  N   UNL     1      42.830 131.746  17.658  1.00  0.00    -0.202 NA
ATOM      8  C   UNL     1      45.345 131.818  21.074  1.00  0.00     0.067 C 
ATOM      9  C   UNL     1      46.296 130.531  18.547  1.00  0.00     0.052 C 
ENDBRANCH   1   2
BRANCH   1  10
ATOM     10  C   UNL     1      44.779 131.291  15.161  1.00  0.00     0.236 C 
BRANCH  10  11
ATOM     11  C   UNL     1      46.059 130.757  14.559  1.00  0.00    -0.005 A 
ATOM     12  C   UNL     1      46.749 131.502  13.588  1.00  0.00     0.007 A 
ATOM     13  C   UNL     1      46.553 129.493  14.935  1.00  0.00     0.007 A 
ATOM     14  C   UNL     1      47.925 131.001  13.020  1.00  0.00     0.000 A 
ATOM     15  C   UNL     1      47.729 128.998  14.364  1.00  0.00     0.000 A 
ATOM     16  C   UNL     1      48.415 129.752  13.408  1.00  0.00     0.000 A 
ENDBRANCH  10  11
BRANCH  10  17
ATOM     17  C   UNL     1      43.642 131.139  14.147  1.00  0.00     0.189 C 
ATOM     18  C   UNL     1      43.140 132.380  13.516  1.00  0.00     0.197 C 
ATOM     19  O   UNL     1      42.461 131.765  14.587  1.00  0.00    -0.369 OA
ENDBRANCH  10  17
ENDBRANCH   1  10
TORSDOF 4
ENDMDL


