REMARK SMILES Cc1cc(N)c(N[C@H]2CC[C@@H](C)N(c3cnc(CC#N)n3C)[C@@H]2F)cc1F
REMARK SMILES IDX 8 1 9 2 10 3 11 4 12 5 13 6 23 7 24 8 7 9 6 11 2 12 3 13
REMARK SMILES IDX 26 14 4 15 25 16 1 17 27 18 5 19 14 22 15 23 21 24 16 25
REMARK SMILES IDX 17 26 22 27 18 28 19 29 20 30
REMARK H PARENT 7 10 5 20 5 21
ROOT
ATOM      1  C   UNL     1       1.097  -0.332  -0.219  1.00  0.00     0.134 C 
ATOM      2  C   UNL     1       1.431  -0.464   1.277  1.00  0.00     0.032 C 
ATOM      3  C   UNL     1       0.208  -0.150   2.148  1.00  0.00     0.027 C 
ATOM      4  C   UNL     1      -0.394   1.233   1.834  1.00  0.00     0.083 C 
ATOM      5  C   UNL     1       0.446   2.376   2.420  1.00  0.00     0.031 C 
ATOM      6  N   UNL     1      -0.554   1.398   0.382  1.00  0.00    -0.322 N 
ATOM      7  C   UNL     1       0.559   1.077  -0.523  1.00  0.00     0.286 C 
ATOM      8  F   UNL     1       0.139   1.125  -1.844  1.00  0.00    -0.221 F 
ENDROOT
BRANCH   1   9
ATOM      9  N   UNL     1       2.291  -0.613  -1.028  1.00  0.00    -0.376 N 
ATOM     10  H   UNL     1       2.715   0.158  -1.593  1.00  0.00     0.161 HD
BRANCH   9  11
ATOM     11  C   UNL     1       2.958  -1.887  -1.010  1.00  0.00     0.061 A 
ATOM     12  C   UNL     1       4.244  -4.396  -1.029  1.00  0.00    -0.013 A 
ATOM     13  C   UNL     1       4.997  -3.215  -0.953  1.00  0.00     0.034 A 
ATOM     14  C   UNL     1       2.847  -4.316  -1.119  1.00  0.00     0.128 A 
ATOM     15  C   UNL     1       4.367  -1.961  -0.933  1.00  0.00     0.055 A 
ATOM     16  C   UNL     1       2.212  -3.073  -1.105  1.00  0.00     0.067 A 
ATOM     17  C   UNL     1       4.933  -5.729  -1.080  1.00  0.00     0.047 C 
ATOM     18  F   UNL     1       2.098  -5.443  -1.234  1.00  0.00    -0.207 F 
BRANCH  15  19
ATOM     19  N   UNL     1       5.169  -0.780  -0.789  1.00  0.00    -0.397 N 
ATOM     20  H   UNL     1       4.747   0.160  -0.625  1.00  0.00     0.156 HD
ATOM     21  H   UNL     1       6.211  -0.846  -0.768  1.00  0.00     0.156 HD
ENDBRANCH  15  19
ENDBRANCH   9  11
ENDBRANCH   1   9
BRANCH   6  22
ATOM     22  C   UNL     1      -1.702   2.095  -0.115  1.00  0.00     0.131 A 
ATOM     23  C   UNL     1      -1.828   3.458  -0.240  1.00  0.00     0.158 A 
ATOM     24  N   UNL     1      -2.824   1.501  -0.549  1.00  0.00    -0.317 N 
ATOM     25  N   UNL     1      -3.037   3.734  -0.772  1.00  0.00    -0.238 NA
ATOM     26  C   UNL     1      -3.609   2.522  -0.965  1.00  0.00     0.124 A 
ATOM     27  C   UNL     1      -3.071   0.066  -0.668  1.00  0.00     0.153 C 
BRANCH  26  28
ATOM     28  C   UNL     1      -4.984   2.359  -1.537  1.00  0.00     0.195 C 
BRANCH  28  29
ATOM     29  C   UNL     1      -5.955   2.173  -0.456  1.00  0.00     0.070 C 
ATOM     30  N   UNL     1      -6.724   2.023   0.397  1.00  0.00    -0.198 NA
ENDBRANCH  28  29
ENDBRANCH  26  28
ENDBRANCH   6  22
TORSDOF 6


