MODEL 1
REMARK VINA RESULT:      -9.6      0.000      0.000
REMARK SMILES Cc1ccc([NH2+]c2cccc(N=[N+]=[N-])c2[O-])cc1
REMARK SMILES IDX 9 1 10 2 11 3 15 4 16 5 7 6 8 7 12 8 13 9 14 10 6 11 5 14
REMARK SMILES IDX 4 15 17 16 3 17 18 18 2 19 1 20
REMARK H PARENT 6 12 6 13
ROOT
ATOM      1  C   UNL     1      45.697 130.955  19.846  1.00  0.00     0.007 A 
ATOM      2  C   UNL     1      44.769 131.292  20.830  1.00  0.00     0.010 A 
ATOM      3  C   UNL     1      43.493 131.752  20.484  1.00  0.00     0.036 A 
ATOM      4  C   UNL     1      43.150 131.873  19.116  1.00  0.00    -0.035 A 
ATOM      5  O   UNL     1      41.890 132.330  18.741  1.00  0.00    -0.868 OA
ATOM      6  C   UNL     1      44.090 131.534  18.116  1.00  0.00     0.127 A 
ATOM      7  C   UNL     1      45.361 131.072  18.498  1.00  0.00     0.067 A 
ENDROOT
BRANCH   3   8
ATOM      8  N   UNL     1      42.588 132.078  21.551  1.00  0.00    -0.061 NA
BRANCH   8   9
ATOM      9  N   UNL     1      42.850 131.905  22.741  1.00  0.00     0.005 N 
ATOM     10  N   UNL     1      43.105 131.733  23.933  1.00  0.00    -0.003 NA
ENDBRANCH   8   9
ENDBRANCH   3   8
BRANCH   6  11
ATOM     11  N   UNL     1      43.749 131.619  16.715  1.00  0.00    -0.282 N 
ATOM     12  H   UNL     1      42.875 131.077  16.516  1.00  0.00     0.358 HD
ATOM     13  H   UNL     1      43.542 132.612  16.454  1.00  0.00     0.358 HD
BRANCH  11  14
ATOM     14  C   UNL     1      44.842 131.125  15.913  1.00  0.00     0.134 A 
ATOM     15  C   UNL     1      45.051 129.742  15.762  1.00  0.00     0.068 A 
ATOM     16  C   UNL     1      45.730 132.021  15.293  1.00  0.00     0.068 A 
ATOM     17  C   UNL     1      46.126 129.267  15.005  1.00  0.00     0.009 A 
ATOM     18  C   UNL     1      46.805 131.544  14.538  1.00  0.00     0.009 A 
ATOM     19  C   UNL     1      47.019 130.164  14.402  1.00  0.00    -0.051 A 
ATOM     20  C   UNL     1      48.150 129.654  13.560  1.00  0.00     0.044 C 
ENDBRANCH  11  14
ENDBRANCH   6  11
TORSDOF 4
ENDMDL
MODEL 2
REMARK VINA RESULT:      -9.5      0.303      1.181
REMARK SMILES Cc1ccc([NH2+]c2cccc(N=[N+]=[N-])c2[O-])cc1
REMARK SMILES IDX 9 1 10 2 11 3 15 4 16 5 7 6 8 7 12 8 13 9 14 10 6 11 5 14
REMARK SMILES IDX 4 15 17 16 3 17 18 18 2 19 1 20
REMARK H PARENT 6 12 6 13
ROOT
ATOM      1  C   UNL     1      45.724 130.779  20.003  1.00  0.00     0.007 A 
ATOM      2  C   UNL     1      44.818 131.128  21.004  1.00  0.00     0.010 A 
ATOM      3  C   UNL     1      43.572 131.677  20.680  1.00  0.00     0.036 A 
ATOM      4  C   UNL     1      43.238 131.879  19.320  1.00  0.00    -0.035 A 
ATOM      5  O   UNL     1      42.007 132.426  18.968  1.00  0.00    -0.868 OA
ATOM      6  C   UNL     1      44.156 131.528  18.304  1.00  0.00     0.127 A 
ATOM      7  C   UNL     1      45.396 130.975  18.663  1.00  0.00     0.067 A 
ENDROOT
BRANCH   3   8
ATOM      8  N   UNL     1      42.687 132.010  21.763  1.00  0.00    -0.061 NA
BRANCH   8   9
ATOM      9  N   UNL     1      42.721 131.457  22.863  1.00  0.00     0.005 N 
ATOM     10  N   UNL     1      42.763 130.902  23.960  1.00  0.00    -0.003 NA
ENDBRANCH   8   9
ENDBRANCH   3   8
BRANCH   6  11
ATOM     11  N   UNL     1      43.821 131.694  16.909  1.00  0.00    -0.282 N 
ATOM     12  H   UNL     1      42.920 131.209  16.687  1.00  0.00     0.358 HD
ATOM     13  H   UNL     1      43.667 132.708  16.693  1.00  0.00     0.358 HD
BRANCH  11  14
ATOM     14  C   UNL     1      44.887 131.180  16.084  1.00  0.00     0.134 A 
ATOM     15  C   UNL     1      45.807 132.053  15.476  1.00  0.00     0.068 A 
ATOM     16  C   UNL     1      45.006 129.798  15.857  1.00  0.00     0.068 A 
ATOM     17  C   UNL     1      46.823 131.554  14.657  1.00  0.00     0.009 A 
ATOM     18  C   UNL     1      46.023 129.299  15.037  1.00  0.00     0.009 A 
ATOM     19  C   UNL     1      46.928 130.175  14.419  1.00  0.00    -0.051 A 
ATOM     20  C   UNL     1      48.042 129.637  13.571  1.00  0.00     0.044 C 
ENDBRANCH  11  14
ENDBRANCH   6  11
TORSDOF 4
ENDMDL
MODEL 3
REMARK VINA RESULT:      -8.3      0.743      1.582
REMARK SMILES Cc1ccc([NH2+]c2cccc(N=[N+]=[N-])c2[O-])cc1
REMARK SMILES IDX 9 1 10 2 11 3 15 4 16 5 7 6 8 7 12 8 13 9 14 10 6 11 5 14
REMARK SMILES IDX 4 15 17 16 3 17 18 18 2 19 1 20
REMARK H PARENT 6 12 6 13
ROOT
ATOM      1  C   UNL     1      45.817 130.923  19.705  1.00  0.00     0.007 A 
ATOM      2  C   UNL     1      44.855 131.221  20.669  1.00  0.00     0.010 A 
ATOM      3  C   UNL     1      43.577 131.653  20.295  1.00  0.00     0.036 A 
ATOM      4  C   UNL     1      43.268 131.787  18.920  1.00  0.00    -0.035 A 
ATOM      5  O   UNL     1      42.006 132.216  18.519  1.00  0.00    -0.868 OA
ATOM      6  C   UNL     1      44.242 131.488  17.941  1.00  0.00     0.127 A 
ATOM      7  C   UNL     1      45.514 131.053  18.350  1.00  0.00     0.067 A 
ENDROOT
BRANCH   3   8
ATOM      8  N   UNL     1      42.636 131.938  21.343  1.00  0.00    -0.061 NA
BRANCH   8   9
ATOM      9  N   UNL     1      41.749 132.786  21.247  1.00  0.00     0.005 N 
ATOM     10  N   UNL     1      40.867 133.639  21.154  1.00  0.00    -0.003 NA
ENDBRANCH   8   9
ENDBRANCH   3   8
BRANCH   6  11
ATOM     11  N   UNL     1      43.936 131.585  16.533  1.00  0.00    -0.282 N 
ATOM     12  H   UNL     1      43.063 131.054  16.309  1.00  0.00     0.358 HD
ATOM     13  H   UNL     1      43.745 132.583  16.275  1.00  0.00     0.358 HD
BRANCH  11  14
ATOM     14  C   UNL     1      45.044 131.087  15.755  1.00  0.00     0.134 A 
ATOM     15  C   UNL     1      45.924 131.976  15.112  1.00  0.00     0.068 A 
ATOM     16  C   UNL     1      45.244 129.703  15.609  1.00  0.00     0.068 A 
ATOM     17  C   UNL     1      46.982 131.490  14.338  1.00  0.00     0.009 A 
ATOM     18  C   UNL     1      46.301 129.218  14.834  1.00  0.00     0.009 A 
ATOM     19  C   UNL     1      47.167 130.108  14.180  1.00  0.00    -0.051 A 
ATOM     20  C   UNL     1      48.324 129.587  13.381  1.00  0.00     0.044 C 
ENDBRANCH  11  14
ENDBRANCH   6  11
TORSDOF 4
ENDMDL
MODEL 4
REMARK VINA RESULT:      -8.3      0.731      1.080
REMARK SMILES Cc1ccc([NH2+]c2cccc(N=[N+]=[N-])c2[O-])cc1
REMARK SMILES IDX 9 1 10 2 11 3 15 4 16 5 7 6 8 7 12 8 13 9 14 10 6 11 5 14
REMARK SMILES IDX 4 15 17 16 3 17 18 18 2 19 1 20
REMARK H PARENT 6 12 6 13
ROOT
ATOM      1  C   UNL     1      45.817 130.681  19.689  1.00  0.00     0.007 A 
ATOM      2  C   UNL     1      44.907 131.059  20.676  1.00  0.00     0.010 A 
ATOM      3  C   UNL     1      43.658 131.588  20.331  1.00  0.00     0.036 A 
ATOM      4  C   UNL     1      43.323 131.737  18.964  1.00  0.00    -0.035 A 
ATOM      5  O   UNL     1      42.089 132.261  18.592  1.00  0.00    -0.868 OA
ATOM      6  C   UNL     1      44.245 131.356  17.962  1.00  0.00     0.127 A 
ATOM      7  C   UNL     1      45.489 130.825  18.342  1.00  0.00     0.067 A 
ENDROOT
BRANCH   3   8
ATOM      8  N   UNL     1      42.770 131.954  21.401  1.00  0.00    -0.061 NA
BRANCH   8   9
ATOM      9  N   UNL     1      41.844 132.754  21.271  1.00  0.00     0.005 N 
ATOM     10  N   UNL     1      40.918 133.555  21.149  1.00  0.00    -0.003 NA
ENDBRANCH   8   9
ENDBRANCH   3   8
BRANCH   6  11
ATOM     11  N   UNL     1      43.910 131.468  16.562  1.00  0.00    -0.282 N 
ATOM     12  H   UNL     1      43.042 130.925  16.347  1.00  0.00     0.358 HD
ATOM     13  H   UNL     1      43.698 132.465  16.321  1.00  0.00     0.358 HD
BRANCH  11  14
ATOM     14  C   UNL     1      45.011 130.999  15.756  1.00  0.00     0.134 A 
ATOM     15  C   UNL     1      45.259 129.622  15.614  1.00  0.00     0.068 A 
ATOM     16  C   UNL     1      45.867 131.916  15.120  1.00  0.00     0.068 A 
ATOM     17  C   UNL     1      46.341 129.172  14.853  1.00  0.00     0.009 A 
ATOM     18  C   UNL     1      46.950 131.464  14.360  1.00  0.00     0.009 A 
ATOM     19  C   UNL     1      47.203 130.090  14.235  1.00  0.00    -0.051 A 
ATOM     20  C   UNL     1      48.342 129.605  13.388  1.00  0.00     0.044 C 
ENDBRANCH  11  14
ENDBRANCH   6  11
TORSDOF 4
ENDMDL
MODEL 5
REMARK VINA RESULT:      -7.2      1.600      2.315
REMARK SMILES Cc1ccc([NH2+]c2cccc(N=[N+]=[N-])c2[O-])cc1
REMARK SMILES IDX 9 1 10 2 11 3 15 4 16 5 7 6 8 7 12 8 13 9 14 10 6 11 5 14
REMARK SMILES IDX 4 15 17 16 3 17 18 18 2 19 1 20
REMARK H PARENT 6 12 6 13
ROOT
ATOM      1  C   UNL     1      42.368 132.121  18.285  1.00  0.00     0.007 A 
ATOM      2  C   UNL     1      42.029 132.385  19.611  1.00  0.00     0.010 A 
ATOM      3  C   UNL     1      42.905 132.055  20.652  1.00  0.00     0.036 A 
ATOM      4  C   UNL     1      44.145 131.446  20.345  1.00  0.00    -0.035 A 
ATOM      5  O   UNL     1      45.035 131.105  21.360  1.00  0.00    -0.868 OA
ATOM      6  C   UNL     1      44.490 131.175  19.002  1.00  0.00     0.127 A 
ATOM      7  C   UNL     1      43.590 131.522  17.980  1.00  0.00     0.067 A 
ENDROOT
BRANCH   3   8
ATOM      8  N   UNL     1      42.491 132.360  21.995  1.00  0.00    -0.061 NA
BRANCH   8   9
ATOM      9  N   UNL     1      42.495 131.537  22.910  1.00  0.00     0.005 N 
ATOM     10  N   UNL     1      42.506 130.718  23.828  1.00  0.00    -0.003 NA
ENDBRANCH   8   9
ENDBRANCH   3   8
BRANCH   6  11
ATOM     11  N   UNL     1      45.764 130.586  18.665  1.00  0.00    -0.282 N 
ATOM     12  H   UNL     1      46.535 131.042  19.207  1.00  0.00     0.358 HD
ATOM     13  H   UNL     1      45.776 129.574  18.936  1.00  0.00     0.358 HD
BRANCH  11  14
ATOM     14  C   UNL     1      46.002 130.709  17.247  1.00  0.00     0.134 A 
ATOM     15  C   UNL     1      45.853 131.950  16.602  1.00  0.00     0.068 A 
ATOM     16  C   UNL     1      46.363 129.584  16.486  1.00  0.00     0.068 A 
ATOM     17  C   UNL     1      46.060 132.062  15.224  1.00  0.00     0.009 A 
ATOM     18  C   UNL     1      46.568 129.696  15.108  1.00  0.00     0.009 A 
ATOM     19  C   UNL     1      46.403 130.933  14.466  1.00  0.00    -0.051 A 
ATOM     20  C   UNL     1      46.661 131.061  12.994  1.00  0.00     0.044 C 
ENDBRANCH  11  14
ENDBRANCH   6  11
TORSDOF 4
ENDMDL
MODEL 6
REMARK VINA RESULT:      -6.9      1.747      2.328
REMARK SMILES Cc1ccc([NH2+]c2cccc(N=[N+]=[N-])c2[O-])cc1
REMARK SMILES IDX 9 1 10 2 11 3 15 4 16 5 7 6 8 7 12 8 13 9 14 10 6 11 5 14
REMARK SMILES IDX 4 15 17 16 3 17 18 18 2 19 1 20
REMARK H PARENT 6 12 6 13
ROOT
ATOM      1  C   UNL     1      43.190 131.662  17.167  1.00  0.00     0.007 A 
ATOM      2  C   UNL     1      42.982 132.009  18.501  1.00  0.00     0.010 A 
ATOM      3  C   UNL     1      43.914 131.658  19.485  1.00  0.00     0.036 A 
ATOM      4  C   UNL     1      45.076 130.941  19.112  1.00  0.00    -0.035 A 
ATOM      5  O   UNL     1      46.019 130.576  20.069  1.00  0.00    -0.868 OA
ATOM      6  C   UNL     1      45.287 130.586  17.760  1.00  0.00     0.127 A 
ATOM      7  C   UNL     1      44.335 130.958  16.797  1.00  0.00     0.067 A 
ENDROOT
BRANCH   3   8
ATOM      8  N   UNL     1      43.636 132.052  20.839  1.00  0.00    -0.061 NA
BRANCH   8   9
ATOM      9  N   UNL     1      43.238 131.272  21.705  1.00  0.00     0.005 N 
ATOM     10  N   UNL     1      42.848 130.492  22.573  1.00  0.00    -0.003 NA
ENDBRANCH   8   9
ENDBRANCH   3   8
BRANCH   6  11
ATOM     11  N   UNL     1      46.483 129.885  17.354  1.00  0.00    -0.282 N 
ATOM     12  H   UNL     1      47.289 130.145  17.969  1.00  0.00     0.358 HD
ATOM     13  H   UNL     1      46.350 128.852  17.468  1.00  0.00     0.358 HD
BRANCH  11  14
ATOM     14  C   UNL     1      46.782 130.185  15.975  1.00  0.00     0.134 A 
ATOM     15  C   UNL     1      47.391 129.224  15.149  1.00  0.00     0.068 A 
ATOM     16  C   UNL     1      46.490 131.454  15.445  1.00  0.00     0.068 A 
ATOM     17  C   UNL     1      47.703 129.526  13.820  1.00  0.00     0.009 A 
ATOM     18  C   UNL     1      46.804 131.756  14.116  1.00  0.00     0.009 A 
ATOM     19  C   UNL     1      47.426 130.800  13.300  1.00  0.00    -0.051 A 
ATOM     20  C   UNL     1      47.727 131.111  11.864  1.00  0.00     0.044 C 
ENDBRANCH  11  14
ENDBRANCH   6  11
TORSDOF 4
ENDMDL
MODEL 7
REMARK VINA RESULT:      -6.9      3.173      7.098
REMARK SMILES Cc1ccc([NH2+]c2cccc(N=[N+]=[N-])c2[O-])cc1
REMARK SMILES IDX 9 1 10 2 11 3 15 4 16 5 7 6 8 7 12 8 13 9 14 10 6 11 5 14
REMARK SMILES IDX 4 15 17 16 3 17 18 18 2 19 1 20
REMARK H PARENT 6 12 6 13
ROOT
ATOM      1  C   UNL     1      42.543 131.977  19.200  1.00  0.00     0.007 A 
ATOM      2  C   UNL     1      43.497 131.682  18.227  1.00  0.00     0.010 A 
ATOM      3  C   UNL     1      44.789 131.284  18.589  1.00  0.00     0.036 A 
ATOM      4  C   UNL     1      45.122 131.184  19.961  1.00  0.00    -0.035 A 
ATOM      5  O   UNL     1      46.400 130.793  20.351  1.00  0.00    -0.868 OA
ATOM      6  C   UNL     1      44.158 131.485  20.949  1.00  0.00     0.127 A 
ATOM      7  C   UNL     1      42.869 131.877  20.552  1.00  0.00     0.067 A 
ENDROOT
BRANCH   3   8
ATOM      8  N   UNL     1      45.719 130.993  17.532  1.00  0.00    -0.061 NA
BRANCH   8   9
ATOM      9  N   UNL     1      45.629 131.465  16.399  1.00  0.00     0.005 N 
ATOM     10  N   UNL     1      45.537 131.943  15.269  1.00  0.00    -0.003 NA
ENDBRANCH   8   9
ENDBRANCH   3   8
BRANCH   6  11
ATOM     11  N   UNL     1      44.467 131.357  22.354  1.00  0.00    -0.282 N 
ATOM     12  H   UNL     1      45.502 131.400  22.508  1.00  0.00     0.358 HD
ATOM     13  H   UNL     1      44.059 132.161  22.888  1.00  0.00     0.358 HD
BRANCH  11  14
ATOM     14  C   UNL     1      43.933 130.117  22.862  1.00  0.00     0.134 A 
ATOM     15  C   UNL     1      44.668 128.923  22.754  1.00  0.00     0.068 A 
ATOM     16  C   UNL     1      42.657 130.082  23.452  1.00  0.00     0.068 A 
ATOM     17  C   UNL     1      44.137 127.719  23.224  1.00  0.00     0.009 A 
ATOM     18  C   UNL     1      42.127 128.876  23.921  1.00  0.00     0.009 A 
ATOM     19  C   UNL     1      42.856 127.685  23.796  1.00  0.00    -0.051 A 
ATOM     20  C   UNL     1      42.303 126.399  24.334  1.00  0.00     0.044 C 
ENDBRANCH  11  14
ENDBRANCH   6  11
TORSDOF 4
ENDMDL
MODEL 8
REMARK VINA RESULT:      -6.9      3.197      7.075
REMARK SMILES Cc1ccc([NH2+]c2cccc(N=[N+]=[N-])c2[O-])cc1
REMARK SMILES IDX 9 1 10 2 11 3 15 4 16 5 7 6 8 7 12 8 13 9 14 10 6 11 5 14
REMARK SMILES IDX 4 15 17 16 3 17 18 18 2 19 1 20
REMARK H PARENT 6 12 6 13
ROOT
ATOM      1  C   UNL     1      42.546 131.975  19.122  1.00  0.00     0.007 A 
ATOM      2  C   UNL     1      43.500 131.685  18.147  1.00  0.00     0.010 A 
ATOM      3  C   UNL     1      44.793 131.288  18.507  1.00  0.00     0.036 A 
ATOM      4  C   UNL     1      45.127 131.183  19.879  1.00  0.00    -0.035 A 
ATOM      5  O   UNL     1      46.405 130.793  20.267  1.00  0.00    -0.868 OA
ATOM      6  C   UNL     1      44.163 131.479  20.869  1.00  0.00     0.127 A 
ATOM      7  C   UNL     1      42.873 131.871  20.473  1.00  0.00     0.067 A 
ENDROOT
BRANCH   3   8
ATOM      8  N   UNL     1      45.723 131.002  17.449  1.00  0.00    -0.061 NA
BRANCH   8   9
ATOM      9  N   UNL     1      45.515 130.169  16.568  1.00  0.00     0.005 N 
ATOM     10  N   UNL     1      45.299 129.338  15.687  1.00  0.00    -0.003 NA
ENDBRANCH   8   9
ENDBRANCH   3   8
BRANCH   6  11
ATOM     11  N   UNL     1      44.473 131.345  22.273  1.00  0.00    -0.282 N 
ATOM     12  H   UNL     1      45.507 131.394  22.427  1.00  0.00     0.358 HD
ATOM     13  H   UNL     1      44.060 132.145  22.810  1.00  0.00     0.358 HD
BRANCH  11  14
ATOM     14  C   UNL     1      43.945 130.100  22.775  1.00  0.00     0.134 A 
ATOM     15  C   UNL     1      42.681 130.054  23.391  1.00  0.00     0.068 A 
ATOM     16  C   UNL     1      44.700 128.918  22.678  1.00  0.00     0.068 A 
ATOM     17  C   UNL     1      42.184 128.851  23.899  1.00  0.00     0.009 A 
ATOM     18  C   UNL     1      44.202 127.716  23.188  1.00  0.00     0.009 A 
ATOM     19  C   UNL     1      42.948 127.677  23.816  1.00  0.00    -0.051 A 
ATOM     20  C   UNL     1      42.398 126.380  24.328  1.00  0.00     0.044 C 
ENDBRANCH  11  14
ENDBRANCH   6  11
TORSDOF 4
ENDMDL
MODEL 9
REMARK VINA RESULT:      -6.9      1.706      2.476
REMARK SMILES Cc1ccc([NH2+]c2cccc(N=[N+]=[N-])c2[O-])cc1
REMARK SMILES IDX 9 1 10 2 11 3 15 4 16 5 7 6 8 7 12 8 13 9 14 10 6 11 5 14
REMARK SMILES IDX 4 15 17 16 3 17 18 18 2 19 1 20
REMARK H PARENT 6 12 6 13
ROOT
ATOM      1  C   UNL     1      43.070 131.669  17.133  1.00  0.00     0.007 A 
ATOM      2  C   UNL     1      42.806 132.031  18.453  1.00  0.00     0.010 A 
ATOM      3  C   UNL     1      43.713 131.725  19.474  1.00  0.00     0.036 A 
ATOM      4  C   UNL     1      44.908 131.037  19.153  1.00  0.00    -0.035 A 
ATOM      5  O   UNL     1      45.828 130.717  20.147  1.00  0.00    -0.868 OA
ATOM      6  C   UNL     1      45.177 130.667  17.815  1.00  0.00     0.127 A 
ATOM      7  C   UNL     1      44.247 130.994  16.814  1.00  0.00     0.067 A 
ENDROOT
BRANCH   3   8
ATOM      8  N   UNL     1      43.377 132.132  20.811  1.00  0.00    -0.061 NA
BRANCH   8   9
ATOM      9  N   UNL     1      43.130 131.339  21.720  1.00  0.00     0.005 N 
ATOM     10  N   UNL     1      42.886 130.542  22.624  1.00  0.00    -0.003 NA
ENDBRANCH   8   9
ENDBRANCH   3   8
BRANCH   6  11
ATOM     11  N   UNL     1      46.406 129.996  17.461  1.00  0.00    -0.282 N 
ATOM     12  H   UNL     1      47.184 130.296  18.094  1.00  0.00     0.358 HD
ATOM     13  H   UNL     1      46.303 128.962  17.596  1.00  0.00     0.358 HD
BRANCH  11  14
ATOM     14  C   UNL     1      46.738 130.275  16.086  1.00  0.00     0.134 A 
ATOM     15  C   UNL     1      46.436 131.525  15.516  1.00  0.00     0.068 A 
ATOM     16  C   UNL     1      47.347 129.290  15.288  1.00  0.00     0.068 A 
ATOM     17  C   UNL     1      46.736 131.783  14.175  1.00  0.00     0.009 A 
ATOM     18  C   UNL     1      47.646 129.550  13.947  1.00  0.00     0.009 A 
ATOM     19  C   UNL     1      47.328 130.792  13.378  1.00  0.00    -0.051 A 
ATOM     20  C   UNL     1      47.683 131.083  11.951  1.00  0.00     0.044 C 
ENDBRANCH  11  14
ENDBRANCH   6  11
TORSDOF 4
ENDMDL


