MODEL 1
REMARK VINA RESULT:      -7.7      0.000      0.000
REMARK SMILES C=Cc1cc([C@@H]2O[C@H]2c2ccccc2)c(N)c([O-])c1Nc1ccc(C)c(F)c1
REMARK SMILES IDX 3 1 4 2 5 3 15 4 17 5 18 6 19 7 2 8 1 9 20 10 21 12 22 13
REMARK SMILES IDX 28 14 23 15 26 16 24 17 27 18 25 19 6 20 7 21 8 22 9 23
REMARK SMILES IDX 10 24 14 25 11 26 13 27 12 28 16 29
REMARK H PARENT 20 11 16 30 16 31
ROOT
ATOM      1  C   UNL     1      44.647 129.221  22.282  1.00  0.00    -0.003 A 
ATOM      2  C   UNL     1      45.151 129.691  21.058  1.00  0.00     0.019 A 
ATOM      3  C   UNL     1      44.607 130.823  20.436  1.00  0.00     0.007 A 
ATOM      4  C   UNL     1      43.579 131.547  21.080  1.00  0.00     0.032 A 
ATOM      5  C   UNL     1      43.069 131.080  22.304  1.00  0.00    -0.060 A 
ATOM      6  O   UNL     1      42.041 131.771  22.938  1.00  0.00    -0.870 OA
ATOM      7  C   UNL     1      43.580 129.914  22.896  1.00  0.00     0.040 A 
ENDROOT
BRANCH   1   8
ATOM      8  C   UNL     1      45.274 128.057  22.959  1.00  0.00     0.002 C 
ATOM      9  C   UNL     1      45.661 126.957  22.314  1.00  0.00     0.009 C 
ENDBRANCH   1   8
BRANCH   7  10
ATOM     10  N   UNL     1      43.011 129.460  24.136  1.00  0.00    -0.355 N 
ATOM     11  H   UNL     1      43.156 130.055  24.983  1.00  0.00     0.167 HD
BRANCH  10  12
ATOM     12  C   UNL     1      42.161 128.303  24.250  1.00  0.00     0.041 A 
ATOM     13  C   UNL     1      40.784 128.478  24.449  1.00  0.00     0.026 A 
ATOM     14  C   UNL     1      42.675 126.997  24.138  1.00  0.00     0.065 A 
ATOM     15  C   UNL     1      39.937 127.372  24.563  1.00  0.00     0.008 A 
ATOM     16  C   UNL     1      41.829 125.890  24.254  1.00  0.00     0.128 A 
ATOM     17  C   UNL     1      40.455 126.071  24.478  1.00  0.00    -0.015 A 
ATOM     18  F   UNL     1      42.350 124.642  24.141  1.00  0.00    -0.207 F 
ATOM     19  C   UNL     1      39.545 124.881  24.584  1.00  0.00     0.047 C 
ENDBRANCH  10  12
ENDBRANCH   7  10
BRANCH   3  20
ATOM     20  C   UNL     1      45.188 131.277  19.124  1.00  0.00     0.185 C 
ATOM     21  O   UNL     1      44.246 131.991  18.356  1.00  0.00    -0.359 OA
ATOM     22  C   UNL     1      44.569 130.698  17.903  1.00  0.00     0.183 C 
BRANCH  22  23
ATOM     23  C   UNL     1      45.413 130.739  16.664  1.00  0.00    -0.016 A 
ATOM     24  C   UNL     1      45.861 129.544  16.081  1.00  0.00     0.006 A 
ATOM     25  C   UNL     1      45.703 131.963  16.044  1.00  0.00     0.006 A 
ATOM     26  C   UNL     1      46.617 129.576  14.905  1.00  0.00     0.000 A 
ATOM     27  C   UNL     1      46.460 131.993  14.867  1.00  0.00     0.000 A 
ATOM     28  C   UNL     1      46.918 130.800  14.299  1.00  0.00     0.000 A 
ENDBRANCH  22  23
ENDBRANCH   3  20
BRANCH   4  29
ATOM     29  N   UNL     1      43.060 132.760  20.512  1.00  0.00    -0.399 N 
ATOM     30  H   UNL     1      43.672 133.446  20.019  1.00  0.00     0.156 HD
ATOM     31  H   UNL     1      42.052 133.016  20.613  1.00  0.00     0.156 HD
ENDBRANCH   4  29
TORSDOF 6
ENDMDL
MODEL 2
REMARK VINA RESULT:      -5.8      1.895      3.157
REMARK SMILES C=Cc1cc([C@@H]2O[C@H]2c2ccccc2)c(N)c([O-])c1Nc1ccc(C)c(F)c1
REMARK SMILES IDX 3 1 4 2 5 3 15 4 17 5 18 6 19 7 2 8 1 9 20 10 21 12 22 13
REMARK SMILES IDX 28 14 23 15 26 16 24 17 27 18 25 19 6 20 7 21 8 22 9 23
REMARK SMILES IDX 10 24 14 25 11 26 13 27 12 28 16 29
REMARK H PARENT 20 11 16 30 16 31
ROOT
ATOM      1  C   UNL     1      42.918 131.815  19.876  1.00  0.00    -0.003 A 
ATOM      2  C   UNL     1      43.525 131.950  18.617  1.00  0.00     0.019 A 
ATOM      3  C   UNL     1      44.803 131.430  18.368  1.00  0.00     0.007 A 
ATOM      4  C   UNL     1      45.467 130.697  19.375  1.00  0.00     0.032 A 
ATOM      5  C   UNL     1      44.865 130.560  20.638  1.00  0.00    -0.060 A 
ATOM      6  O   UNL     1      45.519 129.859  21.648  1.00  0.00    -0.870 OA
ATOM      7  C   UNL     1      43.609 131.130  20.901  1.00  0.00     0.040 A 
ENDROOT
BRANCH   1   8
ATOM      8  C   UNL     1      41.540 132.317  20.107  1.00  0.00     0.002 C 
ATOM      9  C   UNL     1      41.271 133.432  20.786  1.00  0.00     0.009 C 
ENDBRANCH   1   8
BRANCH   7  10
ATOM     10  N   UNL     1      43.043 130.986  22.215  1.00  0.00    -0.355 N 
ATOM     11  H   UNL     1      42.775 131.857  22.726  1.00  0.00     0.167 HD
BRANCH  10  12
ATOM     12  C   UNL     1      42.718 129.715  22.810  1.00  0.00     0.041 A 
ATOM     13  C   UNL     1      41.489 129.558  23.466  1.00  0.00     0.026 A 
ATOM     14  C   UNL     1      43.594 128.617  22.725  1.00  0.00     0.065 A 
ATOM     15  C   UNL     1      41.149 128.336  24.052  1.00  0.00     0.008 A 
ATOM     16  C   UNL     1      43.256 127.394  23.313  1.00  0.00     0.128 A 
ATOM     17  C   UNL     1      42.035 127.249  23.990  1.00  0.00    -0.015 A 
ATOM     18  F   UNL     1      44.117 126.349  23.216  1.00  0.00    -0.207 F 
ATOM     19  C   UNL     1      41.666 125.930  24.605  1.00  0.00     0.047 C 
ENDBRANCH  10  12
ENDBRANCH   7  10
BRANCH   3  20
ATOM     20  C   UNL     1      45.403 131.610  16.999  1.00  0.00     0.185 C 
ATOM     21  O   UNL     1      44.426 131.522  15.986  1.00  0.00    -0.359 OA
ATOM     22  C   UNL     1      45.316 130.436  16.091  1.00  0.00     0.183 C 
BRANCH  22  23
ATOM     23  C   UNL     1      46.301 130.415  14.959  1.00  0.00    -0.016 A 
ATOM     24  C   UNL     1      47.302 129.433  14.919  1.00  0.00     0.006 A 
ATOM     25  C   UNL     1      46.186 131.331  13.903  1.00  0.00     0.006 A 
ATOM     26  C   UNL     1      48.199 129.387  13.847  1.00  0.00     0.000 A 
ATOM     27  C   UNL     1      47.085 131.283  12.831  1.00  0.00     0.000 A 
ATOM     28  C   UNL     1      48.091 130.313  12.805  1.00  0.00     0.000 A 
ENDBRANCH  22  23
ENDBRANCH   3  20
BRANCH   4  29
ATOM     29  N   UNL     1      46.739 130.077  19.125  1.00  0.00    -0.399 N 
ATOM     30  H   UNL     1      47.437 130.494  18.472  1.00  0.00     0.156 HD
ATOM     31  H   UNL     1      46.988 129.161  19.559  1.00  0.00     0.156 HD
ENDBRANCH   4  29
TORSDOF 6
ENDMDL
MODEL 3
REMARK VINA RESULT:      -4.8      5.716      9.133
REMARK SMILES C=Cc1cc([C@@H]2O[C@H]2c2ccccc2)c(N)c([O-])c1Nc1ccc(C)c(F)c1
REMARK SMILES IDX 3 1 4 2 5 3 15 4 17 5 18 6 19 7 2 8 1 9 20 10 21 12 22 13
REMARK SMILES IDX 28 14 23 15 26 16 24 17 27 18 25 19 6 20 7 21 8 22 9 23
REMARK SMILES IDX 10 24 14 25 11 26 13 27 12 28 16 29
REMARK H PARENT 20 11 16 30 16 31
ROOT
ATOM      1  C   UNL     1      48.991 125.571  22.454  1.00  0.00    -0.003 A 
ATOM      2  C   UNL     1      47.954 126.478  22.730  1.00  0.00     0.019 A 
ATOM      3  C   UNL     1      46.637 126.036  22.925  1.00  0.00     0.007 A 
ATOM      4  C   UNL     1      46.356 124.653  22.912  1.00  0.00     0.032 A 
ATOM      5  C   UNL     1      47.389 123.741  22.633  1.00  0.00    -0.060 A 
ATOM      6  O   UNL     1      47.120 122.376  22.594  1.00  0.00    -0.870 OA
ATOM      7  C   UNL     1      48.696 124.191  22.383  1.00  0.00     0.040 A 
ENDROOT
BRANCH   1   8
ATOM      8  C   UNL     1      50.390 126.047  22.310  1.00  0.00     0.002 C 
ATOM      9  C   UNL     1      51.209 126.233  23.345  1.00  0.00     0.009 C 
ENDBRANCH   1   8
BRANCH   7  10
ATOM     10  N   UNL     1      49.715 123.225  22.079  1.00  0.00    -0.355 N 
ATOM     11  H   UNL     1      49.764 122.367  22.675  1.00  0.00     0.167 HD
BRANCH  10  12
ATOM     12  C   UNL     1      50.587 123.315  20.936  1.00  0.00     0.041 A 
ATOM     13  C   UNL     1      51.968 123.143  21.110  1.00  0.00     0.026 A 
ATOM     14  C   UNL     1      50.084 123.545  19.642  1.00  0.00     0.065 A 
ATOM     15  C   UNL     1      52.836 123.226  20.018  1.00  0.00     0.008 A 
ATOM     16  C   UNL     1      50.952 123.630  18.549  1.00  0.00     0.128 A 
ATOM     17  C   UNL     1      52.335 123.482  18.732  1.00  0.00    -0.015 A 
ATOM     18  F   UNL     1      50.441 123.851  17.311  1.00  0.00    -0.207 F 
ATOM     19  C   UNL     1      53.265 123.556  17.554  1.00  0.00     0.047 C 
ENDBRANCH  10  12
ENDBRANCH   7  10
BRANCH   3  20
ATOM     20  C   UNL     1      45.569 127.056  23.216  1.00  0.00     0.185 C 
ATOM     21  O   UNL     1      44.468 126.919  22.346  1.00  0.00    -0.359 OA
ATOM     22  C   UNL     1      45.296 128.039  22.134  1.00  0.00     0.183 C 
BRANCH  22  23
ATOM     23  C   UNL     1      44.629 129.311  22.566  1.00  0.00    -0.016 A 
ATOM     24  C   UNL     1      44.264 129.491  23.909  1.00  0.00     0.006 A 
ATOM     25  C   UNL     1      44.426 130.352  21.648  1.00  0.00     0.006 A 
ATOM     26  C   UNL     1      43.676 130.690  24.323  1.00  0.00     0.000 A 
ATOM     27  C   UNL     1      43.838 131.551  22.064  1.00  0.00     0.000 A 
ATOM     28  C   UNL     1      43.461 131.719  23.400  1.00  0.00     0.000 A 
ENDBRANCH  22  23
ENDBRANCH   3  20
BRANCH   4  29
ATOM     29  N   UNL     1      45.035 124.163  23.194  1.00  0.00    -0.399 N 
ATOM     30  H   UNL     1      44.467 123.662  22.477  1.00  0.00     0.156 HD
ATOM     31  H   UNL     1      44.582 124.331  24.119  1.00  0.00     0.156 HD
ENDBRANCH   4  29
TORSDOF 6
ENDMDL


