REMARK SMILES Cc1cc(-c2c([NH2+]c3cccc4c3CCC4)ccc3[nH]ccc23)cc(O)c1F
REMARK SMILES IDX 5 1 6 2 17 3 18 4 19 5 20 6 21 7 22 8 23 9 4 11 2 12 3 13
REMARK SMILES IDX 27 14 25 15 24 16 1 17 28 18 26 19 7 21 8 24 9 25 13 26
REMARK SMILES IDX 10 27 12 28 14 29 11 30 16 31 15 32
REMARK H PARENT 20 10 26 20 7 22 7 23
ROOT
ATOM      1  C   UNL     1      -1.309   0.502   1.345  1.00  0.00     0.053 A 
ATOM      2  C   UNL     1      -0.137   0.795   2.104  1.00  0.00     0.143 A 
ATOM      3  C   UNL     1      -0.229   0.872   3.521  1.00  0.00     0.071 A 
ATOM      4  C   UNL     1      -1.451   0.663   4.182  1.00  0.00     0.033 A 
ATOM      5  C   UNL     1      -2.571   0.378   3.409  1.00  0.00     0.046 A 
ATOM      6  N   UNL     1      -3.820   0.145   3.844  1.00  0.00    -0.361 N 
ATOM      7  C   UNL     1      -4.561  -0.086   2.738  1.00  0.00     0.083 A 
ATOM      8  C   UNL     1      -3.776   0.001   1.594  1.00  0.00     0.029 A 
ATOM      9  C   UNL     1      -2.505   0.299   2.044  1.00  0.00     0.013 A 
ATOM     10  H   UNL     1      -4.154   0.141   4.834  1.00  0.00     0.166 HD
ENDROOT
BRANCH   1  11
ATOM     11  C   UNL     1      -1.289   0.391  -0.124  1.00  0.00    -0.008 A 
ATOM     12  C   UNL     1      -1.474   1.425  -2.318  1.00  0.00    -0.011 A 
ATOM     13  C   UNL     1      -1.486   1.528  -0.918  1.00  0.00     0.015 A 
ATOM     14  C   UNL     1      -1.233   0.176  -2.918  1.00  0.00     0.167 A 
ATOM     15  C   UNL     1      -1.044  -0.962  -2.125  1.00  0.00     0.152 A 
ATOM     16  C   UNL     1      -1.090  -0.856  -0.730  1.00  0.00     0.058 A 
ATOM     17  C   UNL     1      -1.635   2.652  -3.167  1.00  0.00     0.048 C 
ATOM     18  F   UNL     1      -1.173   0.065  -4.270  1.00  0.00    -0.203 F 
BRANCH  15  19
ATOM     19  O   UNL     1      -0.800  -2.192  -2.732  1.00  0.00    -0.505 OA
ATOM     20  H   UNL     1      -0.644  -3.031  -2.185  1.00  0.00     0.293 HD
ENDBRANCH  15  19
ENDBRANCH   1  11
BRANCH   2  21
ATOM     21  N   UNL     1       1.144   1.004   1.462  1.00  0.00    -0.281 N 
ATOM     22  H   UNL     1       1.024   1.736   0.727  1.00  0.00     0.358 HD
ATOM     23  H   UNL     1       1.847   1.373   2.144  1.00  0.00     0.358 HD
BRANCH  21  24
ATOM     24  C   UNL     1       1.666  -0.228   0.909  1.00  0.00     0.138 A 
ATOM     25  C   UNL     1       1.755  -1.397   1.702  1.00  0.00     0.068 A 
ATOM     26  C   UNL     1       2.147  -0.297  -0.416  1.00  0.00     0.017 A 
ATOM     27  C   UNL     1       2.243  -2.595   1.157  1.00  0.00     0.006 A 
ATOM     28  C   UNL     1       2.618  -1.478  -0.940  1.00  0.00    -0.039 A 
ATOM     29  C   UNL     1       2.253   0.808  -1.404  1.00  0.00     0.042 C 
ATOM     30  C   UNL     1       2.670  -2.643  -0.174  1.00  0.00     0.004 A 
ATOM     31  C   UNL     1       3.059  -1.338  -2.346  1.00  0.00     0.036 C 
ATOM     32  C   UNL     1       2.742   0.126  -2.693  1.00  0.00     0.010 C 
ENDBRANCH  21  24
ENDBRANCH   2  21
TORSDOF 4


