MODEL 1
REMARK VINA RESULT:     -10.0      0.000      0.000
REMARK SMILES [O-]C(N[C@H]1Cc2ccccc2[C@@H]1O)=C1CCCC1
REMARK SMILES IDX 4 1 5 2 6 3 7 4 8 5 9 6 10 7 11 8 12 9 3 10 2 12 1 13 14 14
REMARK SMILES IDX 15 15 18 16 16 17 17 18 13 19
REMARK H PARENT 3 11 13 20
ROOT
ATOM      1  C   UNL     1      44.617 130.746  15.884  1.00  0.00     0.115 C 
ATOM      2  C   UNL     1      44.913 131.528  14.578  1.00  0.00     0.063 C 
ATOM      3  C   UNL     1      46.177 130.935  14.087  1.00  0.00    -0.040 A 
ATOM      4  C   UNL     1      46.937 131.370  12.998  1.00  0.00     0.004 A 
ATOM      5  C   UNL     1      48.103 130.664  12.664  1.00  0.00     0.000 A 
ATOM      6  C   UNL     1      48.486 129.538  13.412  1.00  0.00     0.000 A 
ATOM      7  C   UNL     1      47.704 129.113  14.498  1.00  0.00     0.007 A 
ATOM      8  C   UNL     1      46.548 129.832  14.816  1.00  0.00    -0.014 A 
ATOM      9  C   UNL     1      45.591 129.535  15.908  1.00  0.00     0.167 C 
ENDROOT
BRANCH   1  10
ATOM     10  N   UNL     1      44.830 131.587  17.068  1.00  0.00    -0.391 N 
ATOM     11  H   UNL     1      45.725 132.117  17.161  1.00  0.00     0.159 HD
BRANCH  10  12
ATOM     12  C   UNL     1      43.828 131.693  18.095  1.00  0.00    -0.046 C 
ATOM     13  O   UNL     1      42.527 132.050  17.744  1.00  0.00    -0.860 OA
BRANCH  12  14
ATOM     14  C   UNL     1      44.115 131.456  19.388  1.00  0.00    -0.062 C 
ATOM     15  C   UNL     1      45.432 130.927  19.841  1.00  0.00     0.032 C 
ATOM     16  C   UNL     1      43.181 131.689  20.525  1.00  0.00     0.032 C 
ATOM     17  C   UNL     1      45.238 130.632  21.324  1.00  0.00     0.005 C 
ATOM     18  C   UNL     1      44.020 131.438  21.771  1.00  0.00     0.005 C 
ENDBRANCH  12  14
ENDBRANCH  10  12
ENDBRANCH   1  10
BRANCH   9  19
ATOM     19  O   UNL     1      44.911 128.344  15.619  1.00  0.00    -0.386 OA
ATOM     20  H   UNL     1      44.658 128.392  14.660  1.00  0.00     0.211 HD
ENDBRANCH   9  19
TORSDOF 4
ENDMDL
MODEL 2
REMARK VINA RESULT:      -9.8      1.144      1.494
REMARK SMILES [O-]C(N[C@H]1Cc2ccccc2[C@@H]1O)=C1CCCC1
REMARK SMILES IDX 4 1 5 2 6 3 7 4 8 5 9 6 10 7 11 8 12 9 3 10 2 12 1 13 14 14
REMARK SMILES IDX 15 15 18 16 16 17 17 18 13 19
REMARK H PARENT 3 11 13 20
ROOT
ATOM      1  C   UNL     1      44.654 130.860  15.949  1.00  0.00     0.115 C 
ATOM      2  C   UNL     1      44.905 131.573  14.595  1.00  0.00     0.063 C 
ATOM      3  C   UNL     1      46.159 130.961  14.098  1.00  0.00    -0.040 A 
ATOM      4  C   UNL     1      46.883 131.342  12.966  1.00  0.00     0.004 A 
ATOM      5  C   UNL     1      48.044 130.626  12.635  1.00  0.00     0.000 A 
ATOM      6  C   UNL     1      48.457 129.544  13.431  1.00  0.00     0.000 A 
ATOM      7  C   UNL     1      47.710 129.173  14.561  1.00  0.00     0.007 A 
ATOM      8  C   UNL     1      46.559 129.902  14.874  1.00  0.00    -0.014 A 
ATOM      9  C   UNL     1      45.637 129.659  16.009  1.00  0.00     0.167 C 
ENDROOT
BRANCH   1  10
ATOM     10  N   UNL     1      44.895 131.765  17.079  1.00  0.00    -0.391 N 
ATOM     11  H   UNL     1      45.106 132.770  16.890  1.00  0.00     0.159 HD
BRANCH  10  12
ATOM     12  C   UNL     1      44.843 131.290  18.437  1.00  0.00    -0.046 C 
ATOM     13  O   UNL     1      45.809 130.391  18.882  1.00  0.00    -0.860 OA
BRANCH  12  14
ATOM     14  C   UNL     1      43.883 131.694  19.288  1.00  0.00    -0.062 C 
ATOM     15  C   UNL     1      44.055 131.687  20.767  1.00  0.00     0.032 C 
ATOM     16  C   UNL     1      42.542 132.201  18.881  1.00  0.00     0.032 C 
ATOM     17  C   UNL     1      42.675 132.025  21.318  1.00  0.00     0.005 C 
ATOM     18  C   UNL     1      41.901 132.683  20.176  1.00  0.00     0.005 C 
ENDBRANCH  12  14
ENDBRANCH  10  12
ENDBRANCH   1  10
BRANCH   9  19
ATOM     19  O   UNL     1      44.957 128.449  15.804  1.00  0.00    -0.386 OA
ATOM     20  H   UNL     1      44.053 128.566  16.195  1.00  0.00     0.211 HD
ENDBRANCH   9  19
TORSDOF 4
ENDMDL
MODEL 3
REMARK VINA RESULT:      -9.5      1.271      1.724
REMARK SMILES [O-]C(N[C@H]1Cc2ccccc2[C@@H]1O)=C1CCCC1
REMARK SMILES IDX 4 1 5 2 6 3 7 4 8 5 9 6 10 7 11 8 12 9 3 10 2 12 1 13 14 14
REMARK SMILES IDX 15 15 18 16 16 17 17 18 13 19
REMARK H PARENT 3 11 13 20
ROOT
ATOM      1  C   UNL     1      45.084 130.912  16.482  1.00  0.00     0.115 C 
ATOM      2  C   UNL     1      45.312 131.796  15.229  1.00  0.00     0.063 C 
ATOM      3  C   UNL     1      46.411 131.115  14.508  1.00  0.00    -0.040 A 
ATOM      4  C   UNL     1      47.076 131.577  13.369  1.00  0.00     0.004 A 
ATOM      5  C   UNL     1      48.084 130.778  12.806  1.00  0.00     0.000 A 
ATOM      6  C   UNL     1      48.406 129.536  13.381  1.00  0.00     0.000 A 
ATOM      7  C   UNL     1      47.719 129.088  14.522  1.00  0.00     0.007 A 
ATOM      8  C   UNL     1      46.721 129.901  15.068  1.00  0.00    -0.014 A 
ATOM      9  C   UNL     1      45.881 129.599  16.251  1.00  0.00     0.167 C 
ENDROOT
BRANCH   1  10
ATOM     10  N   UNL     1      45.558 131.582  17.699  1.00  0.00    -0.391 N 
ATOM     11  H   UNL     1      46.162 132.429  17.610  1.00  0.00     0.159 HD
BRANCH  10  12
ATOM     12  C   UNL     1      45.203 131.092  19.005  1.00  0.00    -0.046 C 
ATOM     13  O   UNL     1      45.994 130.116  19.605  1.00  0.00    -0.860 OA
BRANCH  12  14
ATOM     14  C   UNL     1      44.123 131.555  19.661  1.00  0.00    -0.062 C 
ATOM     15  C   UNL     1      42.919 132.088  18.966  1.00  0.00     0.032 C 
ATOM     16  C   UNL     1      43.981 131.594  21.144  1.00  0.00     0.032 C 
ATOM     17  C   UNL     1      42.057 132.669  20.080  1.00  0.00     0.005 C 
ATOM     18  C   UNL     1      42.541 132.032  21.381  1.00  0.00     0.005 C 
ENDBRANCH  12  14
ENDBRANCH  10  12
ENDBRANCH   1  10
BRANCH   9  19
ATOM     19  O   UNL     1      45.016 128.538  15.948  1.00  0.00    -0.386 OA
ATOM     20  H   UNL     1      45.592 127.754  15.753  1.00  0.00     0.211 HD
ENDBRANCH   9  19
TORSDOF 4
ENDMDL
MODEL 4
REMARK VINA RESULT:      -8.5      1.683      6.792
REMARK SMILES [O-]C(N[C@H]1Cc2ccccc2[C@@H]1O)=C1CCCC1
REMARK SMILES IDX 4 1 5 2 6 3 7 4 8 5 9 6 10 7 11 8 12 9 3 10 2 12 1 13 14 14
REMARK SMILES IDX 15 15 18 16 16 17 17 18 13 19
REMARK H PARENT 3 11 13 20
ROOT
ATOM      1  C   UNL     1      45.273 131.431  18.824  1.00  0.00     0.115 C 
ATOM      2  C   UNL     1      44.029 132.200  19.337  1.00  0.00     0.063 C 
ATOM      3  C   UNL     1      43.761 131.599  20.664  1.00  0.00    -0.040 A 
ATOM      4  C   UNL     1      42.667 131.860  21.493  1.00  0.00     0.004 A 
ATOM      5  C   UNL     1      42.593 131.208  22.734  1.00  0.00     0.000 A 
ATOM      6  C   UNL     1      43.608 130.318  23.128  1.00  0.00     0.000 A 
ATOM      7  C   UNL     1      44.701 130.077  22.281  1.00  0.00     0.007 A 
ATOM      8  C   UNL     1      44.755 130.734  21.048  1.00  0.00    -0.014 A 
ATOM      9  C   UNL     1      45.826 130.623  20.030  1.00  0.00     0.167 C 
ENDROOT
BRANCH   1  10
ATOM     10  N   UNL     1      44.920 130.521  17.727  1.00  0.00    -0.391 N 
ATOM     11  H   UNL     1      44.759 129.511  17.936  1.00  0.00     0.159 HD
BRANCH  10  12
ATOM     12  C   UNL     1      44.792 130.999  16.376  1.00  0.00    -0.046 C 
ATOM     13  O   UNL     1      43.659 131.724  16.014  1.00  0.00    -0.860 OA
BRANCH  12  14
ATOM     14  C   UNL     1      45.741 130.762  15.452  1.00  0.00    -0.062 C 
ATOM     15  C   UNL     1      46.474 131.849  14.746  1.00  0.00     0.032 C 
ATOM     16  C   UNL     1      46.186 129.408  15.017  1.00  0.00     0.032 C 
ATOM     17  C   UNL     1      47.285 131.133  13.673  1.00  0.00     0.005 C 
ATOM     18  C   UNL     1      47.375 129.669  14.101  1.00  0.00     0.005 C 
ENDBRANCH  12  14
ENDBRANCH  10  12
ENDBRANCH   1  10
BRANCH   9  19
ATOM     19  O   UNL     1      47.000 131.208  20.525  1.00  0.00    -0.386 OA
ATOM     20  H   UNL     1      46.717 131.857  21.221  1.00  0.00     0.211 HD
ENDBRANCH   9  19
TORSDOF 4
ENDMDL
MODEL 5
REMARK VINA RESULT:      -8.3      1.623      6.583
REMARK SMILES [O-]C(N[C@H]1Cc2ccccc2[C@@H]1O)=C1CCCC1
REMARK SMILES IDX 4 1 5 2 6 3 7 4 8 5 9 6 10 7 11 8 12 9 3 10 2 12 1 13 14 14
REMARK SMILES IDX 15 15 18 16 16 17 17 18 13 19
REMARK H PARENT 3 11 13 20
ROOT
ATOM      1  C   UNL     1      45.933 130.991  18.248  1.00  0.00     0.115 C 
ATOM      2  C   UNL     1      44.758 131.996  18.128  1.00  0.00     0.063 C 
ATOM      3  C   UNL     1      44.026 131.842  19.406  1.00  0.00    -0.040 A 
ATOM      4  C   UNL     1      42.812 132.442  19.751  1.00  0.00     0.004 A 
ATOM      5  C   UNL     1      42.277 132.196  21.025  1.00  0.00     0.000 A 
ATOM      6  C   UNL     1      42.961 131.367  21.931  1.00  0.00     0.000 A 
ATOM      7  C   UNL     1      44.183 130.780  21.566  1.00  0.00     0.007 A 
ATOM      8  C   UNL     1      44.697 131.036  20.291  1.00  0.00    -0.014 A 
ATOM      9  C   UNL     1      45.970 130.525  19.730  1.00  0.00     0.167 C 
ENDROOT
BRANCH   1  10
ATOM     10  N   UNL     1      45.738 129.837  17.362  1.00  0.00    -0.391 N 
ATOM     11  H   UNL     1      45.853 128.874  17.748  1.00  0.00     0.159 HD
BRANCH  10  12
ATOM     12  C   UNL     1      45.392 130.014  15.976  1.00  0.00    -0.046 C 
ATOM     13  O   UNL     1      44.049 130.017  15.605  1.00  0.00    -0.860 OA
BRANCH  12  14
ATOM     14  C   UNL     1      46.333 130.176  15.029  1.00  0.00    -0.062 C 
ATOM     15  C   UNL     1      46.622 131.490  14.390  1.00  0.00     0.032 C 
ATOM     16  C   UNL     1      47.206 129.090  14.501  1.00  0.00     0.032 C 
ATOM     17  C   UNL     1      47.596 131.165  13.264  1.00  0.00     0.005 C 
ATOM     18  C   UNL     1      48.201 129.802  13.593  1.00  0.00     0.005 C 
ENDBRANCH  12  14
ENDBRANCH  10  12
ENDBRANCH   1  10
BRANCH   9  19
ATOM     19  O   UNL     1      47.047 131.112  20.409  1.00  0.00    -0.386 OA
ATOM     20  H   UNL     1      47.632 131.511  19.714  1.00  0.00     0.211 HD
ENDBRANCH   9  19
TORSDOF 4
ENDMDL
MODEL 6
REMARK VINA RESULT:      -8.3      1.691      6.639
REMARK SMILES [O-]C(N[C@H]1Cc2ccccc2[C@@H]1O)=C1CCCC1
REMARK SMILES IDX 4 1 5 2 6 3 7 4 8 5 9 6 10 7 11 8 12 9 3 10 2 12 1 13 14 14
REMARK SMILES IDX 15 15 18 16 16 17 17 18 13 19
REMARK H PARENT 3 11 13 20
ROOT
ATOM      1  C   UNL     1      45.755 131.198  18.429  1.00  0.00     0.115 C 
ATOM      2  C   UNL     1      44.545 132.163  18.519  1.00  0.00     0.063 C 
ATOM      3  C   UNL     1      43.945 131.860  19.838  1.00  0.00    -0.040 A 
ATOM      4  C   UNL     1      42.753 132.376  20.352  1.00  0.00     0.004 A 
ATOM      5  C   UNL     1      42.352 131.989  21.640  1.00  0.00     0.000 A 
ATOM      6  C   UNL     1      43.145 131.105  22.393  1.00  0.00     0.000 A 
ATOM      7  C   UNL     1      44.343 130.604  21.859  1.00  0.00     0.007 A 
ATOM      8  C   UNL     1      44.723 130.999  20.573  1.00  0.00    -0.014 A 
ATOM      9  C   UNL     1      45.950 130.595  19.847  1.00  0.00     0.167 C 
ENDROOT
BRANCH   1  10
ATOM     10  N   UNL     1      45.510 130.127  17.455  1.00  0.00    -0.391 N 
ATOM     11  H   UNL     1      45.557 129.132  17.770  1.00  0.00     0.159 HD
BRANCH  10  12
ATOM     12  C   UNL     1      45.206 130.426  16.081  1.00  0.00    -0.046 C 
ATOM     13  O   UNL     1      43.896 130.739  15.725  1.00  0.00    -0.860 OA
BRANCH  12  14
ATOM     14  C   UNL     1      46.157 130.411  15.129  1.00  0.00    -0.062 C 
ATOM     15  C   UNL     1      46.833 129.163  14.678  1.00  0.00     0.032 C 
ATOM     16  C   UNL     1      46.654 131.614  14.404  1.00  0.00     0.032 C 
ATOM     17  C   UNL     1      47.949 129.640  13.757  1.00  0.00     0.005 C 
ATOM     18  C   UNL     1      47.581 131.060  13.329  1.00  0.00     0.005 C 
ENDBRANCH  12  14
ENDBRANCH  10  12
ENDBRANCH   1  10
BRANCH   9  19
ATOM     19  O   UNL     1      47.069 131.157  20.477  1.00  0.00    -0.386 OA
ATOM     20  H   UNL     1      46.982 130.946  21.443  1.00  0.00     0.211 HD
ENDBRANCH   9  19
TORSDOF 4
ENDMDL
MODEL 7
REMARK VINA RESULT:      -8.1      1.074      1.483
REMARK SMILES [O-]C(N[C@H]1Cc2ccccc2[C@@H]1O)=C1CCCC1
REMARK SMILES IDX 4 1 5 2 6 3 7 4 8 5 9 6 10 7 11 8 12 9 3 10 2 12 1 13 14 14
REMARK SMILES IDX 15 15 18 16 16 17 17 18 13 19
REMARK H PARENT 3 11 13 20
ROOT
ATOM      1  C   UNL     1      44.985 130.291  16.787  1.00  0.00     0.115 C 
ATOM      2  C   UNL     1      45.231 131.536  15.897  1.00  0.00     0.063 C 
ATOM      3  C   UNL     1      46.284 131.097  14.954  1.00  0.00    -0.040 A 
ATOM      4  C   UNL     1      46.949 131.890  14.015  1.00  0.00     0.004 A 
ATOM      5  C   UNL     1      47.908 131.291  13.185  1.00  0.00     0.000 A 
ATOM      6  C   UNL     1      48.183 129.916  13.299  1.00  0.00     0.000 A 
ATOM      7  C   UNL     1      47.497 129.137  14.244  1.00  0.00     0.007 A 
ATOM      8  C   UNL     1      46.548 129.754  15.064  1.00  0.00    -0.014 A 
ATOM      9  C   UNL     1      45.716 129.103  16.104  1.00  0.00     0.167 C 
ENDROOT
BRANCH   1  10
ATOM     10  N   UNL     1      45.511 130.493  18.143  1.00  0.00    -0.391 N 
ATOM     11  H   UNL     1      46.303 129.899  18.475  1.00  0.00     0.159 HD
BRANCH  10  12
ATOM     12  C   UNL     1      44.957 131.495  19.014  1.00  0.00    -0.046 C 
ATOM     13  O   UNL     1      44.876 132.814  18.572  1.00  0.00    -0.860 OA
BRANCH  12  14
ATOM     14  C   UNL     1      44.514 131.190  20.247  1.00  0.00    -0.062 C 
ATOM     15  C   UNL     1      43.199 131.651  20.774  1.00  0.00     0.032 C 
ATOM     16  C   UNL     1      45.257 130.360  21.237  1.00  0.00     0.032 C 
ATOM     17  C   UNL     1      43.210 131.247  22.243  1.00  0.00     0.005 C 
ATOM     18  C   UNL     1      44.278 130.165  22.388  1.00  0.00     0.005 C 
ENDBRANCH  12  14
ENDBRANCH  10  12
ENDBRANCH   1  10
BRANCH   9  19
ATOM     19  O   UNL     1      44.798 128.240  15.490  1.00  0.00    -0.386 OA
ATOM     20  H   UNL     1      44.989 127.331  15.842  1.00  0.00     0.211 HD
ENDBRANCH   9  19
TORSDOF 4
ENDMDL
MODEL 8
REMARK VINA RESULT:      -7.3      1.358      6.164
REMARK SMILES [O-]C(N[C@H]1Cc2ccccc2[C@@H]1O)=C1CCCC1
REMARK SMILES IDX 4 1 5 2 6 3 7 4 8 5 9 6 10 7 11 8 12 9 3 10 2 12 1 13 14 14
REMARK SMILES IDX 15 15 18 16 16 17 17 18 13 19
REMARK H PARENT 3 11 13 20
ROOT
ATOM      1  C   UNL     1      44.009 131.721  15.854  1.00  0.00     0.115 C 
ATOM      2  C   UNL     1      42.725 131.846  16.714  1.00  0.00     0.063 C 
ATOM      3  C   UNL     1      43.217 131.731  18.106  1.00  0.00    -0.040 A 
ATOM      4  C   UNL     1      42.438 131.660  19.264  1.00  0.00     0.004 A 
ATOM      5  C   UNL     1      43.085 131.577  20.507  1.00  0.00     0.000 A 
ATOM      6  C   UNL     1      44.489 131.573  20.574  1.00  0.00     0.000 A 
ATOM      7  C   UNL     1      45.252 131.652  19.398  1.00  0.00     0.007 A 
ATOM      8  C   UNL     1      44.588 131.731  18.170  1.00  0.00    -0.014 A 
ATOM      9  C   UNL     1      45.212 131.835  16.830  1.00  0.00     0.167 C 
ENDROOT
BRANCH   1  10
ATOM     10  N   UNL     1      44.053 130.435  15.148  1.00  0.00    -0.391 N 
ATOM     11  H   UNL     1      43.204 130.105  14.637  1.00  0.00     0.159 HD
BRANCH  10  12
ATOM     12  C   UNL     1      45.244 129.626  15.148  1.00  0.00    -0.046 C 
ATOM     13  O   UNL     1      45.303 128.500  15.967  1.00  0.00    -0.860 OA
BRANCH  12  14
ATOM     14  C   UNL     1      46.303 129.931  14.376  1.00  0.00    -0.062 C 
ATOM     15  C   UNL     1      47.499 129.052  14.258  1.00  0.00     0.032 C 
ATOM     16  C   UNL     1      46.423 131.162  13.544  1.00  0.00     0.032 C 
ATOM     17  C   UNL     1      48.503 129.874  13.458  1.00  0.00     0.005 C 
ATOM     18  C   UNL     1      47.702 130.960  12.741  1.00  0.00     0.005 C 
ENDBRANCH  12  14
ENDBRANCH  10  12
ENDBRANCH   1  10
BRANCH   9  19
ATOM     19  O   UNL     1      45.837 133.084  16.705  1.00  0.00    -0.386 OA
ATOM     20  H   UNL     1      45.116 133.764  16.747  1.00  0.00     0.211 HD
ENDBRANCH   9  19
TORSDOF 4
ENDMDL
MODEL 9
REMARK VINA RESULT:      -7.2      1.264      6.237
REMARK SMILES [O-]C(N[C@H]1Cc2ccccc2[C@@H]1O)=C1CCCC1
REMARK SMILES IDX 4 1 5 2 6 3 7 4 8 5 9 6 10 7 11 8 12 9 3 10 2 12 1 13 14 14
REMARK SMILES IDX 15 15 18 16 16 17 17 18 13 19
REMARK H PARENT 3 11 13 20
ROOT
ATOM      1  C   UNL     1      44.071 130.966  16.923  1.00  0.00     0.115 C 
ATOM      2  C   UNL     1      45.163 130.198  17.713  1.00  0.00     0.063 C 
ATOM      3  C   UNL     1      45.165 130.850  19.042  1.00  0.00    -0.040 A 
ATOM      4  C   UNL     1      46.056 130.607  20.090  1.00  0.00     0.004 A 
ATOM      5  C   UNL     1      45.888 131.309  21.294  1.00  0.00     0.000 A 
ATOM      6  C   UNL     1      44.836 132.231  21.434  1.00  0.00     0.000 A 
ATOM      7  C   UNL     1      43.948 132.454  20.370  1.00  0.00     0.007 A 
ATOM      8  C   UNL     1      44.135 131.747  19.178  1.00  0.00    -0.014 A 
ATOM      9  C   UNL     1      43.301 131.833  17.956  1.00  0.00     0.167 C 
ENDROOT
BRANCH   1  10
ATOM     10  N   UNL     1      44.666 131.823  15.890  1.00  0.00    -0.391 N 
ATOM     11  H   UNL     1      44.941 132.800  16.137  1.00  0.00     0.159 HD
BRANCH  10  12
ATOM     12  C   UNL     1      44.876 131.339  14.551  1.00  0.00    -0.046 C 
ATOM     13  O   UNL     1      43.848 131.452  13.617  1.00  0.00    -0.860 OA
BRANCH  12  14
ATOM     14  C   UNL     1      46.041 130.780  14.179  1.00  0.00    -0.062 C 
ATOM     15  C   UNL     1      46.437 129.398  14.568  1.00  0.00     0.032 C 
ATOM     16  C   UNL     1      47.075 131.446  13.339  1.00  0.00     0.032 C 
ATOM     17  C   UNL     1      47.883 129.267  14.104  1.00  0.00     0.005 C 
ATOM     18  C   UNL     1      48.105 130.359  13.059  1.00  0.00     0.005 C 
ENDBRANCH  12  14
ENDBRANCH  10  12
ENDBRANCH   1  10
BRANCH   9  19
ATOM     19  O   UNL     1      42.036 131.287  18.218  1.00  0.00    -0.386 OA
ATOM     20  H   UNL     1      41.373 131.929  17.852  1.00  0.00     0.211 HD
ENDBRANCH   9  19
TORSDOF 4
ENDMDL


