REMARK SMILES NNc1ccc2cc3ccccc3cc2c1C=O
REMARK SMILES IDX 3 1 4 2 5 3 6 4 7 5 8 6 9 7 10 8 11 9 12 10 13 11 14 12
REMARK SMILES IDX 15 13 16 14 2 15 1 17 17 20 18 21
REMARK H PARENT 2 16 1 18 1 19
ROOT
ATOM      1  C   UNL     1       0.031   1.457   1.738  1.00  0.00     0.060 A 
ATOM      2  C   UNL     1       1.380   1.705   1.433  1.00  0.00     0.028 A 
ATOM      3  C   UNL     1       1.957   1.201   0.273  1.00  0.00     0.011 A 
ATOM      4  C   UNL     1       1.206   0.428  -0.616  1.00  0.00    -0.017 A 
ATOM      5  C   UNL     1       1.810  -0.066  -1.783  1.00  0.00     0.017 A 
ATOM      6  C   UNL     1       1.084  -0.862  -2.676  1.00  0.00    -0.018 A 
ATOM      7  C   UNL     1       1.687  -1.357  -3.844  1.00  0.00     0.009 A 
ATOM      8  C   UNL     1       0.956  -2.157  -4.726  1.00  0.00     0.001 A 
ATOM      9  C   UNL     1      -0.377  -2.470  -4.451  1.00  0.00     0.001 A 
ATOM     10  C   UNL     1      -0.988  -1.983  -3.291  1.00  0.00     0.009 A 
ATOM     11  C   UNL     1      -0.264  -1.176  -2.397  1.00  0.00    -0.018 A 
ATOM     12  C   UNL     1      -0.870  -0.684  -1.232  1.00  0.00     0.018 A 
ATOM     13  C   UNL     1      -0.152   0.136  -0.330  1.00  0.00    -0.005 A 
ATOM     14  C   UNL     1      -0.743   0.648   0.861  1.00  0.00     0.047 A 
ENDROOT
BRANCH   1  15
ATOM     15  N   UNL     1      -0.566   2.074   2.902  1.00  0.00    -0.323 N 
ATOM     16  H   UNL     1      -1.602   2.158   2.980  1.00  0.00     0.181 HD
BRANCH  15  17
ATOM     17  N   UNL     1       0.195   2.588   3.966  1.00  0.00    -0.250 NA
ATOM     18  H   UNL     1       0.727   3.416   3.615  1.00  0.00     0.143 HD
ATOM     19  H   UNL     1       0.872   1.851   4.267  1.00  0.00     0.143 HD
ENDBRANCH  15  17
ENDBRANCH   1  15
BRANCH  14  20
ATOM     20  C   UNL     1      -2.150   0.326   1.197  1.00  0.00     0.262 C 
ATOM     21  O   UNL     1      -2.463  -0.066   2.352  1.00  0.00    -0.298 OA
ENDBRANCH  14  20
TORSDOF 3


