REMARK SMILES Cc1ccc(Nc2ccc3cc[nH]c3c2O/C(O)=N/c2ccc(C#N)c(C#N)c2)cc1
REMARK SMILES IDX 17 1 18 2 19 4 20 5 21 6 29 7 22 8 26 9 23 10 27 11 28 12
REMARK SMILES IDX 24 13 25 14 16 15 15 16 7 17 14 18 8 19 13 20 10 21 9 22
REMARK SMILES IDX 12 23 11 24 6 26 5 28 4 29 30 30 3 31 31 32 2 33 1 34
REMARK H PARENT 18 3 13 25 6 27
ROOT
ATOM      1  C   UNL     1      -1.881   0.470   0.894  1.00  0.00     0.392 C 
ENDROOT
BRANCH   1   2
ATOM      2  O   UNL     1      -1.785   1.822   1.212  1.00  0.00    -0.466 OA
ATOM      3  H   UNL     1      -1.349   2.119   2.076  1.00  0.00     0.298 HD
ENDBRANCH   1   2
BRANCH   1   4
ATOM      4  N   UNL     1      -2.447   0.080  -0.211  1.00  0.00    -0.179 NA
BRANCH   4   5
ATOM      5  C   UNL     1      -2.926   0.924  -1.271  1.00  0.00     0.072 A 
ATOM      6  C   UNL     1      -2.262   2.108  -1.640  1.00  0.00     0.030 A 
ATOM      7  C   UNL     1      -4.032   0.499  -2.016  1.00  0.00     0.049 A 
ATOM      8  C   UNL     1      -2.733   2.877  -2.707  1.00  0.00     0.023 A 
ATOM      9  C   UNL     1      -4.512   1.267  -3.087  1.00  0.00     0.072 A 
ATOM     10  C   UNL     1      -3.860   2.468  -3.431  1.00  0.00     0.070 A 
BRANCH   9  11
ATOM     11  C   UNL     1      -5.666   0.802  -3.819  1.00  0.00     0.101 C 
ATOM     12  N   UNL     1      -6.591   0.429  -4.406  1.00  0.00    -0.192 NA
ENDBRANCH   9  11
BRANCH  10  13
ATOM     13  C   UNL     1      -4.321   3.285  -4.529  1.00  0.00     0.101 C 
ATOM     14  N   UNL     1      -4.690   3.940  -5.409  1.00  0.00    -0.192 NA
ENDBRANCH  10  13
ENDBRANCH   4   5
ENDBRANCH   1   4
BRANCH   1  15
ATOM     15  O   UNL     1      -1.400  -0.471   1.813  1.00  0.00    -0.407 OA
BRANCH  15  16
ATOM     16  C   UNL     1      -1.228  -1.836   1.539  1.00  0.00     0.180 A 
ATOM     17  C   UNL     1      -0.571  -2.326   0.372  1.00  0.00     0.084 A 
ATOM     18  C   UNL     1      -1.706  -2.777   2.453  1.00  0.00     0.091 A 
ATOM     19  C   UNL     1      -0.508  -3.722   0.138  1.00  0.00     0.031 A 
ATOM     20  N   UNL     1      -2.329  -2.538   3.620  1.00  0.00    -0.358 N 
ATOM     21  C   UNL     1      -1.613  -4.123   2.223  1.00  0.00     0.003 A 
ATOM     22  C   UNL     1      -1.030  -4.635   1.070  1.00  0.00     0.013 A 
ATOM     23  C   UNL     1      -2.628  -3.752   4.137  1.00  0.00     0.083 A 
ATOM     24  C   UNL     1      -2.197  -4.768   3.291  1.00  0.00     0.028 A 
ATOM     25  H   UNL     1      -2.546  -1.609   4.044  1.00  0.00     0.166 HD
BRANCH  17  26
ATOM     26  N   UNL     1       0.039  -1.444  -0.586  1.00  0.00    -0.352 N 
ATOM     27  H   UNL     1      -0.107  -1.657  -1.599  1.00  0.00     0.167 HD
BRANCH  26  28
ATOM     28  C   UNL     1       0.912  -0.353  -0.244  1.00  0.00     0.038 A 
ATOM     29  C   UNL     1       1.102   0.687  -1.166  1.00  0.00     0.026 A 
ATOM     30  C   UNL     1       1.590  -0.310   0.987  1.00  0.00     0.026 A 
ATOM     31  C   UNL     1       1.929   1.769  -0.853  1.00  0.00     0.005 A 
ATOM     32  C   UNL     1       2.418   0.771   1.299  1.00  0.00     0.005 A 
ATOM     33  C   UNL     1       2.602   1.812   0.378  1.00  0.00    -0.051 A 
ATOM     34  C   UNL     1       3.454   2.994   0.731  1.00  0.00     0.044 C 
ENDBRANCH  26  28
ENDBRANCH  17  26
ENDBRANCH  15  16
ENDBRANCH   1  15
TORSDOF 9


