REMARK SMILES Cc1ccc(N[C@H]2CCC[C@H]([NH3+])[C@@]2(O)F)cc1
REMARK SMILES IDX 7 1 8 2 9 3 10 4 11 5 13 6 15 7 6 8 5 10 2 11 3 12 17 13
REMARK SMILES IDX 4 14 16 15 1 16 14 17 12 19
REMARK H PARENT 6 9 14 18 12 20 12 21 12 22
ROOT
ATOM      1  C   UNL     1       0.259   0.265   1.198  1.00  0.00     0.150 C 
ATOM      2  C   UNL     1      -0.551   1.004   2.288  1.00  0.00     0.031 C 
ATOM      3  C   UNL     1      -1.462   0.068   3.096  1.00  0.00     0.009 C 
ATOM      4  C   UNL     1      -0.678  -1.110   3.680  1.00  0.00     0.071 C 
ATOM      5  C   UNL     1       0.071  -1.881   2.575  1.00  0.00     0.248 C 
ATOM      6  C   UNL     1       1.033  -0.942   1.801  1.00  0.00     0.279 C 
ATOM      7  F   UNL     1       1.631  -1.670   0.782  1.00  0.00    -0.203 F 
ENDROOT
BRANCH   1   8
ATOM      8  N   UNL     1      -0.617  -0.160   0.093  1.00  0.00    -0.376 N 
ATOM      9  H   UNL     1      -1.639  -0.257   0.283  1.00  0.00     0.161 HD
BRANCH   8  10
ATOM     10  C   UNL     1      -0.180  -0.432  -1.256  1.00  0.00     0.034 A 
ATOM     11  C   UNL     1       0.590  -0.991  -3.914  1.00  0.00    -0.051 A 
ATOM     12  C   UNL     1       1.514  -0.452  -3.009  1.00  0.00     0.005 A 
ATOM     13  C   UNL     1      -0.726  -1.224  -3.495  1.00  0.00     0.005 A 
ATOM     14  C   UNL     1       1.137  -0.179  -1.690  1.00  0.00     0.026 A 
ATOM     15  C   UNL     1      -1.105  -0.951  -2.177  1.00  0.00     0.026 A 
ATOM     16  C   UNL     1       0.987  -1.246  -5.338  1.00  0.00     0.044 C 
ENDBRANCH   8  10
ENDBRANCH   1   8
BRANCH   6  17
ATOM     17  O   UNL     1       2.032  -0.473   2.673  1.00  0.00    -0.356 OA
ATOM     18  H   UNL     1       2.740  -0.062   2.111  1.00  0.00     0.214 HD
ENDBRANCH   6  17
BRANCH   5  19
ATOM     19  N   UNL     1       0.794  -3.022   3.153  1.00  0.00    -0.350 N 
ATOM     20  H   UNL     1       1.499  -2.700   3.855  1.00  0.00     0.344 HD
ATOM     21  H   UNL     1       1.278  -3.561   2.399  1.00  0.00     0.344 HD
ATOM     22  H   UNL     1       0.117  -3.666   3.624  1.00  0.00     0.344 HD
ENDBRANCH   5  19
TORSDOF 4


