REMARK SMILES N[NH2+][C@H]1CCC[C@@H]2C=c3ccccc3=C[C@]12c1cc(F)cc(F)c1O
REMARK SMILES IDX 3 1 4 2 5 3 6 4 7 5 8 6 9 7 10 8 11 9 12 10 13 11 14 12
REMARK SMILES IDX 15 13 16 14 2 15 1 18 17 21 18 22 24 23 19 24 22 25 21 26
REMARK SMILES IDX 20 27 23 28 25 29
REMARK H PARENT 2 16 2 17 1 19 1 20 25 30
ROOT
ATOM      1  C   UNL     1       0.264  -1.828  -0.949  1.00  0.00     0.216 C 
ATOM      2  C   UNL     1      -1.034  -2.661  -1.106  1.00  0.00     0.068 C 
ATOM      3  C   UNL     1      -1.825  -2.808   0.194  1.00  0.00     0.007 C 
ATOM      4  C   UNL     1      -2.146  -1.442   0.789  1.00  0.00     0.009 C 
ATOM      5  C   UNL     1      -0.866  -0.624   1.065  1.00  0.00     0.033 C 
ATOM      6  C   UNL     1      -1.286   0.729   1.597  1.00  0.00    -0.014 C 
ATOM      7  C   UNL     1      -1.606   1.724   0.748  1.00  0.00    -0.022 A 
ATOM      8  C   UNL     1      -2.182   2.908   1.240  1.00  0.00     0.008 A 
ATOM      9  C   UNL     1      -2.626   3.895   0.356  1.00  0.00     0.001 A 
ATOM     10  C   UNL     1      -2.502   3.711  -1.022  1.00  0.00     0.001 A 
ATOM     11  C   UNL     1      -1.905   2.554  -1.526  1.00  0.00     0.008 A 
ATOM     12  C   UNL     1      -1.416   1.568  -0.652  1.00  0.00    -0.022 A 
ATOM     13  C   UNL     1      -0.755   0.498  -1.143  1.00  0.00     0.000 C 
ATOM     14  C   UNL     1       0.028  -0.440  -0.221  1.00  0.00     0.078 C 
ENDROOT
BRANCH   1  15
ATOM     15  N   UNL     1       1.384  -2.639  -0.408  1.00  0.00    -0.268 N 
ATOM     16  H   UNL     1       1.463  -3.522  -0.968  1.00  0.00     0.370 HD
ATOM     17  H   UNL     1       2.296  -2.135  -0.518  1.00  0.00     0.370 HD
BRANCH  15  18
ATOM     18  N   UNL     1       1.179  -2.970   0.949  1.00  0.00    -0.183 NA
ATOM     19  H   UNL     1       1.737  -2.315   1.544  1.00  0.00     0.183 HD
ATOM     20  H   UNL     1       1.579  -3.921   1.125  1.00  0.00     0.183 HD
ENDBRANCH  15  18
ENDBRANCH   1  15
BRANCH  14  21
ATOM     21  C   UNL     1       1.396   0.252   0.061  1.00  0.00     0.016 A 
ATOM     22  C   UNL     1       1.867   0.481   1.379  1.00  0.00     0.048 A 
ATOM     23  C   UNL     1       2.239   0.661  -1.014  1.00  0.00     0.155 A 
ATOM     24  C   UNL     1       3.099   1.094   1.615  1.00  0.00     0.126 A 
ATOM     25  C   UNL     1       3.475   1.278  -0.757  1.00  0.00     0.168 A 
ATOM     26  C   UNL     1       3.899   1.492   0.550  1.00  0.00     0.082 A 
ATOM     27  F   UNL     1       3.519   1.302   2.888  1.00  0.00    -0.207 F 
ATOM     28  F   UNL     1       4.274   1.669  -1.782  1.00  0.00    -0.203 F 
BRANCH  23  29
ATOM     29  O   UNL     1       1.850   0.456  -2.339  1.00  0.00    -0.505 OA
ATOM     30  H   UNL     1       2.427   0.735  -3.123  1.00  0.00     0.293 HD
ENDBRANCH  23  29
ENDBRANCH  14  21
TORSDOF 4


