REMARK SMILES C=c1ccc(=C(O)C(OC(=O)[C@H](F)CC)=c2ccc(=C)cc2)cc1
REMARK SMILES IDX 9 1 8 2 6 3 5 4 2 5 3 6 24 7 4 8 23 9 1 10 7 11 16 13 17 14
REMARK SMILES IDX 22 15 18 16 21 17 19 18 20 19 10 20 11 21 12 22 13 23 14 24
REMARK SMILES IDX 15 25
REMARK H PARENT 7 12
ROOT
ATOM      1  O   UNL     1      -0.393   0.215   1.262  1.00  0.00    -0.420 OA
ENDROOT
BRANCH   1   2
ATOM      2  C   UNL     1      -0.949   1.185   0.406  1.00  0.00     0.180 C 
BRANCH   2   3
ATOM      3  C   UNL     1      -0.178   1.649  -0.781  1.00  0.00     0.166 C 
BRANCH   3   4
ATOM      4  C   UNL     1       0.148   0.802  -1.800  1.00  0.00     0.020 A 
ATOM      5  C   UNL     1       0.816  -0.984  -3.909  1.00  0.00    -0.033 A 
ATOM      6  C   UNL     1      -0.043  -1.392  -2.880  1.00  0.00     0.008 A 
ATOM      7  C   UNL     1       1.343   0.314  -3.881  1.00  0.00     0.008 A 
ATOM      8  C   UNL     1      -0.371  -0.516  -1.842  1.00  0.00     0.013 A 
ATOM      9  C   UNL     1       1.018   1.193  -2.844  1.00  0.00     0.013 A 
ATOM     10  C   UNL     1       1.129  -1.823  -4.902  1.00  0.00     0.017 C 
ENDBRANCH   3   4
BRANCH   3  11
ATOM     11  O   UNL     1       0.192   3.000  -0.770  1.00  0.00    -0.504 OA
ATOM     12  H   UNL     1       0.556   3.507  -1.563  1.00  0.00     0.293 HD
ENDBRANCH   3  11
ENDBRANCH   2   3
BRANCH   2  13
ATOM     13  C   UNL     1      -2.196   1.655   0.670  1.00  0.00     0.021 A 
ATOM     14  C   UNL     1      -2.888   1.224   1.823  1.00  0.00     0.013 A 
ATOM     15  C   UNL     1      -2.850   2.569  -0.191  1.00  0.00     0.013 A 
ATOM     16  C   UNL     1      -4.173   1.693   2.111  1.00  0.00     0.008 A 
ATOM     17  C   UNL     1      -4.135   3.036   0.100  1.00  0.00     0.008 A 
ATOM     18  C   UNL     1      -4.806   2.603   1.253  1.00  0.00    -0.033 A 
ATOM     19  C   UNL     1      -6.036   3.051   1.529  1.00  0.00     0.017 C 
ENDBRANCH   2  13
ENDBRANCH   1   2
BRANCH   1  20
ATOM     20  C   UNL     1       0.967  -0.111   1.359  1.00  0.00     0.346 C 
ATOM     21  O   UNL     1       1.855   0.640   0.872  1.00  0.00    -0.248 OA
BRANCH  20  22
ATOM     22  C   UNL     1       1.371  -1.327   2.131  1.00  0.00     0.276 C 
ATOM     23  F   UNL     1       0.542  -2.379   1.780  1.00  0.00    -0.235 F 
BRANCH  22  24
ATOM     24  C   UNL     1       1.269  -1.057   3.636  1.00  0.00     0.046 C 
ATOM     25  C   UNL     1       1.742  -2.257   4.454  1.00  0.00     0.007 C 
ENDBRANCH  22  24
ENDBRANCH  20  22
ENDBRANCH   1  20
TORSDOF 8


