MODEL 1
REMARK VINA RESULT:      -3.1      0.000      0.000
REMARK SMILES Cc1n[nH]c2cc([C@@]34C(=O)NC[C@@H]3NCC[C@@H]4C)ccc12
REMARK SMILES IDX 1 1 2 2 3 3 4 4 5 5 6 6 7 7 19 8 20 9 21 10 8 12 9 13 13 14
REMARK SMILES IDX 17 15 11 16 12 17 14 18 16 19 15 20 10 21 18 22
REMARK H PARENT 4 11 11 23 14 24
ROOT
ATOM      1  C   UNL     1      43.880 131.890  15.710  1.00  0.00     0.069 C 
ATOM      2  C   UNL     1      44.625 131.301  16.862  1.00  0.00     0.067 A 
ATOM      3  N   UNL     1      45.867 130.767  16.777  1.00  0.00    -0.180 NA
ATOM      4  N   UNL     1      46.236 130.389  17.997  1.00  0.00    -0.278 N 
ATOM      5  C   UNL     1      45.246 130.686  18.854  1.00  0.00     0.066 A 
ATOM      6  C   UNL     1      45.212 130.488  20.232  1.00  0.00     0.033 A 
ATOM      7  C   UNL     1      44.047 130.889  20.948  1.00  0.00    -0.028 A 
ATOM      8  C   UNL     1      42.994 131.523  20.214  1.00  0.00     0.006 A 
ATOM      9  C   UNL     1      43.070 131.708  18.823  1.00  0.00     0.012 A 
ATOM     10  C   UNL     1      44.217 131.266  18.179  1.00  0.00     0.023 A 
ATOM     11  H   UNL     1      47.153 129.946  18.227  1.00  0.00     0.190 HD
ENDROOT
BRANCH   7  12
ATOM     12  C   UNL     1      43.901 130.737  22.483  1.00  0.00     0.094 C 
ATOM     13  C   UNL     1      44.481 131.961  23.113  1.00  0.00     0.232 C 
ATOM     14  C   UNL     1      42.385 130.834  22.910  1.00  0.00     0.093 C 
ATOM     15  C   UNL     1      44.563 129.436  23.089  1.00  0.00     0.009 C 
ATOM     16  N   UNL     1      43.559 132.673  23.907  1.00  0.00    -0.354 N 
ATOM     17  C   UNL     1      42.278 131.998  23.926  1.00  0.00     0.136 C 
ATOM     18  N   UNL     1      41.871 129.590  23.508  1.00  0.00    -0.311 NA
ATOM     19  C   UNL     1      43.734 128.168  22.740  1.00  0.00     0.020 C 
ATOM     20  C   UNL     1      42.223 128.441  22.671  1.00  0.00     0.081 C 
ATOM     21  O   UNL     1      45.677 132.331  22.970  1.00  0.00    -0.274 OA
ATOM     22  C   UNL     1      44.779 129.506  24.622  1.00  0.00     0.009 C 
ATOM     23  H   UNL     1      43.791 133.523  24.468  1.00  0.00     0.163 HD
ATOM     24  H   UNL     1      40.826 129.653  23.546  1.00  0.00     0.123 HD
ENDBRANCH   7  12
TORSDOF 1
ENDMDL
MODEL 2
REMARK VINA RESULT:      -3.1      1.492      1.854
REMARK SMILES Cc1n[nH]c2cc([C@@]34C(=O)NC[C@@H]3NCC[C@@H]4C)ccc12
REMARK SMILES IDX 1 1 2 2 3 3 4 4 5 5 6 6 7 7 19 8 20 9 21 10 8 12 9 13 13 14
REMARK SMILES IDX 17 15 11 16 12 17 14 18 16 19 15 20 10 21 18 22
REMARK H PARENT 4 11 11 23 14 24
ROOT
ATOM      1  C   UNL     1      44.177 131.743  15.972  1.00  0.00     0.069 C 
ATOM      2  C   UNL     1      43.354 131.931  17.204  1.00  0.00     0.067 A 
ATOM      3  N   UNL     1      42.086 132.408  17.211  1.00  0.00    -0.180 NA
ATOM      4  N   UNL     1      41.647 132.391  18.465  1.00  0.00    -0.278 N 
ATOM      5  C   UNL     1      42.620 131.901  19.252  1.00  0.00     0.066 A 
ATOM      6  C   UNL     1      42.588 131.685  20.627  1.00  0.00     0.033 A 
ATOM      7  C   UNL     1      43.746 131.144  21.257  1.00  0.00    -0.028 A 
ATOM      8  C   UNL     1      44.864 130.805  20.429  1.00  0.00     0.006 A 
ATOM      9  C   UNL     1      44.853 131.036  19.042  1.00  0.00     0.012 A 
ATOM     10  C   UNL     1      43.707 131.594  18.494  1.00  0.00     0.023 A 
ATOM     11  H   UNL     1      40.697 132.703  18.765  1.00  0.00     0.190 HD
ENDROOT
BRANCH   7  12
ATOM     12  C   UNL     1      43.823 130.843  22.774  1.00  0.00     0.094 C 
ATOM     13  C   UNL     1      44.580 131.960  23.417  1.00  0.00     0.232 C 
ATOM     14  C   UNL     1      42.400 130.984  23.442  1.00  0.00     0.093 C 
ATOM     15  C   UNL     1      44.472 129.451  23.145  1.00  0.00     0.009 C 
ATOM     16  N   UNL     1      43.843 132.638  24.409  1.00  0.00    -0.354 N 
ATOM     17  C   UNL     1      42.534 132.040  24.567  1.00  0.00     0.136 C 
ATOM     18  N   UNL     1      41.892 129.717  23.996  1.00  0.00    -0.311 NA
ATOM     19  C   UNL     1      43.508 128.276  22.815  1.00  0.00     0.020 C 
ATOM     20  C   UNL     1      42.028 128.642  23.010  1.00  0.00     0.081 C 
ATOM     21  O   UNL     1      45.765 132.272  23.122  1.00  0.00    -0.274 OA
ATOM     22  C   UNL     1      44.921 129.348  24.625  1.00  0.00     0.009 C 
ATOM     23  H   UNL     1      44.219 133.410  25.003  1.00  0.00     0.163 HD
ATOM     24  H   UNL     1      40.872 129.836  24.203  1.00  0.00     0.123 HD
ENDBRANCH   7  12
TORSDOF 1
ENDMDL
MODEL 3
REMARK VINA RESULT:      -2.8      2.532      5.866
REMARK SMILES Cc1n[nH]c2cc([C@@]34C(=O)NC[C@@H]3NCC[C@@H]4C)ccc12
REMARK SMILES IDX 1 1 2 2 3 3 4 4 5 5 6 6 7 7 19 8 20 9 21 10 8 12 9 13 13 14
REMARK SMILES IDX 17 15 11 16 12 17 14 18 16 19 15 20 10 21 18 22
REMARK H PARENT 4 11 11 23 14 24
ROOT
ATOM      1  C   UNL     1      44.285 124.215  24.228  1.00  0.00     0.069 C 
ATOM      2  C   UNL     1      43.304 125.332  24.093  1.00  0.00     0.067 A 
ATOM      3  N   UNL     1      41.984 125.230  24.381  1.00  0.00    -0.180 NA
ATOM      4  N   UNL     1      41.429 126.423  24.197  1.00  0.00    -0.278 N 
ATOM      5  C   UNL     1      42.384 127.282  23.805  1.00  0.00     0.066 A 
ATOM      6  C   UNL     1      42.257 128.640  23.523  1.00  0.00     0.033 A 
ATOM      7  C   UNL     1      43.419 129.363  23.125  1.00  0.00    -0.028 A 
ATOM      8  C   UNL     1      44.666 128.661  23.087  1.00  0.00     0.006 A 
ATOM      9  C   UNL     1      44.751 127.289  23.384  1.00  0.00     0.012 A 
ATOM     10  C   UNL     1      43.578 126.635  23.733  1.00  0.00     0.023 A 
ATOM     11  H   UNL     1      40.418 126.636  24.348  1.00  0.00     0.190 HD
ENDROOT
BRANCH   7  12
ATOM     12  C   UNL     1      43.406 130.879  22.805  1.00  0.00     0.094 C 
ATOM     13  C   UNL     1      42.557 131.549  23.835  1.00  0.00     0.232 C 
ATOM     14  C   UNL     1      44.823 131.518  23.080  1.00  0.00     0.093 C 
ATOM     15  C   UNL     1      42.907 131.248  21.352  1.00  0.00     0.009 C 
ATOM     16  N   UNL     1      43.245 132.532  24.575  1.00  0.00    -0.354 N 
ATOM     17  C   UNL     1      44.610 132.656  24.108  1.00  0.00     0.136 C 
ATOM     18  N   UNL     1      45.465 132.047  21.865  1.00  0.00    -0.311 NA
ATOM     19  C   UNL     1      43.974 130.885  20.281  1.00  0.00     0.020 C 
ATOM     20  C   UNL     1      45.414 131.053  20.790  1.00  0.00     0.081 C 
ATOM     21  O   UNL     1      41.341 131.283  24.031  1.00  0.00    -0.274 OA
ATOM     22  C   UNL     1      42.502 132.736  21.193  1.00  0.00     0.009 C 
ATOM     23  H   UNL     1      42.807 133.143  25.301  1.00  0.00     0.163 HD
ATOM     24  H   UNL     1      46.473 132.233  22.082  1.00  0.00     0.123 HD
ENDBRANCH   7  12
TORSDOF 1
ENDMDL
MODEL 4
REMARK VINA RESULT:      -2.7      1.006      1.547
REMARK SMILES Cc1n[nH]c2cc([C@@]34C(=O)NC[C@@H]3NCC[C@@H]4C)ccc12
REMARK SMILES IDX 1 1 2 2 3 3 4 4 5 5 6 6 7 7 19 8 20 9 21 10 8 12 9 13 13 14
REMARK SMILES IDX 17 15 11 16 12 17 14 18 16 19 15 20 10 21 18 22
REMARK H PARENT 4 11 11 23 14 24
ROOT
ATOM      1  C   UNL     1      46.055 130.662  15.776  1.00  0.00     0.069 C 
ATOM      2  C   UNL     1      45.016 131.113  16.748  1.00  0.00     0.067 A 
ATOM      3  N   UNL     1      43.861 131.730  16.401  1.00  0.00    -0.180 NA
ATOM      4  N   UNL     1      43.157 131.939  17.509  1.00  0.00    -0.278 N 
ATOM      5  C   UNL     1      43.850 131.454  18.552  1.00  0.00     0.066 A 
ATOM      6  C   UNL     1      43.483 131.437  19.895  1.00  0.00     0.033 A 
ATOM      7  C   UNL     1      44.382 130.860  20.839  1.00  0.00    -0.028 A 
ATOM      8  C   UNL     1      45.594 130.281  20.342  1.00  0.00     0.006 A 
ATOM      9  C   UNL     1      45.924 130.316  18.976  1.00  0.00     0.012 A 
ATOM     10  C   UNL     1      45.022 130.921  18.114  1.00  0.00     0.023 A 
ATOM     11  H   UNL     1      42.219 132.397  17.537  1.00  0.00     0.190 HD
ENDROOT
BRANCH   7  12
ATOM     12  C   UNL     1      44.076 130.766  22.354  1.00  0.00     0.094 C 
ATOM     13  C   UNL     1      44.580 132.019  22.993  1.00  0.00     0.232 C 
ATOM     14  C   UNL     1      42.522 130.868  22.615  1.00  0.00     0.093 C 
ATOM     15  C   UNL     1      44.675 129.496  23.077  1.00  0.00     0.009 C 
ATOM     16  N   UNL     1      43.578 132.754  23.657  1.00  0.00    -0.354 N 
ATOM     17  C   UNL     1      42.304 132.069  23.568  1.00  0.00     0.136 C 
ATOM     18  N   UNL     1      41.953 129.644  23.205  1.00  0.00    -0.311 NA
ATOM     19  C   UNL     1      43.892 128.209  22.694  1.00  0.00     0.020 C 
ATOM     20  C   UNL     1      42.396 128.466  22.455  1.00  0.00     0.081 C 
ATOM     21  O   UNL     1      45.784 132.392  22.962  1.00  0.00    -0.274 OA
ATOM     22  C   UNL     1      44.728 129.627  24.621  1.00  0.00     0.009 C 
ATOM     23  H   UNL     1      43.746 133.626  24.205  1.00  0.00     0.163 HD
ATOM     24  H   UNL     1      40.910 129.700  23.130  1.00  0.00     0.123 HD
ENDBRANCH   7  12
TORSDOF 1
ENDMDL
MODEL 5
REMARK VINA RESULT:      -2.6      2.606      3.940
REMARK SMILES Cc1n[nH]c2cc([C@@]34C(=O)NC[C@@H]3NCC[C@@H]4C)ccc12
REMARK SMILES IDX 1 1 2 2 3 3 4 4 5 5 6 6 7 7 19 8 20 9 21 10 8 12 9 13 13 14
REMARK SMILES IDX 17 15 11 16 12 17 14 18 16 19 15 20 10 21 18 22
REMARK H PARENT 4 11 11 23 14 24
ROOT
ATOM      1  C   UNL     1      46.925 131.121  12.969  1.00  0.00     0.069 C 
ATOM      2  C   UNL     1      46.520 130.338  14.174  1.00  0.00     0.067 A 
ATOM      3  N   UNL     1      46.611 128.990  14.276  1.00  0.00    -0.180 NA
ATOM      4  N   UNL     1      46.215 128.643  15.496  1.00  0.00    -0.278 N 
ATOM      5  C   UNL     1      45.881 129.756  16.170  1.00  0.00     0.066 A 
ATOM      6  C   UNL     1      45.436 129.865  17.485  1.00  0.00     0.033 A 
ATOM      7  C   UNL     1      45.143 131.162  17.999  1.00  0.00    -0.028 A 
ATOM      8  C   UNL     1      45.375 132.288  17.146  1.00  0.00     0.006 A 
ATOM      9  C   UNL     1      45.830 132.134  15.825  1.00  0.00     0.012 A 
ATOM     10  C   UNL     1      46.065 130.843  15.374  1.00  0.00     0.023 A 
ATOM     11  H   UNL     1      46.185 127.662  15.852  1.00  0.00     0.190 HD
ENDROOT
BRANCH   7  12
ATOM     12  C   UNL     1      44.660 131.410  19.449  1.00  0.00     0.094 C 
ATOM     13  C   UNL     1      45.738 130.937  20.370  1.00  0.00     0.232 C 
ATOM     14  C   UNL     1      44.615 132.956  19.764  1.00  0.00     0.093 C 
ATOM     15  C   UNL     1      43.282 130.731  19.817  1.00  0.00     0.009 C 
ATOM     16  N   UNL     1      46.233 131.946  21.219  1.00  0.00    -0.354 N 
ATOM     17  C   UNL     1      45.529 133.191  20.991  1.00  0.00     0.136 C 
ATOM     18  N   UNL     1      43.256 133.451  20.041  1.00  0.00    -0.311 NA
ATOM     19  C   UNL     1      42.092 131.471  19.142  1.00  0.00     0.020 C 
ATOM     20  C   UNL     1      42.326 132.985  19.010  1.00  0.00     0.081 C 
ATOM     21  O   UNL     1      46.167 129.752  20.405  1.00  0.00    -0.274 OA
ATOM     22  C   UNL     1      43.026 130.630  21.343  1.00  0.00     0.009 C 
ATOM     23  H   UNL     1      46.949 131.797  21.964  1.00  0.00     0.163 HD
ATOM     24  H   UNL     1      43.276 134.498  20.007  1.00  0.00     0.123 HD
ENDBRANCH   7  12
TORSDOF 1
ENDMDL
MODEL 6
REMARK VINA RESULT:      -2.5      2.582      5.377
REMARK SMILES Cc1n[nH]c2cc([C@@]34C(=O)NC[C@@H]3NCC[C@@H]4C)ccc12
REMARK SMILES IDX 1 1 2 2 3 3 4 4 5 5 6 6 7 7 19 8 20 9 21 10 8 12 9 13 13 14
REMARK SMILES IDX 17 15 11 16 12 17 14 18 16 19 15 20 10 21 18 22
REMARK H PARENT 4 11 11 23 14 24
ROOT
ATOM      1  C   UNL     1      43.420 124.128  24.486  1.00  0.00     0.069 C 
ATOM      2  C   UNL     1      44.275 125.080  23.716  1.00  0.00     0.067 A 
ATOM      3  N   UNL     1      45.378 124.722  23.015  1.00  0.00    -0.180 NA
ATOM      4  N   UNL     1      45.855 125.808  22.417  1.00  0.00    -0.278 N 
ATOM      5  C   UNL     1      45.063 126.848  22.724  1.00  0.00     0.066 A 
ATOM      6  C   UNL     1      45.174 128.169  22.299  1.00  0.00     0.033 A 
ATOM      7  C   UNL     1      44.205 129.113  22.751  1.00  0.00    -0.028 A 
ATOM      8  C   UNL     1      43.140 128.635  23.579  1.00  0.00     0.006 A 
ATOM      9  C   UNL     1      43.063 127.290  23.982  1.00  0.00     0.012 A 
ATOM     10  C   UNL     1      44.054 126.429  23.535  1.00  0.00     0.023 A 
ATOM     11  H   UNL     1      46.702 125.824  21.806  1.00  0.00     0.190 HD
ENDROOT
BRANCH   7  12
ATOM     12  C   UNL     1      44.214 130.603  22.331  1.00  0.00     0.094 C 
ATOM     13  C   UNL     1      44.901 130.695  21.008  1.00  0.00     0.232 C 
ATOM     14  C   UNL     1      42.755 131.090  21.977  1.00  0.00     0.093 C 
ATOM     15  C   UNL     1      44.885 131.585  23.372  1.00  0.00     0.009 C 
ATOM     16  N   UNL     1      44.094 131.247  19.993  1.00  0.00    -0.354 N 
ATOM     17  C   UNL     1      42.798 131.617  20.521  1.00  0.00     0.136 C 
ATOM     18  N   UNL     1      42.259 132.141  22.882  1.00  0.00    -0.311 NA
ATOM     19  C   UNL     1      43.977 131.792  24.616  1.00  0.00     0.020 C 
ATOM     20  C   UNL     1      42.479 131.754  24.277  1.00  0.00     0.081 C 
ATOM     21  O   UNL     1      46.090 130.328  20.802  1.00  0.00    -0.274 OA
ATOM     22  C   UNL     1      45.261 132.964  22.772  1.00  0.00     0.009 C 
ATOM     23  H   UNL     1      44.415 131.439  19.018  1.00  0.00     0.163 HD
ATOM     24  H   UNL     1      41.226 132.239  22.734  1.00  0.00     0.123 HD
ENDBRANCH   7  12
TORSDOF 1
ENDMDL
MODEL 7
REMARK VINA RESULT:      -2.3      2.775      5.323
REMARK SMILES Cc1n[nH]c2cc([C@@]34C(=O)NC[C@@H]3NCC[C@@H]4C)ccc12
REMARK SMILES IDX 1 1 2 2 3 3 4 4 5 5 6 6 7 7 19 8 20 9 21 10 8 12 9 13 13 14
REMARK SMILES IDX 17 15 11 16 12 17 14 18 16 19 15 20 10 21 18 22
REMARK H PARENT 4 11 11 23 14 24
ROOT
ATOM      1  C   UNL     1      45.222 123.934  23.856  1.00  0.00     0.069 C 
ATOM      2  C   UNL     1      45.559 125.171  23.092  1.00  0.00     0.067 A 
ATOM      3  N   UNL     1      46.487 125.235  22.108  1.00  0.00    -0.180 NA
ATOM      4  N   UNL     1      46.484 126.470  21.618  1.00  0.00    -0.278 N 
ATOM      5  C   UNL     1      45.558 127.188  22.275  1.00  0.00     0.066 A 
ATOM      6  C   UNL     1      45.200 128.518  22.075  1.00  0.00     0.033 A 
ATOM      7  C   UNL     1      44.175 129.077  22.894  1.00  0.00    -0.028 A 
ATOM      8  C   UNL     1      43.535 128.219  23.845  1.00  0.00     0.006 A 
ATOM      9  C   UNL     1      43.925 126.878  24.011  1.00  0.00     0.012 A 
ATOM     10  C   UNL     1      44.950 126.404  23.206  1.00  0.00     0.023 A 
ATOM     11  H   UNL     1      47.102 126.802  20.844  1.00  0.00     0.190 HD
ENDROOT
BRANCH   7  12
ATOM     12  C   UNL     1      43.679 130.537  22.752  1.00  0.00     0.094 C 
ATOM     13  C   UNL     1      42.491 130.697  23.645  1.00  0.00     0.232 C 
ATOM     14  C   UNL     1      44.711 131.541  23.398  1.00  0.00     0.093 C 
ATOM     15  C   UNL     1      43.325 130.980  21.277  1.00  0.00     0.009 C 
ATOM     16  N   UNL     1      42.655 131.699  24.622  1.00  0.00    -0.354 N 
ATOM     17  C   UNL     1      43.944 132.342  24.478  1.00  0.00     0.136 C 
ATOM     18  N   UNL     1      45.314 132.461  22.418  1.00  0.00    -0.311 NA
ATOM     19  C   UNL     1      44.612 131.184  20.428  1.00  0.00     0.020 C 
ATOM     20  C   UNL     1      45.795 131.716  21.252  1.00  0.00     0.081 C 
ATOM     21  O   UNL     1      41.434 130.018  23.542  1.00  0.00    -0.274 OA
ATOM     22  C   UNL     1      42.452 132.258  21.205  1.00  0.00     0.009 C 
ATOM     23  H   UNL     1      41.917 131.992  25.301  1.00  0.00     0.163 HD
ATOM     24  H   UNL     1      46.140 132.922  22.868  1.00  0.00     0.123 HD
ENDBRANCH   7  12
TORSDOF 1
ENDMDL
MODEL 8
REMARK VINA RESULT:      -1.4      2.750      6.976
REMARK SMILES Cc1n[nH]c2cc([C@@]34C(=O)NC[C@@H]3NCC[C@@H]4C)ccc12
REMARK SMILES IDX 1 1 2 2 3 3 4 4 5 5 6 6 7 7 19 8 20 9 21 10 8 12 9 13 13 14
REMARK SMILES IDX 17 15 11 16 12 17 14 18 16 19 15 20 10 21 18 22
REMARK H PARENT 4 11 11 23 14 24
ROOT
ATOM      1  C   UNL     1      43.356 132.109  22.585  1.00  0.00     0.069 C 
ATOM      2  C   UNL     1      42.994 132.160  21.138  1.00  0.00     0.067 A 
ATOM      3  N   UNL     1      41.873 132.745  20.650  1.00  0.00    -0.180 NA
ATOM      4  N   UNL     1      41.902 132.649  19.325  1.00  0.00    -0.278 N 
ATOM      5  C   UNL     1      43.032 132.017  18.967  1.00  0.00     0.066 A 
ATOM      6  C   UNL     1      43.483 131.721  17.684  1.00  0.00     0.033 A 
ATOM      7  C   UNL     1      44.728 131.042  17.540  1.00  0.00    -0.028 A 
ATOM      8  C   UNL     1      45.472 130.747  18.728  1.00  0.00     0.006 A 
ATOM      9  C   UNL     1      44.981 131.067  20.006  1.00  0.00     0.012 A 
ATOM     10  C   UNL     1      43.748 131.699  20.079  1.00  0.00     0.023 A 
ATOM     11  H   UNL     1      41.162 133.019  18.688  1.00  0.00     0.190 HD
ENDROOT
BRANCH   7  12
ATOM     12  C   UNL     1      45.341 130.677  16.166  1.00  0.00     0.094 C 
ATOM     13  C   UNL     1      46.349 129.598  16.394  1.00  0.00     0.232 C 
ATOM     14  C   UNL     1      44.277 129.945  15.258  1.00  0.00     0.093 C 
ATOM     15  C   UNL     1      45.993 131.886  15.385  1.00  0.00     0.009 C 
ATOM     16  N   UNL     1      46.074 128.414  15.682  1.00  0.00    -0.354 N 
ATOM     17  C   UNL     1      44.881 128.571  14.876  1.00  0.00     0.136 C 
ATOM     18  N   UNL     1      43.931 130.702  14.043  1.00  0.00    -0.311 NA
ATOM     19  C   UNL     1      44.905 132.836  14.808  1.00  0.00     0.020 C 
ATOM     20  C   UNL     1      43.627 132.094  14.383  1.00  0.00     0.081 C 
ATOM     21  O   UNL     1      47.358 129.721  17.139  1.00  0.00    -0.274 OA
ATOM     22  C   UNL     1      46.950 131.448  14.247  1.00  0.00     0.009 C 
ATOM     23  H   UNL     1      46.690 127.570  15.673  1.00  0.00     0.163 HD
ATOM     24  H   UNL     1      43.070 130.277  13.627  1.00  0.00     0.123 HD
ENDBRANCH   7  12
TORSDOF 1
ENDMDL
MODEL 9
REMARK VINA RESULT:      -1.3      2.559      3.965
REMARK SMILES Cc1n[nH]c2cc([C@@]34C(=O)NC[C@@H]3NCC[C@@H]4C)ccc12
REMARK SMILES IDX 1 1 2 2 3 3 4 4 5 5 6 6 7 7 19 8 20 9 21 10 8 12 9 13 13 14
REMARK SMILES IDX 17 15 11 16 12 17 14 18 16 19 15 20 10 21 18 22
REMARK H PARENT 4 11 11 23 14 24
ROOT
ATOM      1  C   UNL     1      47.301 129.511  13.632  1.00  0.00     0.069 C 
ATOM      2  C   UNL     1      46.338 130.421  14.319  1.00  0.00     0.067 A 
ATOM      3  N   UNL     1      45.503 131.275  13.680  1.00  0.00    -0.180 NA
ATOM      4  N   UNL     1      44.758 131.885  14.596  1.00  0.00    -0.278 N 
ATOM      5  C   UNL     1      45.105 131.420  15.808  1.00  0.00     0.066 A 
ATOM      6  C   UNL     1      44.569 131.762  17.046  1.00  0.00     0.033 A 
ATOM      7  C   UNL     1      45.094 131.132  18.212  1.00  0.00    -0.028 A 
ATOM      8  C   UNL     1      46.112 130.139  18.037  1.00  0.00     0.006 A 
ATOM      9  C   UNL     1      46.622 129.821  16.766  1.00  0.00     0.012 A 
ATOM     10  C   UNL     1      46.092 130.493  15.675  1.00  0.00     0.023 A 
ATOM     11  H   UNL     1      44.023 132.596  14.384  1.00  0.00     0.190 HD
ENDROOT
BRANCH   7  12
ATOM     12  C   UNL     1      44.567 131.416  19.640  1.00  0.00     0.094 C 
ATOM     13  C   UNL     1      45.617 130.971  20.605  1.00  0.00     0.232 C 
ATOM     14  C   UNL     1      44.508 132.970  19.912  1.00  0.00     0.093 C 
ATOM     15  C   UNL     1      43.179 130.742  19.984  1.00  0.00     0.009 C 
ATOM     16  N   UNL     1      46.084 132.005  21.442  1.00  0.00    -0.354 N 
ATOM     17  C   UNL     1      45.384 133.241  21.160  1.00  0.00     0.136 C 
ATOM     18  N   UNL     1      43.139 133.467  20.136  1.00  0.00    -0.311 NA
ATOM     19  C   UNL     1      42.009 131.460  19.254  1.00  0.00     0.020 C 
ATOM     20  C   UNL     1      42.242 132.970  19.090  1.00  0.00     0.081 C 
ATOM     21  O   UNL     1      46.049 129.790  20.684  1.00  0.00    -0.274 OA
ATOM     22  C   UNL     1      42.878 130.680  21.503  1.00  0.00     0.009 C 
ATOM     23  H   UNL     1      46.777 131.877  22.212  1.00  0.00     0.163 HD
ATOM     24  H   UNL     1      43.158 134.513  20.074  1.00  0.00     0.123 HD
ENDBRANCH   7  12
TORSDOF 1
ENDMDL


