REMARK SMILES CCCOCOc1ccc(-c2ccc(C(C)=O)c3[nH+][nH]cc23)cc1
REMARK SMILES IDX 5 1 4 2 3 3 2 4 1 5 6 6 7 7 8 8 24 9 9 10 23 11 10 12 11 13
REMARK SMILES IDX 12 14 22 15 13 16 21 17 18 18 14 19 20 20 19 21 15 24 16 25
REMARK SMILES IDX 17 26
REMARK H PARENT 20 22 19 23
ROOT
ATOM      1  C   UNL     1      -2.777   3.825   2.294  1.00  0.00     0.395 C 
ENDROOT
BRANCH   1   2
ATOM      2  O   UNL     1      -2.131   4.568   1.282  1.00  0.00    -0.345 OA
BRANCH   2   3
ATOM      3  C   UNL     1      -1.485   5.686   1.854  1.00  0.00     0.164 C 
BRANCH   3   4
ATOM      4  C   UNL     1      -0.731   6.452   0.766  1.00  0.00     0.025 C 
ATOM      5  C   UNL     1       0.395   5.616   0.160  1.00  0.00     0.006 C 
ENDBRANCH   3   4
ENDBRANCH   2   3
ENDBRANCH   1   2
BRANCH   1   6
ATOM      6  O   UNL     1      -3.351   2.653   1.723  1.00  0.00    -0.468 OA
BRANCH   6   7
ATOM      7  C   UNL     1      -2.618   1.606   1.142  1.00  0.00     0.122 A 
ATOM      8  C   UNL     1      -1.210   1.599   1.099  1.00  0.00     0.047 A 
ATOM      9  C   UNL     1      -3.322   0.533   0.585  1.00  0.00     0.047 A 
ATOM     10  C   UNL     1      -0.528   0.533   0.505  1.00  0.00     0.012 A 
ATOM     11  C   UNL     1      -2.640  -0.534  -0.009  1.00  0.00     0.012 A 
ATOM     12  C   UNL     1      -1.237  -0.547  -0.046  1.00  0.00    -0.017 A 
BRANCH  12  13
ATOM     13  C   UNL     1      -0.517  -1.673  -0.686  1.00  0.00    -0.003 A 
ATOM     14  C   UNL     1      -0.901  -2.146  -1.958  1.00  0.00     0.010 A 
ATOM     15  C   UNL     1       0.559  -2.322  -0.067  1.00  0.00     0.078 A 
ATOM     16  C   UNL     1      -0.216  -3.214  -2.574  1.00  0.00     0.019 A 
ATOM     17  C   UNL     1       1.130  -2.178   1.183  1.00  0.00     0.163 A 
ATOM     18  C   UNL     1       1.229  -3.366  -0.662  1.00  0.00     0.247 A 
ATOM     19  C   UNL     1       0.876  -3.849  -1.935  1.00  0.00     0.092 A 
ATOM     20  N   UNL     1       2.101  -3.109   1.301  1.00  0.00    -0.174 N 
ATOM     21  N   UNL     1       2.163  -3.831   0.191  1.00  0.00    -0.125 N 
ATOM     22  H   UNL     1       2.702  -3.265   2.141  1.00  0.00     0.238 HD
ATOM     23  H   UNL     1       2.810  -4.639   0.058  1.00  0.00     0.488 HD
BRANCH  19  24
ATOM     24  C   UNL     1       1.607  -4.958  -2.599  1.00  0.00     0.166 C 
ATOM     25  C   UNL     1       0.955  -5.799  -3.654  1.00  0.00     0.094 C 
ATOM     26  O   UNL     1       2.817  -5.173  -2.322  1.00  0.00    -0.294 OA
ENDBRANCH  19  24
ENDBRANCH  12  13
ENDBRANCH   6   7
ENDBRANCH   1   6
TORSDOF 7


