REMARK SMILES [H]/N=c1\c([NH2+]c2ccc3c(c2)nnn3C)cccn1C(=O)OCc1ccccc1
REMARK SMILES IDX 3 1 4 2 16 3 17 4 18 5 19 6 2 7 1 8 5 9 6 12 7 13 11 14 8 15
REMARK SMILES IDX 10 16 9 17 12 18 14 19 13 20 15 21 20 22 21 23 22 24 23 25
REMARK SMILES IDX 24 26 25 27 29 28 26 29 28 30 27 31
REMARK H PARENT 5 10 5 11
ROOT
ATOM      1  C   UNL     1       2.270  -0.216  -0.399  1.00  0.00     0.197 A 
ATOM      2  C   UNL     1       2.760   1.123  -0.393  1.00  0.00     0.178 A 
ATOM      3  C   UNL     1       3.487   1.572  -1.505  1.00  0.00     0.074 A 
ATOM      4  C   UNL     1       3.723   0.731  -2.581  1.00  0.00     0.025 A 
ATOM      5  C   UNL     1       3.220  -0.565  -2.561  1.00  0.00     0.100 A 
ATOM      6  N   UNL     1       2.497  -1.025  -1.495  1.00  0.00    -0.232 N 
ENDROOT
BRANCH   1   7
ATOM      7  N   UNL     1       1.632  -0.697   0.628  1.00  0.00    -0.279 NA
ATOM      8  H   UNL     1       1.422  -0.181   1.507  1.00  0.00     0.190 HD
ENDBRANCH   1   7
BRANCH   2   9
ATOM      9  N   UNL     1       2.510   2.041   0.701  1.00  0.00    -0.278 N 
ATOM     10  H   UNL     1       3.151   2.866   0.642  1.00  0.00     0.358 HD
ATOM     11  H   UNL     1       2.729   1.578   1.612  1.00  0.00     0.358 HD
BRANCH   9  12
ATOM     12  C   UNL     1       1.152   2.533   0.660  1.00  0.00     0.137 A 
ATOM     13  C   UNL     1       0.277   2.326   1.767  1.00  0.00     0.070 A 
ATOM     14  C   UNL     1       0.694   3.276  -0.459  1.00  0.00     0.100 A 
ATOM     15  C   UNL     1      -1.043   2.815   1.747  1.00  0.00     0.036 A 
ATOM     16  C   UNL     1      -0.617   3.740  -0.437  1.00  0.00     0.119 A 
ATOM     17  C   UNL     1      -1.446   3.515   0.614  1.00  0.00     0.089 A 
ATOM     18  N   UNL     1      -1.274   4.456  -1.368  1.00  0.00    -0.130 NA
ATOM     19  N   UNL     1      -2.620   4.094   0.325  1.00  0.00    -0.248 N 
ATOM     20  N   UNL     1      -2.495   4.658  -0.873  1.00  0.00    -0.066 NA
ATOM     21  C   UNL     1      -3.818   4.149   1.152  1.00  0.00     0.176 C 
ENDBRANCH   9  12
ENDBRANCH   2   9
BRANCH   6  22
ATOM     22  C   UNL     1       1.976  -2.374  -1.558  1.00  0.00     0.420 C 
ATOM     23  O   UNL     1       2.579  -3.255  -2.233  1.00  0.00    -0.223 OA
BRANCH  22  24
ATOM     24  O   UNL     1       0.789  -2.702  -0.893  1.00  0.00    -0.444 OA
BRANCH  24  25
ATOM     25  C   UNL     1       0.228  -4.009  -0.910  1.00  0.00     0.270 C 
BRANCH  25  26
ATOM     26  C   UNL     1      -1.025  -4.015  -0.085  1.00  0.00    -0.011 A 
ATOM     27  C   UNL     1      -0.956  -4.213   1.303  1.00  0.00     0.007 A 
ATOM     28  C   UNL     1      -2.268  -3.746  -0.682  1.00  0.00     0.007 A 
ATOM     29  C   UNL     1      -2.118  -4.173   2.079  1.00  0.00     0.000 A 
ATOM     30  C   UNL     1      -3.429  -3.707   0.098  1.00  0.00     0.000 A 
ATOM     31  C   UNL     1      -3.354  -3.923   1.477  1.00  0.00     0.000 A 
ENDBRANCH  25  26
ENDBRANCH  24  25
ENDBRANCH  22  24
ENDBRANCH   6  22
TORSDOF 7


