REMARK SMILES [O-]C(N[C@H]1Cc2ccccc2[C@@H]1O)=C1CCCC1
REMARK SMILES IDX 4 1 5 2 6 3 7 4 8 5 9 6 10 7 11 8 12 9 3 10 2 12 1 13 14 14
REMARK SMILES IDX 15 15 18 16 16 17 17 18 13 19
REMARK H PARENT 3 11 13 20
ROOT
ATOM      1  C   UNL     1       1.625  -0.155  -0.004  1.00  0.00     0.115 C 
ATOM      2  C   UNL     1       1.813  -0.643   1.451  1.00  0.00     0.063 C 
ATOM      3  C   UNL     1       2.198  -2.065   1.297  1.00  0.00    -0.040 A 
ATOM      4  C   UNL     1       2.607  -2.933   2.312  1.00  0.00     0.004 A 
ATOM      5  C   UNL     1       2.900  -4.266   1.983  1.00  0.00     0.000 A 
ATOM      6  C   UNL     1       2.769  -4.711   0.656  1.00  0.00     0.000 A 
ATOM      7  C   UNL     1       2.347  -3.824  -0.347  1.00  0.00     0.007 A 
ATOM      8  C   UNL     1       2.075  -2.497  -0.000  1.00  0.00    -0.014 A 
ATOM      9  C   UNL     1       1.582  -1.425  -0.899  1.00  0.00     0.167 C 
ENDROOT
BRANCH   1  10
ATOM     10  N   UNL     1       0.410   0.657  -0.138  1.00  0.00    -0.391 N 
ATOM     11  H   UNL     1      -0.377   0.300  -0.723  1.00  0.00     0.159 HD
BRANCH  10  12
ATOM     12  C   UNL     1       0.315   1.960   0.465  1.00  0.00    -0.046 C 
ATOM     13  O   UNL     1       1.422   2.487   1.127  1.00  0.00    -0.860 OA
BRANCH  12  14
ATOM     14  C   UNL     1      -0.817   2.683   0.405  1.00  0.00    -0.062 C 
ATOM     15  C   UNL     1      -0.945   4.041   1.001  1.00  0.00     0.032 C 
ATOM     16  C   UNL     1      -2.080   2.233  -0.246  1.00  0.00     0.032 C 
ATOM     17  C   UNL     1      -2.304   4.542   0.531  1.00  0.00     0.005 C 
ATOM     18  C   UNL     1      -3.100   3.309   0.107  1.00  0.00     0.005 C 
ENDBRANCH  12  14
ENDBRANCH  10  12
ENDBRANCH   1  10
BRANCH   9  19
ATOM     19  O   UNL     1       2.434  -1.293  -2.005  1.00  0.00    -0.386 OA
ATOM     20  H   UNL     1       1.977  -0.676  -2.634  1.00  0.00     0.211 HD
ENDBRANCH   9  19
TORSDOF 4


