REMARK SMILES Cc1cc(N(N)C(=O)O[C@H]2CS(=O)(=O)C[C@@H]2Cl)c(O)c(-n2nc3ccccc3n2)c1
REMARK SMILES IDX 5 1 4 2 2 3 3 4 30 5 20 6 18 7 1 8 21 9 22 10 29 11 23 12
REMARK SMILES IDX 28 13 24 14 27 15 25 16 26 17 19 18 6 20 7 23 8 24 9 25
REMARK SMILES IDX 10 26 11 27 16 28 12 29 15 30 17 31 13 32 14 33
REMARK H PARENT 19 19 6 21 6 22
ROOT
ATOM      1  N   UNL     1       2.895  -0.287   1.726  1.00  0.00    -0.209 N 
ENDROOT
BRANCH   1   2
ATOM      2  C   UNL     1       1.842  -1.158   1.272  1.00  0.00     0.108 A 
ATOM      3  C   UNL     1       1.180  -3.215   0.155  1.00  0.00    -0.047 A 
ATOM      4  C   UNL     1       2.177  -2.370   0.654  1.00  0.00     0.035 A 
ATOM      5  C   UNL     1      -0.162  -2.822   0.236  1.00  0.00     0.037 A 
ATOM      6  C   UNL     1      -0.526  -1.613   0.856  1.00  0.00     0.130 A 
ATOM      7  C   UNL     1       0.484  -0.793   1.410  1.00  0.00     0.168 A 
ATOM      8  C   UNL     1       1.552  -4.487  -0.546  1.00  0.00     0.044 C 
BRANCH   6   9
ATOM      9  N   UNL     1      -1.917  -1.233   0.911  1.00  0.00    -0.147 N 
ATOM     10  N   UNL     1      -2.344  -0.006   1.213  1.00  0.00    -0.148 NA
ATOM     11  N   UNL     1      -2.917  -2.067   0.624  1.00  0.00    -0.148 NA
ATOM     12  C   UNL     1      -3.680  -0.071   1.119  1.00  0.00     0.113 A 
ATOM     13  C   UNL     1      -4.031  -1.333   0.759  1.00  0.00     0.113 A 
ATOM     14  C   UNL     1      -4.622   0.932   1.330  1.00  0.00     0.032 A 
ATOM     15  C   UNL     1      -5.357  -1.712   0.575  1.00  0.00     0.032 A 
ATOM     16  C   UNL     1      -5.978   0.590   1.155  1.00  0.00     0.002 A 
ATOM     17  C   UNL     1      -6.344  -0.726   0.779  1.00  0.00     0.002 A 
ENDBRANCH   6   9
BRANCH   7  18
ATOM     18  O   UNL     1       0.129   0.362   2.111  1.00  0.00    -0.504 OA
ATOM     19  H   UNL     1       0.802   0.939   2.599  1.00  0.00     0.293 HD
ENDBRANCH   7  18
ENDBRANCH   1   2
BRANCH   1  20
ATOM     20  N   UNL     1       3.923  -0.797   2.544  1.00  0.00    -0.238 NA
ATOM     21  H   UNL     1       3.538  -1.596   3.100  1.00  0.00     0.144 HD
ATOM     22  H   UNL     1       4.160  -0.064   3.252  1.00  0.00     0.144 HD
ENDBRANCH   1  20
BRANCH   1  23
ATOM     23  C   UNL     1       3.058   0.997   1.098  1.00  0.00     0.429 C 
ATOM     24  O   UNL     1       4.024   1.741   1.422  1.00  0.00    -0.222 OA
BRANCH  23  25
ATOM     25  O   UNL     1       2.137   1.417   0.131  1.00  0.00    -0.442 OA
BRANCH  25  26
ATOM     26  C   UNL     1       2.181   2.693  -0.505  1.00  0.00     0.212 C 
ATOM     27  C   UNL     1       3.331   2.768  -1.514  1.00  0.00     0.183 C 
ATOM     28  C   UNL     1       0.868   2.935  -1.268  1.00  0.00     0.138 C 
ATOM     29  S   UNL     1       2.790   3.919  -2.742  1.00  0.00     0.155 S 
ATOM     30  C   UNL     1       1.097   4.073  -2.261  1.00  0.00     0.160 C 
ATOM     31  Cl  UNL     1      -0.469   3.315  -0.146  1.00  0.00    -0.118 Cl
ATOM     32  O   UNL     1       3.516   5.230  -2.632  1.00  0.00    -0.229 OA
ATOM     33  O   UNL     1       2.922   3.350  -4.127  1.00  0.00    -0.229 OA
ENDBRANCH  25  26
ENDBRANCH  23  25
ENDBRANCH   1  23
TORSDOF 7


