MODEL 1
REMARK VINA RESULT:      -9.3      0.000      0.000
REMARK SMILES C=Cc1cc(-c2ccc(C(C)=O)nc2)cc(Nc2ccc(C)c(F)c2)c1O
REMARK SMILES IDX 3 1 4 2 5 3 15 4 16 5 26 6 2 7 1 8 27 9 6 11 7 12 14 13 8 14
REMARK SMILES IDX 13 15 9 16 10 17 11 18 12 19 17 20 18 22 19 23 25 24 20 25
REMARK SMILES IDX 23 26 21 27 24 28 22 29
REMARK H PARENT 27 10 17 21
ROOT
ATOM      1  C   UNL     1      42.840 132.266  19.879  1.00  0.00     0.018 A 
ATOM      2  C   UNL     1      43.527 132.065  18.668  1.00  0.00     0.021 A 
ATOM      3  C   UNL     1      44.673 131.255  18.610  1.00  0.00    -0.014 A 
ATOM      4  C   UNL     1      45.137 130.648  19.785  1.00  0.00     0.038 A 
ATOM      5  C   UNL     1      44.484 130.853  21.005  1.00  0.00     0.082 A 
ATOM      6  C   UNL     1      43.320 131.644  21.056  1.00  0.00     0.146 A 
ENDROOT
BRANCH   1   7
ATOM      7  C   UNL     1      41.594 133.071  19.894  1.00  0.00     0.004 C 
ATOM      8  C   UNL     1      41.002 133.465  21.022  1.00  0.00     0.009 C 
ENDBRANCH   1   7
BRANCH   6   9
ATOM      9  O   UNL     1      42.666 131.794  22.284  1.00  0.00    -0.505 OA
ATOM     10  H   UNL     1      42.714 131.118  23.032  1.00  0.00     0.293 HD
ENDBRANCH   6   9
BRANCH   3  11
ATOM     11  C   UNL     1      45.382 131.039  17.323  1.00  0.00     0.000 A 
ATOM     12  C   UNL     1      45.880 129.772  16.979  1.00  0.00     0.013 A 
ATOM     13  C   UNL     1      45.571 132.096  16.417  1.00  0.00     0.120 A 
ATOM     14  C   UNL     1      46.545 129.582  15.767  1.00  0.00     0.033 A 
ATOM     15  N   UNL     1      46.219 131.885  15.242  1.00  0.00    -0.253 NA
ATOM     16  C   UNL     1      46.711 130.665  14.891  1.00  0.00     0.106 A 
BRANCH  16  17
ATOM     17  C   UNL     1      47.410 130.502  13.599  1.00  0.00     0.178 C 
ATOM     18  C   UNL     1      48.534 129.522  13.458  1.00  0.00     0.095 C 
ATOM     19  O   UNL     1      47.066 131.187  12.598  1.00  0.00    -0.293 OA
ENDBRANCH  16  17
ENDBRANCH   3  11
BRANCH   5  20
ATOM     20  N   UNL     1      44.995 130.208  22.182  1.00  0.00    -0.352 N 
ATOM     21  H   UNL     1      45.640 130.758  22.796  1.00  0.00     0.167 HD
BRANCH  20  22
ATOM     22  C   UNL     1      44.588 128.902  22.627  1.00  0.00     0.041 A 
ATOM     23  C   UNL     1      45.379 127.788  22.309  1.00  0.00     0.026 A 
ATOM     24  C   UNL     1      43.440 128.721  23.420  1.00  0.00     0.065 A 
ATOM     25  C   UNL     1      45.014 126.511  22.744  1.00  0.00     0.008 A 
ATOM     26  C   UNL     1      43.074 127.444  23.856  1.00  0.00     0.128 A 
ATOM     27  C   UNL     1      43.851 126.327  23.507  1.00  0.00    -0.015 A 
ATOM     28  F   UNL     1      41.964 127.298  24.625  1.00  0.00    -0.207 F 
ATOM     29  C   UNL     1      43.475 124.960  23.999  1.00  0.00     0.047 C 
ENDBRANCH  20  22
ENDBRANCH   5  20
TORSDOF 6
ENDMDL
MODEL 2
REMARK VINA RESULT:      -9.1      1.099      1.477
REMARK SMILES C=Cc1cc(-c2ccc(C(C)=O)nc2)cc(Nc2ccc(C)c(F)c2)c1O
REMARK SMILES IDX 3 1 4 2 5 3 15 4 16 5 26 6 2 7 1 8 27 9 6 11 7 12 14 13 8 14
REMARK SMILES IDX 13 15 9 16 10 17 11 18 12 19 17 20 18 22 19 23 25 24 20 25
REMARK SMILES IDX 23 26 21 27 24 28 22 29
REMARK H PARENT 27 10 17 21
ROOT
ATOM      1  C   UNL     1      42.934 132.136  19.753  1.00  0.00     0.018 A 
ATOM      2  C   UNL     1      43.650 131.914  18.562  1.00  0.00     0.021 A 
ATOM      3  C   UNL     1      44.815 131.130  18.551  1.00  0.00    -0.014 A 
ATOM      4  C   UNL     1      45.270 130.572  19.754  1.00  0.00     0.038 A 
ATOM      5  C   UNL     1      44.589 130.800  20.954  1.00  0.00     0.082 A 
ATOM      6  C   UNL     1      43.405 131.563  20.958  1.00  0.00     0.146 A 
ENDROOT
BRANCH   1   7
ATOM      7  C   UNL     1      41.670 132.911  19.718  1.00  0.00     0.004 C 
ATOM      8  C   UNL     1      41.189 133.557  20.780  1.00  0.00     0.009 C 
ENDBRANCH   1   7
BRANCH   6   9
ATOM      9  O   UNL     1      42.724 131.736  22.167  1.00  0.00    -0.505 OA
ATOM     10  H   UNL     1      42.267 132.597  22.437  1.00  0.00     0.293 HD
ENDBRANCH   6   9
BRANCH   3  11
ATOM     11  C   UNL     1      45.554 130.891  17.285  1.00  0.00     0.000 A 
ATOM     12  C   UNL     1      46.098 129.629  16.996  1.00  0.00     0.013 A 
ATOM     13  C   UNL     1      45.727 131.920  16.345  1.00  0.00     0.120 A 
ATOM     14  C   UNL     1      46.791 129.417  15.804  1.00  0.00     0.033 A 
ATOM     15  N   UNL     1      46.403 131.688  15.190  1.00  0.00    -0.253 NA
ATOM     16  C   UNL     1      46.940 130.473  14.893  1.00  0.00     0.106 A 
BRANCH  16  17
ATOM     17  C   UNL     1      47.667 130.285  13.619  1.00  0.00     0.178 C 
ATOM     18  C   UNL     1      47.540 131.286  12.513  1.00  0.00     0.095 C 
ATOM     19  O   UNL     1      48.406 129.277  13.451  1.00  0.00    -0.293 OA
ENDBRANCH  16  17
ENDBRANCH   3  11
BRANCH   5  20
ATOM     20  N   UNL     1      45.092 130.204  22.161  1.00  0.00    -0.352 N 
ATOM     21  H   UNL     1      45.692 130.796  22.780  1.00  0.00     0.167 HD
BRANCH  20  22
ATOM     22  C   UNL     1      44.729 128.891  22.624  1.00  0.00     0.041 A 
ATOM     23  C   UNL     1      43.685 128.752  23.550  1.00  0.00     0.026 A 
ATOM     24  C   UNL     1      45.363 127.737  22.129  1.00  0.00     0.065 A 
ATOM     25  C   UNL     1      43.302 127.486  24.002  1.00  0.00     0.008 A 
ATOM     26  C   UNL     1      44.982 126.470  22.581  1.00  0.00     0.128 A 
ATOM     27  C   UNL     1      43.958 126.337  23.533  1.00  0.00    -0.015 A 
ATOM     28  F   UNL     1      45.607 125.372  22.083  1.00  0.00    -0.207 F 
ATOM     29  C   UNL     1      43.527 124.976  23.996  1.00  0.00     0.047 C 
ENDBRANCH  20  22
ENDBRANCH   5  20
TORSDOF 6
ENDMDL
MODEL 3
REMARK VINA RESULT:      -8.4      1.317      1.785
REMARK SMILES C=Cc1cc(-c2ccc(C(C)=O)nc2)cc(Nc2ccc(C)c(F)c2)c1O
REMARK SMILES IDX 3 1 4 2 5 3 15 4 16 5 26 6 2 7 1 8 27 9 6 11 7 12 14 13 8 14
REMARK SMILES IDX 13 15 9 16 10 17 11 18 12 19 17 20 18 22 19 23 25 24 20 25
REMARK SMILES IDX 23 26 21 27 24 28 22 29
REMARK H PARENT 27 10 17 21
ROOT
ATOM      1  C   UNL     1      43.000 131.877  20.532  1.00  0.00     0.018 A 
ATOM      2  C   UNL     1      43.621 131.800  19.272  1.00  0.00     0.021 A 
ATOM      3  C   UNL     1      44.744 130.984  19.064  1.00  0.00    -0.014 A 
ATOM      4  C   UNL     1      45.253 130.242  20.139  1.00  0.00     0.038 A 
ATOM      5  C   UNL     1      44.668 130.321  21.407  1.00  0.00     0.082 A 
ATOM      6  C   UNL     1      43.525 131.120  21.606  1.00  0.00     0.146 A 
ENDROOT
BRANCH   1   7
ATOM      7  C   UNL     1      41.774 132.695  20.702  1.00  0.00     0.004 C 
ATOM      8  C   UNL     1      41.612 133.882  20.117  1.00  0.00     0.009 C 
ENDBRANCH   1   7
BRANCH   6   9
ATOM      9  O   UNL     1      42.938 131.143  22.876  1.00  0.00    -0.505 OA
ATOM     10  H   UNL     1      43.412 131.462  23.709  1.00  0.00     0.293 HD
ENDBRANCH   6   9
BRANCH   3  11
ATOM     11  C   UNL     1      45.381 130.901  17.725  1.00  0.00     0.000 A 
ATOM     12  C   UNL     1      45.263 131.954  16.805  1.00  0.00     0.013 A 
ATOM     13  C   UNL     1      46.119 129.767  17.346  1.00  0.00     0.120 A 
ATOM     14  C   UNL     1      45.865 131.863  15.549  1.00  0.00     0.033 A 
ATOM     15  N   UNL     1      46.699 129.703  16.120  1.00  0.00    -0.253 NA
ATOM     16  C   UNL     1      46.593 130.712  15.212  1.00  0.00     0.106 A 
BRANCH  16  17
ATOM     17  C   UNL     1      47.246 130.581  13.892  1.00  0.00     0.178 C 
ATOM     18  C   UNL     1      48.233 129.486  13.634  1.00  0.00     0.095 C 
ATOM     19  O   UNL     1      46.976 131.393  12.966  1.00  0.00    -0.293 OA
ENDBRANCH  16  17
ENDBRANCH   3  11
BRANCH   5  20
ATOM     20  N   UNL     1      45.224 129.540  22.477  1.00  0.00    -0.352 N 
ATOM     21  H   UNL     1      45.897 130.013  23.123  1.00  0.00     0.167 HD
BRANCH  20  22
ATOM     22  C   UNL     1      44.827 128.191  22.781  1.00  0.00     0.041 A 
ATOM     23  C   UNL     1      43.677 127.968  23.552  1.00  0.00     0.026 A 
ATOM     24  C   UNL     1      45.538 127.086  22.278  1.00  0.00     0.065 A 
ATOM     25  C   UNL     1      43.261 126.666  23.847  1.00  0.00     0.008 A 
ATOM     26  C   UNL     1      45.124 125.783  22.572  1.00  0.00     0.128 A 
ATOM     27  C   UNL     1      43.990 125.565  23.372  1.00  0.00    -0.015 A 
ATOM     28  F   UNL     1      45.825 124.734  22.070  1.00  0.00    -0.207 F 
ATOM     29  C   UNL     1      43.527 124.167  23.664  1.00  0.00     0.047 C 
ENDBRANCH  20  22
ENDBRANCH   5  20
TORSDOF 6
ENDMDL
MODEL 4
REMARK VINA RESULT:      -6.4      1.835      2.441
REMARK SMILES C=Cc1cc(-c2ccc(C(C)=O)nc2)cc(Nc2ccc(C)c(F)c2)c1O
REMARK SMILES IDX 3 1 4 2 5 3 15 4 16 5 26 6 2 7 1 8 27 9 6 11 7 12 14 13 8 14
REMARK SMILES IDX 13 15 9 16 10 17 11 18 12 19 17 20 18 22 19 23 25 24 20 25
REMARK SMILES IDX 23 26 21 27 24 28 22 29
REMARK H PARENT 27 10 17 21
ROOT
ATOM      1  C   UNL     1      43.319 131.582  21.561  1.00  0.00     0.018 A 
ATOM      2  C   UNL     1      43.828 131.587  20.249  1.00  0.00     0.021 A 
ATOM      3  C   UNL     1      44.841 130.697  19.860  1.00  0.00    -0.014 A 
ATOM      4  C   UNL     1      45.354 129.796  20.803  1.00  0.00     0.038 A 
ATOM      5  C   UNL     1      44.882 129.789  22.120  1.00  0.00     0.082 A 
ATOM      6  C   UNL     1      43.847 130.665  22.501  1.00  0.00     0.146 A 
ENDROOT
BRANCH   1   7
ATOM      7  C   UNL     1      42.202 132.488  21.922  1.00  0.00     0.004 C 
ATOM      8  C   UNL     1      41.395 133.037  21.014  1.00  0.00     0.009 C 
ENDBRANCH   1   7
BRANCH   6   9
ATOM      9  O   UNL     1      43.367 130.603  23.814  1.00  0.00    -0.505 OA
ATOM     10  H   UNL     1      43.938 130.772  24.630  1.00  0.00     0.293 HD
ENDBRANCH   6   9
BRANCH   3  11
ATOM     11  C   UNL     1      45.359 130.702  18.468  1.00  0.00     0.000 A 
ATOM     12  C   UNL     1      45.062 131.759  17.593  1.00  0.00     0.013 A 
ATOM     13  C   UNL     1      46.159 129.650  17.991  1.00  0.00     0.120 A 
ATOM     14  C   UNL     1      45.553 131.752  16.287  1.00  0.00     0.033 A 
ATOM     15  N   UNL     1      46.629 129.668  16.717  1.00  0.00    -0.253 NA
ATOM     16  C   UNL     1      46.349 130.682  15.853  1.00  0.00     0.106 A 
BRANCH  16  17
ATOM     17  C   UNL     1      46.888 130.641  14.477  1.00  0.00     0.178 C 
ATOM     18  C   UNL     1      46.056 131.096  13.318  1.00  0.00     0.095 C 
ATOM     19  O   UNL     1      48.058 130.221  14.264  1.00  0.00    -0.293 OA
ENDBRANCH  16  17
ENDBRANCH   3  11
BRANCH   5  20
ATOM     20  N   UNL     1      45.437 128.846  23.051  1.00  0.00    -0.352 N 
ATOM     21  H   UNL     1      45.957 129.227  23.874  1.00  0.00     0.167 HD
BRANCH  20  22
ATOM     22  C   UNL     1      45.224 127.425  22.982  1.00  0.00     0.041 A 
ATOM     23  C   UNL     1      43.968 126.899  23.318  1.00  0.00     0.026 A 
ATOM     24  C   UNL     1      46.233 126.552  22.535  1.00  0.00     0.065 A 
ATOM     25  C   UNL     1      43.732 125.523  23.243  1.00  0.00     0.008 A 
ATOM     26  C   UNL     1      45.998 125.176  22.459  1.00  0.00     0.128 A 
ATOM     27  C   UNL     1      44.750 124.650  22.828  1.00  0.00    -0.015 A 
ATOM     28  F   UNL     1      46.988 124.357  22.019  1.00  0.00    -0.207 F 
ATOM     29  C   UNL     1      44.486 123.177  22.720  1.00  0.00     0.047 C 
ENDBRANCH  20  22
ENDBRANCH   5  20
TORSDOF 6
ENDMDL


