REMARK SMILES CCCCC/C=C(\O)N(N)c1ccc2cc3ccccc3cc2c1
REMARK SMILES IDX 6 1 7 2 8 3 9 5 11 6 12 7 24 8 13 9 23 10 14 11 22 12 15 13
REMARK SMILES IDX 21 14 16 15 20 16 17 17 19 18 18 19 10 20 5 23 4 24 3 25
REMARK SMILES IDX 2 26 1 27
REMARK H PARENT 8 4 10 21 10 22
ROOT
ATOM      1  C   UNL     1      -1.107  -0.256   1.983  1.00  0.00     0.041 C 
ENDROOT
BRANCH   1   2
ATOM      2  C   UNL     1      -1.382  -1.123   0.996  1.00  0.00     0.201 C 
BRANCH   2   3
ATOM      3  O   UNL     1      -2.244  -2.193   1.241  1.00  0.00    -0.494 OA
ATOM      4  H   UNL     1      -2.459  -2.879   0.530  1.00  0.00     0.295 HD
ENDBRANCH   2   3
BRANCH   2   5
ATOM      5  N   UNL     1      -0.817  -0.941  -0.322  1.00  0.00    -0.249 N 
BRANCH   5   6
ATOM      6  C   UNL     1       0.543  -0.502  -0.515  1.00  0.00     0.061 A 
ATOM      7  C   UNL     1       1.563  -0.911   0.362  1.00  0.00     0.028 A 
ATOM      8  C   UNL     1       0.868   0.316  -1.609  1.00  0.00     0.036 A 
ATOM      9  C   UNL     1       2.881  -0.494   0.164  1.00  0.00     0.011 A 
ATOM     10  C   UNL     1       2.190   0.740  -1.817  1.00  0.00    -0.016 A 
ATOM     11  C   UNL     1       3.206   0.333  -0.920  1.00  0.00    -0.018 A 
ATOM     12  C   UNL     1       2.510   1.566  -2.906  1.00  0.00     0.017 A 
ATOM     13  C   UNL     1       4.528   0.755  -1.124  1.00  0.00     0.017 A 
ATOM     14  C   UNL     1       3.831   1.989  -3.109  1.00  0.00    -0.018 A 
ATOM     15  C   UNL     1       4.848   1.581  -2.212  1.00  0.00    -0.018 A 
ATOM     16  C   UNL     1       4.157   2.815  -4.197  1.00  0.00     0.009 A 
ATOM     17  C   UNL     1       6.169   2.007  -2.419  1.00  0.00     0.009 A 
ATOM     18  C   UNL     1       5.476   3.233  -4.391  1.00  0.00     0.001 A 
ATOM     19  C   UNL     1       6.479   2.830  -3.506  1.00  0.00     0.001 A 
ENDBRANCH   5   6
BRANCH   5  20
ATOM     20  N   UNL     1      -1.573  -1.283  -1.458  1.00  0.00    -0.240 NA
ATOM     21  H   UNL     1      -1.539  -2.322  -1.562  1.00  0.00     0.144 HD
ATOM     22  H   UNL     1      -2.567  -1.003  -1.293  1.00  0.00     0.144 HD
ENDBRANCH   5  20
ENDBRANCH   2   5
ENDBRANCH   1   2
BRANCH   1  23
ATOM     23  C   UNL     1      -1.667  -0.400   3.370  1.00  0.00     0.033 C 
BRANCH  23  24
ATOM     24  C   UNL     1      -3.138   0.032   3.421  1.00  0.00     0.004 C 
BRANCH  24  25
ATOM     25  C   UNL     1      -3.691  -0.073   4.850  1.00  0.00     0.000 C 
BRANCH  25  26
ATOM     26  C   UNL     1      -5.195   0.231   4.926  1.00  0.00    -0.003 C 
ATOM     27  C   UNL     1      -5.511   1.708   4.691  1.00  0.00     0.004 C 
ENDBRANCH  25  26
ENDBRANCH  24  25
ENDBRANCH  23  24
ENDBRANCH   1  23
TORSDOF 9


