MODEL 1
REMARK VINA RESULT:      -8.0      0.000      0.000
REMARK SMILES C=Cc1cc(-c2ccc3c(c2)[C@@H](N)CC3)c(F)cc1N
REMARK SMILES IDX 6 1 7 2 8 3 9 4 10 5 11 6 12 7 14 8 15 9 5 10 3 11 4 12
REMARK SMILES IDX 19 13 18 14 16 15 17 16 2 17 1 18 20 19 13 22
REMARK H PARENT 20 20 20 21 13 23 13 24
ROOT
ATOM      1  C   UNL     1      44.145 131.545  17.256  1.00  0.00    -0.015 A 
ATOM      2  C   UNL     1      43.294 131.765  16.149  1.00  0.00     0.009 A 
ATOM      3  C   UNL     1      43.775 131.618  14.839  1.00  0.00     0.005 A 
ATOM      4  C   UNL     1      45.107 131.248  14.650  1.00  0.00    -0.043 A 
ATOM      5  C   UNL     1      45.938 131.017  15.715  1.00  0.00    -0.027 A 
ATOM      6  C   UNL     1      45.485 131.163  17.029  1.00  0.00     0.014 A 
ATOM      7  C   UNL     1      47.306 130.626  15.283  1.00  0.00     0.081 C 
ATOM      8  C   UNL     1      47.256 130.778  13.744  1.00  0.00     0.028 C 
ATOM      9  C   UNL     1      45.790 131.047  13.353  1.00  0.00     0.038 C 
ENDROOT
BRANCH   1  10
ATOM     10  C   UNL     1      43.635 131.694  18.641  1.00  0.00     0.018 A 
ATOM     11  C   UNL     1      43.910 131.304  21.044  1.00  0.00    -0.002 A 
ATOM     12  C   UNL     1      44.372 131.179  19.719  1.00  0.00     0.022 A 
ATOM     13  C   UNL     1      42.685 131.970  21.284  1.00  0.00     0.042 A 
ATOM     14  C   UNL     1      41.961 132.495  20.204  1.00  0.00     0.066 A 
ATOM     15  C   UNL     1      42.425 132.359  18.895  1.00  0.00     0.133 A 
ATOM     16  F   UNL     1      41.708 132.910  17.883  1.00  0.00    -0.206 F 
BRANCH  11  17
ATOM     17  C   UNL     1      44.737 130.797  22.168  1.00  0.00     0.002 C 
ATOM     18  C   UNL     1      44.576 129.582  22.694  1.00  0.00     0.009 C 
ENDBRANCH  11  17
BRANCH  13  19
ATOM     19  N   UNL     1      42.138 132.097  22.605  1.00  0.00    -0.398 N 
ATOM     20  H   UNL     1      41.432 132.837  22.816  1.00  0.00     0.156 HD
ATOM     21  H   UNL     1      42.363 131.425  23.370  1.00  0.00     0.156 HD
ENDBRANCH  13  19
ENDBRANCH   1  10
BRANCH   7  22
ATOM     22  N   UNL     1      47.580 129.240  15.661  1.00  0.00    -0.324 NA
ATOM     23  H   UNL     1      46.766 128.652  15.368  1.00  0.00     0.119 HD
ATOM     24  H   UNL     1      47.606 129.190  16.706  1.00  0.00     0.119 HD
ENDBRANCH   7  22
TORSDOF 4
ENDMDL
MODEL 2
REMARK VINA RESULT:      -7.8      1.642      2.434
REMARK SMILES C=Cc1cc(-c2ccc3c(c2)[C@@H](N)CC3)c(F)cc1N
REMARK SMILES IDX 6 1 7 2 8 3 9 4 10 5 11 6 12 7 14 8 15 9 5 10 3 11 4 12
REMARK SMILES IDX 19 13 18 14 16 15 17 16 2 17 1 18 20 19 13 22
REMARK H PARENT 20 20 20 21 13 23 13 24
ROOT
ATOM      1  C   UNL     1      44.822 131.272  17.368  1.00  0.00    -0.015 A 
ATOM      2  C   UNL     1      43.735 131.606  16.527  1.00  0.00     0.009 A 
ATOM      3  C   UNL     1      43.884 131.600  15.132  1.00  0.00     0.005 A 
ATOM      4  C   UNL     1      45.122 131.256  14.590  1.00  0.00    -0.043 A 
ATOM      5  C   UNL     1      46.180 130.915  15.394  1.00  0.00    -0.027 A 
ATOM      6  C   UNL     1      46.058 130.921  16.786  1.00  0.00     0.014 A 
ATOM      7  C   UNL     1      47.394 130.576  14.607  1.00  0.00     0.081 C 
ATOM      8  C   UNL     1      46.980 130.890  13.149  1.00  0.00     0.028 C 
ATOM      9  C   UNL     1      45.470 131.194  13.153  1.00  0.00     0.038 C 
ENDROOT
BRANCH   1  10
ATOM     10  C   UNL     1      44.662 131.273  18.842  1.00  0.00     0.018 A 
ATOM     11  C   UNL     1      43.358 131.892  20.822  1.00  0.00    -0.002 A 
ATOM     12  C   UNL     1      43.534 131.874  19.424  1.00  0.00     0.022 A 
ATOM     13  C   UNL     1      44.335 131.284  21.646  1.00  0.00     0.042 A 
ATOM     14  C   UNL     1      45.452 130.674  21.057  1.00  0.00     0.066 A 
ATOM     15  C   UNL     1      45.619 130.668  19.672  1.00  0.00     0.133 A 
ATOM     16  F   UNL     1      46.699 130.038  19.143  1.00  0.00    -0.206 F 
BRANCH  11  17
ATOM     17  C   UNL     1      42.129 132.486  21.406  1.00  0.00     0.002 C 
ATOM     18  C   UNL     1      41.300 133.265  20.710  1.00  0.00     0.009 C 
ENDBRANCH  11  17
BRANCH  13  19
ATOM     19  N   UNL     1      44.236 131.303  23.077  1.00  0.00    -0.398 N 
ATOM     20  H   UNL     1      44.930 131.836  23.648  1.00  0.00     0.156 HD
ATOM     21  H   UNL     1      43.445 130.857  23.589  1.00  0.00     0.156 HD
ENDBRANCH  13  19
ENDBRANCH   1  10
BRANCH   7  22
ATOM     22  N   UNL     1      47.720 129.158  14.762  1.00  0.00    -0.324 NA
ATOM     23  H   UNL     1      48.249 129.039  15.657  1.00  0.00     0.119 HD
ATOM     24  H   UNL     1      48.387 128.895  14.000  1.00  0.00     0.119 HD
ENDBRANCH   7  22
TORSDOF 4
ENDMDL
MODEL 3
REMARK VINA RESULT:      -7.7      0.991      1.298
REMARK SMILES C=Cc1cc(-c2ccc3c(c2)[C@@H](N)CC3)c(F)cc1N
REMARK SMILES IDX 6 1 7 2 8 3 9 4 10 5 11 6 12 7 14 8 15 9 5 10 3 11 4 12
REMARK SMILES IDX 19 13 18 14 16 15 17 16 2 17 1 18 20 19 13 22
REMARK H PARENT 20 20 20 21 13 23 13 24
ROOT
ATOM      1  C   UNL     1      43.813 131.528  18.434  1.00  0.00    -0.015 A 
ATOM      2  C   UNL     1      42.817 131.796  17.467  1.00  0.00     0.009 A 
ATOM      3  C   UNL     1      43.125 131.761  16.098  1.00  0.00     0.005 A 
ATOM      4  C   UNL     1      44.430 131.456  15.710  1.00  0.00    -0.043 A 
ATOM      5  C   UNL     1      45.401 131.180  16.639  1.00  0.00    -0.027 A 
ATOM      6  C   UNL     1      45.120 131.215  18.007  1.00  0.00     0.014 A 
ATOM      7  C   UNL     1      46.710 130.873  16.005  1.00  0.00     0.081 C 
ATOM      8  C   UNL     1      46.453 131.132  14.501  1.00  0.00     0.028 C 
ATOM      9  C   UNL     1      44.942 131.373  14.324  1.00  0.00     0.038 C 
ENDROOT
BRANCH   1  10
ATOM     10  C   UNL     1      43.485 131.559  19.881  1.00  0.00     0.018 A 
ATOM     11  C   UNL     1      43.858 130.704  22.146  1.00  0.00    -0.002 A 
ATOM     12  C   UNL     1      44.151 130.698  20.768  1.00  0.00     0.022 A 
ATOM     13  C   UNL     1      42.881 131.603  22.637  1.00  0.00     0.042 A 
ATOM     14  C   UNL     1      42.232 132.471  21.748  1.00  0.00     0.066 A 
ATOM     15  C   UNL     1      42.525 132.452  20.384  1.00  0.00     0.133 A 
ATOM     16  F   UNL     1      41.895 133.331  19.564  1.00  0.00    -0.206 F 
BRANCH  11  17
ATOM     17  C   UNL     1      44.614 129.820  23.068  1.00  0.00     0.002 C 
ATOM     18  C   UNL     1      44.674 128.496  22.915  1.00  0.00     0.009 C 
ENDBRANCH  11  17
BRANCH  13  19
ATOM     19  N   UNL     1      42.508 131.632  24.023  1.00  0.00    -0.398 N 
ATOM     20  H   UNL     1      42.858 132.392  24.649  1.00  0.00     0.156 HD
ATOM     21  H   UNL     1      41.830 130.955  24.433  1.00  0.00     0.156 HD
ENDBRANCH  13  19
ENDBRANCH   1  10
BRANCH   7  22
ATOM     22  N   UNL     1      47.070 129.474  16.238  1.00  0.00    -0.324 NA
ATOM     23  H   UNL     1      47.919 129.451  16.849  1.00  0.00     0.119 HD
ATOM     24  H   UNL     1      47.367 129.061  15.323  1.00  0.00     0.119 HD
ENDBRANCH   7  22
TORSDOF 4
ENDMDL
MODEL 4
REMARK VINA RESULT:      -7.4      1.177      1.259
REMARK SMILES C=Cc1cc(-c2ccc3c(c2)[C@@H](N)CC3)c(F)cc1N
REMARK SMILES IDX 6 1 7 2 8 3 9 4 10 5 11 6 12 7 14 8 15 9 5 10 3 11 4 12
REMARK SMILES IDX 19 13 18 14 16 15 17 16 2 17 1 18 20 19 13 22
REMARK H PARENT 20 20 20 21 13 23 13 24
ROOT
ATOM      1  C   UNL     1      45.054 131.416  17.653  1.00  0.00    -0.015 A 
ATOM      2  C   UNL     1      45.216 132.577  16.863  1.00  0.00     0.009 A 
ATOM      3  C   UNL     1      45.902 132.518  15.641  1.00  0.00     0.005 A 
ATOM      4  C   UNL     1      46.419 131.293  15.218  1.00  0.00    -0.043 A 
ATOM      5  C   UNL     1      46.255 130.157  15.968  1.00  0.00    -0.027 A 
ATOM      6  C   UNL     1      45.582 130.191  17.192  1.00  0.00     0.014 A 
ATOM      7  C   UNL     1      46.875 128.968  15.325  1.00  0.00     0.081 C 
ATOM      8  C   UNL     1      47.592 129.560  14.087  1.00  0.00     0.028 C 
ATOM      9  C   UNL     1      47.168 131.035  13.968  1.00  0.00     0.038 C 
ENDROOT
BRANCH   1  10
ATOM     10  C   UNL     1      44.323 131.477  18.942  1.00  0.00     0.018 A 
ATOM     11  C   UNL     1      44.237 130.994  21.343  1.00  0.00    -0.002 A 
ATOM     12  C   UNL     1      44.909 130.952  20.106  1.00  0.00     0.022 A 
ATOM     13  C   UNL     1      42.953 131.587  21.407  1.00  0.00     0.042 A 
ATOM     14  C   UNL     1      42.380 132.122  20.245  1.00  0.00     0.066 A 
ATOM     15  C   UNL     1      43.052 132.069  19.023  1.00  0.00     0.133 A 
ATOM     16  F   UNL     1      42.474 132.628  17.930  1.00  0.00    -0.206 F 
BRANCH  11  17
ATOM     17  C   UNL     1      44.903 130.480  22.565  1.00  0.00     0.002 C 
ATOM     18  C   UNL     1      44.521 129.361  23.181  1.00  0.00     0.009 C 
ENDBRANCH  11  17
BRANCH  13  19
ATOM     19  N   UNL     1      42.199 131.626  22.628  1.00  0.00    -0.398 N 
ATOM     20  H   UNL     1      42.405 130.952  23.399  1.00  0.00     0.156 HD
ATOM     21  H   UNL     1      41.482 132.359  22.818  1.00  0.00     0.156 HD
ENDBRANCH  13  19
ENDBRANCH   1  10
BRANCH   7  22
ATOM     22  N   UNL     1      45.842 128.013  14.922  1.00  0.00    -0.324 NA
ATOM     23  H   UNL     1      45.387 128.371  14.050  1.00  0.00     0.119 HD
ATOM     24  H   UNL     1      45.095 128.017  15.655  1.00  0.00     0.119 HD
ENDBRANCH   7  22
TORSDOF 4
ENDMDL
MODEL 5
REMARK VINA RESULT:      -7.3      1.941      2.721
REMARK SMILES C=Cc1cc(-c2ccc3c(c2)[C@@H](N)CC3)c(F)cc1N
REMARK SMILES IDX 6 1 7 2 8 3 9 4 10 5 11 6 12 7 14 8 15 9 5 10 3 11 4 12
REMARK SMILES IDX 19 13 18 14 16 15 17 16 2 17 1 18 20 19 13 22
REMARK H PARENT 20 20 20 21 13 23 13 24
ROOT
ATOM      1  C   UNL     1      45.271 131.294  18.026  1.00  0.00    -0.015 A 
ATOM      2  C   UNL     1      45.207 132.498  17.288  1.00  0.00     0.009 A 
ATOM      3  C   UNL     1      45.671 132.550  15.965  1.00  0.00     0.005 A 
ATOM      4  C   UNL     1      46.195 131.392  15.391  1.00  0.00    -0.043 A 
ATOM      5  C   UNL     1      46.249 130.214  16.091  1.00  0.00    -0.027 A 
ATOM      6  C   UNL     1      45.799 130.138  17.411  1.00  0.00     0.014 A 
ATOM      7  C   UNL     1      46.833 129.110  15.284  1.00  0.00     0.081 C 
ATOM      8  C   UNL     1      47.277 129.813  13.978  1.00  0.00     0.028 C 
ATOM      9  C   UNL     1      46.730 131.252  14.018  1.00  0.00     0.038 C 
ENDROOT
BRANCH   1  10
ATOM     10  C   UNL     1      44.775 131.238  19.422  1.00  0.00     0.018 A 
ATOM     11  C   UNL     1      43.104 131.882  21.094  1.00  0.00    -0.002 A 
ATOM     12  C   UNL     1      43.597 131.916  19.775  1.00  0.00     0.022 A 
ATOM     13  C   UNL     1      43.809 131.142  22.073  1.00  0.00     0.042 A 
ATOM     14  C   UNL     1      44.977 130.456  21.710  1.00  0.00     0.066 A 
ATOM     15  C   UNL     1      45.460 130.501  20.402  1.00  0.00     0.133 A 
ATOM     16  F   UNL     1      46.576 129.796  20.088  1.00  0.00    -0.206 F 
BRANCH  11  17
ATOM     17  C   UNL     1      41.828 132.564  21.425  1.00  0.00     0.002 C 
ATOM     18  C   UNL     1      41.211 133.395  20.584  1.00  0.00     0.009 C 
ENDBRANCH  11  17
BRANCH  13  19
ATOM     19  N   UNL     1      43.383 131.100  23.443  1.00  0.00    -0.398 N 
ATOM     20  H   UNL     1      42.665 130.407  23.751  1.00  0.00     0.156 HD
ATOM     21  H   UNL     1      43.816 131.694  24.181  1.00  0.00     0.156 HD
ENDBRANCH  13  19
ENDBRANCH   1  10
BRANCH   7  22
ATOM     22  N   UNL     1      45.819 128.092  15.008  1.00  0.00    -0.324 NA
ATOM     23  H   UNL     1      45.928 127.322  15.708  1.00  0.00     0.119 HD
ATOM     24  H   UNL     1      46.037 127.663  14.078  1.00  0.00     0.119 HD
ENDBRANCH   7  22
TORSDOF 4
ENDMDL
MODEL 6
REMARK VINA RESULT:      -7.2      1.662      6.472
REMARK SMILES C=Cc1cc(-c2ccc3c(c2)[C@@H](N)CC3)c(F)cc1N
REMARK SMILES IDX 6 1 7 2 8 3 9 4 10 5 11 6 12 7 14 8 15 9 5 10 3 11 4 12
REMARK SMILES IDX 19 13 18 14 16 15 17 16 2 17 1 18 20 19 13 22
REMARK H PARENT 20 20 20 21 13 23 13 24
ROOT
ATOM      1  C   UNL     1      44.329 131.365  17.727  1.00  0.00    -0.015 A 
ATOM      2  C   UNL     1      42.963 131.693  17.885  1.00  0.00     0.009 A 
ATOM      3  C   UNL     1      42.409 131.846  19.164  1.00  0.00     0.005 A 
ATOM      4  C   UNL     1      43.230 131.670  20.278  1.00  0.00    -0.043 A 
ATOM      5  C   UNL     1      44.560 131.366  20.139  1.00  0.00    -0.027 A 
ATOM      6  C   UNL     1      45.134 131.202  18.875  1.00  0.00     0.014 A 
ATOM      7  C   UNL     1      45.244 131.234  21.452  1.00  0.00     0.081 C 
ATOM      8  C   UNL     1      44.092 131.371  22.476  1.00  0.00     0.028 C 
ATOM      9  C   UNL     1      42.829 131.787  21.698  1.00  0.00     0.038 C 
ENDROOT
BRANCH   1  10
ATOM     10  C   UNL     1      44.916 131.210  16.374  1.00  0.00     0.018 A 
ATOM     11  C   UNL     1      46.761 130.455  14.949  1.00  0.00    -0.002 A 
ATOM     12  C   UNL     1      46.178 130.612  16.222  1.00  0.00     0.022 A 
ATOM     13  C   UNL     1      46.051 130.901  13.809  1.00  0.00     0.042 A 
ATOM     14  C   UNL     1      44.786 131.483  13.967  1.00  0.00     0.066 A 
ATOM     15  C   UNL     1      44.221 131.640  15.233  1.00  0.00     0.133 A 
ATOM     16  F   UNL     1      42.980 132.180  15.337  1.00  0.00    -0.206 F 
BRANCH  11  17
ATOM     17  C   UNL     1      48.072 129.772  14.814  1.00  0.00     0.002 C 
ATOM     18  C   UNL     1      48.498 129.243  13.667  1.00  0.00     0.009 C 
ENDBRANCH  11  17
BRANCH  13  19
ATOM     19  N   UNL     1      46.605 130.806  12.488  1.00  0.00    -0.398 N 
ATOM     20  H   UNL     1      47.555 131.191  12.284  1.00  0.00     0.156 HD
ATOM     21  H   UNL     1      46.125 130.296  11.716  1.00  0.00     0.156 HD
ENDBRANCH  13  19
ENDBRANCH   1  10
BRANCH   7  22
ATOM     22  N   UNL     1      46.224 132.308  21.623  1.00  0.00    -0.324 NA
ATOM     23  H   UNL     1      47.178 131.880  21.653  1.00  0.00     0.119 HD
ATOM     24  H   UNL     1      46.073 132.733  22.568  1.00  0.00     0.119 HD
ENDBRANCH   7  22
TORSDOF 4
ENDMDL
MODEL 7
REMARK VINA RESULT:      -7.1      1.660      6.805
REMARK SMILES C=Cc1cc(-c2ccc3c(c2)[C@@H](N)CC3)c(F)cc1N
REMARK SMILES IDX 6 1 7 2 8 3 9 4 10 5 11 6 12 7 14 8 15 9 5 10 3 11 4 12
REMARK SMILES IDX 19 13 18 14 16 15 17 16 2 17 1 18 20 19 13 22
REMARK H PARENT 20 20 20 21 13 23 13 24
ROOT
ATOM      1  C   UNL     1      44.503 131.546  19.893  1.00  0.00    -0.015 A 
ATOM      2  C   UNL     1      45.676 131.977  20.554  1.00  0.00     0.009 A 
ATOM      3  C   UNL     1      45.698 132.115  21.949  1.00  0.00     0.005 A 
ATOM      4  C   UNL     1      44.544 131.817  22.673  1.00  0.00    -0.043 A 
ATOM      5  C   UNL     1      43.404 131.384  22.046  1.00  0.00    -0.027 A 
ATOM      6  C   UNL     1      43.355 131.245  20.656  1.00  0.00     0.014 A 
ATOM      7  C   UNL     1      42.303 131.116  23.007  1.00  0.00     0.081 C 
ATOM      8  C   UNL     1      42.885 131.585  24.363  1.00  0.00     0.028 C 
ATOM      9  C   UNL     1      44.376 131.903  24.141  1.00  0.00     0.038 C 
ENDROOT
BRANCH   1  10
ATOM     10  C   UNL     1      44.481 131.394  18.418  1.00  0.00     0.018 A 
ATOM     11  C   UNL     1      45.578 130.648  16.358  1.00  0.00    -0.002 A 
ATOM     12  C   UNL     1      45.571 130.802  17.758  1.00  0.00     0.022 A 
ATOM     13  C   UNL     1      44.460 131.092  15.611  1.00  0.00     0.042 A 
ATOM     14  C   UNL     1      43.370 131.669  16.278  1.00  0.00     0.066 A 
ATOM     15  C   UNL     1      43.376 131.822  17.665  1.00  0.00     0.133 A 
ATOM     16  F   UNL     1      42.286 132.357  18.271  1.00  0.00    -0.206 F 
BRANCH  11  17
ATOM     17  C   UNL     1      46.720 129.971  15.693  1.00  0.00     0.002 C 
ATOM     18  C   UNL     1      47.192 130.346  14.504  1.00  0.00     0.009 C 
ENDBRANCH  11  17
BRANCH  13  19
ATOM     19  N   UNL     1      44.422 131.000  14.180  1.00  0.00    -0.398 N 
ATOM     20  H   UNL     1      44.686 130.111  13.700  1.00  0.00     0.156 HD
ATOM     21  H   UNL     1      44.066 131.775  13.579  1.00  0.00     0.156 HD
ENDBRANCH  13  19
ENDBRANCH   1  10
BRANCH   7  22
ATOM     22  N   UNL     1      41.993 129.687  23.040  1.00  0.00    -0.324 NA
ATOM     23  H   UNL     1      41.835 129.363  22.058  1.00  0.00     0.119 HD
ATOM     24  H   UNL     1      41.076 129.567  23.530  1.00  0.00     0.119 HD
ENDBRANCH   7  22
TORSDOF 4
ENDMDL
MODEL 8
REMARK VINA RESULT:      -7.1      1.824      6.907
REMARK SMILES C=Cc1cc(-c2ccc3c(c2)[C@@H](N)CC3)c(F)cc1N
REMARK SMILES IDX 6 1 7 2 8 3 9 4 10 5 11 6 12 7 14 8 15 9 5 10 3 11 4 12
REMARK SMILES IDX 19 13 18 14 16 15 17 16 2 17 1 18 20 19 13 22
REMARK H PARENT 20 20 20 21 13 23 13 24
ROOT
ATOM      1  C   UNL     1      43.696 131.593  19.375  1.00  0.00    -0.015 A 
ATOM      2  C   UNL     1      42.548 132.409  19.256  1.00  0.00     0.009 A 
ATOM      3  C   UNL     1      41.808 132.769  20.393  1.00  0.00     0.005 A 
ATOM      4  C   UNL     1      42.228 132.309  21.641  1.00  0.00    -0.043 A 
ATOM      5  C   UNL     1      43.348 131.529  21.771  1.00  0.00    -0.027 A 
ATOM      6  C   UNL     1      44.097 131.152  20.654  1.00  0.00     0.014 A 
ATOM      7  C   UNL     1      43.614 131.163  23.187  1.00  0.00     0.081 C 
ATOM      8  C   UNL     1      42.387 131.730  23.943  1.00  0.00     0.028 C 
ATOM      9  C   UNL     1      41.581 132.581  22.944  1.00  0.00     0.038 C 
ENDROOT
BRANCH   1  10
ATOM     10  C   UNL     1      44.482 131.218  18.174  1.00  0.00     0.018 A 
ATOM     11  C   UNL     1      44.775 131.279  15.742  1.00  0.00    -0.002 A 
ATOM     12  C   UNL     1      44.051 131.623  16.900  1.00  0.00     0.022 A 
ATOM     13  C   UNL     1      45.962 130.518  15.875  1.00  0.00     0.042 A 
ATOM     14  C   UNL     1      46.393 130.129  17.151  1.00  0.00     0.066 A 
ATOM     15  C   UNL     1      45.664 130.470  18.290  1.00  0.00     0.133 A 
ATOM     16  F   UNL     1      46.136 130.100  19.508  1.00  0.00    -0.206 F 
BRANCH  11  17
ATOM     17  C   UNL     1      44.325 131.767  14.415  1.00  0.00     0.002 C 
ATOM     18  C   UNL     1      43.134 131.464  13.898  1.00  0.00     0.009 C 
ENDBRANCH  11  17
BRANCH  13  19
ATOM     19  N   UNL     1      46.724 130.100  14.733  1.00  0.00    -0.398 N 
ATOM     20  H   UNL     1      47.747 130.306  14.677  1.00  0.00     0.156 HD
ATOM     21  H   UNL     1      46.314 129.524  13.968  1.00  0.00     0.156 HD
ENDBRANCH  13  19
ENDBRANCH   1  10
BRANCH   7  22
ATOM     22  N   UNL     1      44.849 131.795  23.651  1.00  0.00    -0.324 NA
ATOM     23  H   UNL     1      45.400 131.084  24.186  1.00  0.00     0.119 HD
ATOM     24  H   UNL     1      44.591 132.536  24.345  1.00  0.00     0.119 HD
ENDBRANCH   7  22
TORSDOF 4
ENDMDL
MODEL 9
REMARK VINA RESULT:      -7.1      0.851      1.001
REMARK SMILES C=Cc1cc(-c2ccc3c(c2)[C@@H](N)CC3)c(F)cc1N
REMARK SMILES IDX 6 1 7 2 8 3 9 4 10 5 11 6 12 7 14 8 15 9 5 10 3 11 4 12
REMARK SMILES IDX 19 13 18 14 16 15 17 16 2 17 1 18 20 19 13 22
REMARK H PARENT 20 20 20 21 13 23 13 24
ROOT
ATOM      1  C   UNL     1      44.402 131.500  16.659  1.00  0.00    -0.015 A 
ATOM      2  C   UNL     1      43.564 131.688  15.536  1.00  0.00     0.009 A 
ATOM      3  C   UNL     1      44.065 131.520  14.236  1.00  0.00     0.005 A 
ATOM      4  C   UNL     1      45.404 131.161  14.073  1.00  0.00    -0.043 A 
ATOM      5  C   UNL     1      46.222 130.962  15.155  1.00  0.00    -0.027 A 
ATOM      6  C   UNL     1      45.748 131.130  16.458  1.00  0.00     0.014 A 
ATOM      7  C   UNL     1      47.600 130.578  14.750  1.00  0.00     0.081 C 
ATOM      8  C   UNL     1      47.571 130.698  13.207  1.00  0.00     0.028 C 
ATOM      9  C   UNL     1      46.108 130.941  12.790  1.00  0.00     0.038 C 
ENDROOT
BRANCH   1  10
ATOM     10  C   UNL     1      43.870 131.672  18.033  1.00  0.00     0.018 A 
ATOM     11  C   UNL     1      44.234 131.633  20.456  1.00  0.00    -0.002 A 
ATOM     12  C   UNL     1      44.713 131.479  19.140  1.00  0.00     0.022 A 
ATOM     13  C   UNL     1      42.881 131.997  20.656  1.00  0.00     0.042 A 
ATOM     14  C   UNL     1      42.049 132.202  19.546  1.00  0.00     0.066 A 
ATOM     15  C   UNL     1      42.533 132.041  18.248  1.00  0.00     0.133 A 
ATOM     16  F   UNL     1      41.701 132.281  17.202  1.00  0.00    -0.206 F 
BRANCH  11  17
ATOM     17  C   UNL     1      45.161 131.475  21.604  1.00  0.00     0.002 C 
ATOM     18  C   UNL     1      46.245 132.233  21.770  1.00  0.00     0.009 C 
ENDBRANCH  11  17
BRANCH  13  19
ATOM     19  N   UNL     1      42.320 132.131  21.971  1.00  0.00    -0.398 N 
ATOM     20  H   UNL     1      41.989 131.289  22.492  1.00  0.00     0.156 HD
ATOM     21  H   UNL     1      42.290 133.043  22.475  1.00  0.00     0.156 HD
ENDBRANCH  13  19
ENDBRANCH   1  10
BRANCH   7  22
ATOM     22  N   UNL     1      47.885 129.203  15.160  1.00  0.00    -0.324 NA
ATOM     23  H   UNL     1      47.056 128.838  15.683  1.00  0.00     0.119 HD
ATOM     24  H   UNL     1      48.669 129.230  15.854  1.00  0.00     0.119 HD
ENDBRANCH   7  22
TORSDOF 4
ENDMDL


