REMARK SMILES C=c1ccc(=C(O)C(O[C@@H](CO)c2ccc(OC(F)(F)F)cc2)=c2ccc(=C)cc2)cc1
REMARK SMILES IDX 9 1 8 2 6 3 5 4 2 5 3 6 32 7 4 8 31 9 1 10 7 11 24 13 25 14
REMARK SMILES IDX 30 15 26 16 29 17 27 18 28 19 10 20 11 21 12 22 13 24 14 25
REMARK SMILES IDX 23 26 15 27 22 28 16 29 17 30 18 31 19 32 20 33 21 34
REMARK H PARENT 7 12 12 23
ROOT
ATOM      1  O   UNL     1      -0.584   0.322  -0.154  1.00  0.00    -0.479 OA
ENDROOT
BRANCH   1   2
ATOM      2  C   UNL     1      -0.409  -0.985  -0.642  1.00  0.00     0.169 C 
BRANCH   2   3
ATOM      3  C   UNL     1      -1.601  -1.820  -0.950  1.00  0.00     0.165 C 
BRANCH   3   4
ATOM      4  C   UNL     1      -2.071  -2.754  -0.070  1.00  0.00     0.020 A 
ATOM      5  C   UNL     1      -3.058  -4.650   1.814  1.00  0.00    -0.033 A 
ATOM      6  C   UNL     1      -1.892  -3.921   2.085  1.00  0.00     0.008 A 
ATOM      7  C   UNL     1      -3.733  -4.427   0.605  1.00  0.00     0.008 A 
ATOM      8  C   UNL     1      -1.406  -2.990   1.162  1.00  0.00     0.013 A 
ATOM      9  C   UNL     1      -3.251  -3.494  -0.321  1.00  0.00     0.013 A 
ATOM     10  C   UNL     1      -3.522  -5.542   2.698  1.00  0.00     0.017 C 
ENDBRANCH   3   4
BRANCH   3  11
ATOM     11  O   UNL     1      -2.209  -1.558  -2.182  1.00  0.00    -0.504 OA
ATOM     12  H   UNL     1      -2.923  -2.129  -2.614  1.00  0.00     0.293 HD
ENDBRANCH   3  11
ENDBRANCH   2   3
BRANCH   2  13
ATOM     13  C   UNL     1       0.852  -1.445  -0.843  1.00  0.00     0.020 A 
ATOM     14  C   UNL     1       1.961  -0.623  -0.550  1.00  0.00     0.013 A 
ATOM     15  C   UNL     1       1.103  -2.735  -1.368  1.00  0.00     0.013 A 
ATOM     16  C   UNL     1       3.268  -1.065  -0.787  1.00  0.00     0.008 A 
ATOM     17  C   UNL     1       2.411  -3.174  -1.605  1.00  0.00     0.008 A 
ATOM     18  C   UNL     1       3.503  -2.340  -1.324  1.00  0.00    -0.033 A 
ATOM     19  C   UNL     1       4.752  -2.752  -1.572  1.00  0.00     0.017 C 
ENDBRANCH   2  13
ENDBRANCH   1   2
BRANCH   1  20
ATOM     20  C   UNL     1      -1.806   1.067  -0.189  1.00  0.00     0.229 C 
BRANCH  20  21
ATOM     21  C   UNL     1      -2.798   0.599   0.890  1.00  0.00     0.206 C 
BRANCH  21  22
ATOM     22  O   UNL     1      -2.140   0.372   2.107  1.00  0.00    -0.392 OA
ATOM     23  H   UNL     1      -2.842   0.079   2.747  1.00  0.00     0.210 HD
ENDBRANCH  21  22
ENDBRANCH  20  21
BRANCH  20  24
ATOM     24  C   UNL     1      -1.481   2.535  -0.021  1.00  0.00    -0.005 A 
ATOM     25  C   UNL     1      -0.748   2.987   1.091  1.00  0.00     0.011 A 
ATOM     26  C   UNL     1      -1.891   3.467  -0.990  1.00  0.00     0.011 A 
ATOM     27  C   UNL     1      -0.449   4.346   1.240  1.00  0.00     0.047 A 
ATOM     28  C   UNL     1      -1.578   4.822  -0.847  1.00  0.00     0.047 A 
ATOM     29  C   UNL     1      -0.862   5.276   0.267  1.00  0.00     0.129 A 
BRANCH  29  30
ATOM     30  O   UNL     1      -0.582   6.650   0.362  1.00  0.00    -0.406 OA
BRANCH  30  31
ATOM     31  C   UNL     1       0.028   7.291   1.480  1.00  0.00     0.573 C 
ATOM     32  F   UNL     1       1.312   6.811   1.662  1.00  0.00    -0.132 F 
ATOM     33  F   UNL     1      -0.722   7.074   2.623  1.00  0.00    -0.132 F 
ATOM     34  F   UNL     1       0.090   8.651   1.239  1.00  0.00    -0.132 F 
ENDBRANCH  30  31
ENDBRANCH  29  30
ENDBRANCH  20  24
ENDBRANCH   1  20
TORSDOF 11


