REMARK SMILES NCCc1ccc(-c2cnc3cc[nH+]n3c2)cc1
REMARK SMILES IDX 3 1 2 2 1 3 4 6 5 7 18 8 6 9 17 10 7 11 8 12 9 13 16 14
REMARK SMILES IDX 10 15 15 16 11 17 14 18 12 19 13 20
REMARK H PARENT 1 4 1 5 14 21
ROOT
ATOM      1  C   UNL     1      -4.148   0.127  -0.862  1.00  0.00     0.050 C 
ENDROOT
BRANCH   1   2
ATOM      2  C   UNL     1      -4.805  -0.018   0.514  1.00  0.00     0.082 C 
BRANCH   2   3
ATOM      3  N   UNL     1      -4.498   1.132   1.361  1.00  0.00    -0.330 NA
ATOM      4  H   UNL     1      -4.917   0.955   2.302  1.00  0.00     0.118 HD
ATOM      5  H   UNL     1      -4.990   1.968   0.968  1.00  0.00     0.118 HD
ENDBRANCH   2   3
ENDBRANCH   1   2
BRANCH   1   6
ATOM      6  C   UNL     1      -2.645   0.131  -0.758  1.00  0.00    -0.047 A 
ATOM      7  C   UNL     1      -1.941   1.343  -0.687  1.00  0.00     0.004 A 
ATOM      8  C   UNL     1      -1.938  -1.078  -0.683  1.00  0.00     0.004 A 
ATOM      9  C   UNL     1      -0.549   1.345  -0.562  1.00  0.00     0.009 A 
ATOM     10  C   UNL     1      -0.546  -1.077  -0.557  1.00  0.00     0.009 A 
ATOM     11  C   UNL     1       0.165   0.135  -0.497  1.00  0.00    -0.015 A 
BRANCH  11  12
ATOM     12  C   UNL     1       1.644   0.137  -0.362  1.00  0.00     0.022 A 
ATOM     13  C   UNL     1       2.441   1.084  -1.055  1.00  0.00     0.124 A 
ATOM     14  C   UNL     1       2.300  -0.803   0.460  1.00  0.00     0.169 A 
ATOM     15  N   UNL     1       3.800   1.081  -0.927  1.00  0.00    -0.233 NA
ATOM     16  N   UNL     1       3.650  -0.746   0.540  1.00  0.00    -0.111 N 
ATOM     17  C   UNL     1       4.377   0.157  -0.124  1.00  0.00     0.199 A 
ATOM     18  N   UNL     1       4.453  -1.520   1.247  1.00  0.00    -0.125 N 
ATOM     19  C   UNL     1       5.715  -0.021   0.150  1.00  0.00     0.126 A 
ATOM     20  C   UNL     1       5.722  -1.103   1.030  1.00  0.00     0.337 A 
ATOM     21  H   UNL     1       4.149  -2.309   1.860  1.00  0.00     0.488 HD
ENDBRANCH  11  12
ENDBRANCH   1   6
TORSDOF 4


