MODEL 1
REMARK VINA RESULT:      -6.6      0.000      0.000
REMARK SMILES Cc1ccoc1NC(=O)N1CCC[C@H](c2ccc3ccc(C)c(F)c3[nH+]2)[C@H]1F
REMARK SMILES IDX 10 1 11 2 12 3 13 4 14 5 27 6 28 7 8 8 7 9 9 11 6 12 2 13
REMARK SMILES IDX 3 14 4 15 5 16 1 17 15 18 16 19 26 20 17 21 25 22 18 23
REMARK SMILES IDX 23 24 19 25 21 26 20 27 24 29 22 30
REMARK H PARENT 7 10 26 28
ROOT
ATOM      1  N   UNL     1      43.555 131.630  22.020  1.00  0.00    -0.293 N 
ATOM      2  C   UNL     1      44.744 132.220  22.645  1.00  0.00     0.124 C 
ATOM      3  C   UNL     1      46.001 131.559  22.067  1.00  0.00     0.023 C 
ATOM      4  C   UNL     1      46.002 131.619  20.531  1.00  0.00     0.021 C 
ATOM      5  C   UNL     1      44.707 131.013  19.946  1.00  0.00     0.140 C 
ATOM      6  C   UNL     1      43.473 131.705  20.555  1.00  0.00     0.280 C 
ATOM      7  F   UNL     1      42.304 131.127  20.080  1.00  0.00    -0.223 F 
ENDROOT
BRANCH   1   8
ATOM      8  C   UNL     1      42.655 130.829  22.806  1.00  0.00     0.326 C 
ATOM      9  N   UNL     1      42.935 129.442  23.051  1.00  0.00    -0.278 N 
ATOM     10  H   UNL     1      43.877 129.070  22.800  1.00  0.00     0.175 HD
ATOM     11  O   UNL     1      41.635 131.369  23.317  1.00  0.00    -0.248 OA
BRANCH   9  12
ATOM     12  C   UNL     1      41.994 128.550  23.665  1.00  0.00     0.203 A 
ATOM     13  C   UNL     1      42.171 127.191  23.834  1.00  0.00     0.013 A 
ATOM     14  C   UNL     1      41.025 126.737  24.455  1.00  0.00     0.047 A 
ATOM     15  C   UNL     1      40.223 127.851  24.624  1.00  0.00     0.198 A 
ATOM     16  O   UNL     1      40.827 128.916  24.144  1.00  0.00    -0.448 OA
ATOM     17  C   UNL     1      43.352 126.372  23.426  1.00  0.00     0.050 C 
ENDBRANCH   9  12
ENDBRANCH   1   8
BRANCH   5  18
ATOM     18  C   UNL     1      44.698 131.094  18.432  1.00  0.00     0.188 A 
ATOM     19  C   UNL     1      43.588 131.646  17.771  1.00  0.00     0.075 A 
ATOM     20  N   UNL     1      45.761 130.640  17.699  1.00  0.00    -0.205 N 
ATOM     21  C   UNL     1      43.577 131.725  16.381  1.00  0.00     0.021 A 
ATOM     22  C   UNL     1      45.775 130.706  16.334  1.00  0.00     0.247 A 
ATOM     23  C   UNL     1      44.670 131.256  15.646  1.00  0.00     0.049 A 
ATOM     24  C   UNL     1      46.880 130.232  15.601  1.00  0.00     0.197 A 
ATOM     25  C   UNL     1      44.678 131.323  14.247  1.00  0.00     0.015 A 
ATOM     26  C   UNL     1      46.887 130.311  14.198  1.00  0.00    -0.008 A 
ATOM     27  C   UNL     1      45.778 130.850  13.529  1.00  0.00     0.007 A 
ATOM     28  H   UNL     1      46.583 130.233  18.199  1.00  0.00     0.454 HD
ATOM     29  F   UNL     1      47.946 129.693  16.249  1.00  0.00    -0.199 F 
ATOM     30  C   UNL     1      48.058 129.785  13.419  1.00  0.00     0.048 C 
ENDBRANCH   5  18
TORSDOF 3
ENDMDL
MODEL 2
REMARK VINA RESULT:      -6.3      5.528      8.600
REMARK SMILES Cc1ccoc1NC(=O)N1CCC[C@H](c2ccc3ccc(C)c(F)c3[nH+]2)[C@H]1F
REMARK SMILES IDX 10 1 11 2 12 3 13 4 14 5 27 6 28 7 8 8 7 9 9 11 6 12 2 13
REMARK SMILES IDX 3 14 4 15 5 16 1 17 15 18 16 19 26 20 17 21 25 22 18 23
REMARK SMILES IDX 23 24 19 25 21 26 20 27 24 29 22 30
REMARK H PARENT 7 10 26 28
ROOT
ATOM      1  N   UNL     1      46.271 123.908  22.679  1.00  0.00    -0.293 N 
ATOM      2  C   UNL     1      45.317 122.882  23.114  1.00  0.00     0.124 C 
ATOM      3  C   UNL     1      44.680 123.314  24.440  1.00  0.00     0.023 C 
ATOM      4  C   UNL     1      44.080 124.725  24.332  1.00  0.00     0.021 C 
ATOM      5  C   UNL     1      45.131 125.743  23.835  1.00  0.00     0.140 C 
ATOM      6  C   UNL     1      45.745 125.268  22.505  1.00  0.00     0.280 C 
ATOM      7  F   UNL     1      46.731 126.146  22.080  1.00  0.00    -0.223 F 
ENDROOT
BRANCH   1   8
ATOM      8  C   UNL     1      47.679 123.614  22.655  1.00  0.00     0.326 C 
ATOM      9  N   UNL     1      48.474 123.940  21.504  1.00  0.00    -0.278 N 
ATOM     10  H   UNL     1      48.056 124.544  20.762  1.00  0.00     0.175 HD
ATOM     11  O   UNL     1      48.221 123.104  23.674  1.00  0.00    -0.248 OA
BRANCH   9  12
ATOM     12  C   UNL     1      49.833 123.509  21.343  1.00  0.00     0.203 A 
ATOM     13  C   UNL     1      50.936 124.101  21.925  1.00  0.00     0.013 A 
ATOM     14  C   UNL     1      52.026 123.371  21.496  1.00  0.00     0.047 A 
ATOM     15  C   UNL     1      51.515 122.381  20.678  1.00  0.00     0.198 A 
ATOM     16  O   UNL     1      50.206 122.488  20.606  1.00  0.00    -0.448 OA
ATOM     17  C   UNL     1      50.956 125.290  22.830  1.00  0.00     0.050 C 
ENDBRANCH   9  12
ENDBRANCH   1   8
BRANCH   5  18
ATOM     18  C   UNL     1      44.533 127.131  23.706  1.00  0.00     0.188 A 
ATOM     19  C   UNL     1      43.549 127.552  24.615  1.00  0.00     0.075 A 
ATOM     20  N   UNL     1      44.943 127.982  22.717  1.00  0.00    -0.205 N 
ATOM     21  C   UNL     1      42.999 128.827  24.503  1.00  0.00     0.021 A 
ATOM     22  C   UNL     1      44.420 129.238  22.583  1.00  0.00     0.247 A 
ATOM     23  C   UNL     1      43.428 129.684  23.486  1.00  0.00     0.049 A 
ATOM     24  C   UNL     1      44.858 130.096  21.557  1.00  0.00     0.197 A 
ATOM     25  C   UNL     1      42.887 130.969  23.352  1.00  0.00     0.015 A 
ATOM     26  C   UNL     1      44.318 131.388  21.434  1.00  0.00    -0.008 A 
ATOM     27  C   UNL     1      43.326 131.813  22.331  1.00  0.00     0.007 A 
ATOM     28  H   UNL     1      45.677 127.662  22.045  1.00  0.00     0.454 HD
ATOM     29  F   UNL     1      45.805 129.678  20.677  1.00  0.00    -0.199 F 
ATOM     30  C   UNL     1      44.773 132.293  20.325  1.00  0.00     0.048 C 
ENDBRANCH   5  18
TORSDOF 3
ENDMDL
MODEL 3
REMARK VINA RESULT:      -5.7      5.760      8.654
REMARK SMILES Cc1ccoc1NC(=O)N1CCC[C@H](c2ccc3ccc(C)c(F)c3[nH+]2)[C@H]1F
REMARK SMILES IDX 10 1 11 2 12 3 13 4 14 5 27 6 28 7 8 8 7 9 9 11 6 12 2 13
REMARK SMILES IDX 3 14 4 15 5 16 1 17 15 18 16 19 26 20 17 21 25 22 18 23
REMARK SMILES IDX 23 24 19 25 21 26 20 27 24 29 22 30
REMARK H PARENT 7 10 26 28
ROOT
ATOM      1  N   UNL     1      46.996 124.465  22.751  1.00  0.00    -0.293 N 
ATOM      2  C   UNL     1      46.234 123.334  23.292  1.00  0.00     0.124 C 
ATOM      3  C   UNL     1      45.597 123.744  24.624  1.00  0.00     0.023 C 
ATOM      4  C   UNL     1      44.781 125.038  24.473  1.00  0.00     0.021 C 
ATOM      5  C   UNL     1      45.637 126.172  23.867  1.00  0.00     0.140 C 
ATOM      6  C   UNL     1      46.257 125.716  22.533  1.00  0.00     0.280 C 
ATOM      7  F   UNL     1      47.075 126.706  22.010  1.00  0.00    -0.223 F 
ENDROOT
BRANCH   1   8
ATOM      8  C   UNL     1      48.430 124.388  22.668  1.00  0.00     0.326 C 
ATOM      9  N   UNL     1      49.068 123.235  22.097  1.00  0.00    -0.278 N 
ATOM     10  H   UNL     1      48.480 122.536  21.593  1.00  0.00     0.175 HD
ATOM     11  O   UNL     1      49.124 125.366  23.061  1.00  0.00    -0.248 OA
BRANCH   9  12
ATOM     12  C   UNL     1      50.484 123.016  22.153  1.00  0.00     0.203 A 
ATOM     13  C   UNL     1      51.393 123.396  21.185  1.00  0.00     0.013 A 
ATOM     14  C   UNL     1      52.627 122.984  21.645  1.00  0.00     0.047 A 
ATOM     15  C   UNL     1      52.390 122.377  22.864  1.00  0.00     0.198 A 
ATOM     16  O   UNL     1      51.105 122.412  23.141  1.00  0.00    -0.448 OA
ATOM     17  C   UNL     1      51.108 124.103  19.900  1.00  0.00     0.050 C 
ENDBRANCH   9  12
ENDBRANCH   1   8
BRANCH   5  18
ATOM     18  C   UNL     1      44.825 127.441  23.696  1.00  0.00     0.188 A 
ATOM     19  C   UNL     1      43.817 127.753  24.623  1.00  0.00     0.075 A 
ATOM     20  N   UNL     1      45.064 128.291  22.651  1.00  0.00    -0.205 N 
ATOM     21  C   UNL     1      43.072 128.920  24.472  1.00  0.00     0.021 A 
ATOM     22  C   UNL     1      44.347 129.442  22.479  1.00  0.00     0.247 A 
ATOM     23  C   UNL     1      43.327 129.777  23.398  1.00  0.00     0.049 A 
ATOM     24  C   UNL     1      44.611 130.301  21.396  1.00  0.00     0.197 A 
ATOM     25  C   UNL     1      42.587 130.954  23.225  1.00  0.00     0.015 A 
ATOM     26  C   UNL     1      43.872 131.486  21.233  1.00  0.00    -0.008 A 
ATOM     27  C   UNL     1      42.856 131.800  22.148  1.00  0.00     0.007 A 
ATOM     28  H   UNL     1      45.817 128.052  21.967  1.00  0.00     0.454 HD
ATOM     29  F   UNL     1      45.583 129.987  20.499  1.00  0.00    -0.199 F 
ATOM     30  C   UNL     1      44.143 132.388  20.064  1.00  0.00     0.048 C 
ENDBRANCH   5  18
TORSDOF 3
ENDMDL
MODEL 4
REMARK VINA RESULT:      -5.7      5.596      8.532
REMARK SMILES Cc1ccoc1NC(=O)N1CCC[C@H](c2ccc3ccc(C)c(F)c3[nH+]2)[C@H]1F
REMARK SMILES IDX 10 1 11 2 12 3 13 4 14 5 27 6 28 7 8 8 7 9 9 11 6 12 2 13
REMARK SMILES IDX 3 14 4 15 5 16 1 17 15 18 16 19 26 20 17 21 25 22 18 23
REMARK SMILES IDX 23 24 19 25 21 26 20 27 24 29 22 30
REMARK H PARENT 7 10 26 28
ROOT
ATOM      1  N   UNL     1      46.456 123.994  22.001  1.00  0.00    -0.293 N 
ATOM      2  C   UNL     1      45.357 123.033  21.856  1.00  0.00     0.124 C 
ATOM      3  C   UNL     1      44.351 123.240  22.994  1.00  0.00     0.023 C 
ATOM      4  C   UNL     1      43.898 124.708  23.072  1.00  0.00     0.021 C 
ATOM      5  C   UNL     1      45.108 125.661  23.186  1.00  0.00     0.140 C 
ATOM      6  C   UNL     1      46.091 125.416  22.027  1.00  0.00     0.280 C 
ATOM      7  F   UNL     1      47.209 126.228  22.153  1.00  0.00    -0.223 F 
ENDROOT
BRANCH   1   8
ATOM      8  C   UNL     1      47.778 123.528  22.326  1.00  0.00     0.326 C 
ATOM      9  N   UNL     1      48.919 124.379  22.137  1.00  0.00    -0.278 N 
ATOM     10  H   UNL     1      48.761 125.388  21.926  1.00  0.00     0.175 HD
ATOM     11  O   UNL     1      47.922 122.377  22.822  1.00  0.00    -0.248 OA
BRANCH   9  12
ATOM     12  C   UNL     1      50.271 123.915  22.265  1.00  0.00     0.203 A 
ATOM     13  C   UNL     1      51.171 123.771  21.228  1.00  0.00     0.013 A 
ATOM     14  C   UNL     1      52.333 123.297  21.801  1.00  0.00     0.047 A 
ATOM     15  C   UNL     1      52.065 123.181  23.153  1.00  0.00     0.198 A 
ATOM     16  O   UNL     1      50.829 123.557  23.399  1.00  0.00    -0.448 OA
ATOM     17  C   UNL     1      50.941 124.061  19.780  1.00  0.00     0.050 C 
ENDBRANCH   9  12
ENDBRANCH   1   8
BRANCH   5  18
ATOM     18  C   UNL     1      44.662 127.110  23.239  1.00  0.00     0.188 A 
ATOM     19  C   UNL     1      43.867 127.555  24.308  1.00  0.00     0.075 A 
ATOM     20  N   UNL     1      45.028 127.993  22.260  1.00  0.00    -0.205 N 
ATOM     21  C   UNL     1      43.458 128.885  24.363  1.00  0.00     0.021 A 
ATOM     22  C   UNL     1      44.640 129.303  22.289  1.00  0.00     0.247 A 
ATOM     23  C   UNL     1      43.839 129.774  23.354  1.00  0.00     0.049 A 
ATOM     24  C   UNL     1      45.028 130.192  21.269  1.00  0.00     0.197 A 
ATOM     25  C   UNL     1      43.436 131.115  23.387  1.00  0.00     0.015 A 
ATOM     26  C   UNL     1      44.629 131.540  21.313  1.00  0.00    -0.008 A 
ATOM     27  C   UNL     1      43.826 131.990  22.371  1.00  0.00     0.007 A 
ATOM     28  H   UNL     1      45.620 127.654  21.469  1.00  0.00     0.454 HD
ATOM     29  F   UNL     1      45.791 129.751  20.235  1.00  0.00    -0.199 F 
ATOM     30  C   UNL     1      45.028 132.480  20.213  1.00  0.00     0.048 C 
ENDBRANCH   5  18
TORSDOF 3
ENDMDL
MODEL 5
REMARK VINA RESULT:      -5.5      1.549      1.953
REMARK SMILES Cc1ccoc1NC(=O)N1CCC[C@H](c2ccc3ccc(C)c(F)c3[nH+]2)[C@H]1F
REMARK SMILES IDX 10 1 11 2 12 3 13 4 14 5 27 6 28 7 8 8 7 9 9 11 6 12 2 13
REMARK SMILES IDX 3 14 4 15 5 16 1 17 15 18 16 19 26 20 17 21 25 22 18 23
REMARK SMILES IDX 23 24 19 25 21 26 20 27 24 29 22 30
REMARK H PARENT 7 10 26 28
ROOT
ATOM      1  N   UNL     1      43.826 130.640  22.847  1.00  0.00    -0.293 N 
ATOM      2  C   UNL     1      44.408 131.816  23.503  1.00  0.00     0.124 C 
ATOM      3  C   UNL     1      45.744 132.159  22.835  1.00  0.00     0.023 C 
ATOM      4  C   UNL     1      45.582 132.303  21.313  1.00  0.00     0.021 C 
ATOM      5  C   UNL     1      44.932 131.044  20.698  1.00  0.00     0.140 C 
ATOM      6  C   UNL     1      43.596 130.738  21.400  1.00  0.00     0.280 C 
ATOM      7  F   UNL     1      43.033 129.575  20.894  1.00  0.00    -0.223 F 
ENDROOT
BRANCH   1   8
ATOM      8  C   UNL     1      43.713 129.400  23.567  1.00  0.00     0.326 C 
ATOM      9  N   UNL     1      44.418 128.231  23.122  1.00  0.00    -0.278 N 
ATOM     10  H   UNL     1      45.141 128.335  22.377  1.00  0.00     0.175 HD
ATOM     11  O   UNL     1      43.023 129.359  24.622  1.00  0.00    -0.248 OA
BRANCH   9  12
ATOM     12  C   UNL     1      44.204 126.927  23.682  1.00  0.00     0.203 A 
ATOM     13  C   UNL     1      45.184 126.113  24.214  1.00  0.00     0.013 A 
ATOM     14  C   UNL     1      44.537 124.964  24.624  1.00  0.00     0.047 A 
ATOM     15  C   UNL     1      43.203 125.154  24.314  1.00  0.00     0.198 A 
ATOM     16  O   UNL     1      43.036 126.332  23.754  1.00  0.00    -0.448 OA
ATOM     17  C   UNL     1      46.646 126.403  24.323  1.00  0.00     0.050 C 
ENDBRANCH   9  12
ENDBRANCH   1   8
BRANCH   5  18
ATOM     18  C   UNL     1      44.749 131.197  19.200  1.00  0.00     0.188 A 
ATOM     19  C   UNL     1      43.627 131.878  18.701  1.00  0.00     0.075 A 
ATOM     20  N   UNL     1      45.668 130.682  18.326  1.00  0.00    -0.205 N 
ATOM     21  C   UNL     1      43.458 132.023  17.326  1.00  0.00     0.021 A 
ATOM     22  C   UNL     1      45.526 130.811  16.972  1.00  0.00     0.247 A 
ATOM     23  C   UNL     1      44.404 131.491  16.446  1.00  0.00     0.049 A 
ATOM     24  C   UNL     1      46.484 130.273  16.093  1.00  0.00     0.197 A 
ATOM     25  C   UNL     1      44.252 131.622  15.060  1.00  0.00     0.015 A 
ATOM     26  C   UNL     1      46.331 130.416  14.703  1.00  0.00    -0.008 A 
ATOM     27  C   UNL     1      45.207 131.086  14.195  1.00  0.00     0.007 A 
ATOM     28  H   UNL     1      46.501 130.179  18.706  1.00  0.00     0.454 HD
ATOM     29  F   UNL     1      47.563 129.609  16.584  1.00  0.00    -0.199 F 
ATOM     30  C   UNL     1      47.345 129.823  13.767  1.00  0.00     0.048 C 
ENDBRANCH   5  18
TORSDOF 3
ENDMDL
MODEL 6
REMARK VINA RESULT:      -5.4      6.408      9.331
REMARK SMILES Cc1ccoc1NC(=O)N1CCC[C@H](c2ccc3ccc(C)c(F)c3[nH+]2)[C@H]1F
REMARK SMILES IDX 10 1 11 2 12 3 13 4 14 5 27 6 28 7 8 8 7 9 9 11 6 12 2 13
REMARK SMILES IDX 3 14 4 15 5 16 1 17 15 18 16 19 26 20 17 21 25 22 18 23
REMARK SMILES IDX 23 24 19 25 21 26 20 27 24 29 22 30
REMARK H PARENT 7 10 26 28
ROOT
ATOM      1  N   UNL     1      47.873 123.932  22.368  1.00  0.00    -0.293 N 
ATOM      2  C   UNL     1      47.326 122.690  22.925  1.00  0.00     0.124 C 
ATOM      3  C   UNL     1      46.765 122.966  24.324  1.00  0.00     0.023 C 
ATOM      4  C   UNL     1      45.769 124.137  24.300  1.00  0.00     0.021 C 
ATOM      5  C   UNL     1      46.402 125.397  23.670  1.00  0.00     0.140 C 
ATOM      6  C   UNL     1      46.952 125.072  22.269  1.00  0.00     0.280 C 
ATOM      7  F   UNL     1      47.575 126.183  21.718  1.00  0.00    -0.223 F 
ENDROOT
BRANCH   1   8
ATOM      8  C   UNL     1      49.290 124.060  22.156  1.00  0.00     0.326 C 
ATOM      9  N   UNL     1      50.045 122.975  21.594  1.00  0.00    -0.278 N 
ATOM     10  H   UNL     1      49.529 122.165  21.186  1.00  0.00     0.175 HD
ATOM     11  O   UNL     1      49.859 125.152  22.428  1.00  0.00    -0.248 OA
BRANCH   9  12
ATOM     12  C   UNL     1      51.478 122.970  21.529  1.00  0.00     0.203 A 
ATOM     13  C   UNL     1      52.230 123.121  20.381  1.00  0.00     0.013 A 
ATOM     14  C   UNL     1      53.548 123.045  20.782  1.00  0.00     0.047 A 
ATOM     15  C   UNL     1      53.514 122.851  22.150  1.00  0.00     0.198 A 
ATOM     16  O   UNL     1      52.268 122.811  22.567  1.00  0.00    -0.448 OA
ATOM     17  C   UNL     1      51.728 123.320  18.988  1.00  0.00     0.050 C 
ENDBRANCH   9  12
ENDBRANCH   1   8
BRANCH   5  18
ATOM     18  C   UNL     1      45.411 126.545  23.624  1.00  0.00     0.188 A 
ATOM     19  C   UNL     1      44.324 126.561  24.513  1.00  0.00     0.075 A 
ATOM     20  N   UNL     1      45.565 127.569  22.730  1.00  0.00    -0.205 N 
ATOM     21  C   UNL     1      43.414 127.615  24.478  1.00  0.00     0.021 A 
ATOM     22  C   UNL     1      44.687 128.615  22.674  1.00  0.00     0.247 A 
ATOM     23  C   UNL     1      43.584 128.653  23.557  1.00  0.00     0.049 A 
ATOM     24  C   UNL     1      44.865 129.657  21.745  1.00  0.00     0.197 A 
ATOM     25  C   UNL     1      42.679 129.721  23.502  1.00  0.00     0.015 A 
ATOM     26  C   UNL     1      43.960 130.731  21.700  1.00  0.00    -0.008 A 
ATOM     27  C   UNL     1      42.864 130.750  22.577  1.00  0.00     0.007 A 
ATOM     28  H   UNL     1      46.378 127.550  22.074  1.00  0.00     0.454 HD
ATOM     29  F   UNL     1      45.916 129.629  20.883  1.00  0.00    -0.199 F 
ATOM     30  C   UNL     1      44.142 131.830  20.694  1.00  0.00     0.048 C 
ENDBRANCH   5  18
TORSDOF 3
ENDMDL
MODEL 7
REMARK VINA RESULT:      -5.4      2.917      3.752
REMARK SMILES Cc1ccoc1NC(=O)N1CCC[C@H](c2ccc3ccc(C)c(F)c3[nH+]2)[C@H]1F
REMARK SMILES IDX 10 1 11 2 12 3 13 4 14 5 27 6 28 7 8 8 7 9 9 11 6 12 2 13
REMARK SMILES IDX 3 14 4 15 5 16 1 17 15 18 16 19 26 20 17 21 25 22 18 23
REMARK SMILES IDX 23 24 19 25 21 26 20 27 24 29 22 30
REMARK H PARENT 7 10 26 28
ROOT
ATOM      1  N   UNL     1      44.562 128.851  22.900  1.00  0.00    -0.293 N 
ATOM      2  C   UNL     1      44.031 129.839  23.846  1.00  0.00     0.124 C 
ATOM      3  C   UNL     1      44.648 131.210  23.543  1.00  0.00     0.023 C 
ATOM      4  C   UNL     1      44.459 131.588  22.065  1.00  0.00     0.021 C 
ATOM      5  C   UNL     1      45.008 130.487  21.131  1.00  0.00     0.140 C 
ATOM      6  C   UNL     1      44.364 129.130  21.472  1.00  0.00     0.280 C 
ATOM      7  F   UNL     1      44.893 128.124  20.677  1.00  0.00    -0.223 F 
ENDROOT
BRANCH   1   8
ATOM      8  C   UNL     1      45.421 127.797  23.371  1.00  0.00     0.326 C 
ATOM      9  N   UNL     1      46.101 126.940  22.442  1.00  0.00    -0.278 N 
ATOM     10  H   UNL     1      46.100 127.197  21.431  1.00  0.00     0.175 HD
ATOM     11  O   UNL     1      45.607 127.661  24.612  1.00  0.00    -0.248 OA
BRANCH   9  12
ATOM     12  C   UNL     1      46.819 125.764  22.843  1.00  0.00     0.203 A 
ATOM     13  C   UNL     1      46.259 124.525  23.083  1.00  0.00     0.013 A 
ATOM     14  C   UNL     1      47.305 123.702  23.447  1.00  0.00     0.047 A 
ATOM     15  C   UNL     1      48.437 124.495  23.406  1.00  0.00     0.198 A 
ATOM     16  O   UNL     1      48.116 125.718  23.042  1.00  0.00    -0.448 OA
ATOM     17  C   UNL     1      44.817 124.145  22.979  1.00  0.00     0.050 C 
ENDBRANCH   9  12
ENDBRANCH   1   8
BRANCH   5  18
ATOM     18  C   UNL     1      44.800 130.850  19.674  1.00  0.00     0.188 A 
ATOM     19  C   UNL     1      43.707 131.651  19.305  1.00  0.00     0.075 A 
ATOM     20  N   UNL     1      45.668 130.410  18.711  1.00  0.00    -0.205 N 
ATOM     21  C   UNL     1      43.515 131.989  17.967  1.00  0.00     0.021 A 
ATOM     22  C   UNL     1      45.502 130.727  17.391  1.00  0.00     0.247 A 
ATOM     23  C   UNL     1      44.409 131.531  16.995  1.00  0.00     0.049 A 
ATOM     24  C   UNL     1      46.407 130.263  16.419  1.00  0.00     0.197 A 
ATOM     25  C   UNL     1      44.232 131.857  15.645  1.00  0.00     0.015 A 
ATOM     26  C   UNL     1      46.231 130.601  15.066  1.00  0.00    -0.008 A 
ATOM     27  C   UNL     1      45.135 131.392  14.687  1.00  0.00     0.007 A 
ATOM     28  H   UNL     1      46.479 129.816  18.994  1.00  0.00     0.454 HD
ATOM     29  F   UNL     1      47.458 129.482  16.785  1.00  0.00    -0.199 F 
ATOM     30  C   UNL     1      47.187 130.087  14.030  1.00  0.00     0.048 C 
ENDBRANCH   5  18
TORSDOF 3
ENDMDL
MODEL 8
REMARK VINA RESULT:      -4.8      3.439      4.523
REMARK SMILES Cc1ccoc1NC(=O)N1CCC[C@H](c2ccc3ccc(C)c(F)c3[nH+]2)[C@H]1F
REMARK SMILES IDX 10 1 11 2 12 3 13 4 14 5 27 6 28 7 8 8 7 9 9 11 6 12 2 13
REMARK SMILES IDX 3 14 4 15 5 16 1 17 15 18 16 19 26 20 17 21 25 22 18 23
REMARK SMILES IDX 23 24 19 25 21 26 20 27 24 29 22 30
REMARK H PARENT 7 10 26 28
ROOT
ATOM      1  N   UNL     1      44.688 128.125  23.482  1.00  0.00    -0.293 N 
ATOM      2  C   UNL     1      44.099 128.936  24.553  1.00  0.00     0.124 C 
ATOM      3  C   UNL     1      44.590 130.382  24.421  1.00  0.00     0.023 C 
ATOM      4  C   UNL     1      44.335 130.927  23.006  1.00  0.00     0.021 C 
ATOM      5  C   UNL     1      44.952 130.005  21.932  1.00  0.00     0.140 C 
ATOM      6  C   UNL     1      44.433 128.565  22.104  1.00  0.00     0.280 C 
ATOM      7  F   UNL     1      45.026 127.717  21.180  1.00  0.00    -0.223 F 
ENDROOT
BRANCH   1   8
ATOM      8  C   UNL     1      45.644 127.099  23.803  1.00  0.00     0.326 C 
ATOM      9  N   UNL     1      46.963 127.127  23.235  1.00  0.00    -0.278 N 
ATOM     10  H   UNL     1      47.272 127.985  22.728  1.00  0.00     0.175 HD
ATOM     11  O   UNL     1      45.328 126.196  24.625  1.00  0.00    -0.248 OA
BRANCH   9  12
ATOM     12  C   UNL     1      47.894 126.044  23.366  1.00  0.00     0.203 A 
ATOM     13  C   UNL     1      47.886 124.884  22.617  1.00  0.00     0.013 A 
ATOM     14  C   UNL     1      48.944 124.128  23.081  1.00  0.00     0.047 A 
ATOM     15  C   UNL     1      49.529 124.878  24.085  1.00  0.00     0.198 A 
ATOM     16  O   UNL     1      48.882 126.014  24.231  1.00  0.00    -0.448 OA
ATOM     17  C   UNL     1      46.930 124.511  21.531  1.00  0.00     0.050 C 
ENDBRANCH   9  12
ENDBRANCH   1   8
BRANCH   5  18
ATOM     18  C   UNL     1      44.679 130.530  20.535  1.00  0.00     0.188 A 
ATOM     19  C   UNL     1      43.573 131.364  20.309  1.00  0.00     0.075 A 
ATOM     20  N   UNL     1      45.501 130.204  19.491  1.00  0.00    -0.205 N 
ATOM     21  C   UNL     1      43.320 131.852  19.029  1.00  0.00     0.021 A 
ATOM     22  C   UNL     1      45.276 130.668  18.225  1.00  0.00     0.247 A 
ATOM     23  C   UNL     1      44.168 131.509  17.972  1.00  0.00     0.049 A 
ATOM     24  C   UNL     1      46.135 130.319  17.166  1.00  0.00     0.197 A 
ATOM     25  C   UNL     1      43.932 131.985  16.676  1.00  0.00     0.015 A 
ATOM     26  C   UNL     1      45.898 130.808  15.869  1.00  0.00    -0.008 A 
ATOM     27  C   UNL     1      44.788 131.633  15.632  1.00  0.00     0.007 A 
ATOM     28  H   UNL     1      46.323 129.584  19.668  1.00  0.00     0.454 HD
ATOM     29  F   UNL     1      47.199 129.504  17.392  1.00  0.00    -0.199 F 
ATOM     30  C   UNL     1      46.805 130.416  14.739  1.00  0.00     0.048 C 
ENDBRANCH   5  18
TORSDOF 3
ENDMDL
MODEL 9
REMARK VINA RESULT:      -4.8      2.382      3.032
REMARK SMILES Cc1ccoc1NC(=O)N1CCC[C@H](c2ccc3ccc(C)c(F)c3[nH+]2)[C@H]1F
REMARK SMILES IDX 10 1 11 2 12 3 13 4 14 5 27 6 28 7 8 8 7 9 9 11 6 12 2 13
REMARK SMILES IDX 3 14 4 15 5 16 1 17 15 18 16 19 26 20 17 21 25 22 18 23
REMARK SMILES IDX 23 24 19 25 21 26 20 27 24 29 22 30
REMARK H PARENT 7 10 26 28
ROOT
ATOM      1  N   UNL     1      44.275 129.568  22.885  1.00  0.00    -0.293 N 
ATOM      2  C   UNL     1      44.014 130.770  23.684  1.00  0.00     0.124 C 
ATOM      3  C   UNL     1      44.902 131.915  23.181  1.00  0.00     0.023 C 
ATOM      4  C   UNL     1      44.738 132.118  21.666  1.00  0.00     0.021 C 
ATOM      5  C   UNL     1      44.993 130.805  20.894  1.00  0.00     0.140 C 
ATOM      6  C   UNL     1      44.083 129.686  21.433  1.00  0.00     0.280 C 
ATOM      7  F   UNL     1      44.345 128.487  20.786  1.00  0.00    -0.223 F 
ENDROOT
BRANCH   1   8
ATOM      8  C   UNL     1      44.903 128.425  23.493  1.00  0.00     0.326 C 
ATOM      9  N   UNL     1      44.955 127.168  22.802  1.00  0.00    -0.278 N 
ATOM     10  H   UNL     1      44.688 127.139  21.794  1.00  0.00     0.175 HD
ATOM     11  O   UNL     1      45.448 128.550  24.624  1.00  0.00    -0.248 OA
BRANCH   9  12
ATOM     12  C   UNL     1      45.397 125.952  23.422  1.00  0.00     0.203 A 
ATOM     13  C   UNL     1      46.629 125.357  23.234  1.00  0.00     0.013 A 
ATOM     14  C   UNL     1      46.619 124.217  24.011  1.00  0.00     0.047 A 
ATOM     15  C   UNL     1      45.380 124.190  24.623  1.00  0.00     0.198 A 
ATOM     16  O   UNL     1      44.674 125.236  24.253  1.00  0.00    -0.448 OA
ATOM     17  C   UNL     1      47.745 125.839  22.365  1.00  0.00     0.050 C 
ENDBRANCH   9  12
ENDBRANCH   1   8
BRANCH   5  18
ATOM     18  C   UNL     1      44.807 131.001  19.402  1.00  0.00     0.188 A 
ATOM     19  C   UNL     1      43.684 131.696  18.925  1.00  0.00     0.075 A 
ATOM     20  N   UNL     1      45.725 130.512  18.511  1.00  0.00    -0.205 N 
ATOM     21  C   UNL     1      43.512 131.881  17.555  1.00  0.00     0.021 A 
ATOM     22  C   UNL     1      45.580 130.679  17.162  1.00  0.00     0.247 A 
ATOM     23  C   UNL     1      44.457 131.374  16.658  1.00  0.00     0.049 A 
ATOM     24  C   UNL     1      46.536 130.167  16.266  1.00  0.00     0.197 A 
ATOM     25  C   UNL     1      44.302 131.546  15.277  1.00  0.00     0.015 A 
ATOM     26  C   UNL     1      46.380 130.351  14.881  1.00  0.00    -0.008 A 
ATOM     27  C   UNL     1      45.255 131.034  14.395  1.00  0.00     0.007 A 
ATOM     28  H   UNL     1      46.558 129.998  18.875  1.00  0.00     0.454 HD
ATOM     29  F   UNL     1      47.616 129.489  16.736  1.00  0.00    -0.199 F 
ATOM     30  C   UNL     1      47.392 129.785  13.927  1.00  0.00     0.048 C 
ENDBRANCH   5  18
TORSDOF 3
ENDMDL


