REMARK SMILES C#Cc1c[nH+]cc(Nc2cc(C=C)cc(-c3ccc4cc[nH]c(=O)c4c3)c2[O-])c1
REMARK SMILES IDX 8 1 7 3 3 4 4 5 29 6 5 7 6 8 2 10 1 11 9 12 10 13 27 14
REMARK SMILES IDX 11 15 15 16 14 17 28 18 12 19 13 20 16 21 17 22 26 23 18 24
REMARK SMILES IDX 25 25 19 26 23 27 20 28 22 29 21 30 24 31
REMARK H PARENT 8 2 5 9 22 32
ROOT
ATOM      1  N   UNL     1       1.209  -1.639  -2.447  1.00  0.00    -0.351 N 
ATOM      2  H   UNL     1       1.897  -2.330  -2.069  1.00  0.00     0.167 HD
ENDROOT
BRANCH   1   3
ATOM      3  C   UNL     1       1.262  -1.338  -3.852  1.00  0.00     0.105 A 
ATOM      4  C   UNL     1       0.956   0.177  -5.723  1.00  0.00     0.090 A 
ATOM      5  C   UNL     1       1.452  -0.811  -6.579  1.00  0.00     0.323 A 
ATOM      6  C   UNL     1       0.869  -0.086  -4.353  1.00  0.00     0.056 A 
ATOM      7  N   UNL     1       1.851  -2.011  -6.077  1.00  0.00    -0.215 N 
ATOM      8  C   UNL     1       1.773  -2.289  -4.747  1.00  0.00     0.332 A 
ATOM      9  H   UNL     1       2.227  -2.737  -6.728  1.00  0.00     0.453 HD
BRANCH   4  10
ATOM     10  C   UNL     1       0.548   1.455  -6.246  1.00  0.00    -0.064 C 
ATOM     11  C   UNL     1       0.205   2.525  -6.683  1.00  0.00     0.010 C 
ENDBRANCH   4  10
ENDBRANCH   1   3
BRANCH   1  12
ATOM     12  C   UNL     1       0.267  -1.054  -1.530  1.00  0.00     0.032 A 
ATOM     13  C   UNL     1      -1.057  -0.804  -1.927  1.00  0.00     0.033 A 
ATOM     14  C   UNL     1       0.652  -0.792  -0.205  1.00  0.00    -0.077 A 
ATOM     15  C   UNL     1      -1.992  -0.274  -1.028  1.00  0.00    -0.024 A 
ATOM     16  C   UNL     1      -0.268  -0.234   0.705  1.00  0.00    -0.024 A 
ATOM     17  C   UNL     1      -1.584   0.022   0.285  1.00  0.00     0.016 A 
ATOM     18  O   UNL     1       1.948  -1.092   0.204  1.00  0.00    -0.871 OA
BRANCH  15  19
ATOM     19  C   UNL     1      -3.372  -0.018  -1.511  1.00  0.00     0.000 C 
ATOM     20  C   UNL     1      -4.429   0.133  -0.712  1.00  0.00     0.009 C 
ENDBRANCH  15  19
BRANCH  16  21
ATOM     21  C   UNL     1       0.131   0.088   2.096  1.00  0.00    -0.018 A 
ATOM     22  C   UNL     1      -0.652  -0.353   3.175  1.00  0.00     0.009 A 
ATOM     23  C   UNL     1       1.281   0.856   2.350  1.00  0.00     0.023 A 
ATOM     24  C   UNL     1      -0.290  -0.048   4.488  1.00  0.00     0.009 A 
ATOM     25  C   UNL     1       1.656   1.169   3.670  1.00  0.00     0.048 A 
ATOM     26  C   UNL     1       0.861   0.710   4.745  1.00  0.00    -0.011 A 
ATOM     27  C   UNL     1       2.806   1.934   3.954  1.00  0.00     0.255 A 
ATOM     28  C   UNL     1       1.230   1.020   6.059  1.00  0.00     0.027 A 
ATOM     29  N   UNL     1       3.133   2.216   5.247  1.00  0.00    -0.329 N 
ATOM     30  C   UNL     1       2.377   1.778   6.289  1.00  0.00     0.086 A 
ATOM     31  O   UNL     1       3.540   2.362   3.022  1.00  0.00    -0.269 OA
ATOM     32  H   UNL     1       3.987   2.783   5.450  1.00  0.00     0.169 HD
ENDBRANCH  16  21
ENDBRANCH   1  12
TORSDOF 5


