MODEL 1
REMARK VINA RESULT:      -4.8      0.000      0.000
REMARK SMILES C[C@H]1C[C@@H](c2cccc3ncoc23)[C@H]([NH2+]c2cccc(N)c2[O-])[C@@H](O)[C@@H]1F
REMARK SMILES IDX 15 1 14 4 2 5 3 6 26 7 4 8 24 9 1 10 27 11 5 12 6 13 13 14
REMARK SMILES IDX 7 15 12 16 9 17 8 18 11 19 10 20 25 21 16 23 17 24 22 25
REMARK SMILES IDX 18 26 20 27 19 28 23 29 21 30
REMARK H PARENT 15 2 15 3 25 22 21 31 21 32
ROOT
ATOM      1  N   UNL     1      43.650 128.675  24.304  1.00  0.00    -0.309 N 
ATOM      2  H   UNL     1      43.334 129.272  25.102  1.00  0.00     0.352 HD
ATOM      3  H   UNL     1      44.462 128.123  24.665  1.00  0.00     0.352 HD
ENDROOT
BRANCH   1   4
ATOM      4  C   UNL     1      42.565 127.745  23.876  1.00  0.00     0.227 C 
ATOM      5  C   UNL     1      40.255 125.961  24.595  1.00  0.00     0.024 C 
ATOM      6  C   UNL     1      41.587 125.379  24.099  1.00  0.00     0.021 C 
ATOM      7  C   UNL     1      40.033 127.354  23.983  1.00  0.00     0.204 C 
ATOM      8  C   UNL     1      42.771 126.303  24.452  1.00  0.00     0.085 C 
ATOM      9  C   UNL     1      41.190 128.307  24.334  1.00  0.00     0.207 C 
ATOM     10  C   UNL     1      39.100 125.016  24.239  1.00  0.00     0.011 C 
ATOM     11  F   UNL     1      38.847 127.887  24.464  1.00  0.00    -0.244 F 
BRANCH   8  12
ATOM     12  C   UNL     1      44.058 125.640  23.991  1.00  0.00     0.006 A 
ATOM     13  C   UNL     1      45.304 126.033  24.535  1.00  0.00     0.008 A 
ATOM     14  C   UNL     1      44.081 124.593  23.057  1.00  0.00     0.158 A 
ATOM     15  C   UNL     1      46.504 125.416  24.113  1.00  0.00     0.003 A 
ATOM     16  O   UNL     1      43.091 124.026  22.423  1.00  0.00    -0.443 OA
ATOM     17  C   UNL     1      45.240 124.002  22.653  1.00  0.00     0.109 A 
ATOM     18  C   UNL     1      46.479 124.387  23.155  1.00  0.00     0.032 A 
ATOM     19  C   UNL     1      43.631 123.107  21.641  1.00  0.00     0.309 A 
ATOM     20  N   UNL     1      44.984 123.047  21.744  1.00  0.00    -0.217 NA
ENDBRANCH   8  12
BRANCH   9  21
ATOM     21  O   UNL     1      40.961 129.545  23.707  1.00  0.00    -0.384 OA
ATOM     22  H   UNL     1      40.004 129.771  23.849  1.00  0.00     0.211 HD
ENDBRANCH   9  21
ENDBRANCH   1   4
BRANCH   1  23
ATOM     23  C   UNL     1      44.070 129.582  23.256  1.00  0.00     0.124 A 
ATOM     24  C   UNL     1      43.655 130.926  23.278  1.00  0.00     0.067 A 
ATOM     25  C   UNL     1      44.857 129.128  22.174  1.00  0.00    -0.022 A 
ATOM     26  C   UNL     1      44.076 131.816  22.289  1.00  0.00     0.008 A 
ATOM     27  C   UNL     1      45.287 130.030  21.182  1.00  0.00     0.029 A 
ATOM     28  C   UNL     1      44.899 131.374  21.253  1.00  0.00     0.025 A 
ATOM     29  O   UNL     1      45.204 127.783  22.080  1.00  0.00    -0.867 OA
BRANCH  27  30
ATOM     30  N   UNL     1      46.117 129.588  20.102  1.00  0.00    -0.399 N 
ATOM     31  H   UNL     1      47.072 129.209  20.285  1.00  0.00     0.156 HD
ATOM     32  H   UNL     1      45.786 129.626  19.112  1.00  0.00     0.156 HD
ENDBRANCH  27  30
ENDBRANCH   1  23
TORSDOF 5
ENDMDL


