REMARK SMILES Nc1cc(F)c[nH]/c1=N\c1ccc2[nH+]c(Nc3cc4cccc(F)c4[n-]3)cn2c1
REMARK SMILES IDX 10 1 11 2 12 3 13 4 28 5 29 6 27 7 15 8 14 9 9 11 8 12 3 13
REMARK SMILES IDX 4 14 2 15 6 16 7 17 5 18 1 20 16 23 17 25 26 26 18 27 25 28
REMARK SMILES IDX 19 29 23 30 20 31 22 32 21 33 24 34
REMARK H PARENT 14 10 7 19 1 21 1 22 16 24
ROOT
ATOM      1  C   UNL     1       1.188  -2.251  -0.116  1.00  0.00     0.097 A 
ATOM      2  C   UNL     1       2.063  -2.179   0.988  1.00  0.00     0.038 A 
ATOM      3  C   UNL     1       1.844  -1.246   2.015  1.00  0.00     0.083 A 
ATOM      4  C   UNL     1       0.728  -0.419   1.908  1.00  0.00     0.230 A 
ATOM      5  N   UNL     1      -0.112  -0.522   0.864  1.00  0.00    -0.231 N 
ATOM      6  C   UNL     1       0.055  -1.411  -0.147  1.00  0.00     0.196 A 
ATOM      7  C   UNL     1      -1.093   0.373   1.069  1.00  0.00     0.248 A 
ATOM      8  C   UNL     1      -0.798   1.022   2.263  1.00  0.00     0.256 A 
ATOM      9  N   UNL     1       0.336   0.514   2.796  1.00  0.00    -0.243 N 
ATOM     10  H   UNL     1       0.793   0.775   3.697  1.00  0.00     0.267 HD
ENDROOT
BRANCH   1  11
ATOM     11  N   UNL     1       1.398  -3.258  -1.116  1.00  0.00    -0.226 NA
BRANCH  11  12
ATOM     12  C   UNL     1       1.373  -3.106  -2.413  1.00  0.00     0.154 A 
ATOM     13  C   UNL     1       1.465  -4.082  -4.630  1.00  0.00     0.070 A 
ATOM     14  C   UNL     1       1.339  -2.810  -5.183  1.00  0.00     0.141 A 
ATOM     15  C   UNL     1       1.490  -4.244  -3.240  1.00  0.00     0.078 A 
ATOM     16  C   UNL     1       1.249  -1.704  -4.341  1.00  0.00     0.123 A 
ATOM     17  N   UNL     1       1.274  -1.865  -2.990  1.00  0.00    -0.342 N 
ATOM     18  F   UNL     1       1.317  -2.648  -6.529  1.00  0.00    -0.205 F 
ATOM     19  H   UNL     1       1.253  -0.997  -2.411  1.00  0.00     0.168 HD
BRANCH  15  20
ATOM     20  N   UNL     1       1.622  -5.560  -2.685  1.00  0.00    -0.396 N 
ATOM     21  H   UNL     1       1.639  -5.721  -1.654  1.00  0.00     0.156 HD
ATOM     22  H   UNL     1       1.704  -6.394  -3.309  1.00  0.00     0.156 HD
ENDBRANCH  15  20
ENDBRANCH  11  12
ENDBRANCH   1  11
BRANCH   8  23
ATOM     23  N   UNL     1      -1.607   2.004   2.925  1.00  0.00    -0.274 N 
ATOM     24  H   UNL     1      -1.496   2.112   3.958  1.00  0.00     0.263 HD
BRANCH  23  25
ATOM     25  C   UNL     1      -2.565   2.841   2.263  1.00  0.00     0.087 A 
ATOM     26  N   UNL     1      -3.581   3.442   2.929  1.00  0.00    -0.402 NA
ATOM     27  C   UNL     1      -2.525   3.208   0.919  1.00  0.00     0.047 A 
ATOM     28  C   UNL     1      -4.203   4.175   1.988  1.00  0.00     0.005 A 
ATOM     29  C   UNL     1      -3.592   4.059   0.766  1.00  0.00    -0.016 A 
ATOM     30  C   UNL     1      -5.321   4.989   2.166  1.00  0.00     0.127 A 
ATOM     31  C   UNL     1      -4.049   4.745  -0.357  1.00  0.00     0.008 A 
ATOM     32  C   UNL     1      -5.813   5.692   1.050  1.00  0.00     0.039 A 
ATOM     33  C   UNL     1      -5.178   5.571  -0.206  1.00  0.00     0.004 A 
ATOM     34  F   UNL     1      -5.918   5.102   3.378  1.00  0.00    -0.207 F 
ENDBRANCH  23  25
ENDBRANCH   8  23
TORSDOF 5


