REMARK SMILES Cc1cc(-c2cccc3ncoc23)cc(O)c1F
REMARK SMILES IDX 1 1 2 2 3 3 4 4 14 5 15 6 17 7 18 8 5 9 6 10 13 11 7 12
REMARK SMILES IDX 12 13 9 14 8 15 11 16 10 17 16 18
REMARK H PARENT 16 19
ROOT
ATOM      1  C   UNL     1       0.084   1.032   3.439  1.00  0.00     0.048 C 
ATOM      2  C   UNL     1      -0.424   0.830   2.040  1.00  0.00    -0.011 A 
ATOM      3  C   UNL     1       0.009  -0.270   1.283  1.00  0.00     0.015 A 
ATOM      4  C   UNL     1      -0.436  -0.451  -0.038  1.00  0.00    -0.010 A 
ATOM      5  C   UNL     1      -1.321   0.488  -0.595  1.00  0.00     0.058 A 
ATOM      6  C   UNL     1      -1.747   1.594   0.147  1.00  0.00     0.152 A 
ATOM      7  C   UNL     1      -1.294   1.769   1.463  1.00  0.00     0.167 A 
ATOM      8  F   UNL     1      -1.699   2.850   2.178  1.00  0.00    -0.203 F 
ENDROOT
BRANCH   4   9
ATOM      9  C   UNL     1       0.019  -1.621  -0.829  1.00  0.00     0.027 A 
ATOM     10  C   UNL     1       0.120  -2.909  -0.250  1.00  0.00     0.013 A 
ATOM     11  C   UNL     1       0.375  -1.509  -2.180  1.00  0.00     0.162 A 
ATOM     12  C   UNL     1       0.554  -4.014  -1.017  1.00  0.00     0.003 A 
ATOM     13  O   UNL     1       0.396  -0.449  -2.944  1.00  0.00    -0.443 OA
ATOM     14  C   UNL     1       0.793  -2.577  -2.916  1.00  0.00     0.110 A 
ATOM     15  C   UNL     1       0.897  -3.853  -2.371  1.00  0.00     0.032 A 
ATOM     16  C   UNL     1       0.814  -0.861  -4.129  1.00  0.00     0.309 A 
ATOM     17  N   UNL     1       1.081  -2.192  -4.171  1.00  0.00    -0.217 NA
ENDBRANCH   4   9
BRANCH   6  18
ATOM     18  O   UNL     1      -2.621   2.509  -0.438  1.00  0.00    -0.505 OA
ATOM     19  H   UNL     1      -2.957   3.324   0.062  1.00  0.00     0.293 HD
ENDBRANCH   6  18
TORSDOF 2


