MODEL 1
REMARK VINA RESULT:      -9.9      0.000      0.000
REMARK SMILES Cc1ccc(-c2cc(F)c3ncccc3c2O)c(F)n1
REMARK SMILES IDX 6 1 7 2 8 3 9 4 10 5 11 6 12 7 13 8 14 9 15 10 16 11 5 12
REMARK SMILES IDX 2 13 3 14 20 15 4 16 18 17 1 18 19 19 17 20
REMARK H PARENT 17 21
ROOT
ATOM      1  C   UNL     1      44.700 131.234  17.795  1.00  0.00     0.032 A 
ATOM      2  C   UNL     1      43.407 131.757  17.632  1.00  0.00     0.054 A 
ATOM      3  C   UNL     1      42.611 132.051  18.740  1.00  0.00     0.150 A 
ATOM      4  F   UNL     1      41.362 132.547  18.554  1.00  0.00    -0.205 F 
ATOM      5  C   UNL     1      43.096 131.828  20.030  1.00  0.00     0.110 A 
ATOM      6  N   UNL     1      42.316 132.110  21.109  1.00  0.00    -0.253 NA
ATOM      7  C   UNL     1      42.749 131.913  22.380  1.00  0.00     0.112 A 
ATOM      8  C   UNL     1      44.030 131.410  22.613  1.00  0.00     0.021 A 
ATOM      9  C   UNL     1      44.858 131.111  21.530  1.00  0.00     0.016 A 
ATOM     10  C   UNL     1      44.402 131.314  20.217  1.00  0.00     0.046 A 
ATOM     11  C   UNL     1      45.212 131.028  19.100  1.00  0.00     0.133 A 
ENDROOT
BRANCH   1  12
ATOM     12  C   UNL     1      45.486 130.901  16.589  1.00  0.00     0.041 A 
ATOM     13  C   UNL     1      47.003 130.285  14.334  1.00  0.00     0.041 A 
ATOM     14  C   UNL     1      46.472 129.250  15.112  1.00  0.00     0.024 A 
ATOM     15  N   UNL     1      46.791 131.580  14.697  1.00  0.00    -0.225 NA
ATOM     16  C   UNL     1      45.713 129.562  16.242  1.00  0.00     0.015 A 
ATOM     17  C   UNL     1      46.055 131.910  15.793  1.00  0.00     0.221 A 
ATOM     18  C   UNL     1      47.832 129.976  13.129  1.00  0.00     0.067 C 
ATOM     19  F   UNL     1      45.890 133.218  16.115  1.00  0.00    -0.184 F 
ENDBRANCH   1  12
BRANCH  11  20
ATOM     20  O   UNL     1      46.517 130.566  19.302  1.00  0.00    -0.507 OA
ATOM     21  H   UNL     1      46.866 130.268  20.204  1.00  0.00     0.293 HD
ENDBRANCH  11  20
TORSDOF 2
ENDMDL
MODEL 2
REMARK VINA RESULT:      -9.9      1.191      1.506
REMARK SMILES Cc1ccc(-c2cc(F)c3ncccc3c2O)c(F)n1
REMARK SMILES IDX 6 1 7 2 8 3 9 4 10 5 11 6 12 7 13 8 14 9 15 10 16 11 5 12
REMARK SMILES IDX 2 13 3 14 20 15 4 16 18 17 1 18 19 19 17 20
REMARK H PARENT 17 21
ROOT
ATOM      1  C   UNL     1      44.687 131.422  17.977  1.00  0.00     0.032 A 
ATOM      2  C   UNL     1      43.364 131.874  17.852  1.00  0.00     0.054 A 
ATOM      3  C   UNL     1      42.569 132.074  18.982  1.00  0.00     0.150 A 
ATOM      4  F   UNL     1      41.291 132.503  18.833  1.00  0.00    -0.205 F 
ATOM      5  C   UNL     1      43.086 131.826  20.255  1.00  0.00     0.110 A 
ATOM      6  N   UNL     1      42.306 132.016  21.354  1.00  0.00    -0.253 NA
ATOM      7  C   UNL     1      42.770 131.792  22.611  1.00  0.00     0.112 A 
ATOM      8  C   UNL     1      44.082 131.356  22.806  1.00  0.00     0.021 A 
ATOM      9  C   UNL     1      44.909 131.153  21.701  1.00  0.00     0.016 A 
ATOM     10  C   UNL     1      44.422 131.383  20.404  1.00  0.00     0.046 A 
ATOM     11  C   UNL     1      45.230 131.192  19.265  1.00  0.00     0.133 A 
ENDROOT
BRANCH   1  12
ATOM     12  C   UNL     1      45.473 131.187  16.747  1.00  0.00     0.041 A 
ATOM     13  C   UNL     1      46.922 130.725  14.413  1.00  0.00     0.041 A 
ATOM     14  C   UNL     1      46.525 132.029  14.732  1.00  0.00     0.024 A 
ATOM     15  N   UNL     1      46.580 129.695  15.234  1.00  0.00    -0.225 NA
ATOM     16  C   UNL     1      45.798 132.256  15.902  1.00  0.00     0.015 A 
ATOM     17  C   UNL     1      45.873 129.890  16.380  1.00  0.00     0.221 A 
ATOM     18  C   UNL     1      47.688 130.454  13.158  1.00  0.00     0.067 C 
ATOM     19  F   UNL     1      45.547 128.823  17.151  1.00  0.00    -0.184 F 
ENDBRANCH   1  12
BRANCH  11  20
ATOM     20  O   UNL     1      46.563 130.800  19.430  1.00  0.00    -0.507 OA
ATOM     21  H   UNL     1      47.325 131.185  18.887  1.00  0.00     0.293 HD
ENDBRANCH  11  20
TORSDOF 2
ENDMDL
MODEL 3
REMARK VINA RESULT:      -9.3      1.785      2.351
REMARK SMILES Cc1ccc(-c2cc(F)c3ncccc3c2O)c(F)n1
REMARK SMILES IDX 6 1 7 2 8 3 9 4 10 5 11 6 12 7 13 8 14 9 15 10 16 11 5 12
REMARK SMILES IDX 2 13 3 14 20 15 4 16 18 17 1 18 19 19 17 20
REMARK H PARENT 17 21
ROOT
ATOM      1  C   UNL     1      45.161 131.041  17.722  1.00  0.00     0.032 A 
ATOM      2  C   UNL     1      45.815 130.604  18.885  1.00  0.00     0.054 A 
ATOM      3  C   UNL     1      45.247 130.811  20.143  1.00  0.00     0.150 A 
ATOM      4  F   UNL     1      45.905 130.388  21.252  1.00  0.00    -0.205 F 
ATOM      5  C   UNL     1      44.015 131.457  20.258  1.00  0.00     0.110 A 
ATOM      6  N   UNL     1      43.467 131.663  21.486  1.00  0.00    -0.253 NA
ATOM      7  C   UNL     1      42.268 132.282  21.644  1.00  0.00     0.112 A 
ATOM      8  C   UNL     1      41.558 132.727  20.527  1.00  0.00     0.021 A 
ATOM      9  C   UNL     1      42.090 132.531  19.252  1.00  0.00     0.016 A 
ATOM     10  C   UNL     1      43.332 131.892  19.097  1.00  0.00     0.046 A 
ATOM     11  C   UNL     1      43.898 131.674  17.825  1.00  0.00     0.133 A 
ENDROOT
BRANCH   1  12
ATOM     12  C   UNL     1      45.824 130.834  16.417  1.00  0.00     0.041 A 
ATOM     13  C   UNL     1      47.109 130.459  13.973  1.00  0.00     0.041 A 
ATOM     14  C   UNL     1      46.757 129.346  14.746  1.00  0.00     0.024 A 
ATOM     15  N   UNL     1      46.839 131.711  14.432  1.00  0.00    -0.225 NA
ATOM     16  C   UNL     1      46.115 129.537  15.971  1.00  0.00     0.015 A 
ATOM     17  C   UNL     1      46.212 131.925  15.620  1.00  0.00     0.221 A 
ATOM     18  C   UNL     1      47.812 130.279  12.666  1.00  0.00     0.067 C 
ATOM     19  F   UNL     1      45.983 133.197  16.033  1.00  0.00    -0.184 F 
ENDBRANCH   1  12
BRANCH  11  20
ATOM     20  O   UNL     1      43.189 132.067  16.684  1.00  0.00    -0.507 OA
ATOM     21  H   UNL     1      42.584 131.443  16.166  1.00  0.00     0.293 HD
ENDBRANCH  11  20
TORSDOF 2
ENDMDL
MODEL 4
REMARK VINA RESULT:      -8.9      2.164      2.787
REMARK SMILES Cc1ccc(-c2cc(F)c3ncccc3c2O)c(F)n1
REMARK SMILES IDX 6 1 7 2 8 3 9 4 10 5 11 6 12 7 13 8 14 9 15 10 16 11 5 12
REMARK SMILES IDX 2 13 3 14 20 15 4 16 18 17 1 18 19 19 17 20
REMARK H PARENT 17 21
ROOT
ATOM      1  C   UNL     1      45.123 131.139  17.702  1.00  0.00     0.032 A 
ATOM      2  C   UNL     1      45.815 130.656  18.823  1.00  0.00     0.054 A 
ATOM      3  C   UNL     1      45.283 130.799  20.106  1.00  0.00     0.150 A 
ATOM      4  F   UNL     1      45.976 130.330  21.174  1.00  0.00    -0.205 F 
ATOM      5  C   UNL     1      44.048 131.426  20.287  1.00  0.00     0.110 A 
ATOM      6  N   UNL     1      43.535 131.569  21.539  1.00  0.00    -0.253 NA
ATOM      7  C   UNL     1      42.337 132.168  21.760  1.00  0.00     0.112 A 
ATOM      8  C   UNL     1      41.590 132.658  20.686  1.00  0.00     0.021 A 
ATOM      9  C   UNL     1      42.086 132.526  19.388  1.00  0.00     0.016 A 
ATOM     10  C   UNL     1      43.328 131.908  19.168  1.00  0.00     0.046 A 
ATOM     11  C   UNL     1      43.858 131.754  17.871  1.00  0.00     0.133 A 
ENDROOT
BRANCH   1  12
ATOM     12  C   UNL     1      45.749 131.000  16.370  1.00  0.00     0.041 A 
ATOM     13  C   UNL     1      46.892 130.730  13.843  1.00  0.00     0.041 A 
ATOM     14  C   UNL     1      46.798 131.999  14.426  1.00  0.00     0.024 A 
ATOM     15  N   UNL     1      46.407 129.645  14.506  1.00  0.00    -0.225 NA
ATOM     16  C   UNL     1      46.224 132.131  15.691  1.00  0.00     0.015 A 
ATOM     17  C   UNL     1      45.844 129.747  15.741  1.00  0.00     0.221 A 
ATOM     18  C   UNL     1      47.488 130.565  12.482  1.00  0.00     0.067 C 
ATOM     19  F   UNL     1      45.363 128.632  16.347  1.00  0.00    -0.184 F 
ENDBRANCH   1  12
BRANCH  11  20
ATOM     20  O   UNL     1      43.113 132.193  16.771  1.00  0.00    -0.507 OA
ATOM     21  H   UNL     1      42.915 133.169  16.590  1.00  0.00     0.293 HD
ENDBRANCH  11  20
TORSDOF 2
ENDMDL
MODEL 5
REMARK VINA RESULT:      -8.0      1.234      6.182
REMARK SMILES Cc1ccc(-c2cc(F)c3ncccc3c2O)c(F)n1
REMARK SMILES IDX 6 1 7 2 8 3 9 4 10 5 11 6 12 7 13 8 14 9 15 10 16 11 5 12
REMARK SMILES IDX 2 13 3 14 20 15 4 16 18 17 1 18 19 19 17 20
REMARK H PARENT 17 21
ROOT
ATOM      1  C   UNL     1      44.380 131.312  17.808  1.00  0.00     0.032 A 
ATOM      2  C   UNL     1      43.548 131.788  16.782  1.00  0.00     0.054 A 
ATOM      3  C   UNL     1      43.928 131.668  15.444  1.00  0.00     0.150 A 
ATOM      4  F   UNL     1      43.109 132.144  14.472  1.00  0.00    -0.205 F 
ATOM      5  C   UNL     1      45.144 131.069  15.111  1.00  0.00     0.110 A 
ATOM      6  N   UNL     1      45.513 130.960  13.806  1.00  0.00    -0.253 NA
ATOM      7  C   UNL     1      46.685 130.381  13.437  1.00  0.00     0.112 A 
ATOM      8  C   UNL     1      47.551 129.873  14.407  1.00  0.00     0.021 A 
ATOM      9  C   UNL     1      47.203 129.967  15.755  1.00  0.00     0.016 A 
ATOM     10  C   UNL     1      45.990 130.571  16.129  1.00  0.00     0.046 A 
ATOM     11  C   UNL     1      45.604 130.680  17.481  1.00  0.00     0.133 A 
ENDROOT
BRANCH   1  12
ATOM     12  C   UNL     1      43.952 131.500  19.210  1.00  0.00     0.041 A 
ATOM     13  C   UNL     1      43.117 131.823  21.849  1.00  0.00     0.041 A 
ATOM     14  C   UNL     1      44.386 131.292  21.586  1.00  0.00     0.024 A 
ATOM     15  N   UNL     1      42.298 132.157  20.815  1.00  0.00    -0.225 NA
ATOM     16  C   UNL     1      44.800 131.130  20.263  1.00  0.00     0.015 A 
ATOM     17  C   UNL     1      42.679 132.011  19.517  1.00  0.00     0.221 A 
ATOM     18  C   UNL     1      42.645 131.991  23.258  1.00  0.00     0.067 C 
ATOM     19  F   UNL     1      41.813 132.346  18.528  1.00  0.00    -0.184 F 
ENDBRANCH   1  12
BRANCH  11  20
ATOM     20  O   UNL     1      46.429 130.139  18.473  1.00  0.00    -0.507 OA
ATOM     21  H   UNL     1      46.865 130.698  19.196  1.00  0.00     0.293 HD
ENDBRANCH  11  20
TORSDOF 2
ENDMDL
MODEL 6
REMARK VINA RESULT:      -7.9      1.295      1.382
REMARK SMILES Cc1ccc(-c2cc(F)c3ncccc3c2O)c(F)n1
REMARK SMILES IDX 6 1 7 2 8 3 9 4 10 5 11 6 12 7 13 8 14 9 15 10 16 11 5 12
REMARK SMILES IDX 2 13 3 14 20 15 4 16 18 17 1 18 19 19 17 20
REMARK H PARENT 17 21
ROOT
ATOM      1  C   UNL     1      44.246 131.394  18.628  1.00  0.00     0.032 A 
ATOM      2  C   UNL     1      43.041 132.113  18.670  1.00  0.00     0.054 A 
ATOM      3  C   UNL     1      42.398 132.359  19.884  1.00  0.00     0.150 A 
ATOM      4  F   UNL     1      41.229 133.048  19.895  1.00  0.00    -0.205 F 
ATOM      5  C   UNL     1      42.951 131.891  21.077  1.00  0.00     0.110 A 
ATOM      6  N   UNL     1      42.319 132.127  22.259  1.00  0.00    -0.253 NA
ATOM      7  C   UNL     1      42.824 131.695  23.443  1.00  0.00     0.112 A 
ATOM      8  C   UNL     1      44.027 130.987  23.474  1.00  0.00     0.021 A 
ATOM      9  C   UNL     1      44.703 130.729  22.281  1.00  0.00     0.016 A 
ATOM     10  C   UNL     1      44.173 131.176  21.059  1.00  0.00     0.046 A 
ATOM     11  C   UNL     1      44.830 130.937  19.835  1.00  0.00     0.133 A 
ENDROOT
BRANCH   1  12
ATOM     12  C   UNL     1      44.865 131.125  17.313  1.00  0.00     0.041 A 
ATOM     13  C   UNL     1      46.038 130.658  14.830  1.00  0.00     0.041 A 
ATOM     14  C   UNL     1      46.718 130.284  15.996  1.00  0.00     0.024 A 
ATOM     15  N   UNL     1      44.822 131.263  14.922  1.00  0.00    -0.225 NA
ATOM     16  C   UNL     1      46.128 130.521  17.238  1.00  0.00     0.015 A 
ATOM     17  C   UNL     1      44.225 131.503  16.120  1.00  0.00     0.221 A 
ATOM     18  C   UNL     1      46.657 130.429  13.488  1.00  0.00     0.067 C 
ATOM     19  F   UNL     1      43.019 132.124  16.150  1.00  0.00    -0.184 F 
ENDBRANCH   1  12
BRANCH  11  20
ATOM     20  O   UNL     1      46.060 130.271  19.838  1.00  0.00    -0.507 OA
ATOM     21  H   UNL     1      46.902 130.664  20.240  1.00  0.00     0.293 HD
ENDBRANCH  11  20
TORSDOF 2
ENDMDL


