MODEL 1
REMARK VINA RESULT:      -9.7      0.000      0.000
REMARK SMILES c1cc(-c2ccc([C@H]3CO3)cn2)c2occc2c1
REMARK SMILES IDX 4 1 5 2 6 3 7 4 11 5 12 6 3 7 1 8 2 9 18 10 17 11 13 12
REMARK SMILES IDX 16 13 14 14 15 15 8 16 9 17 10 18
REMARK H PARENT
ROOT
ATOM      1  C   UNL     1      45.454 131.003  17.461  1.00  0.00     0.074 A 
ATOM      2  C   UNL     1      45.426 132.090  16.571  1.00  0.00     0.029 A 
ATOM      3  C   UNL     1      45.864 131.917  15.256  1.00  0.00     0.010 A 
ATOM      4  C   UNL     1      46.343 130.671  14.835  1.00  0.00     0.001 A 
ATOM      5  C   UNL     1      46.348 129.608  15.745  1.00  0.00     0.118 A 
ATOM      6  N   UNL     1      45.916 129.799  17.020  1.00  0.00    -0.256 NA
ENDROOT
BRANCH   1   7
ATOM      7  C   UNL     1      45.001 131.137  18.868  1.00  0.00     0.043 A 
ATOM      8  C   UNL     1      45.360 130.891  21.291  1.00  0.00     0.002 A 
ATOM      9  C   UNL     1      45.813 130.742  19.961  1.00  0.00     0.014 A 
ATOM     10  C   UNL     1      44.095 131.441  21.557  1.00  0.00     0.012 A 
ATOM     11  C   UNL     1      43.318 131.830  20.472  1.00  0.00     0.021 A 
ATOM     12  C   UNL     1      43.748 131.688  19.179  1.00  0.00     0.143 A 
ATOM     13  C   UNL     1      42.062 132.387  20.423  1.00  0.00     0.050 A 
ATOM     14  O   UNL     1      42.829 132.122  18.349  1.00  0.00    -0.464 OA
ATOM     15  C   UNL     1      41.805 132.549  19.066  1.00  0.00     0.196 A 
ENDBRANCH   1   7
BRANCH   4  16
ATOM     16  C   UNL     1      46.784 130.468  13.416  1.00  0.00     0.176 C 
ATOM     17  C   UNL     1      48.007 131.193  13.002  1.00  0.00     0.198 C 
ATOM     18  O   UNL     1      48.037 129.828  13.346  1.00  0.00    -0.368 OA
ENDBRANCH   4  16
TORSDOF 2
ENDMDL
MODEL 2
REMARK VINA RESULT:      -9.6      0.651      1.133
REMARK SMILES c1cc(-c2ccc([C@H]3CO3)cn2)c2occc2c1
REMARK SMILES IDX 4 1 5 2 6 3 7 4 11 5 12 6 3 7 1 8 2 9 18 10 17 11 13 12
REMARK SMILES IDX 16 13 14 14 15 15 8 16 9 17 10 18
REMARK H PARENT
ROOT
ATOM      1  C   UNL     1      45.437 130.966  17.394  1.00  0.00     0.074 A 
ATOM      2  C   UNL     1      45.755 129.706  16.861  1.00  0.00     0.029 A 
ATOM      3  C   UNL     1      46.169 129.603  15.531  1.00  0.00     0.010 A 
ATOM      4  C   UNL     1      46.248 130.749  14.731  1.00  0.00     0.001 A 
ATOM      5  C   UNL     1      45.931 131.989  15.297  1.00  0.00     0.118 A 
ATOM      6  N   UNL     1      45.533 132.066  16.594  1.00  0.00    -0.256 NA
ENDROOT
BRANCH   1   7
ATOM      7  C   UNL     1      44.991 131.127  18.801  1.00  0.00     0.043 A 
ATOM      8  C   UNL     1      45.362 130.928  21.226  1.00  0.00     0.002 A 
ATOM      9  C   UNL     1      45.809 130.755  19.897  1.00  0.00     0.014 A 
ATOM     10  C   UNL     1      44.098 131.480  21.488  1.00  0.00     0.012 A 
ATOM     11  C   UNL     1      43.314 131.846  20.399  1.00  0.00     0.021 A 
ATOM     12  C   UNL     1      43.738 131.680  19.107  1.00  0.00     0.143 A 
ATOM     13  C   UNL     1      42.057 132.400  20.345  1.00  0.00     0.050 A 
ATOM     14  O   UNL     1      42.814 132.097  18.274  1.00  0.00    -0.464 OA
ATOM     15  C   UNL     1      41.792 132.535  18.987  1.00  0.00     0.196 A 
ENDBRANCH   1   7
BRANCH   4  16
ATOM     16  C   UNL     1      46.723 130.653  13.312  1.00  0.00     0.176 C 
ATOM     17  C   UNL     1      48.012 131.315  13.008  1.00  0.00     0.198 C 
ATOM     18  O   UNL     1      47.925 129.924  13.212  1.00  0.00    -0.368 OA
ENDBRANCH   4  16
TORSDOF 2
ENDMDL
MODEL 3
REMARK VINA RESULT:      -8.7      1.128      2.252
REMARK SMILES c1cc(-c2ccc([C@H]3CO3)cn2)c2occc2c1
REMARK SMILES IDX 4 1 5 2 6 3 7 4 11 5 12 6 3 7 1 8 2 9 18 10 17 11 13 12
REMARK SMILES IDX 16 13 14 14 15 15 8 16 9 17 10 18
REMARK H PARENT
ROOT
ATOM      1  C   UNL     1      44.591 131.295  16.878  1.00  0.00     0.074 A 
ATOM      2  C   UNL     1      44.099 131.641  15.607  1.00  0.00     0.029 A 
ATOM      3  C   UNL     1      44.834 131.308  14.468  1.00  0.00     0.010 A 
ATOM      4  C   UNL     1      46.063 130.649  14.594  1.00  0.00     0.001 A 
ATOM      5  C   UNL     1      46.519 130.313  15.873  1.00  0.00     0.118 A 
ATOM      6  N   UNL     1      45.786 130.645  16.968  1.00  0.00    -0.256 NA
ENDROOT
BRANCH   1   7
ATOM      7  C   UNL     1      43.848 131.629  18.118  1.00  0.00     0.043 A 
ATOM      8  C   UNL     1      41.833 132.423  19.288  1.00  0.00     0.002 A 
ATOM      9  C   UNL     1      42.520 132.123  18.090  1.00  0.00     0.014 A 
ATOM     10  C   UNL     1      42.452 132.230  20.534  1.00  0.00     0.012 A 
ATOM     11  C   UNL     1      43.752 131.736  20.539  1.00  0.00     0.021 A 
ATOM     12  C   UNL     1      44.427 131.444  19.384  1.00  0.00     0.143 A 
ATOM     13  C   UNL     1      44.598 131.450  21.586  1.00  0.00     0.050 A 
ATOM     14  O   UNL     1      45.630 131.002  19.664  1.00  0.00    -0.464 OA
ATOM     15  C   UNL     1      45.762 130.994  20.979  1.00  0.00     0.196 A 
ENDBRANCH   1   7
BRANCH   4  16
ATOM     16  C   UNL     1      46.843 130.259  13.374  1.00  0.00     0.176 C 
ATOM     17  C   UNL     1      47.934 131.177  12.975  1.00  0.00     0.198 C 
ATOM     18  O   UNL     1      48.191 129.987  13.682  1.00  0.00    -0.368 OA
ENDBRANCH   4  16
TORSDOF 2
ENDMDL
MODEL 4
REMARK VINA RESULT:      -8.6      1.255      2.437
REMARK SMILES c1cc(-c2ccc([C@H]3CO3)cn2)c2occc2c1
REMARK SMILES IDX 4 1 5 2 6 3 7 4 11 5 12 6 3 7 1 8 2 9 18 10 17 11 13 12
REMARK SMILES IDX 16 13 14 14 15 15 8 16 9 17 10 18
REMARK H PARENT
ROOT
ATOM      1  C   UNL     1      44.531 131.364  16.979  1.00  0.00     0.074 A 
ATOM      2  C   UNL     1      45.772 130.705  17.000  1.00  0.00     0.029 A 
ATOM      3  C   UNL     1      46.433 130.440  15.799  1.00  0.00     0.010 A 
ATOM      4  C   UNL     1      45.852 130.813  14.582  1.00  0.00     0.001 A 
ATOM      5  C   UNL     1      44.620 131.475  14.598  1.00  0.00     0.118 A 
ATOM      6  N   UNL     1      43.995 131.725  15.779  1.00  0.00    -0.256 NA
ENDROOT
BRANCH   1   7
ATOM      7  C   UNL     1      43.789 131.667  18.228  1.00  0.00     0.043 A 
ATOM      8  C   UNL     1      41.779 132.443  19.419  1.00  0.00     0.002 A 
ATOM      9  C   UNL     1      42.465 132.172  18.214  1.00  0.00     0.014 A 
ATOM     10  C   UNL     1      42.396 132.209  20.659  1.00  0.00     0.012 A 
ATOM     11  C   UNL     1      43.692 131.705  20.652  1.00  0.00     0.021 A 
ATOM     12  C   UNL     1      44.366 131.442  19.488  1.00  0.00     0.143 A 
ATOM     13  C   UNL     1      44.535 131.384  21.690  1.00  0.00     0.050 A 
ATOM     14  O   UNL     1      45.565 130.984  19.757  1.00  0.00    -0.464 OA
ATOM     15  C   UNL     1      45.696 130.937  21.071  1.00  0.00     0.196 A 
ENDBRANCH   1   7
BRANCH   4  16
ATOM     16  C   UNL     1      46.570 130.561  13.290  1.00  0.00     0.176 C 
ATOM     17  C   UNL     1      47.869 131.253  13.119  1.00  0.00     0.198 C 
ATOM     18  O   UNL     1      47.797 129.898  13.495  1.00  0.00    -0.368 OA
ENDBRANCH   4  16
TORSDOF 2
ENDMDL
MODEL 5
REMARK VINA RESULT:      -7.4      1.995      6.232
REMARK SMILES c1cc(-c2ccc([C@H]3CO3)cn2)c2occc2c1
REMARK SMILES IDX 4 1 5 2 6 3 7 4 11 5 12 6 3 7 1 8 2 9 18 10 17 11 13 12
REMARK SMILES IDX 16 13 14 14 15 15 8 16 9 17 10 18
REMARK H PARENT
ROOT
ATOM      1  C   UNL     1      45.098 130.907  18.328  1.00  0.00     0.074 A 
ATOM      2  C   UNL     1      45.862 130.422  19.403  1.00  0.00     0.029 A 
ATOM      3  C   UNL     1      45.441 130.660  20.713  1.00  0.00     0.010 A 
ATOM      4  C   UNL     1      44.273 131.393  20.950  1.00  0.00     0.001 A 
ATOM      5  C   UNL     1      43.532 131.855  19.857  1.00  0.00     0.118 A 
ATOM      6  N   UNL     1      43.960 131.609  18.590  1.00  0.00    -0.256 NA
ENDROOT
BRANCH   1   7
ATOM      7  C   UNL     1      45.506 130.682  16.918  1.00  0.00     0.043 A 
ATOM      8  C   UNL     1      47.073 129.815  15.229  1.00  0.00     0.002 A 
ATOM      9  C   UNL     1      46.715 130.025  16.580  1.00  0.00     0.014 A 
ATOM     10  C   UNL     1      46.231 130.249  14.192  1.00  0.00     0.012 A 
ATOM     11  C   UNL     1      45.046 130.885  14.545  1.00  0.00     0.021 A 
ATOM     12  C   UNL     1      44.691 131.094  15.852  1.00  0.00     0.143 A 
ATOM     13  C   UNL     1      44.043 131.409  13.764  1.00  0.00     0.050 A 
ATOM     14  O   UNL     1      43.537 131.715  15.911  1.00  0.00    -0.464 OA
ATOM     15  C   UNL     1      43.122 131.918  14.673  1.00  0.00     0.196 A 
ENDBRANCH   1   7
BRANCH   4  16
ATOM     16  C   UNL     1      43.795 131.625  22.353  1.00  0.00     0.176 C 
ATOM     17  C   UNL     1      42.974 130.546  22.950  1.00  0.00     0.198 C 
ATOM     18  O   UNL     1      44.342 130.688  23.252  1.00  0.00    -0.368 OA
ENDBRANCH   4  16
TORSDOF 2
ENDMDL
MODEL 6
REMARK VINA RESULT:      -7.3      2.079      6.581
REMARK SMILES c1cc(-c2ccc([C@H]3CO3)cn2)c2occc2c1
REMARK SMILES IDX 4 1 5 2 6 3 7 4 11 5 12 6 3 7 1 8 2 9 18 10 17 11 13 12
REMARK SMILES IDX 16 13 14 14 15 15 8 16 9 17 10 18
REMARK H PARENT
ROOT
ATOM      1  C   UNL     1      44.614 131.177  18.140  1.00  0.00     0.074 A 
ATOM      2  C   UNL     1      45.671 130.632  18.890  1.00  0.00     0.029 A 
ATOM      3  C   UNL     1      45.620 130.671  20.285  1.00  0.00     0.010 A 
ATOM      4  C   UNL     1      44.530 131.266  20.930  1.00  0.00     0.001 A 
ATOM      5  C   UNL     1      43.492 131.792  20.153  1.00  0.00     0.118 A 
ATOM      6  N   UNL     1      43.561 131.741  18.797  1.00  0.00    -0.256 NA
ENDROOT
BRANCH   1   7
ATOM      7  C   UNL     1      44.623 131.161  16.656  1.00  0.00     0.043 A 
ATOM      8  C   UNL     1      43.625 131.728  14.479  1.00  0.00     0.002 A 
ATOM      9  C   UNL     1      43.586 131.750  15.891  1.00  0.00     0.014 A 
ATOM     10  C   UNL     1      44.701 131.128  13.804  1.00  0.00     0.012 A 
ATOM     11  C   UNL     1      45.712 130.563  14.573  1.00  0.00     0.021 A 
ATOM     12  C   UNL     1      45.682 130.578  15.942  1.00  0.00     0.143 A 
ATOM     13  C   UNL     1      46.867 129.917  14.200  1.00  0.00     0.050 A 
ATOM     14  O   UNL     1      46.745 129.978  16.422  1.00  0.00    -0.464 OA
ATOM     15  C   UNL     1      47.477 129.571  15.400  1.00  0.00     0.196 A 
ENDBRANCH   1   7
BRANCH   4  16
ATOM     16  C   UNL     1      44.451 131.283  22.428  1.00  0.00     0.176 C 
ATOM     17  C   UNL     1      43.220 130.714  23.023  1.00  0.00     0.198 C 
ATOM     18  O   UNL     1      44.420 129.980  22.963  1.00  0.00    -0.368 OA
ENDBRANCH   4  16
TORSDOF 2
ENDMDL
MODEL 7
REMARK VINA RESULT:      -7.3      1.395      2.412
REMARK SMILES c1cc(-c2ccc([C@H]3CO3)cn2)c2occc2c1
REMARK SMILES IDX 4 1 5 2 6 3 7 4 11 5 12 6 3 7 1 8 2 9 18 10 17 11 13 12
REMARK SMILES IDX 16 13 14 14 15 15 8 16 9 17 10 18
REMARK H PARENT
ROOT
ATOM      1  C   UNL     1      44.336 131.271  17.832  1.00  0.00     0.074 A 
ATOM      2  C   UNL     1      43.855 131.559  16.544  1.00  0.00     0.029 A 
ATOM      3  C   UNL     1      44.586 131.149  15.426  1.00  0.00     0.010 A 
ATOM      4  C   UNL     1      45.799 130.471  15.593  1.00  0.00     0.001 A 
ATOM      5  C   UNL     1      46.243 130.193  16.890  1.00  0.00     0.118 A 
ATOM      6  N   UNL     1      45.515 130.599  17.963  1.00  0.00    -0.256 NA
ENDROOT
BRANCH   1   7
ATOM      7  C   UNL     1      43.596 131.687  19.050  1.00  0.00     0.043 A 
ATOM      8  C   UNL     1      41.772 132.907  20.165  1.00  0.00     0.002 A 
ATOM      9  C   UNL     1      42.462 132.535  18.990  1.00  0.00     0.014 A 
ATOM     10  C   UNL     1      42.193 132.436  21.419  1.00  0.00     0.012 A 
ATOM     11  C   UNL     1      43.302 131.599  21.456  1.00  0.00     0.021 A 
ATOM     12  C   UNL     1      43.979 131.234  20.323  1.00  0.00     0.143 A 
ATOM     13  C   UNL     1      43.934 130.995  22.518  1.00  0.00     0.050 A 
ATOM     14  O   UNL     1      44.984 130.450  20.632  1.00  0.00    -0.464 OA
ATOM     15  C   UNL     1      44.983 130.287  21.943  1.00  0.00     0.196 A 
ENDBRANCH   1   7
BRANCH   4  16
ATOM     16  C   UNL     1      46.574 129.998  14.399  1.00  0.00     0.176 C 
ATOM     17  C   UNL     1      46.651 130.938  13.257  1.00  0.00     0.198 C 
ATOM     18  O   UNL     1      47.714 130.793  14.169  1.00  0.00    -0.368 OA
ENDBRANCH   4  16
TORSDOF 2
ENDMDL
MODEL 8
REMARK VINA RESULT:      -7.3      1.952      6.147
REMARK SMILES c1cc(-c2ccc([C@H]3CO3)cn2)c2occc2c1
REMARK SMILES IDX 4 1 5 2 6 3 7 4 11 5 12 6 3 7 1 8 2 9 18 10 17 11 13 12
REMARK SMILES IDX 16 13 14 14 15 15 8 16 9 17 10 18
REMARK H PARENT
ROOT
ATOM      1  C   UNL     1      45.179 130.905  18.330  1.00  0.00     0.074 A 
ATOM      2  C   UNL     1      44.093 131.727  18.675  1.00  0.00     0.029 A 
ATOM      3  C   UNL     1      43.764 131.909  20.020  1.00  0.00     0.010 A 
ATOM      4  C   UNL     1      44.503 131.261  21.016  1.00  0.00     0.001 A 
ATOM      5  C   UNL     1      45.583 130.456  20.638  1.00  0.00     0.118 A 
ATOM      6  N   UNL     1      45.886 130.294  19.323  1.00  0.00    -0.256 NA
ENDROOT
BRANCH   1   7
ATOM      7  C   UNL     1      45.566 130.679  16.915  1.00  0.00     0.043 A 
ATOM      8  C   UNL     1      47.112 129.816  15.205  1.00  0.00     0.002 A 
ATOM      9  C   UNL     1      46.774 130.027  16.560  1.00  0.00     0.014 A 
ATOM     10  C   UNL     1      46.252 130.245  14.180  1.00  0.00     0.012 A 
ATOM     11  C   UNL     1      45.069 130.875  14.549  1.00  0.00     0.021 A 
ATOM     12  C   UNL     1      44.734 131.085  15.861  1.00  0.00     0.143 A 
ATOM     13  C   UNL     1      44.052 131.393  13.782  1.00  0.00     0.050 A 
ATOM     14  O   UNL     1      43.578 131.700  15.936  1.00  0.00    -0.464 OA
ATOM     15  C   UNL     1      43.143 131.899  14.704  1.00  0.00     0.196 A 
ENDBRANCH   1   7
BRANCH   4  16
ATOM     16  C   UNL     1      44.178 131.477  22.464  1.00  0.00     0.176 C 
ATOM     17  C   UNL     1      43.044 130.690  23.003  1.00  0.00     0.198 C 
ATOM     18  O   UNL     1      44.381 130.307  23.224  1.00  0.00    -0.368 OA
ENDBRANCH   4  16
TORSDOF 2
ENDMDL
MODEL 9
REMARK VINA RESULT:      -7.1      1.955      6.514
REMARK SMILES c1cc(-c2ccc([C@H]3CO3)cn2)c2occc2c1
REMARK SMILES IDX 4 1 5 2 6 3 7 4 11 5 12 6 3 7 1 8 2 9 18 10 17 11 13 12
REMARK SMILES IDX 16 13 14 14 15 15 8 16 9 17 10 18
REMARK H PARENT
ROOT
ATOM      1  C   UNL     1      44.586 131.232  18.101  1.00  0.00     0.074 A 
ATOM      2  C   UNL     1      43.523 131.835  18.797  1.00  0.00     0.029 A 
ATOM      3  C   UNL     1      43.532 131.850  20.193  1.00  0.00     0.010 A 
ATOM      4  C   UNL     1      44.586 131.252  20.894  1.00  0.00     0.001 A 
ATOM      5  C   UNL     1      45.631 130.668  20.170  1.00  0.00     0.118 A 
ATOM      6  N   UNL     1      45.603 130.667  18.811  1.00  0.00    -0.256 NA
ENDROOT
BRANCH   1   7
ATOM      7  C   UNL     1      44.621 131.190  16.618  1.00  0.00     0.043 A 
ATOM      8  C   UNL     1      43.667 131.725  14.413  1.00  0.00     0.002 A 
ATOM      9  C   UNL     1      43.602 131.772  15.823  1.00  0.00     0.014 A 
ATOM     10  C   UNL     1      44.749 131.104  13.769  1.00  0.00     0.012 A 
ATOM     11  C   UNL     1      45.742 130.545  14.566  1.00  0.00     0.021 A 
ATOM     12  C   UNL     1      45.687 130.585  15.934  1.00  0.00     0.143 A 
ATOM     13  C   UNL     1      46.898 129.884  14.225  1.00  0.00     0.050 A 
ATOM     14  O   UNL     1      46.737 129.985  16.444  1.00  0.00    -0.464 OA
ATOM     15  C   UNL     1      47.483 129.554  15.442  1.00  0.00     0.196 A 
ENDBRANCH   1   7
BRANCH   4  16
ATOM     16  C   UNL     1      44.620 131.292  22.392  1.00  0.00     0.176 C 
ATOM     17  C   UNL     1      43.365 130.917  23.084  1.00  0.00     0.198 C 
ATOM     18  O   UNL     1      44.436 130.012  22.953  1.00  0.00    -0.368 OA
ENDBRANCH   4  16
TORSDOF 2
ENDMDL


