REMARK SMILES [H]/N=c1\c(Nc2ccc3c(c2)nnn3C)cccn1C(=S)Nc1ccccc1
REMARK SMILES IDX 3 1 4 2 16 3 17 4 18 5 19 6 2 7 1 8 5 9 6 11 7 12 11 13 8 14
REMARK SMILES IDX 10 15 9 16 12 17 14 18 13 19 15 20 20 21 22 22 21 23 23 25
REMARK SMILES IDX 24 26 28 27 25 28 27 29 26 30
REMARK H PARENT 5 10 22 24
ROOT
ATOM      1  C   UNL     1       1.187  -1.940  -1.644  1.00  0.00     0.155 A 
ATOM      2  C   UNL     1       2.583  -1.918  -1.403  1.00  0.00     0.082 A 
ATOM      3  C   UNL     1       3.267  -3.126  -1.257  1.00  0.00     0.031 A 
ATOM      4  C   UNL     1       2.572  -4.329  -1.294  1.00  0.00     0.021 A 
ATOM      5  C   UNL     1       1.192  -4.319  -1.483  1.00  0.00     0.096 A 
ATOM      6  N   UNL     1       0.516  -3.142  -1.657  1.00  0.00    -0.277 N 
ENDROOT
BRANCH   1   7
ATOM      7  N   UNL     1       0.541  -0.838  -1.898  1.00  0.00    -0.282 NA
ATOM      8  H   UNL     1       0.983   0.106  -1.941  1.00  0.00     0.189 HD
ENDBRANCH   1   7
BRANCH   2   9
ATOM      9  N   UNL     1       3.325  -0.691  -1.325  1.00  0.00    -0.352 N 
ATOM     10  H   UNL     1       4.163  -0.595  -1.942  1.00  0.00     0.167 HD
BRANCH   9  11
ATOM     11  C   UNL     1       3.103   0.312  -0.316  1.00  0.00     0.041 A 
ATOM     12  C   UNL     1       3.766   1.565  -0.427  1.00  0.00     0.028 A 
ATOM     13  C   UNL     1       2.251   0.068   0.794  1.00  0.00     0.058 A 
ATOM     14  C   UNL     1       3.578   2.572   0.539  1.00  0.00     0.032 A 
ATOM     15  C   UNL     1       2.092   1.089   1.723  1.00  0.00     0.115 A 
ATOM     16  C   UNL     1       2.725   2.285   1.600  1.00  0.00     0.089 A 
ATOM     17  N   UNL     1       1.351   1.100   2.847  1.00  0.00    -0.130 NA
ATOM     18  N   UNL     1       2.366   3.035   2.652  1.00  0.00    -0.248 N 
ATOM     19  N   UNL     1       1.540   2.302   3.392  1.00  0.00    -0.066 NA
ATOM     20  C   UNL     1       2.797   4.389   2.974  1.00  0.00     0.176 C 
ENDBRANCH   9  11
ENDBRANCH   2   9
BRANCH   6  21
ATOM     21  C   UNL     1      -0.917  -3.175  -1.834  1.00  0.00     0.183 C 
ATOM     22  N   UNL     1      -1.749  -2.379  -0.973  1.00  0.00    -0.332 N 
ATOM     23  S   UNL     1      -1.596  -4.257  -2.873  1.00  0.00    -0.040 S 
ATOM     24  H   UNL     1      -1.374  -2.144  -0.026  1.00  0.00     0.169 HD
BRANCH  22  25
ATOM     25  C   UNL     1      -3.053  -1.888  -1.324  1.00  0.00     0.040 A 
ATOM     26  C   UNL     1      -3.364  -1.519  -2.646  1.00  0.00     0.026 A 
ATOM     27  C   UNL     1      -4.015  -1.705  -0.319  1.00  0.00     0.026 A 
ATOM     28  C   UNL     1      -4.630  -1.014  -2.958  1.00  0.00     0.002 A 
ATOM     29  C   UNL     1      -5.280  -1.200  -0.634  1.00  0.00     0.002 A 
ATOM     30  C   UNL     1      -5.589  -0.859  -1.953  1.00  0.00     0.000 A 
ENDBRANCH  22  25
ENDBRANCH   6  21
TORSDOF 5


