REMARK SMILES Cc1cc(F)ncc1-c1ccc2cc[nH]c2c1NC(=O)c1cc(F)c[nH]1
REMARK SMILES IDX 9 1 10 2 11 3 12 4 13 5 14 6 15 7 16 8 17 9 8 11 2 12 3 13
REMARK SMILES IDX 4 14 7 15 6 16 1 17 5 18 18 19 19 20 20 22 21 23 22 24 26 25
REMARK SMILES IDX 23 26 25 27 24 29
REMARK H PARENT 15 10 18 21 26 28
ROOT
ATOM      1  C   UNL     1       0.016  -1.833  -0.748  1.00  0.00     0.009 A 
ATOM      2  C   UNL     1       0.401  -2.883  -1.617  1.00  0.00     0.012 A 
ATOM      3  C   UNL     1       1.590  -3.597  -1.398  1.00  0.00     0.011 A 
ATOM      4  C   UNL     1       2.365  -3.248  -0.297  1.00  0.00     0.002 A 
ATOM      5  C   UNL     1       3.529  -3.808   0.182  1.00  0.00     0.028 A 
ATOM      6  C   UNL     1       3.818  -3.103   1.344  1.00  0.00     0.083 A 
ATOM      7  N   UNL     1       2.885  -2.153   1.574  1.00  0.00    -0.359 N 
ATOM      8  C   UNL     1       2.005  -2.240   0.558  1.00  0.00     0.070 A 
ATOM      9  C   UNL     1       0.835  -1.489   0.360  1.00  0.00     0.073 A 
ATOM     10  H   UNL     1       2.851  -1.510   2.395  1.00  0.00     0.166 HD
ENDROOT
BRANCH   1  11
ATOM     11  C   UNL     1      -1.242  -1.107  -1.019  1.00  0.00     0.005 A 
ATOM     12  C   UNL     1      -1.255   0.210  -1.532  1.00  0.00    -0.037 A 
ATOM     13  C   UNL     1      -2.488   0.854  -1.722  1.00  0.00     0.064 A 
ATOM     14  C   UNL     1      -3.675   0.177  -1.439  1.00  0.00     0.213 A 
ATOM     15  C   UNL     1      -2.463  -1.747  -0.761  1.00  0.00     0.123 A 
ATOM     16  N   UNL     1      -3.637  -1.098  -0.973  1.00  0.00    -0.228 NA
ATOM     17  C   UNL     1       0.013   0.960  -1.843  1.00  0.00     0.045 C 
ATOM     18  F   UNL     1      -4.868   0.790  -1.629  1.00  0.00    -0.185 F 
ENDBRANCH   1  11
BRANCH   9  19
ATOM     19  N   UNL     1       0.445  -0.451   1.274  1.00  0.00    -0.318 N 
ATOM     20  C   UNL     1       1.319   0.632   1.630  1.00  0.00     0.272 C 
ATOM     21  H   UNL     1      -0.563  -0.389   1.538  1.00  0.00     0.170 HD
ATOM     22  O   UNL     1       2.407   0.791   1.011  1.00  0.00    -0.267 OA
BRANCH  20  23
ATOM     23  C   UNL     1       0.948   1.587   2.692  1.00  0.00     0.107 A 
ATOM     24  C   UNL     1       1.645   2.743   2.999  1.00  0.00     0.072 A 
ATOM     25  N   UNL     1      -0.112   1.447   3.516  1.00  0.00    -0.355 N 
ATOM     26  C   UNL     1       0.964   3.318   4.049  1.00  0.00     0.141 A 
ATOM     27  C   UNL     1      -0.107   2.505   4.347  1.00  0.00     0.122 A 
ATOM     28  H   UNL     1      -0.805   0.666   3.535  1.00  0.00     0.166 HD
ATOM     29  F   UNL     1       1.292   4.472   4.680  1.00  0.00    -0.205 F 
ENDBRANCH  20  23
ENDBRANCH   9  19
TORSDOF 3


