MODEL 1
REMARK VINA RESULT:      -2.6      0.000      0.000
REMARK SMILES CC(=O)c1ccc([C@@H]2[C@H](F)[C@H](C)CCN2/C(S)=[NH+]\c2nc3ccccc3s2)cc1F
REMARK SMILES IDX 15 1 14 2 13 3 11 4 12 5 9 6 10 7 8 8 16 9 17 10 18 12 19 14
REMARK SMILES IDX 20 15 27 16 21 17 26 18 22 19 25 20 23 21 24 22 7 23 6 24
REMARK SMILES IDX 28 25 5 26 29 27 4 28 30 29 2 30 3 31 1 32
REMARK H PARENT 17 11 18 13
ROOT
ATOM      1  N   UNL     1      44.052 131.486  20.818  1.00  0.00    -0.277 N 
ATOM      2  C   UNL     1      43.464 132.696  20.224  1.00  0.00     0.198 C 
ATOM      3  C   UNL     1      42.009 132.884  20.665  1.00  0.00     0.044 C 
ATOM      4  C   UNL     1      41.889 132.823  22.197  1.00  0.00     0.027 C 
ATOM      5  C   UNL     1      40.433 133.022  22.634  1.00  0.00     0.011 C 
ATOM      6  C   UNL     1      42.449 131.488  22.718  1.00  0.00     0.211 C 
ATOM      7  F   UNL     1      41.671 130.440  22.249  1.00  0.00    -0.243 F 
ATOM      8  C   UNL     1      43.919 131.310  22.281  1.00  0.00     0.210 C 
ENDROOT
BRANCH   1   9
ATOM      9  C   UNL     1      45.199 130.946  20.133  1.00  0.00     0.255 C 
BRANCH   9  10
ATOM     10  S   UNL     1      46.839 131.489  20.623  1.00  0.00    -0.074 SA
ATOM     11  H   UNL     1      46.923 132.377  19.534  1.00  0.00     0.114 HD
ENDBRANCH   9  10
BRANCH   9  12
ATOM     12  N   UNL     1      45.078 130.111  19.135  1.00  0.00    -0.229 N 
ATOM     13  H   UNL     1      44.599 129.201  19.312  1.00  0.00     0.268 HD
BRANCH  12  14
ATOM     14  C   UNL     1      45.536 130.344  17.791  1.00  0.00     0.320 A 
ATOM     15  N   UNL     1      46.323 129.489  17.091  1.00  0.00    -0.092 NA
ATOM     16  S   UNL     1      45.192 131.758  16.923  1.00  0.00    -0.061 S 
ATOM     17  C   UNL     1      46.619 129.991  15.867  1.00  0.00     0.157 A 
ATOM     18  C   UNL     1      46.079 131.239  15.595  1.00  0.00     0.076 A 
ATOM     19  C   UNL     1      47.407 129.340  14.918  1.00  0.00     0.048 A 
ATOM     20  C   UNL     1      46.295 131.889  14.384  1.00  0.00     0.023 A 
ATOM     21  C   UNL     1      47.640 129.975  13.686  1.00  0.00     0.004 A 
ATOM     22  C   UNL     1      47.087 131.244  13.420  1.00  0.00     0.002 A 
ENDBRANCH  12  14
ENDBRANCH   9  12
ENDBRANCH   1   9
BRANCH   8  23
ATOM     23  C   UNL     1      44.454 129.968  22.766  1.00  0.00    -0.005 A 
ATOM     24  C   UNL     1      44.465 129.633  24.129  1.00  0.00     0.008 A 
ATOM     25  C   UNL     1      44.971 129.047  21.840  1.00  0.00     0.047 A 
ATOM     26  C   UNL     1      44.962 128.400  24.554  1.00  0.00     0.015 A 
ATOM     27  C   UNL     1      45.471 127.811  22.261  1.00  0.00     0.134 A 
ATOM     28  C   UNL     1      45.478 127.472  23.632  1.00  0.00     0.053 A 
ATOM     29  F   UNL     1      45.917 126.948  21.315  1.00  0.00    -0.206 F 
BRANCH  28  30
ATOM     30  C   UNL     1      46.001 126.170  24.131  1.00  0.00     0.162 C 
ATOM     31  O   UNL     1      45.203 125.329  24.625  1.00  0.00    -0.294 OA
ATOM     32  C   UNL     1      47.454 125.808  24.065  1.00  0.00     0.093 C 
ENDBRANCH  28  30
ENDBRANCH   8  23
TORSDOF 6
ENDMDL
MODEL 2
REMARK VINA RESULT:      -2.5      1.181      1.503
REMARK SMILES CC(=O)c1ccc([C@@H]2[C@H](F)[C@H](C)CCN2/C(S)=[NH+]\c2nc3ccccc3s2)cc1F
REMARK SMILES IDX 15 1 14 2 13 3 11 4 12 5 9 6 10 7 8 8 16 9 17 10 18 12 19 14
REMARK SMILES IDX 20 15 27 16 21 17 26 18 22 19 25 20 23 21 24 22 7 23 6 24
REMARK SMILES IDX 28 25 5 26 29 27 4 28 30 29 2 30 3 31 1 32
REMARK H PARENT 17 11 18 13
ROOT
ATOM      1  N   UNL     1      44.180 131.071  20.688  1.00  0.00    -0.277 N 
ATOM      2  C   UNL     1      43.527 132.365  20.437  1.00  0.00     0.198 C 
ATOM      3  C   UNL     1      42.182 132.463  21.163  1.00  0.00     0.044 C 
ATOM      4  C   UNL     1      42.340 132.128  22.655  1.00  0.00     0.027 C 
ATOM      5  C   UNL     1      40.994 132.237  23.380  1.00  0.00     0.011 C 
ATOM      6  C   UNL     1      42.948 130.724  22.820  1.00  0.00     0.211 C 
ATOM      7  F   UNL     1      42.069 129.773  22.323  1.00  0.00    -0.243 F 
ATOM      8  C   UNL     1      44.309 130.635  22.096  1.00  0.00     0.210 C 
ENDROOT
BRANCH   1   9
ATOM      9  C   UNL     1      45.168 130.669  19.720  1.00  0.00     0.255 C 
BRANCH   9  10
ATOM     10  S   UNL     1      46.890 131.085  20.013  1.00  0.00    -0.074 SA
ATOM     11  H   UNL     1      46.917 131.960  18.910  1.00  0.00     0.114 HD
ENDBRANCH   9  10
BRANCH   9  12
ATOM     12  N   UNL     1      44.842 130.055  18.614  1.00  0.00    -0.229 N 
ATOM     13  H   UNL     1      44.053 129.371  18.646  1.00  0.00     0.268 HD
BRANCH  12  14
ATOM     14  C   UNL     1      45.467 130.252  17.333  1.00  0.00     0.320 A 
ATOM     15  N   UNL     1      46.317 129.369  16.752  1.00  0.00    -0.092 NA
ATOM     16  S   UNL     1      45.262 131.654  16.404  1.00  0.00    -0.061 S 
ATOM     17  C   UNL     1      46.773 129.841  15.566  1.00  0.00     0.157 A 
ATOM     18  C   UNL     1      46.296 131.092  15.207  1.00  0.00     0.076 A 
ATOM     19  C   UNL     1      47.660 129.157  14.734  1.00  0.00     0.048 A 
ATOM     20  C   UNL     1      46.674 131.713  14.020  1.00  0.00     0.023 A 
ATOM     21  C   UNL     1      48.056 129.762  13.529  1.00  0.00     0.004 A 
ATOM     22  C   UNL     1      47.566 131.035  13.173  1.00  0.00     0.002 A 
ENDBRANCH  12  14
ENDBRANCH   9  12
ENDBRANCH   1   9
BRANCH   8  23
ATOM     23  C   UNL     1      44.886 129.231  22.229  1.00  0.00    -0.005 A 
ATOM     24  C   UNL     1      45.713 128.682  21.236  1.00  0.00     0.008 A 
ATOM     25  C   UNL     1      44.572 128.451  23.354  1.00  0.00     0.047 A 
ATOM     26  C   UNL     1      46.230 127.393  21.374  1.00  0.00     0.015 A 
ATOM     27  C   UNL     1      45.086 127.158  23.496  1.00  0.00     0.134 A 
ATOM     28  C   UNL     1      45.922 126.608  22.500  1.00  0.00     0.053 A 
ATOM     29  F   UNL     1      44.781 126.472  24.625  1.00  0.00    -0.206 F 
BRANCH  28  30
ATOM     30  C   UNL     1      46.492 125.236  22.603  1.00  0.00     0.162 C 
ATOM     31  O   UNL     1      46.254 124.396  21.695  1.00  0.00    -0.294 OA
ATOM     32  C   UNL     1      47.356 124.807  23.751  1.00  0.00     0.093 C 
ENDBRANCH  28  30
ENDBRANCH   8  23
TORSDOF 6
ENDMDL
MODEL 3
REMARK VINA RESULT:      -2.2      4.865      7.197
REMARK SMILES CC(=O)c1ccc([C@@H]2[C@H](F)[C@H](C)CCN2/C(S)=[NH+]\c2nc3ccccc3s2)cc1F
REMARK SMILES IDX 15 1 14 2 13 3 11 4 12 5 9 6 10 7 8 8 16 9 17 10 18 12 19 14
REMARK SMILES IDX 20 15 27 16 21 17 26 18 22 19 25 20 23 21 24 22 7 23 6 24
REMARK SMILES IDX 28 25 5 26 29 27 4 28 30 29 2 30 3 31 1 32
REMARK H PARENT 17 11 18 13
ROOT
ATOM      1  N   UNL     1      45.284 132.143  22.119  1.00  0.00    -0.277 N 
ATOM      2  C   UNL     1      45.245 132.198  23.588  1.00  0.00     0.198 C 
ATOM      3  C   UNL     1      43.818 132.024  24.116  1.00  0.00     0.044 C 
ATOM      4  C   UNL     1      43.165 130.764  23.526  1.00  0.00     0.027 C 
ATOM      5  C   UNL     1      41.741 130.589  24.065  1.00  0.00     0.011 C 
ATOM      6  C   UNL     1      43.173 130.836  21.989  1.00  0.00     0.211 C 
ATOM      7  F   UNL     1      42.378 131.892  21.566  1.00  0.00    -0.243 F 
ATOM      8  C   UNL     1      44.615 130.999  21.461  1.00  0.00     0.210 C 
ENDROOT
BRANCH   1   9
ATOM      9  C   UNL     1      46.432 132.755  21.498  1.00  0.00     0.255 C 
BRANCH   9  10
ATOM     10  S   UNL     1      47.621 131.709  20.652  1.00  0.00    -0.074 SA
ATOM     11  H   UNL     1      47.758 130.872  21.775  1.00  0.00     0.114 HD
ENDBRANCH   9  10
BRANCH   9  12
ATOM     12  N   UNL     1      46.657 134.039  21.576  1.00  0.00    -0.229 N 
ATOM     13  H   UNL     1      45.867 134.689  21.370  1.00  0.00     0.268 HD
BRANCH  12  14
ATOM     14  C   UNL     1      47.908 134.647  21.944  1.00  0.00     0.320 A 
ATOM     15  N   UNL     1      48.455 135.715  21.313  1.00  0.00    -0.092 NA
ATOM     16  S   UNL     1      48.894 134.064  23.192  1.00  0.00    -0.061 S 
ATOM     17  C   UNL     1      49.651 136.044  21.859  1.00  0.00     0.157 A 
ATOM     18  C   UNL     1      50.058 135.240  22.913  1.00  0.00     0.076 A 
ATOM     19  C   UNL     1      50.452 137.101  21.426  1.00  0.00     0.048 A 
ATOM     20  C   UNL     1      51.264 135.448  23.576  1.00  0.00     0.023 A 
ATOM     21  C   UNL     1      51.674 137.332  22.079  1.00  0.00     0.004 A 
ATOM     22  C   UNL     1      52.080 136.509  23.149  1.00  0.00     0.002 A 
ENDBRANCH  12  14
ENDBRANCH   9  12
ENDBRANCH   1   9
BRANCH   8  23
ATOM     23  C   UNL     1      44.611 131.110  19.941  1.00  0.00    -0.005 A 
ATOM     24  C   UNL     1      45.671 130.612  19.168  1.00  0.00     0.008 A 
ATOM     25  C   UNL     1      43.539 131.743  19.291  1.00  0.00     0.047 A 
ATOM     26  C   UNL     1      45.651 130.726  17.777  1.00  0.00     0.015 A 
ATOM     27  C   UNL     1      43.515 131.861  17.898  1.00  0.00     0.134 A 
ATOM     28  C   UNL     1      44.579 131.355  17.119  1.00  0.00     0.053 A 
ATOM     29  F   UNL     1      42.432 132.444  17.326  1.00  0.00    -0.206 F 
BRANCH  28  30
ATOM     30  C   UNL     1      44.602 131.458  15.634  1.00  0.00     0.162 C 
ATOM     31  O   UNL     1      43.528 131.678  15.011  1.00  0.00    -0.294 OA
ATOM     32  C   UNL     1      45.864 131.319  14.836  1.00  0.00     0.093 C 
ENDBRANCH  28  30
ENDBRANCH   8  23
TORSDOF 6
ENDMDL
MODEL 4
REMARK VINA RESULT:      -2.2      4.932      7.212
REMARK SMILES CC(=O)c1ccc([C@@H]2[C@H](F)[C@H](C)CCN2/C(S)=[NH+]\c2nc3ccccc3s2)cc1F
REMARK SMILES IDX 15 1 14 2 13 3 11 4 12 5 9 6 10 7 8 8 16 9 17 10 18 12 19 14
REMARK SMILES IDX 20 15 27 16 21 17 26 18 22 19 25 20 23 21 24 22 7 23 6 24
REMARK SMILES IDX 28 25 5 26 29 27 4 28 30 29 2 30 3 31 1 32
REMARK H PARENT 17 11 18 13
ROOT
ATOM      1  N   UNL     1      45.323 132.108  22.151  1.00  0.00    -0.277 N 
ATOM      2  C   UNL     1      45.245 132.109  23.620  1.00  0.00     0.198 C 
ATOM      3  C   UNL     1      43.864 131.658  24.107  1.00  0.00     0.044 C 
ATOM      4  C   UNL     1      43.469 130.317  23.466  1.00  0.00     0.027 C 
ATOM      5  C   UNL     1      42.091 129.865  23.963  1.00  0.00     0.011 C 
ATOM      6  C   UNL     1      43.494 130.437  21.932  1.00  0.00     0.211 C 
ATOM      7  F   UNL     1      42.526 131.341  21.518  1.00  0.00    -0.243 F 
ATOM      8  C   UNL     1      44.891 130.881  21.446  1.00  0.00     0.210 C 
ENDROOT
BRANCH   1   9
ATOM      9  C   UNL     1      46.349 132.940  21.577  1.00  0.00     0.255 C 
BRANCH   9  10
ATOM     10  S   UNL     1      45.888 134.162  20.345  1.00  0.00    -0.074 SA
ATOM     11  H   UNL     1      45.241 134.960  21.307  1.00  0.00     0.114 HD
ENDBRANCH   9  10
BRANCH   9  12
ATOM     12  N   UNL     1      47.609 132.799  21.891  1.00  0.00    -0.229 N 
ATOM     13  H   UNL     1      48.012 131.835  21.883  1.00  0.00     0.268 HD
BRANCH  12  14
ATOM     14  C   UNL     1      48.511 133.867  22.232  1.00  0.00     0.320 A 
ATOM     15  N   UNL     1      48.754 134.944  21.444  1.00  0.00    -0.092 NA
ATOM     16  S   UNL     1      49.437 133.886  23.651  1.00  0.00    -0.061 S 
ATOM     17  C   UNL     1      49.673 135.764  22.012  1.00  0.00     0.157 A 
ATOM     18  C   UNL     1      50.164 135.341  23.237  1.00  0.00     0.076 A 
ATOM     19  C   UNL     1      50.126 136.954  21.441  1.00  0.00     0.048 A 
ATOM     20  C   UNL     1      51.115 136.071  23.944  1.00  0.00     0.023 A 
ATOM     21  C   UNL     1      51.086 137.710  22.134  1.00  0.00     0.004 A 
ATOM     22  C   UNL     1      51.579 137.271  23.380  1.00  0.00     0.002 A 
ENDBRANCH  12  14
ENDBRANCH   9  12
ENDBRANCH   1   9
BRANCH   8  23
ATOM     23  C   UNL     1      44.897 131.037  19.930  1.00  0.00    -0.005 A 
ATOM     24  C   UNL     1      43.941 131.825  19.272  1.00  0.00     0.008 A 
ATOM     25  C   UNL     1      45.862 130.363  19.163  1.00  0.00     0.047 A 
ATOM     26  C   UNL     1      43.961 131.954  17.882  1.00  0.00     0.015 A 
ATOM     27  C   UNL     1      45.885 130.488  17.771  1.00  0.00     0.134 A 
ATOM     28  C   UNL     1      44.927 131.285  17.108  1.00  0.00     0.053 A 
ATOM     29  F   UNL     1      46.868 129.847  17.090  1.00  0.00    -0.206 F 
BRANCH  28  30
ATOM     30  C   UNL     1      44.907 131.448  15.628  1.00  0.00     0.162 C 
ATOM     31  O   UNL     1      45.841 132.076  15.062  1.00  0.00    -0.294 OA
ATOM     32  C   UNL     1      43.816 130.881  14.770  1.00  0.00     0.093 C 
ENDBRANCH  28  30
ENDBRANCH   8  23
TORSDOF 6
ENDMDL
MODEL 5
REMARK VINA RESULT:      -2.1      2.287      3.310
REMARK SMILES CC(=O)c1ccc([C@@H]2[C@H](F)[C@H](C)CCN2/C(S)=[NH+]\c2nc3ccccc3s2)cc1F
REMARK SMILES IDX 15 1 14 2 13 3 11 4 12 5 9 6 10 7 8 8 16 9 17 10 18 12 19 14
REMARK SMILES IDX 20 15 27 16 21 17 26 18 22 19 25 20 23 21 24 22 7 23 6 24
REMARK SMILES IDX 28 25 5 26 29 27 4 28 30 29 2 30 3 31 1 32
REMARK H PARENT 17 11 18 13
ROOT
ATOM      1  N   UNL     1      45.125 132.195  20.408  1.00  0.00    -0.277 N 
ATOM      2  C   UNL     1      45.907 133.289  19.811  1.00  0.00     0.198 C 
ATOM      3  C   UNL     1      46.487 134.212  20.886  1.00  0.00     0.044 C 
ATOM      4  C   UNL     1      47.258 133.405  21.943  1.00  0.00     0.027 C 
ATOM      5  C   UNL     1      47.845 134.334  23.011  1.00  0.00     0.011 C 
ATOM      6  C   UNL     1      46.337 132.345  22.573  1.00  0.00     0.211 C 
ATOM      7  F   UNL     1      45.311 132.971  23.267  1.00  0.00    -0.243 F 
ATOM      8  C   UNL     1      45.764 131.410  21.486  1.00  0.00     0.210 C 
ENDROOT
BRANCH   1   9
ATOM      9  C   UNL     1      44.161 131.568  19.540  1.00  0.00     0.255 C 
BRANCH   9  10
ATOM     10  S   UNL     1      42.464 132.157  19.559  1.00  0.00    -0.074 SA
ATOM     11  H   UNL     1      42.556 132.611  18.230  1.00  0.00     0.114 HD
ENDBRANCH   9  10
BRANCH   9  12
ATOM     12  N   UNL     1      44.472 130.554  18.779  1.00  0.00    -0.229 N 
ATOM     13  H   UNL     1      44.184 129.599  19.089  1.00  0.00     0.268 HD
BRANCH  12  14
ATOM     14  C   UNL     1      45.170 130.634  17.523  1.00  0.00     0.320 A 
ATOM     15  N   UNL     1      45.941 129.643  17.011  1.00  0.00    -0.092 NA
ATOM     16  S   UNL     1      45.163 132.015  16.542  1.00  0.00    -0.061 S 
ATOM     17  C   UNL     1      46.497 130.019  15.833  1.00  0.00     0.157 A 
ATOM     18  C   UNL     1      46.178 131.301  15.412  1.00  0.00     0.076 A 
ATOM     19  C   UNL     1      47.337 129.212  15.065  1.00  0.00     0.048 A 
ATOM     20  C   UNL     1      46.674 131.833  14.226  1.00  0.00     0.023 A 
ATOM     21  C   UNL     1      47.850 129.726  13.862  1.00  0.00     0.004 A 
ATOM     22  C   UNL     1      47.521 131.031  13.444  1.00  0.00     0.002 A 
ENDBRANCH  12  14
ENDBRANCH   9  12
ENDBRANCH   1   9
BRANCH   8  23
ATOM     23  C   UNL     1      44.822 130.389  22.113  1.00  0.00    -0.005 A 
ATOM     24  C   UNL     1      45.102 129.015  22.075  1.00  0.00     0.008 A 
ATOM     25  C   UNL     1      43.633 130.820  22.723  1.00  0.00     0.047 A 
ATOM     26  C   UNL     1      44.225 128.094  22.651  1.00  0.00     0.015 A 
ATOM     27  C   UNL     1      42.750 129.902  23.301  1.00  0.00     0.134 A 
ATOM     28  C   UNL     1      43.035 128.519  23.268  1.00  0.00     0.053 A 
ATOM     29  F   UNL     1      41.640 130.383  23.913  1.00  0.00    -0.206 F 
BRANCH  28  30
ATOM     30  C   UNL     1      42.127 127.502  23.866  1.00  0.00     0.162 C 
ATOM     31  O   UNL     1      42.604 126.612  24.621  1.00  0.00    -0.294 OA
ATOM     32  C   UNL     1      40.649 127.493  23.613  1.00  0.00     0.093 C 
ENDBRANCH  28  30
ENDBRANCH   8  23
TORSDOF 6
ENDMDL
MODEL 6
REMARK VINA RESULT:      -1.9      4.828      7.099
REMARK SMILES CC(=O)c1ccc([C@@H]2[C@H](F)[C@H](C)CCN2/C(S)=[NH+]\c2nc3ccccc3s2)cc1F
REMARK SMILES IDX 15 1 14 2 13 3 11 4 12 5 9 6 10 7 8 8 16 9 17 10 18 12 19 14
REMARK SMILES IDX 20 15 27 16 21 17 26 18 22 19 25 20 23 21 24 22 7 23 6 24
REMARK SMILES IDX 28 25 5 26 29 27 4 28 30 29 2 30 3 31 1 32
REMARK H PARENT 17 11 18 13
ROOT
ATOM      1  N   UNL     1      45.331 132.207  22.220  1.00  0.00    -0.277 N 
ATOM      2  C   UNL     1      45.209 132.368  23.677  1.00  0.00     0.198 C 
ATOM      3  C   UNL     1      43.763 132.170  24.142  1.00  0.00     0.044 C 
ATOM      4  C   UNL     1      43.196 130.842  23.615  1.00  0.00     0.027 C 
ATOM      5  C   UNL     1      41.751 130.644  24.091  1.00  0.00     0.011 C 
ATOM      6  C   UNL     1      43.285 130.801  22.079  1.00  0.00     0.211 C 
ATOM      7  F   UNL     1      42.473 131.787  21.537  1.00  0.00    -0.243 F 
ATOM      8  C   UNL     1      44.746 130.989  21.617  1.00  0.00     0.210 C 
ENDROOT
BRANCH   1   9
ATOM      9  C   UNL     1      46.486 132.822  21.617  1.00  0.00     0.255 C 
BRANCH   9  10
ATOM     10  S   UNL     1      47.666 131.785  20.746  1.00  0.00    -0.074 SA
ATOM     11  H   UNL     1      48.655 132.006  21.723  1.00  0.00     0.114 HD
ENDBRANCH   9  10
BRANCH   9  12
ATOM     12  N   UNL     1      46.724 134.101  21.726  1.00  0.00    -0.229 N 
ATOM     13  H   UNL     1      45.918 134.760  21.641  1.00  0.00     0.268 HD
BRANCH  12  14
ATOM     14  C   UNL     1      48.011 134.694  21.976  1.00  0.00     0.320 A 
ATOM     15  N   UNL     1      48.855 134.304  22.964  1.00  0.00    -0.092 NA
ATOM     16  S   UNL     1      48.617 136.008  21.095  1.00  0.00    -0.061 S 
ATOM     17  C   UNL     1      49.975 135.067  22.977  1.00  0.00     0.157 A 
ATOM     18  C   UNL     1      50.021 136.062  22.012  1.00  0.00     0.076 A 
ATOM     19  C   UNL     1      51.029 134.904  23.876  1.00  0.00     0.048 A 
ATOM     20  C   UNL     1      51.103 136.930  21.899  1.00  0.00     0.023 A 
ATOM     21  C   UNL     1      52.134 135.768  23.783  1.00  0.00     0.004 A 
ATOM     22  C   UNL     1      52.171 136.777  22.799  1.00  0.00     0.002 A 
ENDBRANCH  12  14
ENDBRANCH   9  12
ENDBRANCH   1   9
BRANCH   8  23
ATOM     23  C   UNL     1      44.822 130.988  20.095  1.00  0.00    -0.005 A 
ATOM     24  C   UNL     1      45.853 130.322  19.414  1.00  0.00     0.008 A 
ATOM     25  C   UNL     1      43.859 131.685  19.348  1.00  0.00     0.047 A 
ATOM     26  C   UNL     1      45.907 130.335  18.019  1.00  0.00     0.015 A 
ATOM     27  C   UNL     1      43.910 131.703  17.951  1.00  0.00     0.134 A 
ATOM     28  C   UNL     1      44.943 131.028  17.265  1.00  0.00     0.053 A 
ATOM     29  F   UNL     1      42.926 132.357  17.285  1.00  0.00    -0.206 F 
BRANCH  28  30
ATOM     30  C   UNL     1      45.043 131.019  15.779  1.00  0.00     0.162 C 
ATOM     31  O   UNL     1      44.332 130.217  15.115  1.00  0.00    -0.294 OA
ATOM     32  C   UNL     1      45.958 131.938  15.028  1.00  0.00     0.093 C 
ENDBRANCH  28  30
ENDBRANCH   8  23
TORSDOF 6
ENDMDL
MODEL 7
REMARK VINA RESULT:      -0.2      3.499      4.852
REMARK SMILES CC(=O)c1ccc([C@@H]2[C@H](F)[C@H](C)CCN2/C(S)=[NH+]\c2nc3ccccc3s2)cc1F
REMARK SMILES IDX 15 1 14 2 13 3 11 4 12 5 9 6 10 7 8 8 16 9 17 10 18 12 19 14
REMARK SMILES IDX 20 15 27 16 21 17 26 18 22 19 25 20 23 21 24 22 7 23 6 24
REMARK SMILES IDX 28 25 5 26 29 27 4 28 30 29 2 30 3 31 1 32
REMARK H PARENT 17 11 18 13
ROOT
ATOM      1  N   UNL     1      43.320 131.132  21.489  1.00  0.00    -0.277 N 
ATOM      2  C   UNL     1      42.159 130.229  21.467  1.00  0.00     0.198 C 
ATOM      3  C   UNL     1      42.412 128.974  22.308  1.00  0.00     0.044 C 
ATOM      4  C   UNL     1      42.880 129.348  23.724  1.00  0.00     0.027 C 
ATOM      5  C   UNL     1      43.123 128.089  24.565  1.00  0.00     0.011 C 
ATOM      6  C   UNL     1      44.147 130.219  23.649  1.00  0.00     0.211 C 
ATOM      7  F   UNL     1      45.188 129.482  23.102  1.00  0.00    -0.243 F 
ATOM      8  C   UNL     1      43.883 131.488  22.810  1.00  0.00     0.210 C 
ENDROOT
BRANCH   1   9
ATOM      9  C   UNL     1      43.405 132.069  20.398  1.00  0.00     0.255 C 
BRANCH   9  10
ATOM     10  S   UNL     1      41.953 133.033  19.966  1.00  0.00    -0.074 SA
ATOM     11  H   UNL     1      42.054 133.801  21.141  1.00  0.00     0.114 HD
ENDBRANCH   9  10
BRANCH   9  12
ATOM     12  N   UNL     1      44.491 132.201  19.684  1.00  0.00    -0.229 N 
ATOM     13  H   UNL     1      45.343 132.584  20.151  1.00  0.00     0.268 HD
BRANCH  12  14
ATOM     14  C   UNL     1      44.628 131.845  18.297  1.00  0.00     0.320 A 
ATOM     15  N   UNL     1      45.781 131.412  17.728  1.00  0.00    -0.092 NA
ATOM     16  S   UNL     1      43.368 131.977  17.173  1.00  0.00    -0.061 S 
ATOM     17  C   UNL     1      45.614 131.186  16.402  1.00  0.00     0.157 A 
ATOM     18  C   UNL     1      44.342 131.443  15.915  1.00  0.00     0.076 A 
ATOM     19  C   UNL     1      46.620 130.731  15.547  1.00  0.00     0.048 A 
ATOM     20  C   UNL     1      44.014 131.264  14.574  1.00  0.00     0.023 A 
ATOM     21  C   UNL     1      46.314 130.541  14.189  1.00  0.00     0.004 A 
ATOM     22  C   UNL     1      45.017 130.806  13.704  1.00  0.00     0.002 A 
ENDBRANCH  12  14
ENDBRANCH   9  12
ENDBRANCH   1   9
BRANCH   8  23
ATOM     23  C   UNL     1      45.152 132.325  22.706  1.00  0.00    -0.005 A 
ATOM     24  C   UNL     1      46.063 132.144  21.654  1.00  0.00     0.008 A 
ATOM     25  C   UNL     1      45.439 133.284  23.690  1.00  0.00     0.047 A 
ATOM     26  C   UNL     1      47.223 132.918  21.576  1.00  0.00     0.015 A 
ATOM     27  C   UNL     1      46.599 134.061  23.618  1.00  0.00     0.134 A 
ATOM     28  C   UNL     1      47.514 133.884  22.557  1.00  0.00     0.053 A 
ATOM     29  F   UNL     1      46.797 135.001  24.576  1.00  0.00    -0.206 F 
BRANCH  28  30
ATOM     30  C   UNL     1      48.764 134.683  22.437  1.00  0.00     0.162 C 
ATOM     31  O   UNL     1      49.679 134.534  23.290  1.00  0.00    -0.294 OA
ATOM     32  C   UNL     1      48.989 135.664  21.325  1.00  0.00     0.093 C 
ENDBRANCH  28  30
ENDBRANCH   8  23
TORSDOF 6
ENDMDL
MODEL 8
REMARK VINA RESULT:      -0.1      4.973      7.197
REMARK SMILES CC(=O)c1ccc([C@@H]2[C@H](F)[C@H](C)CCN2/C(S)=[NH+]\c2nc3ccccc3s2)cc1F
REMARK SMILES IDX 15 1 14 2 13 3 11 4 12 5 9 6 10 7 8 8 16 9 17 10 18 12 19 14
REMARK SMILES IDX 20 15 27 16 21 17 26 18 22 19 25 20 23 21 24 22 7 23 6 24
REMARK SMILES IDX 28 25 5 26 29 27 4 28 30 29 2 30 3 31 1 32
REMARK H PARENT 17 11 18 13
ROOT
ATOM      1  N   UNL     1      45.145 126.537  22.585  1.00  0.00    -0.277 N 
ATOM      2  C   UNL     1      46.334 127.381  22.390  1.00  0.00     0.198 C 
ATOM      3  C   UNL     1      45.954 128.773  21.876  1.00  0.00     0.044 C 
ATOM      4  C   UNL     1      44.880 129.412  22.772  1.00  0.00     0.027 C 
ATOM      5  C   UNL     1      44.510 130.809  22.259  1.00  0.00     0.011 C 
ATOM      6  C   UNL     1      43.642 128.501  22.846  1.00  0.00     0.211 C 
ATOM      7  F   UNL     1      43.060 128.401  21.590  1.00  0.00    -0.243 F 
ATOM      8  C   UNL     1      44.030 127.103  23.375  1.00  0.00     0.210 C 
ENDROOT
BRANCH   1   9
ATOM      9  C   UNL     1      45.380 125.116  22.592  1.00  0.00     0.255 C 
BRANCH   9  10
ATOM     10  S   UNL     1      44.865 124.159  24.021  1.00  0.00    -0.074 SA
ATOM     11  H   UNL     1      43.513 124.216  23.634  1.00  0.00     0.114 HD
ENDBRANCH   9  10
BRANCH   9  12
ATOM     12  N   UNL     1      45.999 124.512  21.613  1.00  0.00    -0.229 N 
ATOM     13  H   UNL     1      45.428 124.171  20.807  1.00  0.00     0.268 HD
BRANCH  12  14
ATOM     14  C   UNL     1      47.418 124.288  21.533  1.00  0.00     0.320 A 
ATOM     15  N   UNL     1      47.994 123.269  20.848  1.00  0.00    -0.092 NA
ATOM     16  S   UNL     1      48.558 125.246  22.340  1.00  0.00    -0.061 S 
ATOM     17  C   UNL     1      49.343 123.294  20.982  1.00  0.00     0.157 A 
ATOM     18  C   UNL     1      49.838 124.320  21.773  1.00  0.00     0.076 A 
ATOM     19  C   UNL     1      50.211 122.376  20.391  1.00  0.00     0.048 A 
ATOM     20  C   UNL     1      51.200 124.478  22.010  1.00  0.00     0.023 A 
ATOM     21  C   UNL     1      51.591 122.514  20.614  1.00  0.00     0.004 A 
ATOM     22  C   UNL     1      52.085 123.560  21.420  1.00  0.00     0.002 A 
ENDBRANCH  12  14
ENDBRANCH   9  12
ENDBRANCH   1   9
BRANCH   8  23
ATOM     23  C   UNL     1      42.807 126.194  23.407  1.00  0.00    -0.005 A 
ATOM     24  C   UNL     1      42.017 126.070  24.560  1.00  0.00     0.008 A 
ATOM     25  C   UNL     1      42.467 125.441  22.271  1.00  0.00     0.047 A 
ATOM     26  C   UNL     1      40.902 125.230  24.571  1.00  0.00     0.015 A 
ATOM     27  C   UNL     1      41.353 124.597  22.277  1.00  0.00     0.134 A 
ATOM     28  C   UNL     1      40.554 124.476  23.435  1.00  0.00     0.053 A 
ATOM     29  F   UNL     1      41.052 123.930  21.135  1.00  0.00    -0.206 F 
BRANCH  28  30
ATOM     30  C   UNL     1      39.359 123.590  23.494  1.00  0.00     0.162 C 
ATOM     31  O   UNL     1      39.189 122.720  22.598  1.00  0.00    -0.294 OA
ATOM     32  C   UNL     1      38.342 123.681  24.591  1.00  0.00     0.093 C 
ENDBRANCH  28  30
ENDBRANCH   8  23
TORSDOF 6
ENDMDL
MODEL 9
REMARK VINA RESULT:       0.1      3.449      4.759
REMARK SMILES CC(=O)c1ccc([C@@H]2[C@H](F)[C@H](C)CCN2/C(S)=[NH+]\c2nc3ccccc3s2)cc1F
REMARK SMILES IDX 15 1 14 2 13 3 11 4 12 5 9 6 10 7 8 8 16 9 17 10 18 12 19 14
REMARK SMILES IDX 20 15 27 16 21 17 26 18 22 19 25 20 23 21 24 22 7 23 6 24
REMARK SMILES IDX 28 25 5 26 29 27 4 28 30 29 2 30 3 31 1 32
REMARK H PARENT 17 11 18 13
ROOT
ATOM      1  N   UNL     1      43.402 131.210  21.627  1.00  0.00    -0.277 N 
ATOM      2  C   UNL     1      42.239 130.310  21.605  1.00  0.00     0.198 C 
ATOM      3  C   UNL     1      42.504 129.033  22.407  1.00  0.00     0.044 C 
ATOM      4  C   UNL     1      43.001 129.369  23.823  1.00  0.00     0.027 C 
ATOM      5  C   UNL     1      43.256 128.088  24.625  1.00  0.00     0.011 C 
ATOM      6  C   UNL     1      44.269 130.238  23.745  1.00  0.00     0.211 C 
ATOM      7  F   UNL     1      45.297 129.514  23.159  1.00  0.00    -0.243 F 
ATOM      8  C   UNL     1      43.992 131.530  22.946  1.00  0.00     0.210 C 
ENDROOT
BRANCH   1   9
ATOM      9  C   UNL     1      43.469 132.175  20.559  1.00  0.00     0.255 C 
BRANCH   9  10
ATOM     10  S   UNL     1      41.963 133.009  20.049  1.00  0.00    -0.074 SA
ATOM     11  H   UNL     1      42.591 134.269  20.082  1.00  0.00     0.114 HD
ENDBRANCH   9  10
BRANCH   9  12
ATOM     12  N   UNL     1      44.581 132.424  19.921  1.00  0.00    -0.229 N 
ATOM     13  H   UNL     1      45.244 133.113  20.340  1.00  0.00     0.268 HD
BRANCH  12  14
ATOM     14  C   UNL     1      44.990 131.812  18.685  1.00  0.00     0.320 A 
ATOM     15  N   UNL     1      44.822 132.372  17.461  1.00  0.00    -0.092 NA
ATOM     16  S   UNL     1      45.690 130.272  18.596  1.00  0.00    -0.061 S 
ATOM     17  C   UNL     1      45.273 131.548  16.483  1.00  0.00     0.157 A 
ATOM     18  C   UNL     1      45.790 130.339  16.922  1.00  0.00     0.076 A 
ATOM     19  C   UNL     1      45.238 131.849  15.121  1.00  0.00     0.048 A 
ATOM     20  C   UNL     1      46.290 129.386  16.040  1.00  0.00     0.023 A 
ATOM     21  C   UNL     1      45.736 130.903  14.209  1.00  0.00     0.004 A 
ATOM     22  C   UNL     1      46.260 129.677  14.666  1.00  0.00     0.002 A 
ENDBRANCH  12  14
ENDBRANCH   9  12
ENDBRANCH   1   9
BRANCH   8  23
ATOM     23  C   UNL     1      45.262 132.366  22.838  1.00  0.00    -0.005 A 
ATOM     24  C   UNL     1      45.499 133.450  23.697  1.00  0.00     0.008 A 
ATOM     25  C   UNL     1      46.211 132.068  21.848  1.00  0.00     0.047 A 
ATOM     26  C   UNL     1      46.666 134.206  23.582  1.00  0.00     0.015 A 
ATOM     27  C   UNL     1      47.382 132.824  21.727  1.00  0.00     0.134 A 
ATOM     28  C   UNL     1      47.624 133.911  22.594  1.00  0.00     0.053 A 
ATOM     29  F   UNL     1      48.280 132.460  20.778  1.00  0.00    -0.206 F 
BRANCH  28  30
ATOM     30  C   UNL     1      48.852 134.747  22.505  1.00  0.00     0.162 C 
ATOM     31  O   UNL     1      49.782 134.574  23.339  1.00  0.00    -0.294 OA
ATOM     32  C   UNL     1      49.039 135.794  21.448  1.00  0.00     0.093 C 
ENDBRANCH  28  30
ENDBRANCH   8  23
TORSDOF 6
ENDMDL


