MODEL 1
REMARK VINA RESULT:      -8.9      0.000      0.000
REMARK SMILES Cc1[n-]nc2c1ccc1c([NH2+]N)cccc12
REMARK SMILES IDX 11 1 10 4 2 5 3 6 6 7 4 8 5 9 7 10 16 11 8 12 15 13 9 14
REMARK SMILES IDX 14 15 13 16 1 17 12 18
REMARK H PARENT 11 2 11 3 12 19 12 20
ROOT
ATOM      1  N   UNL     1      47.414 129.777  15.755  1.00  0.00    -0.239 N 
ATOM      2  H   UNL     1      47.431 129.071  16.527  1.00  0.00     0.376 HD
ATOM      3  H   UNL     1      48.179 130.469  15.941  1.00  0.00     0.376 HD
ENDROOT
BRANCH   1   4
ATOM      4  C   UNL     1      46.121 130.422  15.698  1.00  0.00     0.156 A 
ATOM      5  C   UNL     1      43.015 131.949  20.038  1.00  0.00    -0.139 A 
ATOM      6  N   UNL     1      41.979 132.459  19.335  1.00  0.00    -0.578 NA
ATOM      7  C   UNL     1      43.958 131.483  19.153  1.00  0.00    -0.019 A 
ATOM      8  N   UNL     1      42.241 132.339  18.036  1.00  0.00    -0.367 NA
ATOM      9  C   UNL     1      43.444 131.746  17.918  1.00  0.00     0.055 A 
ATOM     10  C   UNL     1      45.186 130.858  19.330  1.00  0.00     0.009 A 
ATOM     11  C   UNL     1      44.130 131.406  16.748  1.00  0.00     0.012 A 
ATOM     12  C   UNL     1      45.913 130.499  18.182  1.00  0.00     0.016 A 
ATOM     13  C   UNL     1      43.593 131.669  15.482  1.00  0.00     0.011 A 
ATOM     14  C   UNL     1      45.404 130.770  16.877  1.00  0.00     0.047 A 
ATOM     15  C   UNL     1      44.299 131.306  14.337  1.00  0.00     0.007 A 
ATOM     16  C   UNL     1      45.544 130.687  14.441  1.00  0.00     0.070 A 
ATOM     17  C   UNL     1      43.069 131.873  21.529  1.00  0.00     0.019 C 
ENDBRANCH   1   4
BRANCH   1  18
ATOM     18  N   UNL     1      47.659 129.137  14.523  1.00  0.00    -0.178 NA
ATOM     19  H   UNL     1      46.735 128.963  14.062  1.00  0.00     0.183 HD
ATOM     20  H   UNL     1      48.074 128.195  14.716  1.00  0.00     0.183 HD
ENDBRANCH   1  18
TORSDOF 2
ENDMDL
MODEL 2
REMARK VINA RESULT:      -8.3      1.056      1.495
REMARK SMILES Cc1[n-]nc2c1ccc1c([NH2+]N)cccc12
REMARK SMILES IDX 11 1 10 4 2 5 3 6 6 7 4 8 5 9 7 10 16 11 8 12 15 13 9 14
REMARK SMILES IDX 14 15 13 16 1 17 12 18
REMARK H PARENT 11 2 11 3 12 19 12 20
ROOT
ATOM      1  N   UNL     1      47.097 129.781  16.633  1.00  0.00    -0.239 N 
ATOM      2  H   UNL     1      47.050 128.821  17.045  1.00  0.00     0.376 HD
ATOM      3  H   UNL     1      47.889 130.286  17.100  1.00  0.00     0.376 HD
ENDROOT
BRANCH   1   4
ATOM      4  C   UNL     1      45.843 130.471  16.830  1.00  0.00     0.156 A 
ATOM      5  C   UNL     1      43.521 131.746  21.708  1.00  0.00    -0.139 A 
ATOM      6  N   UNL     1      42.412 132.345  21.218  1.00  0.00    -0.578 NA
ATOM      7  C   UNL     1      44.293 131.322  20.653  1.00  0.00    -0.019 A 
ATOM      8  N   UNL     1      42.464 132.321  19.889  1.00  0.00    -0.367 NA
ATOM      9  C   UNL     1      43.606 131.700  19.538  1.00  0.00     0.055 A 
ATOM     10  C   UNL     1      45.504 130.644  20.587  1.00  0.00     0.009 A 
ATOM     11  C   UNL     1      44.086 131.433  18.252  1.00  0.00     0.012 A 
ATOM     12  C   UNL     1      46.026 130.355  19.314  1.00  0.00     0.016 A 
ATOM     13  C   UNL     1      43.371 131.815  17.111  1.00  0.00     0.011 A 
ATOM     14  C   UNL     1      45.334 130.747  18.130  1.00  0.00     0.047 A 
ATOM     15  C   UNL     1      43.873 131.522  15.845  1.00  0.00     0.007 A 
ATOM     16  C   UNL     1      45.090 130.855  15.704  1.00  0.00     0.070 A 
ATOM     17  C   UNL     1      43.802 131.548  23.162  1.00  0.00     0.019 C 
ENDBRANCH   1   4
BRANCH   1  18
ATOM     18  N   UNL     1      47.357 129.692  15.251  1.00  0.00    -0.178 NA
ATOM     19  H   UNL     1      47.654 128.710  15.042  1.00  0.00     0.183 HD
ATOM     20  H   UNL     1      48.178 130.302  15.028  1.00  0.00     0.183 HD
ENDBRANCH   1  18
TORSDOF 2
ENDMDL
MODEL 3
REMARK VINA RESULT:      -8.2      2.040      4.992
REMARK SMILES Cc1[n-]nc2c1ccc1c([NH2+]N)cccc12
REMARK SMILES IDX 11 1 10 4 2 5 3 6 6 7 4 8 5 9 7 10 16 11 8 12 15 13 9 14
REMARK SMILES IDX 14 15 13 16 1 17 12 18
REMARK H PARENT 11 2 11 3 12 19 12 20
ROOT
ATOM      1  N   UNL     1      45.146 130.942  21.393  1.00  0.00    -0.239 N 
ATOM      2  H   UNL     1      46.098 131.349  21.246  1.00  0.00     0.376 HD
ATOM      3  H   UNL     1      45.250 129.899  21.424  1.00  0.00     0.376 HD
ENDROOT
BRANCH   1   4
ATOM      4  C   UNL     1      44.258 131.353  20.330  1.00  0.00     0.156 A 
ATOM      5  C   UNL     1      45.226 130.911  14.882  1.00  0.00    -0.139 A 
ATOM      6  N   UNL     1      44.064 131.457  14.457  1.00  0.00    -0.578 NA
ATOM      7  C   UNL     1      45.232 130.907  16.256  1.00  0.00    -0.019 A 
ATOM      8  N   UNL     1      43.333 131.789  15.518  1.00  0.00    -0.367 NA
ATOM      9  C   UNL     1      44.037 131.457  16.617  1.00  0.00     0.055 A 
ATOM     10  C   UNL     1      46.169 130.485  17.191  1.00  0.00     0.009 A 
ATOM     11  C   UNL     1      43.679 131.625  17.958  1.00  0.00     0.012 A 
ATOM     12  C   UNL     1      45.851 130.632  18.552  1.00  0.00     0.016 A 
ATOM     13  C   UNL     1      42.456 132.200  18.322  1.00  0.00     0.011 A 
ATOM     14  C   UNL     1      44.606 131.196  18.958  1.00  0.00     0.047 A 
ATOM     15  C   UNL     1      42.137 132.363  19.668  1.00  0.00     0.007 A 
ATOM     16  C   UNL     1      43.025 131.949  20.660  1.00  0.00     0.070 A 
ATOM     17  C   UNL     1      46.321 130.448  13.978  1.00  0.00     0.019 C 
ENDBRANCH   1   4
BRANCH   1  18
ATOM     18  N   UNL     1      44.623 131.390  22.623  1.00  0.00    -0.178 NA
ATOM     19  H   UNL     1      44.803 130.648  23.339  1.00  0.00     0.183 HD
ATOM     20  H   UNL     1      43.583 131.467  22.532  1.00  0.00     0.183 HD
ENDBRANCH   1  18
TORSDOF 2
ENDMDL
MODEL 4
REMARK VINA RESULT:      -7.6      1.645      5.686
REMARK SMILES Cc1[n-]nc2c1ccc1c([NH2+]N)cccc12
REMARK SMILES IDX 11 1 10 4 2 5 3 6 6 7 4 8 5 9 7 10 16 11 8 12 15 13 9 14
REMARK SMILES IDX 14 15 13 16 1 17 12 18
REMARK H PARENT 11 2 11 3 12 19 12 20
ROOT
ATOM      1  N   UNL     1      42.206 132.185  21.589  1.00  0.00    -0.239 N 
ATOM      2  H   UNL     1      41.374 131.763  21.117  1.00  0.00     0.376 HD
ATOM      3  H   UNL     1      42.119 133.227  21.512  1.00  0.00     0.376 HD
ENDROOT
BRANCH   1   4
ATOM      4  C   UNL     1      43.424 131.710  20.972  1.00  0.00     0.156 A 
ATOM      5  C   UNL     1      44.414 131.327  15.523  1.00  0.00    -0.139 A 
ATOM      6  N   UNL     1      45.668 130.828  15.613  1.00  0.00    -0.578 NA
ATOM      7  C   UNL     1      43.927 131.516  16.794  1.00  0.00    -0.019 A 
ATOM      8  N   UNL     1      45.991 130.705  16.898  1.00  0.00    -0.367 NA
ATOM      9  C   UNL     1      44.936 131.123  17.623  1.00  0.00     0.055 A 
ATOM     10  C   UNL     1      42.708 131.981  17.274  1.00  0.00     0.009 A 
ATOM     11  C   UNL     1      44.806 131.169  19.014  1.00  0.00     0.012 A 
ATOM     12  C   UNL     1      42.533 132.046  18.667  1.00  0.00     0.016 A 
ATOM     13  C   UNL     1      45.841 130.753  19.860  1.00  0.00     0.011 A 
ATOM     14  C   UNL     1      43.574 131.649  19.558  1.00  0.00     0.047 A 
ATOM     15  C   UNL     1      45.673 130.802  21.241  1.00  0.00     0.007 A 
ATOM     16  C   UNL     1      44.480 131.270  21.792  1.00  0.00     0.070 A 
ATOM     17  C   UNL     1      43.691 131.570  14.239  1.00  0.00     0.019 C 
ENDBRANCH   1   4
BRANCH   1  18
ATOM     18  N   UNL     1      42.214 131.821  22.951  1.00  0.00    -0.178 NA
ATOM     19  H   UNL     1      41.443 131.130  23.103  1.00  0.00     0.183 HD
ATOM     20  H   UNL     1      41.970 132.665  23.521  1.00  0.00     0.183 HD
ENDBRANCH   1  18
TORSDOF 2
ENDMDL
MODEL 5
REMARK VINA RESULT:      -7.1      0.895      5.657
REMARK SMILES Cc1[n-]nc2c1ccc1c([NH2+]N)cccc12
REMARK SMILES IDX 11 1 10 4 2 5 3 6 6 7 4 8 5 9 7 10 16 11 8 12 15 13 9 14
REMARK SMILES IDX 14 15 13 16 1 17 12 18
REMARK H PARENT 11 2 11 3 12 19 12 20
ROOT
ATOM      1  N   UNL     1      41.877 132.582  18.675  1.00  0.00    -0.239 N 
ATOM      2  H   UNL     1      41.090 131.893  18.677  1.00  0.00     0.376 HD
ATOM      3  H   UNL     1      41.810 133.137  17.787  1.00  0.00     0.376 HD
ENDROOT
BRANCH   1   4
ATOM      4  C   UNL     1      43.143 131.892  18.772  1.00  0.00     0.156 A 
ATOM      5  C   UNL     1      46.489 130.550  14.551  1.00  0.00    -0.139 A 
ATOM      6  N   UNL     1      47.452 129.944  15.283  1.00  0.00    -0.578 NA
ATOM      7  C   UNL     1      45.503 130.988  15.402  1.00  0.00    -0.019 A 
ATOM      8  N   UNL     1      47.110 129.994  16.568  1.00  0.00    -0.367 NA
ATOM      9  C   UNL     1      45.925 130.628  16.648  1.00  0.00     0.055 A 
ATOM     10  C   UNL     1      44.299 131.647  15.186  1.00  0.00     0.009 A 
ATOM     11  C   UNL     1      45.168 130.907  17.790  1.00  0.00     0.012 A 
ATOM     12  C   UNL     1      43.505 131.949  16.306  1.00  0.00     0.016 A 
ATOM     13  C   UNL     1      45.601 130.526  19.065  1.00  0.00     0.011 A 
ATOM     14  C   UNL     1      43.925 131.593  17.621  1.00  0.00     0.047 A 
ATOM     15  C   UNL     1      44.817 130.809  20.181  1.00  0.00     0.007 A 
ATOM     16  C   UNL     1      43.602 131.480  20.038  1.00  0.00     0.070 A 
ATOM     17  C   UNL     1      46.504 130.660  13.062  1.00  0.00     0.019 C 
ENDBRANCH   1   4
BRANCH   1  18
ATOM     18  N   UNL     1      41.747 133.454  19.774  1.00  0.00    -0.178 NA
ATOM     19  H   UNL     1      40.887 133.179  20.303  1.00  0.00     0.183 HD
ATOM     20  H   UNL     1      41.575 134.421  19.412  1.00  0.00     0.183 HD
ENDBRANCH   1  18
TORSDOF 2
ENDMDL
MODEL 6
REMARK VINA RESULT:      -7.0      2.314      3.048
REMARK SMILES Cc1[n-]nc2c1ccc1c([NH2+]N)cccc12
REMARK SMILES IDX 11 1 10 4 2 5 3 6 6 7 4 8 5 9 7 10 16 11 8 12 15 13 9 14
REMARK SMILES IDX 14 15 13 16 1 17 12 18
REMARK H PARENT 11 2 11 3 12 19 12 20
ROOT
ATOM      1  N   UNL     1      43.004 132.122  14.806  1.00  0.00    -0.239 N 
ATOM      2  H   UNL     1      43.121 133.156  14.700  1.00  0.00     0.376 HD
ATOM      3  H   UNL     1      42.065 131.951  15.239  1.00  0.00     0.376 HD
ENDROOT
BRANCH   1   4
ATOM      4  C   UNL     1      44.068 131.581  15.621  1.00  0.00     0.156 A 
ATOM      5  C   UNL     1      44.116 131.242  21.162  1.00  0.00    -0.139 A 
ATOM      6  N   UNL     1      45.338 130.678  21.288  1.00  0.00    -0.578 NA
ATOM      7  C   UNL     1      43.859 131.438  19.826  1.00  0.00    -0.019 A 
ATOM      8  N   UNL     1      45.857 130.502  20.075  1.00  0.00    -0.367 NA
ATOM      9  C   UNL     1      44.962 130.962  19.180  1.00  0.00     0.055 A 
ATOM     10  C   UNL     1      42.779 131.989  19.147  1.00  0.00     0.009 A 
ATOM     11  C   UNL     1      45.070 130.996  17.786  1.00  0.00     0.012 A 
ATOM     12  C   UNL     1      42.843 132.042  17.743  1.00  0.00     0.016 A 
ATOM     13  C   UNL     1      46.209 130.516  17.130  1.00  0.00     0.011 A 
ATOM     14  C   UNL     1      43.980 131.544  17.041  1.00  0.00     0.047 A 
ATOM     15  C   UNL     1      46.289 130.576  15.741  1.00  0.00     0.007 A 
ATOM     16  C   UNL     1      45.236 131.104  14.995  1.00  0.00     0.070 A 
ATOM     17  C   UNL     1      43.239 131.624  22.309  1.00  0.00     0.019 C 
ENDBRANCH   1   4
BRANCH   1  18
ATOM     18  N   UNL     1      43.046 131.508  13.538  1.00  0.00    -0.178 NA
ATOM     19  H   UNL     1      43.900 130.904  13.500  1.00  0.00     0.183 HD
ATOM     20  H   UNL     1      43.179 132.253  12.813  1.00  0.00     0.183 HD
ENDBRANCH   1  18
TORSDOF 2
ENDMDL
MODEL 7
REMARK VINA RESULT:      -6.3      2.192      3.436
REMARK SMILES Cc1[n-]nc2c1ccc1c([NH2+]N)cccc12
REMARK SMILES IDX 11 1 10 4 2 5 3 6 6 7 4 8 5 9 7 10 16 11 8 12 15 13 9 14
REMARK SMILES IDX 14 15 13 16 1 17 12 18
REMARK H PARENT 11 2 11 3 12 19 12 20
ROOT
ATOM      1  N   UNL     1      43.242 132.054  15.854  1.00  0.00    -0.239 N 
ATOM      2  H   UNL     1      43.248 133.099  15.903  1.00  0.00     0.376 HD
ATOM      3  H   UNL     1      42.250 131.737  15.973  1.00  0.00     0.376 HD
ENDROOT
BRANCH   1   4
ATOM      4  C   UNL     1      44.099 131.502  16.878  1.00  0.00     0.156 A 
ATOM      5  C   UNL     1      43.174 131.615  22.351  1.00  0.00    -0.139 A 
ATOM      6  N   UNL     1      44.302 130.970  22.727  1.00  0.00    -0.578 NA
ATOM      7  C   UNL     1      43.167 131.720  20.980  1.00  0.00    -0.019 A 
ATOM      8  N   UNL     1      45.001 130.657  21.640  1.00  0.00    -0.367 NA
ATOM      9  C   UNL     1      44.316 131.110  20.572  1.00  0.00     0.055 A 
ATOM     10  C   UNL     1      42.272 132.295  20.086  1.00  0.00     0.009 A 
ATOM     11  C   UNL     1      44.662 131.020  19.221  1.00  0.00     0.012 A 
ATOM     12  C   UNL     1      42.578 132.227  18.716  1.00  0.00     0.016 A 
ATOM     13  C   UNL     1      45.848 130.402  18.809  1.00  0.00     0.011 A 
ATOM     14  C   UNL     1      43.768 131.588  18.260  1.00  0.00     0.047 A 
ATOM     15  C   UNL     1      46.167 130.341  17.454  1.00  0.00     0.007 A 
ATOM     16  C   UNL     1      45.308 130.887  16.501  1.00  0.00     0.070 A 
ATOM     17  C   UNL     1      42.154 132.156  23.297  1.00  0.00     0.019 C 
ENDBRANCH   1   4
BRANCH   1  18
ATOM     18  N   UNL     1      43.712 131.636  14.592  1.00  0.00    -0.178 NA
ATOM     19  H   UNL     1      43.225 132.206  13.862  1.00  0.00     0.183 HD
ATOM     20  H   UNL     1      43.414 130.643  14.440  1.00  0.00     0.183 HD
ENDBRANCH   1  18
TORSDOF 2
ENDMDL


