MODEL 1
REMARK VINA RESULT:      -7.9      0.000      0.000
REMARK SMILES N[NH2+]c1ccc2cc[nH]c2c1
REMARK SMILES IDX 2 1 1 4 3 7 4 8 11 9 5 10 10 11 6 12 9 13 7 14 8 15
REMARK H PARENT 2 2 2 3 1 5 1 6 9 16
ROOT
ATOM      1  N   UNL     1      45.071 130.864  18.297  1.00  0.00    -0.239 N 
ATOM      2  H   UNL     1      44.781 131.812  18.633  1.00  0.00     0.376 HD
ATOM      3  H   UNL     1      44.225 130.248  18.287  1.00  0.00     0.376 HD
ENDROOT
BRANCH   1   4
ATOM      4  N   UNL     1      46.005 130.330  19.211  1.00  0.00    -0.178 NA
ATOM      5  H   UNL     1      45.617 130.400  20.181  1.00  0.00     0.183 HD
ATOM      6  H   UNL     1      46.888 130.894  19.168  1.00  0.00     0.183 HD
ENDBRANCH   1   4
BRANCH   1   7
ATOM      7  C   UNL     1      45.654 130.949  16.980  1.00  0.00     0.150 A 
ATOM      8  C   UNL     1      45.530 132.143  16.220  1.00  0.00     0.070 A 
ATOM      9  C   UNL     1      46.395 129.863  16.459  1.00  0.00     0.096 A 
ATOM     10  C   UNL     1      46.120 132.249  14.947  1.00  0.00     0.016 A 
ATOM     11  C   UNL     1      46.965 130.002  15.195  1.00  0.00     0.051 A 
ATOM     12  C   UNL     1      46.830 131.152  14.466  1.00  0.00    -0.000 A 
ATOM     13  N   UNL     1      47.697 129.097  14.526  1.00  0.00    -0.361 N 
ATOM     14  C   UNL     1      47.506 130.971  13.279  1.00  0.00     0.028 A 
ATOM     15  C   UNL     1      48.029 129.685  13.353  1.00  0.00     0.083 A 
ATOM     16  H   UNL     1      47.958 128.136  14.841  1.00  0.00     0.166 HD
ENDBRANCH   1   7
TORSDOF 2
ENDMDL
MODEL 2
REMARK VINA RESULT:      -7.1      1.528      2.177
REMARK SMILES N[NH2+]c1ccc2cc[nH]c2c1
REMARK SMILES IDX 2 1 1 4 3 7 4 8 11 9 5 10 10 11 6 12 9 13 7 14 8 15
REMARK H PARENT 2 2 2 3 1 5 1 6 9 16
ROOT
ATOM      1  N   UNL     1      43.439 131.843  16.789  1.00  0.00    -0.239 N 
ATOM      2  H   UNL     1      43.311 132.830  16.465  1.00  0.00     0.376 HD
ATOM      3  H   UNL     1      42.586 131.298  16.524  1.00  0.00     0.376 HD
ENDROOT
BRANCH   1   4
ATOM      4  N   UNL     1      43.554 131.844  18.196  1.00  0.00    -0.178 NA
ATOM      5  H   UNL     1      42.613 131.663  18.619  1.00  0.00     0.183 HD
ATOM      6  H   UNL     1      43.881 132.789  18.513  1.00  0.00     0.183 HD
ENDBRANCH   1   4
BRANCH   1   7
ATOM      7  C   UNL     1      44.619 131.263  16.193  1.00  0.00     0.150 A 
ATOM      8  C   UNL     1      45.352 130.264  16.887  1.00  0.00     0.070 A 
ATOM      9  C   UNL     1      45.023 131.650  14.894  1.00  0.00     0.096 A 
ATOM     10  C   UNL     1      46.487 129.670  16.304  1.00  0.00     0.016 A 
ATOM     11  C   UNL     1      46.151 131.042  14.348  1.00  0.00     0.051 A 
ATOM     12  C   UNL     1      46.857 130.088  15.029  1.00  0.00    -0.000 A 
ATOM     13  N   UNL     1      46.697 131.267  13.142  1.00  0.00    -0.361 N 
ATOM     14  C   UNL     1      47.900 129.689  14.222  1.00  0.00     0.028 A 
ATOM     15  C   UNL     1      47.767 130.443  13.060  1.00  0.00     0.083 A 
ATOM     16  H   UNL     1      46.367 131.940  12.414  1.00  0.00     0.166 HD
ENDBRANCH   1   7
TORSDOF 2
ENDMDL
MODEL 3
REMARK VINA RESULT:      -7.1      1.677      2.032
REMARK SMILES N[NH2+]c1ccc2cc[nH]c2c1
REMARK SMILES IDX 2 1 1 4 3 7 4 8 11 9 5 10 10 11 6 12 9 13 7 14 8 15
REMARK H PARENT 2 2 2 3 1 5 1 6 9 16
ROOT
ATOM      1  N   UNL     1      43.512 131.906  18.275  1.00  0.00    -0.239 N 
ATOM      2  H   UNL     1      43.428 131.118  18.958  1.00  0.00     0.376 HD
ATOM      3  H   UNL     1      44.017 132.694  18.744  1.00  0.00     0.376 HD
ENDROOT
BRANCH   1   4
ATOM      4  N   UNL     1      42.214 132.344  17.933  1.00  0.00    -0.178 NA
ATOM      5  H   UNL     1      42.241 133.369  17.719  1.00  0.00     0.183 HD
ATOM      6  H   UNL     1      41.574 132.196  18.750  1.00  0.00     0.183 HD
ENDBRANCH   1   4
BRANCH   1   7
ATOM      7  C   UNL     1      44.222 131.479  17.093  1.00  0.00     0.150 A 
ATOM      8  C   UNL     1      43.708 131.780  15.804  1.00  0.00     0.070 A 
ATOM      9  C   UNL     1      45.458 130.803  17.212  1.00  0.00     0.096 A 
ATOM     10  C   UNL     1      44.406 131.395  14.644  1.00  0.00     0.016 A 
ATOM     11  C   UNL     1      46.122 130.436  16.044  1.00  0.00     0.051 A 
ATOM     12  C   UNL     1      45.613 130.721  14.806  1.00  0.00    -0.000 A 
ATOM     13  N   UNL     1      47.295 129.791  15.939  1.00  0.00    -0.361 N 
ATOM     14  C   UNL     1      46.501 130.234  13.871  1.00  0.00     0.028 A 
ATOM     15  C   UNL     1      47.531 129.664  14.613  1.00  0.00     0.083 A 
ATOM     16  H   UNL     1      47.903 129.454  16.719  1.00  0.00     0.166 HD
ENDBRANCH   1   7
TORSDOF 2
ENDMDL
MODEL 4
REMARK VINA RESULT:      -6.8      1.391      4.130
REMARK SMILES N[NH2+]c1ccc2cc[nH]c2c1
REMARK SMILES IDX 2 1 1 4 3 7 4 8 11 9 5 10 10 11 6 12 9 13 7 14 8 15
REMARK H PARENT 2 2 2 3 1 5 1 6 9 16
ROOT
ATOM      1  N   UNL     1      47.430 130.105  13.629  1.00  0.00    -0.239 N 
ATOM      2  H   UNL     1      47.017 129.904  12.689  1.00  0.00     0.376 HD
ATOM      3  H   UNL     1      48.175 130.831  13.511  1.00  0.00     0.376 HD
ENDROOT
BRANCH   1   4
ATOM      4  N   UNL     1      48.027 128.923  14.119  1.00  0.00    -0.178 NA
ATOM      5  H   UNL     1      48.253 128.293  13.314  1.00  0.00     0.183 HD
ATOM      6  H   UNL     1      47.346 128.428  14.744  1.00  0.00     0.183 HD
ENDBRANCH   1   4
BRANCH   1   7
ATOM      7  C   UNL     1      46.413 130.565  14.543  1.00  0.00     0.150 A 
ATOM      8  C   UNL     1      45.188 131.085  14.046  1.00  0.00     0.070 A 
ATOM      9  C   UNL     1      46.608 130.455  15.940  1.00  0.00     0.096 A 
ATOM     10  C   UNL     1      44.176 131.509  14.927  1.00  0.00     0.016 A 
ATOM     11  C   UNL     1      45.587 130.885  16.784  1.00  0.00     0.051 A 
ATOM     12  C   UNL     1      44.414 131.394  16.294  1.00  0.00    -0.000 A 
ATOM     13  N   UNL     1      45.575 130.868  18.126  1.00  0.00    -0.361 N 
ATOM     14  C   UNL     1      43.621 131.718  17.373  1.00  0.00     0.028 A 
ATOM     15  C   UNL     1      44.376 131.378  18.492  1.00  0.00     0.083 A 
ATOM     16  H   UNL     1      46.333 130.533  18.761  1.00  0.00     0.166 HD
ENDBRANCH   1   7
TORSDOF 2
ENDMDL
MODEL 5
REMARK VINA RESULT:      -6.6      1.479      1.842
REMARK SMILES N[NH2+]c1ccc2cc[nH]c2c1
REMARK SMILES IDX 2 1 1 4 3 7 4 8 11 9 5 10 10 11 6 12 9 13 7 14 8 15
REMARK H PARENT 2 2 2 3 1 5 1 6 9 16
ROOT
ATOM      1  N   UNL     1      44.270 131.567  19.539  1.00  0.00    -0.239 N 
ATOM      2  H   UNL     1      43.761 132.478  19.611  1.00  0.00     0.376 HD
ATOM      3  H   UNL     1      43.658 130.818  19.940  1.00  0.00     0.376 HD
ENDROOT
BRANCH   1   4
ATOM      4  N   UNL     1      45.448 131.648  20.314  1.00  0.00    -0.178 NA
ATOM      5  H   UNL     1      45.269 132.254  21.149  1.00  0.00     0.183 HD
ATOM      6  H   UNL     1      46.206 132.093  19.741  1.00  0.00     0.183 HD
ENDBRANCH   1   4
BRANCH   1   7
ATOM      7  C   UNL     1      44.597 131.275  18.164  1.00  0.00     0.150 A 
ATOM      8  C   UNL     1      43.739 131.707  17.119  1.00  0.00     0.070 A 
ATOM      9  C   UNL     1      45.799 130.600  17.847  1.00  0.00     0.096 A 
ATOM     10  C   UNL     1      44.062 131.455  15.772  1.00  0.00     0.016 A 
ATOM     11  C   UNL     1      46.087 130.365  16.504  1.00  0.00     0.051 A 
ATOM     12  C   UNL     1      45.248 130.777  15.505  1.00  0.00    -0.000 A 
ATOM     13  N   UNL     1      47.164 129.745  15.997  1.00  0.00    -0.361 N 
ATOM     14  C   UNL     1      45.815 130.401  14.307  1.00  0.00     0.028 A 
ATOM     15  C   UNL     1      47.002 129.763  14.653  1.00  0.00     0.083 A 
ATOM     16  H   UNL     1      47.964 129.331  16.526  1.00  0.00     0.166 HD
ENDBRANCH   1   7
TORSDOF 2
ENDMDL
MODEL 6
REMARK VINA RESULT:      -6.5      3.133      5.561
REMARK SMILES N[NH2+]c1ccc2cc[nH]c2c1
REMARK SMILES IDX 2 1 1 4 3 7 4 8 11 9 5 10 10 11 6 12 9 13 7 14 8 15
REMARK H PARENT 2 2 2 3 1 5 1 6 9 16
ROOT
ATOM      1  N   UNL     1      46.490 130.149  16.837  1.00  0.00    -0.239 N 
ATOM      2  H   UNL     1      46.797 130.916  16.194  1.00  0.00     0.376 HD
ATOM      3  H   UNL     1      47.340 129.750  17.299  1.00  0.00     0.376 HD
ENDROOT
BRANCH   1   4
ATOM      4  N   UNL     1      45.878 129.136  16.068  1.00  0.00    -0.178 NA
ATOM      5  H   UNL     1      46.278 128.207  16.341  1.00  0.00     0.183 HD
ATOM      6  H   UNL     1      46.090 129.299  15.054  1.00  0.00     0.183 HD
ENDBRANCH   1   4
BRANCH   1   7
ATOM      7  C   UNL     1      45.565 130.654  17.823  1.00  0.00     0.150 A 
ATOM      8  C   UNL     1      45.891 130.596  19.204  1.00  0.00     0.070 A 
ATOM      9  C   UNL     1      44.350 131.254  17.417  1.00  0.00     0.096 A 
ATOM     10  C   UNL     1      45.011 131.112  20.173  1.00  0.00     0.016 A 
ATOM     11  C   UNL     1      43.501 131.753  18.402  1.00  0.00     0.051 A 
ATOM     12  C   UNL     1      43.821 131.684  19.731  1.00  0.00    -0.000 A 
ATOM     13  N   UNL     1      42.313 132.352  18.229  1.00  0.00    -0.361 N 
ATOM     14  C   UNL     1      42.788 132.263  20.436  1.00  0.00     0.028 A 
ATOM     15  C   UNL     1      41.871 132.664  19.469  1.00  0.00     0.083 A 
ATOM     16  H   UNL     1      41.824 132.540  17.324  1.00  0.00     0.166 HD
ENDBRANCH   1   7
TORSDOF 2
ENDMDL
MODEL 7
REMARK VINA RESULT:      -6.4      1.898      4.441
REMARK SMILES N[NH2+]c1ccc2cc[nH]c2c1
REMARK SMILES IDX 2 1 1 4 3 7 4 8 11 9 5 10 10 11 6 12 9 13 7 14 8 15
REMARK H PARENT 2 2 2 3 1 5 1 6 9 16
ROOT
ATOM      1  N   UNL     1      46.011 129.910  14.456  1.00  0.00    -0.239 N 
ATOM      2  H   UNL     1      45.343 129.215  14.049  1.00  0.00     0.376 HD
ATOM      3  H   UNL     1      46.146 130.680  13.759  1.00  0.00     0.376 HD
ENDROOT
BRANCH   1   4
ATOM      4  N   UNL     1      47.252 129.271  14.666  1.00  0.00    -0.178 NA
ATOM      5  H   UNL     1      47.809 129.820  15.363  1.00  0.00     0.183 HD
ATOM      6  H   UNL     1      47.785 129.249  13.764  1.00  0.00     0.183 HD
ENDBRANCH   1   4
BRANCH   1   7
ATOM      7  C   UNL     1      45.503 130.434  15.700  1.00  0.00     0.150 A 
ATOM      8  C   UNL     1      44.321 131.222  15.714  1.00  0.00     0.070 A 
ATOM      9  C   UNL     1      46.151 130.126  16.919  1.00  0.00     0.096 A 
ATOM     10  C   UNL     1      43.799 131.714  16.925  1.00  0.00     0.016 A 
ATOM     11  C   UNL     1      45.608 130.630  18.099  1.00  0.00     0.051 A 
ATOM     12  C   UNL     1      44.474 131.397  18.100  1.00  0.00    -0.000 A 
ATOM     13  N   UNL     1      46.067 130.457  19.348  1.00  0.00    -0.361 N 
ATOM     14  C   UNL     1      44.200 131.728  19.409  1.00  0.00     0.028 A 
ATOM     15  C   UNL     1      45.210 131.128  20.154  1.00  0.00     0.083 A 
ATOM     16  H   UNL     1      46.911 129.918  19.643  1.00  0.00     0.166 HD
ENDBRANCH   1   7
TORSDOF 2
ENDMDL
MODEL 8
REMARK VINA RESULT:      -6.4      2.956      5.377
REMARK SMILES N[NH2+]c1ccc2cc[nH]c2c1
REMARK SMILES IDX 2 1 1 4 3 7 4 8 11 9 5 10 10 11 6 12 9 13 7 14 8 15
REMARK H PARENT 2 2 2 3 1 5 1 6 9 16
ROOT
ATOM      1  N   UNL     1      45.400 130.241  15.315  1.00  0.00    -0.239 N 
ATOM      2  H   UNL     1      44.677 130.427  14.582  1.00  0.00     0.376 HD
ATOM      3  H   UNL     1      46.277 130.744  15.044  1.00  0.00     0.376 HD
ENDROOT
BRANCH   1   4
ATOM      4  N   UNL     1      45.667 128.855  15.342  1.00  0.00    -0.178 NA
ATOM      5  H   UNL     1      46.552 128.685  15.875  1.00  0.00     0.183 HD
ATOM      6  H   UNL     1      45.802 128.512  14.361  1.00  0.00     0.183 HD
ENDBRANCH   1   4
BRANCH   1   7
ATOM      7  C   UNL     1      44.938 130.685  16.608  1.00  0.00     0.150 A 
ATOM      8  C   UNL     1      45.755 130.511  17.757  1.00  0.00     0.070 A 
ATOM      9  C   UNL     1      43.691 131.342  16.731  1.00  0.00     0.096 A 
ATOM     10  C   UNL     1      45.328 130.966  19.019  1.00  0.00     0.016 A 
ATOM     11  C   UNL     1      43.299 131.779  17.994  1.00  0.00     0.051 A 
ATOM     12  C   UNL     1      44.089 131.596  19.097  1.00  0.00    -0.000 A 
ATOM     13  N   UNL     1      42.164 132.415  18.322  1.00  0.00    -0.361 N 
ATOM     14  C   UNL     1      43.426 132.139  20.175  1.00  0.00     0.028 A 
ATOM     15  C   UNL     1      42.235 132.637  19.655  1.00  0.00     0.083 A 
ATOM     16  H   UNL     1      41.382 132.685  17.683  1.00  0.00     0.166 HD
ENDBRANCH   1   7
TORSDOF 2
ENDMDL
MODEL 9
REMARK VINA RESULT:      -6.4      3.167      5.653
REMARK SMILES N[NH2+]c1ccc2cc[nH]c2c1
REMARK SMILES IDX 2 1 1 4 3 7 4 8 11 9 5 10 10 11 6 12 9 13 7 14 8 15
REMARK H PARENT 2 2 2 3 1 5 1 6 9 16
ROOT
ATOM      1  N   UNL     1      45.534 130.942  15.592  1.00  0.00    -0.239 N 
ATOM      2  H   UNL     1      46.321 130.261  15.698  1.00  0.00     0.376 HD
ATOM      3  H   UNL     1      44.842 130.540  14.918  1.00  0.00     0.376 HD
ENDROOT
BRANCH   1   4
ATOM      4  N   UNL     1      46.047 132.140  15.049  1.00  0.00    -0.178 NA
ATOM      5  H   UNL     1      46.606 132.639  15.781  1.00  0.00     0.183 HD
ATOM      6  H   UNL     1      45.249 132.759  14.766  1.00  0.00     0.183 HD
ENDBRANCH   1   4
BRANCH   1   7
ATOM      7  C   UNL     1      44.911 131.200  16.867  1.00  0.00     0.150 A 
ATOM      8  C   UNL     1      45.622 130.955  18.072  1.00  0.00     0.070 A 
ATOM      9  C   UNL     1      43.607 131.746  16.925  1.00  0.00     0.096 A 
ATOM     10  C   UNL     1      45.036 131.230  19.322  1.00  0.00     0.016 A 
ATOM     11  C   UNL     1      43.057 132.006  18.178  1.00  0.00     0.051 A 
ATOM     12  C   UNL     1      43.747 131.756  19.333  1.00  0.00    -0.000 A 
ATOM     13  N   UNL     1      41.845 132.516  18.448  1.00  0.00    -0.361 N 
ATOM     14  C   UNL     1      42.937 132.121  20.386  1.00  0.00     0.028 A 
ATOM     15  C   UNL     1      41.766 132.587  19.797  1.00  0.00     0.083 A 
ATOM     16  H   UNL     1      41.110 132.800  17.761  1.00  0.00     0.166 HD
ENDBRANCH   1   7
TORSDOF 2
ENDMDL


