REMARK SMILES C=c1cc(Nc2ccc3cc[nH]c3c2)/c(=C(\O)C(=O)c2ccc(C)cc2)cc1[O-]
REMARK SMILES IDX 15 1 27 2 28 3 29 4 2 5 1 6 3 7 4 8 16 9 17 10 18 12 19 13
REMARK SMILES IDX 20 14 21 15 26 16 22 17 25 18 23 19 24 20 5 21 6 23 7 24
REMARK SMILES IDX 14 25 8 26 13 27 9 28 12 29 10 30 11 31
REMARK H PARENT 17 11 5 22 12 32
ROOT
ATOM      1  C   UNL     1      -1.062  -1.365   1.522  1.00  0.00     0.043 A 
ATOM      2  C   UNL     1      -1.051  -1.223   2.932  1.00  0.00     0.006 A 
ATOM      3  C   UNL     1      -0.269  -2.043   3.747  1.00  0.00    -0.101 A 
ATOM      4  O   UNL     1      -0.294  -1.840   5.124  1.00  0.00    -0.872 OA
ATOM      5  C   UNL     1       0.528  -3.049   3.181  1.00  0.00    -0.039 A 
ATOM      6  C   UNL     1       1.282  -3.851   3.945  1.00  0.00     0.016 C 
ATOM      7  C   UNL     1       0.521  -3.218   1.790  1.00  0.00     0.033 A 
ATOM      8  C   UNL     1      -0.258  -2.398   0.956  1.00  0.00     0.050 A 
ENDROOT
BRANCH   1   9
ATOM      9  C   UNL     1      -1.780  -0.498   0.750  1.00  0.00     0.173 C 
BRANCH   9  10
ATOM     10  O   UNL     1      -1.605  -0.462  -0.634  1.00  0.00    -0.504 OA
ATOM     11  H   UNL     1      -2.145   0.161  -1.224  1.00  0.00     0.293 HD
ENDBRANCH   9  10
BRANCH   9  12
ATOM     12  C   UNL     1      -2.763   0.453   1.326  1.00  0.00     0.228 C 
ATOM     13  O   UNL     1      -3.704  -0.007   2.028  1.00  0.00    -0.285 OA
BRANCH  12  14
ATOM     14  C   UNL     1      -2.691   1.911   1.058  1.00  0.00     0.026 A 
ATOM     15  C   UNL     1      -3.795   2.736   1.339  1.00  0.00     0.012 A 
ATOM     16  C   UNL     1      -1.516   2.501   0.555  1.00  0.00     0.012 A 
ATOM     17  C   UNL     1      -3.730   4.114   1.113  1.00  0.00     0.004 A 
ATOM     18  C   UNL     1      -1.451   3.879   0.332  1.00  0.00     0.004 A 
ATOM     19  C   UNL     1      -2.555   4.694   0.611  1.00  0.00    -0.051 A 
ATOM     20  C   UNL     1      -2.473   6.172   0.362  1.00  0.00     0.044 C 
ENDBRANCH  12  14
ENDBRANCH   9  12
ENDBRANCH   1   9
BRANCH   8  21
ATOM     21  N   UNL     1      -0.315  -2.722  -0.444  1.00  0.00    -0.355 N 
ATOM     22  H   UNL     1      -1.256  -2.907  -0.861  1.00  0.00     0.167 HD
BRANCH  21  23
ATOM     23  C   UNL     1       0.852  -2.962  -1.251  1.00  0.00     0.041 A 
ATOM     24  C   UNL     1       2.107  -2.385  -0.915  1.00  0.00     0.027 A 
ATOM     25  C   UNL     1       0.739  -3.761  -2.409  1.00  0.00     0.052 A 
ATOM     26  C   UNL     1       3.243  -2.625  -1.710  1.00  0.00     0.012 A 
ATOM     27  C   UNL     1       1.885  -3.979  -3.172  1.00  0.00     0.047 A 
ATOM     28  C   UNL     1       3.092  -3.432  -2.832  1.00  0.00    -0.001 A 
ATOM     29  N   UNL     1       1.996  -4.724  -4.284  1.00  0.00    -0.361 N 
ATOM     30  C   UNL     1       4.013  -3.845  -3.768  1.00  0.00     0.028 A 
ATOM     31  C   UNL     1       3.296  -4.646  -4.652  1.00  0.00     0.083 A 
ATOM     32  H   UNL     1       1.240  -5.261  -4.762  1.00  0.00     0.166 HD
ENDBRANCH  21  23
ENDBRANCH   8  21
TORSDOF 6


