REMARK SMILES [O-]C(N[C@H]1Cc2ccccc2[C@@H]1O)=C1CCCC1
REMARK SMILES IDX 4 1 5 2 6 3 7 4 8 5 9 6 10 7 11 8 12 9 3 10 2 12 1 13 14 14
REMARK SMILES IDX 15 15 18 16 16 17 17 18 13 19
REMARK H PARENT 3 11 13 20
ROOT
ATOM      1  C   UNL     1       2.072   0.124   0.727  1.00  0.00     0.115 C 
ATOM      2  C   UNL     1       2.434  -0.757   1.949  1.00  0.00     0.063 C 
ATOM      3  C   UNL     1       2.274  -2.141   1.449  1.00  0.00    -0.040 A 
ATOM      4  C   UNL     1       2.360  -3.317   2.199  1.00  0.00     0.004 A 
ATOM      5  C   UNL     1       2.198  -4.548   1.546  1.00  0.00     0.000 A 
ATOM      6  C   UNL     1       1.960  -4.586   0.160  1.00  0.00     0.000 A 
ATOM      7  C   UNL     1       1.885  -3.394  -0.575  1.00  0.00     0.007 A 
ATOM      8  C   UNL     1       2.048  -2.178   0.095  1.00  0.00    -0.014 A 
ATOM      9  C   UNL     1       2.015  -0.819  -0.503  1.00  0.00     0.167 C 
ENDROOT
BRANCH   1  10
ATOM     10  N   UNL     1       0.775   0.786   0.916  1.00  0.00    -0.391 N 
ATOM     11  H   UNL     1       0.125   0.423   1.649  1.00  0.00     0.159 HD
BRANCH  10  12
ATOM     12  C   UNL     1       0.370   1.884   0.079  1.00  0.00    -0.046 C 
ATOM     13  O   UNL     1       1.223   2.319  -0.933  1.00  0.00    -0.860 OA
BRANCH  12  14
ATOM     14  C   UNL     1      -0.813   2.499   0.247  1.00  0.00    -0.062 C 
ATOM     15  C   UNL     1      -1.813   2.150   1.296  1.00  0.00     0.032 C 
ATOM     16  C   UNL     1      -1.274   3.622  -0.616  1.00  0.00     0.032 C 
ATOM     17  C   UNL     1      -2.889   3.222   1.176  1.00  0.00     0.005 C 
ATOM     18  C   UNL     1      -2.721   3.857  -0.203  1.00  0.00     0.005 C 
ENDBRANCH  12  14
ENDBRANCH  10  12
ENDBRANCH   1  10
BRANCH   9  19
ATOM     19  O   UNL     1       3.146  -0.623  -1.312  1.00  0.00    -0.386 OA
ATOM     20  H   UNL     1       2.955  -1.063  -2.181  1.00  0.00     0.211 HD
ENDBRANCH   9  19
TORSDOF 4


