REMARK SMILES CCNC(=O)CCOc1ccc(C(=O)[N-][C@H]2CC23CCC3)c(C)c1
REMARK SMILES IDX 7 1 6 2 4 3 3 4 5 6 2 7 1 8 8 9 9 10 10 11 24 12 11 13 22 14
REMARK SMILES IDX 12 15 23 16 13 17 14 18 15 19 16 20 17 21 18 22 19 23 21 24
REMARK SMILES IDX 20 25
REMARK H PARENT 3 5
ROOT
ATOM      1  C   UNL     1      -2.015  -1.900   2.643  1.00  0.00     0.239 C 
ENDROOT
BRANCH   1   2
ATOM      2  C   UNL     1      -2.984  -1.777   3.818  1.00  0.00     0.141 C 
BRANCH   2   3
ATOM      3  C   UNL     1      -4.188  -0.963   3.443  1.00  0.00     0.223 C 
ATOM      4  N   UNL     1      -4.220   0.444   3.727  1.00  0.00    -0.356 N 
ATOM      5  H   UNL     1      -3.377   0.893   4.150  1.00  0.00     0.163 HD
ATOM      6  O   UNL     1      -5.148  -1.514   2.838  1.00  0.00    -0.275 OA
BRANCH   4   7
ATOM      7  C   UNL     1      -5.351   1.297   3.373  1.00  0.00     0.112 C 
ATOM      8  C   UNL     1      -6.537   1.032   4.295  1.00  0.00     0.027 C 
ENDBRANCH   4   7
ENDBRANCH   2   3
ENDBRANCH   1   2
BRANCH   1   9
ATOM      9  O   UNL     1      -1.590  -0.604   2.224  1.00  0.00    -0.493 OA
BRANCH   9  10
ATOM     10  C   UNL     1      -0.664  -0.363   1.198  1.00  0.00     0.119 A 
ATOM     11  C   UNL     1       0.007  -1.399   0.531  1.00  0.00     0.047 A 
ATOM     12  C   UNL     1      -0.404   0.962   0.838  1.00  0.00     0.050 A 
ATOM     13  C   UNL     1       0.927  -1.107  -0.476  1.00  0.00     0.014 A 
ATOM     14  C   UNL     1       0.525   1.275  -0.171  1.00  0.00    -0.038 A 
ATOM     15  C   UNL     1       1.194   0.222  -0.852  1.00  0.00     0.002 A 
ATOM     16  C   UNL     1       0.778   2.728  -0.489  1.00  0.00     0.045 C 
BRANCH  15  17
ATOM     17  C   UNL     1       2.182   0.462  -1.935  1.00  0.00     0.082 C 
ATOM     18  O   UNL     1       2.099   1.485  -2.667  1.00  0.00    -0.315 OA
BRANCH  17  19
ATOM     19  N   UNL     1       3.238  -0.479  -2.152  1.00  0.00    -0.646 NA
BRANCH  19  20
ATOM     20  C   UNL     1       4.245  -0.310  -3.191  1.00  0.00    -0.100 C 
ATOM     21  C   UNL     1       5.429   0.568  -2.772  1.00  0.00    -0.010 C 
ATOM     22  C   UNL     1       5.561  -0.950  -2.825  1.00  0.00    -0.044 C 
ATOM     23  C   UNL     1       6.018  -1.638  -1.570  1.00  0.00     0.006 C 
ATOM     24  C   UNL     1       6.654  -1.505  -3.692  1.00  0.00     0.006 C 
ATOM     25  C   UNL     1       7.167  -2.220  -2.422  1.00  0.00     0.001 C 
ENDBRANCH  19  20
ENDBRANCH  17  19
ENDBRANCH  15  17
ENDBRANCH   9  10
ENDBRANCH   1   9
TORSDOF 8


