MODEL 1
REMARK VINA RESULT:      -7.2      0.000      0.000
REMARK SMILES Cc1ccc([C@@H]2CC[C@@H]3CC=N[C@]3(C=O)C2)c(F)c1F
REMARK SMILES IDX 6 1 7 2 8 3 9 4 10 5 11 6 12 7 13 8 16 9 5 10 2 11 3 12
REMARK SMILES IDX 19 13 4 14 17 15 1 16 20 17 18 18 14 19 15 20
REMARK H PARENT
ROOT
ATOM      1  C   UNL     1      44.530 130.842  17.082  1.00  0.00     0.025 C 
ATOM      2  C   UNL     1      44.797 129.341  16.771  1.00  0.00     0.009 C 
ATOM      3  C   UNL     1      46.013 129.119  15.862  1.00  0.00     0.007 C 
ATOM      4  C   UNL     1      45.904 129.966  14.577  1.00  0.00     0.029 C 
ATOM      5  C   UNL     1      47.223 129.964  13.784  1.00  0.00     0.054 C 
ATOM      6  C   UNL     1      47.590 131.399  13.737  1.00  0.00     0.079 C 
ATOM      7  N   UNL     1      46.743 132.173  14.295  1.00  0.00    -0.283 NA
ATOM      8  C   UNL     1      45.610 131.478  14.852  1.00  0.00     0.119 C 
ATOM      9  C   UNL     1      45.510 131.799  16.364  1.00  0.00     0.047 C 
ENDROOT
BRANCH   1  10
ATOM     10  C   UNL     1      44.504 131.124  18.576  1.00  0.00    -0.006 A 
ATOM     11  C   UNL     1      44.491 131.599  21.360  1.00  0.00    -0.012 A 
ATOM     12  C   UNL     1      45.592 130.979  20.752  1.00  0.00     0.007 A 
ATOM     13  C   UNL     1      43.385 131.963  20.576  1.00  0.00     0.162 A 
ATOM     14  C   UNL     1      45.598 130.746  19.374  1.00  0.00     0.007 A 
ATOM     15  C   UNL     1      43.389 131.731  19.196  1.00  0.00     0.162 A 
ATOM     16  C   UNL     1      44.474 131.826  22.844  1.00  0.00     0.047 C 
ATOM     17  F   UNL     1      42.300 132.542  21.151  1.00  0.00    -0.203 F 
ATOM     18  F   UNL     1      42.306 132.102  18.469  1.00  0.00    -0.203 F 
ENDBRANCH   1  10
BRANCH   8  19
ATOM     19  C   UNL     1      44.357 131.943  14.139  1.00  0.00     0.254 C 
ATOM     20  O   UNL     1      43.460 131.154  13.887  1.00  0.00    -0.301 OA
ENDBRANCH   8  19
TORSDOF 2
ENDMDL
MODEL 2
REMARK VINA RESULT:      -6.4      4.154      7.333
REMARK SMILES Cc1ccc([C@@H]2CC[C@@H]3CC=N[C@]3(C=O)C2)c(F)c1F
REMARK SMILES IDX 6 1 7 2 8 3 9 4 10 5 11 6 12 7 13 8 16 9 5 10 2 11 3 12
REMARK SMILES IDX 19 13 4 14 17 15 1 16 20 17 18 18 14 19 15 20
REMARK H PARENT
ROOT
ATOM      1  C   UNL     1      44.466 131.192  21.032  1.00  0.00     0.025 C 
ATOM      2  C   UNL     1      45.406 130.021  21.441  1.00  0.00     0.009 C 
ATOM      3  C   UNL     1      44.735 129.006  22.376  1.00  0.00     0.007 C 
ATOM      4  C   UNL     1      44.120 129.709  23.603  1.00  0.00     0.029 C 
ATOM      5  C   UNL     1      43.221 128.757  24.411  1.00  0.00     0.054 C 
ATOM      6  C   UNL     1      41.899 129.426  24.371  1.00  0.00     0.079 C 
ATOM      7  N   UNL     1      41.898 130.543  23.755  1.00  0.00    -0.283 NA
ATOM      8  C   UNL     1      43.188 130.910  23.229  1.00  0.00     0.119 C 
ATOM      9  C   UNL     1      43.074 131.119  21.699  1.00  0.00     0.047 C 
ENDROOT
BRANCH   1  10
ATOM     10  C   UNL     1      44.331 131.321  19.522  1.00  0.00    -0.006 A 
ATOM     11  C   UNL     1      44.020 131.550  16.725  1.00  0.00    -0.012 A 
ATOM     12  C   UNL     1      42.952 131.845  17.583  1.00  0.00     0.007 A 
ATOM     13  C   UNL     1      45.241 131.119  17.268  1.00  0.00     0.162 A 
ATOM     14  C   UNL     1      43.107 131.733  18.968  1.00  0.00     0.007 A 
ATOM     15  C   UNL     1      45.399 131.007  18.653  1.00  0.00     0.162 A 
ATOM     16  C   UNL     1      43.846 131.646  15.237  1.00  0.00     0.047 C 
ATOM     17  F   UNL     1      46.280 130.805  16.452  1.00  0.00    -0.203 F 
ATOM     18  F   UNL     1      46.595 130.594  19.142  1.00  0.00    -0.203 F 
ENDBRANCH   1  10
BRANCH   8  19
ATOM     19  C   UNL     1      43.636 132.194  23.897  1.00  0.00     0.254 C 
ATOM     20  O   UNL     1      44.616 132.204  24.625  1.00  0.00    -0.301 OA
ENDBRANCH   8  19
TORSDOF 2
ENDMDL
MODEL 3
REMARK VINA RESULT:      -6.3      3.056      6.517
REMARK SMILES Cc1ccc([C@@H]2CC[C@@H]3CC=N[C@]3(C=O)C2)c(F)c1F
REMARK SMILES IDX 6 1 7 2 8 3 9 4 10 5 11 6 12 7 13 8 16 9 5 10 2 11 3 12
REMARK SMILES IDX 19 13 4 14 17 15 1 16 20 17 18 18 14 19 15 20
REMARK H PARENT
ROOT
ATOM      1  C   UNL     1      44.292 131.909  19.567  1.00  0.00     0.025 C 
ATOM      2  C   UNL     1      45.552 132.183  20.440  1.00  0.00     0.009 C 
ATOM      3  C   UNL     1      45.576 131.365  21.738  1.00  0.00     0.007 C 
ATOM      4  C   UNL     1      44.269 131.555  22.534  1.00  0.00     0.029 C 
ATOM      5  C   UNL     1      44.161 130.550  23.694  1.00  0.00     0.054 C 
ATOM      6  C   UNL     1      42.917 129.806  23.381  1.00  0.00     0.079 C 
ATOM      7  N   UNL     1      42.315 130.215  22.333  1.00  0.00    -0.283 NA
ATOM      8  C   UNL     1      42.980 131.313  21.680  1.00  0.00     0.119 C 
ATOM      9  C   UNL     1      43.301 130.917  20.218  1.00  0.00     0.047 C 
ENDROOT
BRANCH   1  10
ATOM     10  C   UNL     1      44.653 131.461  18.159  1.00  0.00    -0.006 A 
ATOM     11  C   UNL     1      45.384 130.634  15.560  1.00  0.00    -0.012 A 
ATOM     12  C   UNL     1      46.236 130.391  16.647  1.00  0.00     0.007 A 
ATOM     13  C   UNL     1      44.173 131.312  15.772  1.00  0.00     0.162 A 
ATOM     14  C   UNL     1      45.872 130.799  17.933  1.00  0.00     0.007 A 
ATOM     15  C   UNL     1      43.807 131.721  17.059  1.00  0.00     0.162 A 
ATOM     16  C   UNL     1      45.786 130.219  14.174  1.00  0.00     0.047 C 
ATOM     17  F   UNL     1      43.346 131.579  14.728  1.00  0.00    -0.203 F 
ATOM     18  F   UNL     1      42.626 132.368  17.227  1.00  0.00    -0.203 F 
ENDBRANCH   1  10
BRANCH   8  19
ATOM     19  C   UNL     1      42.061 132.517  21.702  1.00  0.00     0.254 C 
ATOM     20  O   UNL     1      41.625 132.982  20.660  1.00  0.00    -0.301 OA
ENDBRANCH   8  19
TORSDOF 2
ENDMDL
MODEL 4
REMARK VINA RESULT:      -5.9      3.725      6.939
REMARK SMILES Cc1ccc([C@@H]2CC[C@@H]3CC=N[C@]3(C=O)C2)c(F)c1F
REMARK SMILES IDX 6 1 7 2 8 3 9 4 10 5 11 6 12 7 13 8 16 9 5 10 2 11 3 12
REMARK SMILES IDX 19 13 4 14 17 15 1 16 20 17 18 18 14 19 15 20
REMARK H PARENT
ROOT
ATOM      1  C   UNL     1      44.846 130.984  20.690  1.00  0.00     0.025 C 
ATOM      2  C   UNL     1      45.744 129.796  21.145  1.00  0.00     0.009 C 
ATOM      3  C   UNL     1      45.032 128.834  22.104  1.00  0.00     0.007 C 
ATOM      4  C   UNL     1      44.429 129.595  23.303  1.00  0.00     0.029 C 
ATOM      5  C   UNL     1      43.492 128.699  24.131  1.00  0.00     0.054 C 
ATOM      6  C   UNL     1      42.193 129.408  24.057  1.00  0.00     0.079 C 
ATOM      7  N   UNL     1      42.234 130.505  23.406  1.00  0.00    -0.283 NA
ATOM      8  C   UNL     1      43.540 130.813  22.882  1.00  0.00     0.119 C 
ATOM      9  C   UNL     1      43.446 130.978  21.345  1.00  0.00     0.047 C 
ENDROOT
BRANCH   1  10
ATOM     10  C   UNL     1      44.729 131.070  19.176  1.00  0.00    -0.006 A 
ATOM     11  C   UNL     1      44.575 131.231  16.361  1.00  0.00    -0.012 A 
ATOM     12  C   UNL     1      45.698 130.663  16.977  1.00  0.00     0.007 A 
ATOM     13  C   UNL     1      43.536 131.740  17.156  1.00  0.00     0.162 A 
ATOM     14  C   UNL     1      45.773 130.581  18.370  1.00  0.00     0.007 A 
ATOM     15  C   UNL     1      43.608 131.659  18.551  1.00  0.00     0.162 A 
ATOM     16  C   UNL     1      44.506 131.342  14.865  1.00  0.00     0.047 C 
ATOM     17  F   UNL     1      42.451 132.317  16.578  1.00  0.00    -0.203 F 
ATOM     18  F   UNL     1      42.583 132.156  19.288  1.00  0.00    -0.203 F 
ENDBRANCH   1  10
BRANCH   8  19
ATOM     19  C   UNL     1      44.024 132.102  23.514  1.00  0.00     0.254 C 
ATOM     20  O   UNL     1      44.549 132.093  24.616  1.00  0.00    -0.301 OA
ENDBRANCH   8  19
TORSDOF 2
ENDMDL
MODEL 5
REMARK VINA RESULT:      -5.3      1.401      1.775
REMARK SMILES Cc1ccc([C@@H]2CC[C@@H]3CC=N[C@]3(C=O)C2)c(F)c1F
REMARK SMILES IDX 6 1 7 2 8 3 9 4 10 5 11 6 12 7 13 8 16 9 5 10 2 11 3 12
REMARK SMILES IDX 19 13 4 14 17 15 1 16 20 17 18 18 14 19 15 20
REMARK H PARENT
ROOT
ATOM      1  C   UNL     1      44.275 130.799  16.791  1.00  0.00     0.025 C 
ATOM      2  C   UNL     1      44.643 129.300  16.591  1.00  0.00     0.009 C 
ATOM      3  C   UNL     1      45.960 129.098  15.830  1.00  0.00     0.007 C 
ATOM      4  C   UNL     1      45.951 129.873  14.496  1.00  0.00     0.029 C 
ATOM      5  C   UNL     1      47.346 129.901  13.848  1.00  0.00     0.054 C 
ATOM      6  C   UNL     1      47.649 131.349  13.762  1.00  0.00     0.079 C 
ATOM      7  N   UNL     1      46.712 132.105  14.185  1.00  0.00    -0.283 NA
ATOM      8  C   UNL     1      45.559 131.380  14.656  1.00  0.00     0.119 C 
ATOM      9  C   UNL     1      45.281 131.769  16.129  1.00  0.00     0.047 C 
ENDROOT
BRANCH   1  10
ATOM     10  C   UNL     1      44.074 131.153  18.256  1.00  0.00    -0.006 A 
ATOM     11  C   UNL     1      43.659 131.854  20.960  1.00  0.00    -0.012 A 
ATOM     12  C   UNL     1      42.647 132.057  20.012  1.00  0.00     0.007 A 
ATOM     13  C   UNL     1      44.890 131.318  20.549  1.00  0.00     0.162 A 
ATOM     14  C   UNL     1      42.852 131.708  18.674  1.00  0.00     0.007 A 
ATOM     15  C   UNL     1      45.098 130.968  19.211  1.00  0.00     0.162 A 
ATOM     16  C   UNL     1      43.448 132.252  22.392  1.00  0.00     0.047 C 
ATOM     17  F   UNL     1      45.892 131.137  21.448  1.00  0.00    -0.203 F 
ATOM     18  F   UNL     1      46.298 130.447  18.851  1.00  0.00    -0.203 F 
ENDBRANCH   1  10
BRANCH   8  19
ATOM     19  C   UNL     1      44.371 131.743  13.790  1.00  0.00     0.254 C 
ATOM     20  O   UNL     1      43.240 131.719  14.250  1.00  0.00    -0.301 OA
ENDBRANCH   8  19
TORSDOF 2
ENDMDL
MODEL 6
REMARK VINA RESULT:      -5.2      3.411      6.789
REMARK SMILES Cc1ccc([C@@H]2CC[C@@H]3CC=N[C@]3(C=O)C2)c(F)c1F
REMARK SMILES IDX 6 1 7 2 8 3 9 4 10 5 11 6 12 7 13 8 16 9 5 10 2 11 3 12
REMARK SMILES IDX 19 13 4 14 17 15 1 16 20 17 18 18 14 19 15 20
REMARK H PARENT
ROOT
ATOM      1  C   UNL     1      44.160 131.957  19.743  1.00  0.00     0.025 C 
ATOM      2  C   UNL     1      45.430 132.283  20.581  1.00  0.00     0.009 C 
ATOM      3  C   UNL     1      45.526 131.465  21.875  1.00  0.00     0.007 C 
ATOM      4  C   UNL     1      44.235 131.596  22.708  1.00  0.00     0.029 C 
ATOM      5  C   UNL     1      44.203 130.584  23.867  1.00  0.00     0.054 C 
ATOM      6  C   UNL     1      42.984 129.788  23.586  1.00  0.00     0.079 C 
ATOM      7  N   UNL     1      42.336 130.172  22.556  1.00  0.00    -0.283 NA
ATOM      8  C   UNL     1      42.934 131.300  21.889  1.00  0.00     0.119 C 
ATOM      9  C   UNL     1      43.232 130.922  20.417  1.00  0.00     0.047 C 
ENDROOT
BRANCH   1  10
ATOM     10  C   UNL     1      44.501 131.529  18.323  1.00  0.00    -0.006 A 
ATOM     11  C   UNL     1      45.072 130.734  15.675  1.00  0.00    -0.012 A 
ATOM     12  C   UNL     1      43.938 131.510  15.953  1.00  0.00     0.007 A 
ATOM     13  C   UNL     1      45.911 130.337  16.728  1.00  0.00     0.162 A 
ATOM     14  C   UNL     1      43.657 131.904  17.264  1.00  0.00     0.007 A 
ATOM     15  C   UNL     1      45.631 130.731  18.041  1.00  0.00     0.162 A 
ATOM     16  C   UNL     1      45.360 130.289  14.270  1.00  0.00     0.047 C 
ATOM     17  F   UNL     1      47.000 129.565  16.482  1.00  0.00    -0.203 F 
ATOM     18  F   UNL     1      46.467 130.334  19.034  1.00  0.00    -0.203 F 
ENDBRANCH   1  10
BRANCH   8  19
ATOM     19  C   UNL     1      41.965 132.463  21.940  1.00  0.00     0.254 C 
ATOM     20  O   UNL     1      41.570 132.985  20.909  1.00  0.00    -0.301 OA
ENDBRANCH   8  19
TORSDOF 2
ENDMDL
MODEL 7
REMARK VINA RESULT:      -5.0      3.001      6.383
REMARK SMILES Cc1ccc([C@@H]2CC[C@@H]3CC=N[C@]3(C=O)C2)c(F)c1F
REMARK SMILES IDX 6 1 7 2 8 3 9 4 10 5 11 6 12 7 13 8 16 9 5 10 2 11 3 12
REMARK SMILES IDX 19 13 4 14 17 15 1 16 20 17 18 18 14 19 15 20
REMARK H PARENT
ROOT
ATOM      1  C   UNL     1      44.821 131.922  18.642  1.00  0.00     0.025 C 
ATOM      2  C   UNL     1      45.900 132.445  19.636  1.00  0.00     0.009 C 
ATOM      3  C   UNL     1      45.746 131.872  21.051  1.00  0.00     0.007 C 
ATOM      4  C   UNL     1      44.314 132.092  21.583  1.00  0.00     0.029 C 
ATOM      5  C   UNL     1      44.063 131.300  22.877  1.00  0.00     0.054 C 
ATOM      6  C   UNL     1      42.930 130.415  22.517  1.00  0.00     0.079 C 
ATOM      7  N   UNL     1      42.493 130.584  21.329  1.00  0.00    -0.283 NA
ATOM      8  C   UNL     1      43.203 131.601  20.597  1.00  0.00     0.119 C 
ATOM      9  C   UNL     1      43.787 130.983  19.302  1.00  0.00     0.047 C 
ENDROOT
BRANCH   1  10
ATOM     10  C   UNL     1      45.438 131.265  17.417  1.00  0.00    -0.006 A 
ATOM     11  C   UNL     1      46.603 129.998  15.178  1.00  0.00    -0.012 A 
ATOM     12  C   UNL     1      46.167 129.240  16.274  1.00  0.00     0.007 A 
ATOM     13  C   UNL     1      46.475 131.396  15.212  1.00  0.00     0.162 A 
ATOM     14  C   UNL     1      45.589 129.868  17.381  1.00  0.00     0.007 A 
ATOM     15  C   UNL     1      45.896 132.026  16.319  1.00  0.00     0.162 A 
ATOM     16  C   UNL     1      47.247 129.326  14.000  1.00  0.00     0.047 C 
ATOM     17  F   UNL     1      46.913 132.149  14.171  1.00  0.00    -0.203 F 
ATOM     18  F   UNL     1      45.782 133.378  16.315  1.00  0.00    -0.203 F 
ENDBRANCH   1  10
BRANCH   8  19
ATOM     19  C   UNL     1      42.234 132.713  20.249  1.00  0.00     0.254 C 
ATOM     20  O   UNL     1      41.592 132.672  19.210  1.00  0.00    -0.301 OA
ENDBRANCH   8  19
TORSDOF 2
ENDMDL
MODEL 8
REMARK VINA RESULT:      -4.8      6.037      8.285
REMARK SMILES Cc1ccc([C@@H]2CC[C@@H]3CC=N[C@]3(C=O)C2)c(F)c1F
REMARK SMILES IDX 6 1 7 2 8 3 9 4 10 5 11 6 12 7 13 8 16 9 5 10 2 11 3 12
REMARK SMILES IDX 19 13 4 14 17 15 1 16 20 17 18 18 14 19 15 20
REMARK H PARENT
ROOT
ATOM      1  C   UNL     1      44.350 127.393  23.516  1.00  0.00     0.025 C 
ATOM      2  C   UNL     1      45.442 127.321  24.623  1.00  0.00     0.009 C 
ATOM      3  C   UNL     1      46.270 126.031  24.570  1.00  0.00     0.007 C 
ATOM      4  C   UNL     1      45.357 124.787  24.577  1.00  0.00     0.029 C 
ATOM      5  C   UNL     1      46.143 123.504  24.259  1.00  0.00     0.054 C 
ATOM      6  C   UNL     1      45.477 122.993  23.038  1.00  0.00     0.079 C 
ATOM      7  N   UNL     1      44.484 123.697  22.653  1.00  0.00    -0.283 NA
ATOM      8  C   UNL     1      44.230 124.839  23.493  1.00  0.00     0.119 C 
ATOM      9  C   UNL     1      44.289 126.126  22.634  1.00  0.00     0.047 C 
ENDROOT
BRANCH   1  10
ATOM     10  C   UNL     1      44.484 128.641  22.656  1.00  0.00    -0.006 A 
ATOM     11  C   UNL     1      44.795 130.943  21.051  1.00  0.00    -0.012 A 
ATOM     12  C   UNL     1      45.630 129.832  20.865  1.00  0.00     0.007 A 
ATOM     13  C   UNL     1      43.816 130.909  22.057  1.00  0.00     0.162 A 
ATOM     14  C   UNL     1      45.474 128.692  21.659  1.00  0.00     0.007 A 
ATOM     15  C   UNL     1      43.659 129.769  22.852  1.00  0.00     0.162 A 
ATOM     16  C   UNL     1      44.978 132.177  20.215  1.00  0.00     0.047 C 
ATOM     17  F   UNL     1      43.015 131.984  22.268  1.00  0.00    -0.203 F 
ATOM     18  F   UNL     1      42.699 129.769  23.810  1.00  0.00    -0.203 F 
ENDBRANCH   1  10
BRANCH   8  19
ATOM     19  C   UNL     1      42.854 124.690  24.110  1.00  0.00     0.254 C 
ATOM     20  O   UNL     1      41.851 124.877  23.438  1.00  0.00    -0.301 OA
ENDBRANCH   8  19
TORSDOF 2
ENDMDL
MODEL 9
REMARK VINA RESULT:      -4.7      3.095      6.481
REMARK SMILES Cc1ccc([C@@H]2CC[C@@H]3CC=N[C@]3(C=O)C2)c(F)c1F
REMARK SMILES IDX 6 1 7 2 8 3 9 4 10 5 11 6 12 7 13 8 16 9 5 10 2 11 3 12
REMARK SMILES IDX 19 13 4 14 17 15 1 16 20 17 18 18 14 19 15 20
REMARK H PARENT
ROOT
ATOM      1  C   UNL     1      44.756 132.102  18.974  1.00  0.00     0.025 C 
ATOM      2  C   UNL     1      45.905 132.404  19.980  1.00  0.00     0.009 C 
ATOM      3  C   UNL     1      45.788 131.608  21.287  1.00  0.00     0.007 C 
ATOM      4  C   UNL     1      44.396 131.796  21.925  1.00  0.00     0.029 C 
ATOM      5  C   UNL     1      44.165 130.809  23.082  1.00  0.00     0.054 C 
ATOM      6  C   UNL     1      42.972 130.047  22.642  1.00  0.00     0.079 C 
ATOM      7  N   UNL     1      42.490 130.431  21.525  1.00  0.00    -0.283 NA
ATOM      8  C   UNL     1      43.216 131.526  20.933  1.00  0.00     0.119 C 
ATOM      9  C   UNL     1      43.706 131.109  19.525  1.00  0.00     0.047 C 
ENDROOT
BRANCH   1  10
ATOM     10  C   UNL     1      45.280 131.635  17.625  1.00  0.00    -0.006 A 
ATOM     11  C   UNL     1      46.216 130.809  15.092  1.00  0.00    -0.012 A 
ATOM     12  C   UNL     1      45.748 132.116  15.283  1.00  0.00     0.007 A 
ATOM     13  C   UNL     1      46.196 129.906  16.167  1.00  0.00     0.162 A 
ATOM     14  C   UNL     1      45.287 132.525  16.537  1.00  0.00     0.007 A 
ATOM     15  C   UNL     1      45.735 130.313  17.424  1.00  0.00     0.162 A 
ATOM     16  C   UNL     1      46.688 130.362  13.738  1.00  0.00     0.047 C 
ATOM     17  F   UNL     1      46.622 128.628  15.996  1.00  0.00    -0.203 F 
ATOM     18  F   UNL     1      45.735 129.415  18.441  1.00  0.00    -0.203 F 
ENDBRANCH   1  10
BRANCH   8  19
ATOM     19  C   UNL     1      42.289 132.720  20.828  1.00  0.00     0.254 C 
ATOM     20  O   UNL     1      41.654 132.922  19.804  1.00  0.00    -0.301 OA
ENDBRANCH   8  19
TORSDOF 2
ENDMDL


