REMARK SMILES C#Cc1cncc([NH2+]c2cc(C)cc(-n3[nH+]c4ccccc4[nH+]3)c2N=[N+]=[N-])c1
REMARK SMILES IDX 9 1 10 2 11 3 12 4 13 5 14 6 24 7 8 8 7 11 3 12 4 13 28 14
REMARK SMILES IDX 5 15 6 16 2 17 1 18 25 19 26 20 27 21 15 22 16 23 23 24
REMARK SMILES IDX 17 25 22 26 18 27 21 28 19 29 20 30
REMARK H PARENT 8 9 8 10 16 31 23 32
ROOT
ATOM      1  C   UNL     1       2.097  -0.200  -0.268  1.00  0.00     0.147 A 
ATOM      2  C   UNL     1       3.150   0.275   0.536  1.00  0.00     0.072 A 
ATOM      3  C   UNL     1       2.947   0.585   1.884  1.00  0.00    -0.043 A 
ATOM      4  C   UNL     1       4.076   1.125   2.712  1.00  0.00     0.044 C 
ATOM      5  C   UNL     1       1.665   0.479   2.429  1.00  0.00     0.043 A 
ATOM      6  C   UNL     1       0.591   0.025   1.653  1.00  0.00     0.184 A 
ATOM      7  C   UNL     1       0.808  -0.360   0.312  1.00  0.00     0.134 A 
ENDROOT
BRANCH   1   8
ATOM      8  N   UNL     1       2.332  -0.400  -1.682  1.00  0.00    -0.280 N 
ATOM      9  H   UNL     1       3.355  -0.520  -1.870  1.00  0.00     0.358 HD
ATOM     10  H   UNL     1       1.885  -1.280  -2.018  1.00  0.00     0.358 HD
BRANCH   8  11
ATOM     11  C   UNL     1       1.857   0.742  -2.426  1.00  0.00     0.154 A 
ATOM     12  C   UNL     1       0.192   1.812  -3.834  1.00  0.00     0.048 A 
ATOM     13  C   UNL     1       0.955   2.983  -3.813  1.00  0.00     0.128 A 
ATOM     14  C   UNL     1       0.647   0.687  -3.138  1.00  0.00     0.088 A 
ATOM     15  N   UNL     1       2.125   3.021  -3.124  1.00  0.00    -0.257 NA
ATOM     16  C   UNL     1       2.588   1.942  -2.439  1.00  0.00     0.179 A 
BRANCH  12  17
ATOM     17  C   UNL     1      -1.049   1.764  -4.561  1.00  0.00    -0.069 C 
ATOM     18  C   UNL     1      -2.089   1.724  -5.170  1.00  0.00     0.010 C 
ENDBRANCH  12  17
ENDBRANCH   8  11
ENDBRANCH   1   8
BRANCH   7  19
ATOM     19  N   UNL     1      -0.290  -0.910  -0.429  1.00  0.00    -0.052 NA
BRANCH  19  20
ATOM     20  N   UNL     1      -0.214  -2.005  -0.986  1.00  0.00     0.006 N 
ATOM     21  N   UNL     1      -0.143  -3.100  -1.541  1.00  0.00    -0.003 NA
ENDBRANCH  19  20
ENDBRANCH   7  19
BRANCH   6  22
ATOM     22  N   UNL     1      -0.716  -0.064   2.246  1.00  0.00     0.080 N 
ATOM     23  N   UNL     1      -0.948  -0.526   3.474  1.00  0.00    -0.062 N 
ATOM     24  N   UNL     1      -1.840   0.350   1.662  1.00  0.00    -0.062 N 
ATOM     25  C   UNL     1      -2.271  -0.411   3.672  1.00  0.00     0.306 A 
ATOM     26  C   UNL     1      -2.823   0.133   2.551  1.00  0.00     0.306 A 
ATOM     27  C   UNL     1      -3.031  -0.743   4.789  1.00  0.00     0.089 A 
ATOM     28  C   UNL     1      -4.185   0.398   2.447  1.00  0.00     0.089 A 
ATOM     29  C   UNL     1      -4.417  -0.495   4.721  1.00  0.00     0.007 A 
ATOM     30  C   UNL     1      -4.991   0.073   3.557  1.00  0.00     0.007 A 
ATOM     31  H   UNL     1      -0.233  -0.905   4.136  1.00  0.00     0.495 HD
ATOM     32  H   UNL     1      -1.921   0.792   0.720  1.00  0.00     0.495 HD
ENDBRANCH   6  22
TORSDOF 6


