REMARK SMILES CC(=O)c1ccc(-c2cc(N=C=O)c(O)c([NH2+]c3ccc(C)c(F)c3)c2)c[nH+]1
REMARK SMILES IDX 14 1 10 2 9 3 8 4 26 5 16 6 15 7 11 9 12 10 13 11 17 12
REMARK SMILES IDX 18 15 19 16 25 17 20 18 23 19 21 20 24 21 22 22 7 23 6 24
REMARK SMILES IDX 27 25 5 26 28 27 4 28 2 30 3 31 1 32
REMARK H PARENT 15 8 17 13 17 14 28 29
ROOT
ATOM      1  C   UNL     1       2.052  -0.924  -2.335  1.00  0.00     0.204 A 
ATOM      2  C   UNL     1       2.401   0.428  -2.148  1.00  0.00     0.125 A 
ATOM      3  C   UNL     1       1.429   1.334  -1.681  1.00  0.00     0.042 A 
ATOM      4  C   UNL     1       0.121   0.907  -1.401  1.00  0.00    -0.004 A 
ATOM      5  C   UNL     1      -0.211  -0.442  -1.593  1.00  0.00     0.081 A 
ATOM      6  C   UNL     1       0.740  -1.364  -2.060  1.00  0.00     0.179 A 
ENDROOT
BRANCH   1   7
ATOM      7  O   UNL     1       2.998  -1.843  -2.797  1.00  0.00    -0.501 OA
ATOM      8  H   UNL     1       3.955  -1.585  -3.008  1.00  0.00     0.293 HD
ENDBRANCH   1   7
BRANCH   2   9
ATOM      9  N   UNL     1       3.744   0.852  -2.440  1.00  0.00    -0.164 NA
BRANCH   9  10
ATOM     10  C   UNL     1       4.164   2.046  -2.300  1.00  0.00     0.240 C 
ATOM     11  O   UNL     1       4.573   3.207  -2.164  1.00  0.00    -0.211 OA
ENDBRANCH   9  10
ENDBRANCH   2   9
BRANCH   6  12
ATOM     12  N   UNL     1       0.376  -2.754  -2.209  1.00  0.00    -0.278 N 
ATOM     13  H   UNL     1       0.916  -3.195  -2.989  1.00  0.00     0.358 HD
ATOM     14  H   UNL     1      -0.634  -2.834  -2.472  1.00  0.00     0.358 HD
BRANCH  12  15
ATOM     15  C   UNL     1       0.612  -3.457  -0.971  1.00  0.00     0.137 A 
ATOM     16  C   UNL     1      -0.359  -3.453   0.045  1.00  0.00     0.068 A 
ATOM     17  C   UNL     1       1.829  -4.124  -0.749  1.00  0.00     0.107 A 
ATOM     18  C   UNL     1      -0.120  -4.109   1.256  1.00  0.00     0.012 A 
ATOM     19  C   UNL     1       2.069  -4.780   0.462  1.00  0.00     0.132 A 
ATOM     20  C   UNL     1       1.090  -4.786   1.469  1.00  0.00    -0.015 A 
ATOM     21  F   UNL     1       3.257  -5.409   0.654  1.00  0.00    -0.206 F 
ATOM     22  C   UNL     1       1.357  -5.467   2.780  1.00  0.00     0.047 C 
ENDBRANCH  12  15
ENDBRANCH   6  12
BRANCH   4  23
ATOM     23  C   UNL     1      -0.895   1.869  -0.903  1.00  0.00     0.046 A 
ATOM     24  C   UNL     1      -0.560   2.841   0.050  1.00  0.00     0.022 A 
ATOM     25  C   UNL     1      -2.217   1.829  -1.375  1.00  0.00     0.315 A 
ATOM     26  C   UNL     1      -1.524   3.737   0.511  1.00  0.00     0.084 A 
ATOM     27  N   UNL     1      -3.144   2.712  -0.914  1.00  0.00    -0.208 N 
ATOM     28  C   UNL     1      -2.838   3.667   0.015  1.00  0.00     0.246 A 
ATOM     29  H   UNL     1      -4.113   2.644  -1.299  1.00  0.00     0.454 HD
BRANCH  28  30
ATOM     30  C   UNL     1      -3.889   4.608   0.486  1.00  0.00     0.223 C 
ATOM     31  O   UNL     1      -5.059   4.515   0.025  1.00  0.00    -0.288 OA
ATOM     32  C   UNL     1      -3.604   5.676   1.500  1.00  0.00     0.100 C 
ENDBRANCH  28  30
ENDBRANCH   4  23
TORSDOF 7


