MODEL 1
REMARK VINA RESULT:      -8.6      0.000      0.000
REMARK SMILES CC(=O)c1ccc(/C(N=[N+]=[N-])=N/[C@@H]2C=CCC2)c(F)c1[O-]
REMARK SMILES IDX 8 1 12 2 13 3 15 4 14 5 16 6 17 7 9 8 10 9 11 10 7 11 6 12
REMARK SMILES IDX 18 13 5 14 20 15 4 16 19 17 21 18 2 19 3 20 1 21
REMARK H PARENT
ROOT
ATOM      1  C   UNL     1      45.366 131.269  16.403  1.00  0.00     0.132 C 
ENDROOT
BRANCH   1   2
ATOM      2  N   UNL     1      46.329 130.554  15.900  1.00  0.00    -0.275 NA
BRANCH   2   3
ATOM      3  C   UNL     1      46.340 130.004  14.544  1.00  0.00     0.128 C 
ATOM      4  C   UNL     1      48.384 129.578  13.493  1.00  0.00    -0.029 C 
ATOM      5  C   UNL     1      47.511 129.100  14.361  1.00  0.00    -0.005 C 
ATOM      6  C   UNL     1      47.965 130.887  12.932  1.00  0.00     0.029 C 
ATOM      7  C   UNL     1      46.569 131.122  13.517  1.00  0.00     0.035 C 
ENDBRANCH   2   3
ENDBRANCH   1   2
BRANCH   1   8
ATOM      8  N   UNL     1      44.602 132.142  15.555  1.00  0.00    -0.041 NA
BRANCH   8   9
ATOM      9  N   UNL     1      43.817 131.716  14.706  1.00  0.00     0.007 N 
ATOM     10  N   UNL     1      43.035 131.291  13.859  1.00  0.00    -0.003 NA
ENDBRANCH   8   9
ENDBRANCH   1   8
BRANCH   1  11
ATOM     11  C   UNL     1      45.089 131.166  17.856  1.00  0.00     0.037 A 
ATOM     12  C   UNL     1      46.030 130.585  18.717  1.00  0.00     0.014 A 
ATOM     13  C   UNL     1      43.868 131.620  18.386  1.00  0.00     0.125 A 
ATOM     14  C   UNL     1      45.766 130.466  20.082  1.00  0.00     0.012 A 
ATOM     15  C   UNL     1      43.600 131.509  19.757  1.00  0.00    -0.060 A 
ATOM     16  C   UNL     1      44.547 130.915  20.622  1.00  0.00     0.012 A 
ATOM     17  F   UNL     1      42.945 132.204  17.579  1.00  0.00    -0.207 F 
ATOM     18  O   UNL     1      42.401 132.016  20.242  1.00  0.00    -0.870 OA
BRANCH  16  19
ATOM     19  C   UNL     1      44.310 130.756  22.083  1.00  0.00     0.159 C 
ATOM     20  O   UNL     1      44.538 129.643  22.628  1.00  0.00    -0.295 OA
ATOM     21  C   UNL     1      43.805 131.875  22.942  1.00  0.00     0.093 C 
ENDBRANCH  16  19
ENDBRANCH   1  11
TORSDOF 6
ENDMDL
MODEL 2
REMARK VINA RESULT:      -8.6      0.913      1.276
REMARK SMILES CC(=O)c1ccc(/C(N=[N+]=[N-])=N/[C@@H]2C=CCC2)c(F)c1[O-]
REMARK SMILES IDX 8 1 12 2 13 3 15 4 14 5 16 6 17 7 9 8 10 9 11 10 7 11 6 12
REMARK SMILES IDX 18 13 5 14 20 15 4 16 19 17 21 18 2 19 3 20 1 21
REMARK H PARENT
ROOT
ATOM      1  C   UNL     1      44.676 131.128  16.568  1.00  0.00     0.132 C 
ENDROOT
BRANCH   1   2
ATOM      2  N   UNL     1      45.508 130.283  16.033  1.00  0.00    -0.275 NA
BRANCH   2   3
ATOM      3  C   UNL     1      46.859 130.615  15.578  1.00  0.00     0.128 C 
ATOM      4  C   UNL     1      47.218 131.131  13.326  1.00  0.00    -0.029 C 
ATOM      5  C   UNL     1      46.803 131.622  14.480  1.00  0.00    -0.005 C 
ATOM      6  C   UNL     1      47.630 129.709  13.432  1.00  0.00     0.029 C 
ATOM      7  C   UNL     1      47.518 129.390  14.927  1.00  0.00     0.035 C 
ENDBRANCH   2   3
ENDBRANCH   1   2
BRANCH   1   8
ATOM      8  N   UNL     1      43.885 131.985  15.729  1.00  0.00    -0.041 NA
BRANCH   8   9
ATOM      9  N   UNL     1      43.495 131.638  14.613  1.00  0.00     0.007 N 
ATOM     10  N   UNL     1      43.106 131.291  13.500  1.00  0.00    -0.003 NA
ENDBRANCH   8   9
ENDBRANCH   1   8
BRANCH   1  11
ATOM     11  C   UNL     1      44.575 131.186  18.046  1.00  0.00     0.037 A 
ATOM     12  C   UNL     1      45.598 130.661  18.846  1.00  0.00     0.014 A 
ATOM     13  C   UNL     1      43.440 131.740  18.665  1.00  0.00     0.125 A 
ATOM     14  C   UNL     1      45.499 130.694  20.238  1.00  0.00     0.012 A 
ATOM     15  C   UNL     1      43.338 131.782  20.061  1.00  0.00    -0.060 A 
ATOM     16  C   UNL     1      44.367 131.244  20.868  1.00  0.00     0.012 A 
ATOM     17  F   UNL     1      42.441 132.273  17.914  1.00  0.00    -0.207 F 
ATOM     18  O   UNL     1      42.220 132.382  20.627  1.00  0.00    -0.870 OA
BRANCH  16  19
ATOM     19  C   UNL     1      44.305 131.246  22.354  1.00  0.00     0.159 C 
ATOM     20  O   UNL     1      44.846 132.188  22.994  1.00  0.00    -0.295 OA
ATOM     21  C   UNL     1      43.619 130.164  23.132  1.00  0.00     0.093 C 
ENDBRANCH  16  19
ENDBRANCH   1  11
TORSDOF 6
ENDMDL
MODEL 3
REMARK VINA RESULT:      -8.4      1.170      1.586
REMARK SMILES CC(=O)c1ccc(/C(N=[N+]=[N-])=N/[C@@H]2C=CCC2)c(F)c1[O-]
REMARK SMILES IDX 8 1 12 2 13 3 15 4 14 5 16 6 17 7 9 8 10 9 11 10 7 11 6 12
REMARK SMILES IDX 18 13 5 14 20 15 4 16 19 17 21 18 2 19 3 20 1 21
REMARK H PARENT
ROOT
ATOM      1  C   UNL     1      44.454 131.709  17.147  1.00  0.00     0.132 C 
ENDROOT
BRANCH   1   2
ATOM      2  N   UNL     1      45.563 132.095  16.589  1.00  0.00    -0.275 NA
BRANCH   2   3
ATOM      3  C   UNL     1      46.605 131.196  16.092  1.00  0.00     0.128 C 
ATOM      4  C   UNL     1      46.494 130.416  13.890  1.00  0.00    -0.029 C 
ATOM      5  C   UNL     1      46.853 131.441  14.642  1.00  0.00    -0.005 C 
ATOM      6  C   UNL     1      45.941 129.294  14.689  1.00  0.00     0.029 C 
ATOM      7  C   UNL     1      46.121 129.739  16.145  1.00  0.00     0.035 C 
ENDBRANCH   2   3
ENDBRANCH   1   2
BRANCH   1   8
ATOM      8  N   UNL     1      43.284 131.487  16.342  1.00  0.00    -0.041 NA
BRANCH   8   9
ATOM      9  N   UNL     1      43.298 131.601  15.115  1.00  0.00     0.007 N 
ATOM     10  N   UNL     1      43.310 131.716  13.891  1.00  0.00    -0.003 NA
ENDBRANCH   8   9
ENDBRANCH   1   8
BRANCH   1  11
ATOM     11  C   UNL     1      44.427 131.515  18.617  1.00  0.00     0.037 A 
ATOM     12  C   UNL     1      45.503 130.894  19.267  1.00  0.00     0.014 A 
ATOM     13  C   UNL     1      43.313 131.920  19.373  1.00  0.00     0.125 A 
ATOM     14  C   UNL     1      45.475 130.689  20.648  1.00  0.00     0.012 A 
ATOM     15  C   UNL     1      43.283 131.723  20.760  1.00  0.00    -0.060 A 
ATOM     16  C   UNL     1      44.365 131.090  21.414  1.00  0.00     0.012 A 
ATOM     17  F   UNL     1      42.265 132.540  18.772  1.00  0.00    -0.207 F 
ATOM     18  O   UNL     1      42.182 132.184  21.471  1.00  0.00    -0.870 OA
BRANCH  16  19
ATOM     19  C   UNL     1      44.379 130.840  22.881  1.00  0.00     0.159 C 
ATOM     20  O   UNL     1      44.508 129.659  23.305  1.00  0.00    -0.295 OA
ATOM     21  C   UNL     1      44.245 131.943  23.886  1.00  0.00     0.093 C 
ENDBRANCH  16  19
ENDBRANCH   1  11
TORSDOF 6
ENDMDL
MODEL 4
REMARK VINA RESULT:      -8.2      3.382      6.718
REMARK SMILES CC(=O)c1ccc(/C(N=[N+]=[N-])=N/[C@@H]2C=CCC2)c(F)c1[O-]
REMARK SMILES IDX 8 1 12 2 13 3 15 4 14 5 16 6 17 7 9 8 10 9 11 10 7 11 6 12
REMARK SMILES IDX 18 13 5 14 20 15 4 16 19 17 21 18 2 19 3 20 1 21
REMARK H PARENT
ROOT
ATOM      1  C   UNL     1      43.343 131.802  19.594  1.00  0.00     0.132 C 
ENDROOT
BRANCH   1   2
ATOM      2  N   UNL     1      43.264 130.942  20.567  1.00  0.00    -0.275 NA
BRANCH   2   3
ATOM      3  C   UNL     1      44.014 131.029  21.820  1.00  0.00     0.128 C 
ATOM      4  C   UNL     1      44.346 129.097  23.096  1.00  0.00    -0.029 C 
ATOM      5  C   UNL     1      44.785 129.774  22.050  1.00  0.00    -0.005 C 
ATOM      6  C   UNL     1      43.201 129.768  23.763  1.00  0.00     0.029 C 
ATOM      7  C   UNL     1      43.050 131.097  23.014  1.00  0.00     0.035 C 
ENDBRANCH   2   3
ENDBRANCH   1   2
BRANCH   1   8
ATOM      8  N   UNL     1      42.705 133.084  19.715  1.00  0.00    -0.041 NA
BRANCH   8   9
ATOM      9  N   UNL     1      41.713 133.262  20.424  1.00  0.00     0.007 N 
ATOM     10  N   UNL     1      40.722 133.440  21.130  1.00  0.00    -0.003 NA
ENDBRANCH   8   9
ENDBRANCH   1   8
BRANCH   1  11
ATOM     11  C   UNL     1      44.091 131.425  18.371  1.00  0.00     0.037 A 
ATOM     12  C   UNL     1      45.360 130.836  18.471  1.00  0.00     0.014 A 
ATOM     13  C   UNL     1      43.556 131.680  17.096  1.00  0.00     0.125 A 
ATOM     14  C   UNL     1      46.078 130.498  17.323  1.00  0.00     0.012 A 
ATOM     15  C   UNL     1      44.270 131.336  15.940  1.00  0.00    -0.060 A 
ATOM     16  C   UNL     1      45.552 130.750  16.043  1.00  0.00     0.012 A 
ATOM     17  F   UNL     1      42.321 132.232  16.969  1.00  0.00    -0.207 F 
ATOM     18  O   UNL     1      43.679 131.563  14.703  1.00  0.00    -0.870 OA
BRANCH  16  19
ATOM     19  C   UNL     1      46.362 130.380  14.850  1.00  0.00     0.159 C 
ATOM     20  O   UNL     1      46.440 129.169  14.508  1.00  0.00    -0.295 OA
ATOM     21  C   UNL     1      47.096 131.397  14.031  1.00  0.00     0.093 C 
ENDBRANCH  16  19
ENDBRANCH   1  11
TORSDOF 6
ENDMDL
MODEL 5
REMARK VINA RESULT:      -8.1      3.276      6.416
REMARK SMILES CC(=O)c1ccc(/C(N=[N+]=[N-])=N/[C@@H]2C=CCC2)c(F)c1[O-]
REMARK SMILES IDX 8 1 12 2 13 3 15 4 14 5 16 6 17 7 9 8 10 9 11 10 7 11 6 12
REMARK SMILES IDX 18 13 5 14 20 15 4 16 19 17 21 18 2 19 3 20 1 21
REMARK H PARENT
ROOT
ATOM      1  C   UNL     1      44.140 131.724  19.106  1.00  0.00     0.132 C 
ENDROOT
BRANCH   1   2
ATOM      2  N   UNL     1      44.865 132.305  20.017  1.00  0.00    -0.275 NA
BRANCH   2   3
ATOM      3  C   UNL     1      45.413 131.638  21.199  1.00  0.00     0.128 C 
ATOM      4  C   UNL     1      44.729 129.461  21.710  1.00  0.00    -0.029 C 
ATOM      5  C   UNL     1      45.544 130.173  20.952  1.00  0.00    -0.005 C 
ATOM      6  C   UNL     1      43.902 130.310  22.604  1.00  0.00     0.029 C 
ATOM      7  C   UNL     1      44.425 131.731  22.370  1.00  0.00     0.035 C 
ENDBRANCH   2   3
ENDBRANCH   1   2
BRANCH   1   8
ATOM      8  N   UNL     1      42.737 131.515  19.332  1.00  0.00    -0.041 NA
BRANCH   8   9
ATOM      9  N   UNL     1      42.026 132.354  19.888  1.00  0.00     0.007 N 
ATOM     10  N   UNL     1      41.317 133.191  20.442  1.00  0.00    -0.003 NA
ENDBRANCH   8   9
ENDBRANCH   1   8
BRANCH   1  11
ATOM     11  C   UNL     1      44.795 131.284  17.851  1.00  0.00     0.037 A 
ATOM     12  C   UNL     1      46.015 130.595  17.894  1.00  0.00     0.014 A 
ATOM     13  C   UNL     1      44.220 131.577  16.602  1.00  0.00     0.125 A 
ATOM     14  C   UNL     1      46.647 130.196  16.715  1.00  0.00     0.012 A 
ATOM     15  C   UNL     1      44.847 131.173  15.416  1.00  0.00    -0.060 A 
ATOM     16  C   UNL     1      46.081 130.486  15.460  1.00  0.00     0.012 A 
ATOM     17  F   UNL     1      43.029 132.227  16.531  1.00  0.00    -0.207 F 
ATOM     18  O   UNL     1      44.216 131.442  14.207  1.00  0.00    -0.870 OA
BRANCH  16  19
ATOM     19  C   UNL     1      46.799 130.048  14.232  1.00  0.00     0.159 C 
ATOM     20  O   UNL     1      47.156 128.844  14.122  1.00  0.00    -0.295 OA
ATOM     21  C   UNL     1      47.120 130.988  13.110  1.00  0.00     0.093 C 
ENDBRANCH  16  19
ENDBRANCH   1  11
TORSDOF 6
ENDMDL
MODEL 6
REMARK VINA RESULT:      -7.6      1.311      1.784
REMARK SMILES CC(=O)c1ccc(/C(N=[N+]=[N-])=N/[C@@H]2C=CCC2)c(F)c1[O-]
REMARK SMILES IDX 8 1 12 2 13 3 15 4 14 5 16 6 17 7 9 8 10 9 11 10 7 11 6 12
REMARK SMILES IDX 18 13 5 14 20 15 4 16 19 17 21 18 2 19 3 20 1 21
REMARK H PARENT
ROOT
ATOM      1  C   UNL     1      45.236 131.334  16.179  1.00  0.00     0.132 C 
ENDROOT
BRANCH   1   2
ATOM      2  N   UNL     1      46.242 130.614  15.775  1.00  0.00    -0.275 NA
BRANCH   2   3
ATOM      3  C   UNL     1      46.354 130.005  14.449  1.00  0.00     0.128 C 
ATOM      4  C   UNL     1      48.473 129.586  13.554  1.00  0.00    -0.029 C 
ATOM      5  C   UNL     1      47.555 129.124  14.384  1.00  0.00    -0.005 C 
ATOM      6  C   UNL     1      48.063 130.858  12.908  1.00  0.00     0.029 C 
ATOM      7  C   UNL     1      46.626 131.083  13.389  1.00  0.00     0.035 C 
ENDBRANCH   2   3
ENDBRANCH   1   2
BRANCH   1   8
ATOM      8  N   UNL     1      44.556 132.198  15.254  1.00  0.00    -0.041 NA
BRANCH   8   9
ATOM      9  N   UNL     1      43.697 131.784  14.475  1.00  0.00     0.007 N 
ATOM     10  N   UNL     1      42.839 131.370  13.697  1.00  0.00    -0.003 NA
ENDBRANCH   8   9
ENDBRANCH   1   8
BRANCH   1  11
ATOM     11  C   UNL     1      44.823 131.244  17.600  1.00  0.00     0.037 A 
ATOM     12  C   UNL     1      43.622 131.829  18.025  1.00  0.00     0.014 A 
ATOM     13  C   UNL     1      45.642 130.601  18.545  1.00  0.00     0.125 A 
ATOM     14  C   UNL     1      43.237 131.765  19.366  1.00  0.00     0.012 A 
ATOM     15  C   UNL     1      45.257 130.529  19.890  1.00  0.00    -0.060 A 
ATOM     16  C   UNL     1      44.050 131.126  20.320  1.00  0.00     0.012 A 
ATOM     17  F   UNL     1      46.801 130.010  18.157  1.00  0.00    -0.207 F 
ATOM     18  O   UNL     1      46.075 129.840  20.778  1.00  0.00    -0.870 OA
BRANCH  16  19
ATOM     19  C   UNL     1      43.600 131.095  21.738  1.00  0.00     0.159 C 
ATOM     20  O   UNL     1      43.994 130.163  22.491  1.00  0.00    -0.295 OA
ATOM     21  C   UNL     1      42.689 132.135  22.315  1.00  0.00     0.093 C 
ENDBRANCH  16  19
ENDBRANCH   1  11
TORSDOF 6
ENDMDL
MODEL 7
REMARK VINA RESULT:      -7.5      3.303      6.756
REMARK SMILES CC(=O)c1ccc(/C(N=[N+]=[N-])=N/[C@@H]2C=CCC2)c(F)c1[O-]
REMARK SMILES IDX 8 1 12 2 13 3 15 4 14 5 16 6 17 7 9 8 10 9 11 10 7 11 6 12
REMARK SMILES IDX 18 13 5 14 20 15 4 16 19 17 21 18 2 19 3 20 1 21
REMARK H PARENT
ROOT
ATOM      1  C   UNL     1      43.649 131.832  18.969  1.00  0.00     0.132 C 
ENDROOT
BRANCH   1   2
ATOM      2  N   UNL     1      44.291 131.906  20.099  1.00  0.00    -0.275 NA
BRANCH   2   3
ATOM      3  C   UNL     1      44.271 130.876  21.139  1.00  0.00     0.128 C 
ATOM      4  C   UNL     1      42.903 131.163  23.013  1.00  0.00    -0.029 C 
ATOM      5  C   UNL     1      42.914 130.781  21.748  1.00  0.00    -0.005 C 
ATOM      6  C   UNL     1      44.244 131.584  23.488  1.00  0.00     0.029 C 
ATOM      7  C   UNL     1      45.177 131.286  22.310  1.00  0.00     0.035 C 
ENDBRANCH   2   3
ENDBRANCH   1   2
BRANCH   1   8
ATOM      8  N   UNL     1      42.246 132.139  18.919  1.00  0.00    -0.041 NA
BRANCH   8   9
ATOM      9  N   UNL     1      41.690 132.824  19.780  1.00  0.00     0.007 N 
ATOM     10  N   UNL     1      41.135 133.506  20.639  1.00  0.00    -0.003 NA
ENDBRANCH   8   9
ENDBRANCH   1   8
BRANCH   1  11
ATOM     11  C   UNL     1      44.393 131.420  17.755  1.00  0.00     0.037 A 
ATOM     12  C   UNL     1      45.675 130.864  17.865  1.00  0.00     0.014 A 
ATOM     13  C   UNL     1      43.838 131.609  16.476  1.00  0.00     0.125 A 
ATOM     14  C   UNL     1      46.389 130.494  16.724  1.00  0.00     0.012 A 
ATOM     15  C   UNL     1      44.547 131.233  15.328  1.00  0.00    -0.060 A 
ATOM     16  C   UNL     1      45.844 130.680  15.440  1.00  0.00     0.012 A 
ATOM     17  F   UNL     1      42.590 132.128  16.341  1.00  0.00    -0.207 F 
ATOM     18  O   UNL     1      43.938 131.393  14.090  1.00  0.00    -0.870 OA
BRANCH  16  19
ATOM     19  C   UNL     1      46.649 130.278  14.255  1.00  0.00     0.159 C 
ATOM     20  O   UNL     1      46.471 130.872  13.157  1.00  0.00    -0.295 OA
ATOM     21  C   UNL     1      47.674 129.187  14.313  1.00  0.00     0.093 C 
ENDBRANCH  16  19
ENDBRANCH   1  11
TORSDOF 6
ENDMDL
MODEL 8
REMARK VINA RESULT:      -7.4      1.338      2.138
REMARK SMILES CC(=O)c1ccc(/C(N=[N+]=[N-])=N/[C@@H]2C=CCC2)c(F)c1[O-]
REMARK SMILES IDX 8 1 12 2 13 3 15 4 14 5 16 6 17 7 9 8 10 9 11 10 7 11 6 12
REMARK SMILES IDX 18 13 5 14 20 15 4 16 19 17 21 18 2 19 3 20 1 21
REMARK H PARENT
ROOT
ATOM      1  C   UNL     1      44.651 131.245  16.234  1.00  0.00     0.132 C 
ENDROOT
BRANCH   1   2
ATOM      2  N   UNL     1      45.502 130.337  15.853  1.00  0.00    -0.275 NA
BRANCH   2   3
ATOM      3  C   UNL     1      46.886 130.604  15.460  1.00  0.00     0.128 C 
ATOM      4  C   UNL     1      47.376 131.066  13.221  1.00  0.00    -0.029 C 
ATOM      5  C   UNL     1      46.927 131.593  14.346  1.00  0.00    -0.005 C 
ATOM      6  C   UNL     1      47.720 129.629  13.368  1.00  0.00     0.029 C 
ATOM      7  C   UNL     1      47.522 129.341  14.860  1.00  0.00     0.035 C 
ENDBRANCH   2   3
ENDBRANCH   1   2
BRANCH   1   8
ATOM      8  N   UNL     1      44.079 132.143  15.269  1.00  0.00    -0.041 NA
BRANCH   8   9
ATOM      9  N   UNL     1      43.433 131.743  14.298  1.00  0.00     0.007 N 
ATOM     10  N   UNL     1      42.789 131.344  13.330  1.00  0.00    -0.003 NA
ENDBRANCH   8   9
ENDBRANCH   1   8
BRANCH   1  11
ATOM     11  C   UNL     1      44.298 131.330  17.672  1.00  0.00     0.037 A 
ATOM     12  C   UNL     1      43.032 131.785  18.064  1.00  0.00     0.014 A 
ATOM     13  C   UNL     1      45.237 130.986  18.661  1.00  0.00     0.125 A 
ATOM     14  C   UNL     1      42.702 131.887  19.417  1.00  0.00     0.012 A 
ATOM     15  C   UNL     1      44.909 131.081  20.020  1.00  0.00    -0.060 A 
ATOM     16  C   UNL     1      43.634 131.548  20.414  1.00  0.00     0.012 A 
ATOM     17  F   UNL     1      46.465 130.525  18.309  1.00  0.00    -0.207 F 
ATOM     18  O   UNL     1      45.852 130.684  20.959  1.00  0.00    -0.870 OA
BRANCH  16  19
ATOM     19  C   UNL     1      43.237 131.684  21.841  1.00  0.00     0.159 C 
ATOM     20  O   UNL     1      42.182 132.311  22.132  1.00  0.00    -0.295 OA
ATOM     21  C   UNL     1      44.046 131.102  22.960  1.00  0.00     0.093 C 
ENDBRANCH  16  19
ENDBRANCH   1  11
TORSDOF 6
ENDMDL
MODEL 9
REMARK VINA RESULT:      -7.3      4.169      7.327
REMARK SMILES CC(=O)c1ccc(/C(N=[N+]=[N-])=N/[C@@H]2C=CCC2)c(F)c1[O-]
REMARK SMILES IDX 8 1 12 2 13 3 15 4 14 5 16 6 17 7 9 8 10 9 11 10 7 11 6 12
REMARK SMILES IDX 18 13 5 14 20 15 4 16 19 17 21 18 2 19 3 20 1 21
REMARK H PARENT
ROOT
ATOM      1  C   UNL     1      44.508 130.570  22.065  1.00  0.00     0.132 C 
ENDROOT
BRANCH   1   2
ATOM      2  N   UNL     1      44.633 129.339  22.467  1.00  0.00    -0.275 NA
BRANCH   2   3
ATOM      3  C   UNL     1      44.168 128.831  23.759  1.00  0.00     0.128 C 
ATOM      4  C   UNL     1      44.357 126.549  24.231  1.00  0.00    -0.029 C 
ATOM      5  C   UNL     1      45.019 127.691  24.205  1.00  0.00    -0.005 C 
ATOM      6  C   UNL     1      42.941 126.706  23.812  1.00  0.00     0.029 C 
ATOM      7  C   UNL     1      42.768 128.216  23.617  1.00  0.00     0.035 C 
ENDBRANCH   2   3
ENDBRANCH   1   2
BRANCH   1   8
ATOM      8  N   UNL     1      44.351 131.626  23.026  1.00  0.00    -0.041 NA
BRANCH   8   9
ATOM      9  N   UNL     1      43.269 131.878  23.558  1.00  0.00     0.007 N 
ATOM     10  N   UNL     1      42.189 132.129  24.088  1.00  0.00    -0.003 NA
ENDBRANCH   8   9
ENDBRANCH   1   8
BRANCH   1  11
ATOM     11  C   UNL     1      44.523 130.846  20.609  1.00  0.00     0.037 A 
ATOM     12  C   UNL     1      45.662 130.556  19.845  1.00  0.00     0.014 A 
ATOM     13  C   UNL     1      43.410 131.432  19.979  1.00  0.00     0.125 A 
ATOM     14  C   UNL     1      45.690 130.834  18.477  1.00  0.00     0.012 A 
ATOM     15  C   UNL     1      43.430 131.706  18.605  1.00  0.00    -0.060 A 
ATOM     16  C   UNL     1      44.583 131.420  17.838  1.00  0.00     0.012 A 
ATOM     17  F   UNL     1      42.286 131.707  20.691  1.00  0.00    -0.207 F 
ATOM     18  O   UNL     1      42.289 132.240  18.019  1.00  0.00    -0.870 OA
BRANCH  16  19
ATOM     19  C   UNL     1      44.666 131.706  16.380  1.00  0.00     0.159 C 
ATOM     20  O   UNL     1      43.637 131.571  15.664  1.00  0.00    -0.295 OA
ATOM     21  C   UNL     1      45.935 132.152  15.720  1.00  0.00     0.093 C 
ENDBRANCH  16  19
ENDBRANCH   1  11
TORSDOF 6
ENDMDL


