REMARK SMILES Cc1ccc(-c2ccc(O)cc2)c2cn(C(=O)NC3(C(F)(F)F)CC3)nc12
REMARK SMILES IDX 1 1 2 2 3 3 4 4 5 5 13 6 14 7 15 8 26 9 27 10 6 11 7 12
REMARK SMILES IDX 12 13 8 14 11 15 9 16 10 17 16 19 18 20 17 21 19 23 24 24
REMARK SMILES IDX 25 25 20 26 21 27 22 28 23 29
REMARK H PARENT 10 18 18 22
ROOT
ATOM      1  C   UNL     1       1.598   3.727  -1.215  1.00  0.00     0.047 C 
ATOM      2  C   UNL     1       1.213   2.335  -1.621  1.00  0.00    -0.023 A 
ATOM      3  C   UNL     1       1.376   1.886  -2.948  1.00  0.00     0.006 A 
ATOM      4  C   UNL     1       1.029   0.566  -3.311  1.00  0.00     0.010 A 
ATOM      5  C   UNL     1       0.528  -0.342  -2.351  1.00  0.00    -0.007 A 
ATOM      6  C   UNL     1       0.387   0.135  -1.040  1.00  0.00     0.029 A 
ATOM      7  C   UNL     1      -0.096  -0.442   0.116  1.00  0.00     0.129 A 
ATOM      8  N   UNL     1      -0.024   0.491   1.095  1.00  0.00    -0.189 N 
ATOM      9  N   UNL     1       0.469   1.628   0.616  1.00  0.00    -0.164 NA
ATOM     10  C   UNL     1       0.718   1.419  -0.690  1.00  0.00     0.096 A 
ENDROOT
BRANCH   5  11
ATOM     11  C   UNL     1       0.179  -1.731  -2.731  1.00  0.00    -0.017 A 
ATOM     12  C   UNL     1       0.648  -2.820  -1.976  1.00  0.00     0.012 A 
ATOM     13  C   UNL     1      -0.606  -1.976  -3.871  1.00  0.00     0.012 A 
ATOM     14  C   UNL     1       0.323  -4.128  -2.345  1.00  0.00     0.047 A 
ATOM     15  C   UNL     1      -0.930  -3.286  -4.237  1.00  0.00     0.047 A 
ATOM     16  C   UNL     1      -0.469  -4.364  -3.476  1.00  0.00     0.115 A 
BRANCH  16  17
ATOM     17  O   UNL     1      -0.800  -5.664  -3.853  1.00  0.00    -0.508 OA
ATOM     18  H   UNL     1      -0.481  -6.466  -3.323  1.00  0.00     0.293 HD
ENDBRANCH  16  17
ENDBRANCH   5  11
BRANCH   8  19
ATOM     19  C   UNL     1      -0.426   0.306   2.459  1.00  0.00     0.342 C 
ATOM     20  N   UNL     1      -0.301   1.381   3.402  1.00  0.00    -0.322 N 
ATOM     21  O   UNL     1      -0.895  -0.805   2.829  1.00  0.00    -0.246 OA
ATOM     22  H   UNL     1       0.121   2.286   3.097  1.00  0.00     0.166 HD
BRANCH  20  23
ATOM     23  C   UNL     1      -0.639   1.220   4.816  1.00  0.00     0.137 C 
ATOM     24  C   UNL     1      -1.480   2.358   5.378  1.00  0.00     0.041 C 
ATOM     25  C   UNL     1      -2.115   0.995   5.112  1.00  0.00     0.041 C 
BRANCH  23  26
ATOM     26  C   UNL     1       0.424   0.597   5.733  1.00  0.00     0.411 C 
ATOM     27  F   UNL     1      -0.013   0.517   7.044  1.00  0.00    -0.168 F 
ATOM     28  F   UNL     1       0.727  -0.676   5.289  1.00  0.00    -0.168 F 
ATOM     29  F   UNL     1       1.570   1.370   5.691  1.00  0.00    -0.168 F 
ENDBRANCH  23  26
ENDBRANCH  20  23
ENDBRANCH   8  19
TORSDOF 5


