REMARK SMILES CC(=O)c1ccc([C@@H]2CC[C@@H]3CC(=O)N[C@]3([NH2+]c3ccc(C)c(F)c3)C2)cn1
REMARK SMILES IDX 8 1 9 2 10 3 11 4 12 5 13 6 14 7 15 8 16 9 26 10 7 12 4 13
REMARK SMILES IDX 5 14 28 15 6 16 27 17 2 18 1 19 3 20 17 21 18 24 19 25 25 26
REMARK SMILES IDX 20 27 23 28 21 29 24 30 22 31
REMARK H PARENT 15 11 17 22 17 23
ROOT
ATOM      1  C   UNL     1      -0.128  -2.006  -0.208  1.00  0.00     0.029 C 
ATOM      2  C   UNL     1       0.204  -1.840  -1.697  1.00  0.00     0.009 C 
ATOM      3  C   UNL     1      -0.523  -0.626  -2.275  1.00  0.00     0.013 C 
ATOM      4  C   UNL     1      -0.256   0.676  -1.493  1.00  0.00     0.083 C 
ATOM      5  C   UNL     1       1.098   1.340  -1.798  1.00  0.00     0.112 C 
ATOM      6  C   UNL     1       1.373   2.055  -0.530  1.00  0.00     0.225 C 
ATOM      7  O   UNL     1       2.297   2.897  -0.383  1.00  0.00    -0.275 OA
ATOM      8  N   UNL     1       0.525   1.655   0.530  1.00  0.00    -0.304 N 
ATOM      9  C   UNL     1      -0.320   0.558   0.070  1.00  0.00     0.179 C 
ATOM     10  C   UNL     1       0.335  -0.765   0.572  1.00  0.00     0.102 C 
ATOM     11  H   UNL     1       0.699   1.891   1.533  1.00  0.00     0.169 HD
ENDROOT
BRANCH   1  12
ATOM     12  C   UNL     1       0.498  -3.269   0.356  1.00  0.00    -0.026 A 
ATOM     13  C   UNL     1       1.653  -5.592   1.404  1.00  0.00     0.106 A 
ATOM     14  C   UNL     1       0.261  -5.426   1.446  1.00  0.00     0.032 A 
ATOM     15  N   UNL     1       2.422  -4.613   0.853  1.00  0.00    -0.253 NA
ATOM     16  C   UNL     1      -0.312  -4.266   0.923  1.00  0.00     0.008 A 
ATOM     17  C   UNL     1       1.889  -3.474   0.337  1.00  0.00     0.115 A 
BRANCH  13  18
ATOM     18  C   UNL     1       2.295  -6.808   1.948  1.00  0.00     0.178 C 
ATOM     19  C   UNL     1       3.782  -6.972   1.899  1.00  0.00     0.095 C 
ATOM     20  O   UNL     1       1.593  -7.722   2.458  1.00  0.00    -0.293 OA
ENDBRANCH  13  18
ENDBRANCH   1  12
BRANCH   9  21
ATOM     21  N   UNL     1      -1.704   0.684   0.607  1.00  0.00    -0.292 N 
ATOM     22  H   UNL     1      -1.694   0.523   1.641  1.00  0.00     0.354 HD
ATOM     23  H   UNL     1      -2.304  -0.069   0.197  1.00  0.00     0.354 HD
BRANCH  21  24
ATOM     24  C   UNL     1      -2.324   1.971   0.364  1.00  0.00     0.134 A 
ATOM     25  C   UNL     1      -2.065   3.062   1.214  1.00  0.00     0.068 A 
ATOM     26  C   UNL     1      -3.236   2.139  -0.695  1.00  0.00     0.107 A 
ATOM     27  C   UNL     1      -2.671   4.300   0.986  1.00  0.00     0.012 A 
ATOM     28  C   UNL     1      -3.842   3.377  -0.924  1.00  0.00     0.132 A 
ATOM     29  C   UNL     1      -3.563   4.467  -0.085  1.00  0.00    -0.015 A 
ATOM     30  F   UNL     1      -4.703   3.513  -1.964  1.00  0.00    -0.206 F 
ATOM     31  C   UNL     1      -4.207   5.799  -0.341  1.00  0.00     0.047 C 
ENDBRANCH  21  24
ENDBRANCH   9  21
TORSDOF 4


