MODEL 1
REMARK VINA RESULT:      -5.8      0.000      0.000
REMARK SMILES NN(C(=O)N1CCOCC1)C1=C[C@H]2C[C@H]3C=CC=C[C@H]3C[C@]2(F)C=C1
REMARK SMILES IDX 2 1 1 2 3 5 5 6 6 7 10 8 7 9 9 10 8 11 4 12 11 13 12 14
REMARK SMILES IDX 25 15 13 16 24 17 14 18 22 19 15 20 21 21 16 22 20 23 17 24
REMARK SMILES IDX 19 25 18 26 23 27
REMARK H PARENT 1 3 1 4
ROOT
ATOM      1  N   UNL     1      44.305 131.610  21.776  1.00  0.00    -0.230 N 
ENDROOT
BRANCH   1   2
ATOM      2  N   UNL     1      45.554 131.973  22.312  1.00  0.00    -0.239 NA
ATOM      3  H   UNL     1      46.287 131.768  21.594  1.00  0.00     0.144 HD
ATOM      4  H   UNL     1      45.735 131.361  23.140  1.00  0.00     0.144 HD
ENDBRANCH   1   2
BRANCH   1   5
ATOM      5  C   UNL     1      43.261 131.145  22.655  1.00  0.00     0.339 C 
ATOM      6  N   UNL     1      43.307 129.823  23.223  1.00  0.00    -0.319 N 
ATOM      7  C   UNL     1      44.532 129.351  23.875  1.00  0.00     0.150 C 
ATOM      8  C   UNL     1      42.059 129.124  23.536  1.00  0.00     0.150 C 
ATOM      9  C   UNL     1      44.586 127.821  23.815  1.00  0.00     0.181 C 
ATOM     10  C   UNL     1      42.298 127.608  23.518  1.00  0.00     0.181 C 
ATOM     11  O   UNL     1      43.397 127.260  24.341  1.00  0.00    -0.378 OA
ATOM     12  O   UNL     1      42.295 131.909  22.935  1.00  0.00    -0.247 OA
ENDBRANCH   1   5
BRANCH   1  13
ATOM     13  C   UNL     1      44.086 131.781  20.363  1.00  0.00     0.059 C 
ATOM     14  C   UNL     1      45.118 131.829  19.495  1.00  0.00     0.008 C 
ATOM     15  C   UNL     1      42.696 131.872  19.841  1.00  0.00     0.026 C 
ATOM     16  C   UNL     1      44.859 132.132  18.038  1.00  0.00     0.056 C 
ATOM     17  C   UNL     1      42.448 131.760  18.528  1.00  0.00     0.016 C 
ATOM     18  C   UNL     1      46.043 131.748  17.141  1.00  0.00     0.019 C 
ATOM     19  C   UNL     1      43.571 131.413  17.578  1.00  0.00     0.136 C 
ATOM     20  C   UNL     1      45.756 132.125  15.672  1.00  0.00     0.019 C 
ATOM     21  C   UNL     1      43.235 131.823  16.132  1.00  0.00     0.054 C 
ATOM     22  C   UNL     1      46.899 131.654  14.801  1.00  0.00    -0.023 C 
ATOM     23  C   UNL     1      44.405 131.540  15.161  1.00  0.00     0.022 C 
ATOM     24  C   UNL     1      46.873 130.443  14.231  1.00  0.00    -0.004 C 
ATOM     25  C   UNL     1      44.535 130.066  14.836  1.00  0.00    -0.023 C 
ATOM     26  C   UNL     1      45.682 129.580  14.348  1.00  0.00    -0.004 C 
ATOM     27  F   UNL     1      43.754 130.039  17.635  1.00  0.00    -0.239 F 
ENDBRANCH   1  13
TORSDOF 3
ENDMDL
MODEL 2
REMARK VINA RESULT:      -5.3      3.071      4.757
REMARK SMILES NN(C(=O)N1CCOCC1)C1=C[C@H]2C[C@H]3C=CC=C[C@H]3C[C@]2(F)C=C1
REMARK SMILES IDX 2 1 1 2 3 5 5 6 6 7 10 8 7 9 9 10 8 11 4 12 11 13 12 14
REMARK SMILES IDX 25 15 13 16 24 17 14 18 22 19 15 20 21 21 16 22 20 23 17 24
REMARK SMILES IDX 19 25 18 26 23 27
REMARK H PARENT 1 3 1 4
ROOT
ATOM      1  N   UNL     1      45.498 127.100  23.416  1.00  0.00    -0.230 N 
ENDROOT
BRANCH   1   2
ATOM      2  N   UNL     1      46.235 126.979  24.608  1.00  0.00    -0.239 NA
ATOM      3  H   UNL     1      45.873 127.688  25.286  1.00  0.00     0.144 HD
ATOM      4  H   UNL     1      47.230 127.219  24.392  1.00  0.00     0.144 HD
ENDBRANCH   1   2
BRANCH   1   5
ATOM      5  C   UNL     1      45.010 125.914  22.755  1.00  0.00     0.339 C 
ATOM      6  N   UNL     1      43.781 125.291  23.169  1.00  0.00    -0.319 N 
ATOM      7  C   UNL     1      42.573 126.103  23.342  1.00  0.00     0.150 C 
ATOM      8  C   UNL     1      43.610 123.845  23.008  1.00  0.00     0.150 C 
ATOM      9  C   UNL     1      41.638 125.421  24.346  1.00  0.00     0.181 C 
ATOM     10  C   UNL     1      42.585 123.330  24.027  1.00  0.00     0.181 C 
ATOM     11  O   UNL     1      41.386 124.081  23.962  1.00  0.00    -0.378 OA
ATOM     12  O   UNL     1      45.667 125.419  21.797  1.00  0.00    -0.247 OA
ENDBRANCH   1   5
BRANCH   1  13
ATOM     13  C   UNL     1      45.192 128.420  22.926  1.00  0.00     0.059 C 
ATOM     14  C   UNL     1      45.380 128.746  21.630  1.00  0.00     0.008 C 
ATOM     15  C   UNL     1      44.623 129.434  23.853  1.00  0.00     0.026 C 
ATOM     16  C   UNL     1      45.165 130.172  21.179  1.00  0.00     0.056 C 
ATOM     17  C   UNL     1      44.080 130.566  23.382  1.00  0.00     0.016 C 
ATOM     18  C   UNL     1      45.017 130.286  19.655  1.00  0.00     0.019 C 
ATOM     19  C   UNL     1      43.929 130.763  21.892  1.00  0.00     0.136 C 
ATOM     20  C   UNL     1      44.854 131.762  19.235  1.00  0.00     0.019 C 
ATOM     21  C   UNL     1      43.784 132.253  21.531  1.00  0.00     0.054 C 
ATOM     22  C   UNL     1      44.621 131.836  17.743  1.00  0.00    -0.023 C 
ATOM     23  C   UNL     1      43.700 132.476  20.002  1.00  0.00     0.022 C 
ATOM     24  C   UNL     1      43.379 131.819  17.241  1.00  0.00    -0.004 C 
ATOM     25  C   UNL     1      42.348 132.088  19.441  1.00  0.00    -0.023 C 
ATOM     26  C   UNL     1      42.205 131.839  18.135  1.00  0.00    -0.004 C 
ATOM     27  F   UNL     1      42.787 130.081  21.497  1.00  0.00    -0.239 F 
ENDBRANCH   1  13
TORSDOF 3
ENDMDL
MODEL 3
REMARK VINA RESULT:      -5.2      1.798      2.469
REMARK SMILES NN(C(=O)N1CCOCC1)C1=C[C@H]2C[C@H]3C=CC=C[C@H]3C[C@]2(F)C=C1
REMARK SMILES IDX 2 1 1 2 3 5 5 6 6 7 10 8 7 9 9 10 8 11 4 12 11 13 12 14
REMARK SMILES IDX 25 15 13 16 24 17 14 18 22 19 15 20 21 21 16 22 20 23 17 24
REMARK SMILES IDX 19 25 18 26 23 27
REMARK H PARENT 1 3 1 4
ROOT
ATOM      1  N   UNL     1      44.415 129.903  23.179  1.00  0.00    -0.230 N 
ENDROOT
BRANCH   1   2
ATOM      2  N   UNL     1      44.918 130.494  24.352  1.00  0.00    -0.239 NA
ATOM      3  H   UNL     1      44.148 131.050  24.790  1.00  0.00     0.144 HD
ATOM      4  H   UNL     1      45.676 131.158  24.072  1.00  0.00     0.144 HD
ENDBRANCH   1   2
BRANCH   1   5
ATOM      5  C   UNL     1      43.646 128.685  23.267  1.00  0.00     0.339 C 
ATOM      6  N   UNL     1      44.280 127.400  23.134  1.00  0.00    -0.319 N 
ATOM      7  C   UNL     1      45.485 127.096  23.912  1.00  0.00     0.150 C 
ATOM      8  C   UNL     1      43.525 126.273  22.582  1.00  0.00     0.150 C 
ATOM      9  C   UNL     1      46.307 126.029  23.183  1.00  0.00     0.181 C 
ATOM     10  C   UNL     1      44.494 125.256  21.965  1.00  0.00     0.181 C 
ATOM     11  O   UNL     1      45.508 124.898  22.888  1.00  0.00    -0.378 OA
ATOM     12  O   UNL     1      42.401 128.747  23.470  1.00  0.00    -0.247 OA
ENDBRANCH   1   5
BRANCH   1  13
ATOM     13  C   UNL     1      44.625 130.576  21.922  1.00  0.00     0.059 C 
ATOM     14  C   UNL     1      45.296 129.981  20.914  1.00  0.00     0.008 C 
ATOM     15  C   UNL     1      44.065 131.938  21.716  1.00  0.00     0.026 C 
ATOM     16  C   UNL     1      45.604 130.761  19.658  1.00  0.00     0.056 C 
ATOM     17  C   UNL     1      44.007 132.477  20.489  1.00  0.00     0.016 C 
ATOM     18  C   UNL     1      45.987 129.850  18.483  1.00  0.00     0.019 C 
ATOM     19  C   UNL     1      44.396 131.650  19.286  1.00  0.00     0.136 C 
ATOM     20  C   UNL     1      46.346 130.690  17.239  1.00  0.00     0.019 C 
ATOM     21  C   UNL     1      44.756 132.539  18.082  1.00  0.00     0.054 C 
ATOM     22  C   UNL     1      46.631 129.767  16.076  1.00  0.00    -0.023 C 
ATOM     23  C   UNL     1      45.227 131.708  16.865  1.00  0.00     0.022 C 
ATOM     24  C   UNL     1      45.654 129.402  15.235  1.00  0.00    -0.004 C 
ATOM     25  C   UNL     1      44.075 131.021  16.161  1.00  0.00    -0.023 C 
ATOM     26  C   UNL     1      44.301 129.976  15.357  1.00  0.00    -0.004 C 
ATOM     27  F   UNL     1      43.309 130.852  18.960  1.00  0.00    -0.239 F 
ENDBRANCH   1  13
TORSDOF 3
ENDMDL
MODEL 4
REMARK VINA RESULT:      -4.9      4.460      7.119
REMARK SMILES NN(C(=O)N1CCOCC1)C1=C[C@H]2C[C@H]3C=CC=C[C@H]3C[C@]2(F)C=C1
REMARK SMILES IDX 2 1 1 2 3 5 5 6 6 7 10 8 7 9 9 10 8 11 4 12 11 13 12 14
REMARK SMILES IDX 25 15 13 16 24 17 14 18 22 19 15 20 21 21 16 22 20 23 17 24
REMARK SMILES IDX 19 25 18 26 23 27
REMARK H PARENT 1 3 1 4
ROOT
ATOM      1  N   UNL     1      45.750 124.769  22.761  1.00  0.00    -0.230 N 
ENDROOT
BRANCH   1   2
ATOM      2  N   UNL     1      45.034 124.126  21.736  1.00  0.00    -0.239 NA
ATOM      3  H   UNL     1      44.286 123.544  22.180  1.00  0.00     0.144 HD
ATOM      4  H   UNL     1      45.694 123.481  21.244  1.00  0.00     0.144 HD
ENDBRANCH   1   2
BRANCH   1   5
ATOM      5  C   UNL     1      46.705 124.022  23.542  1.00  0.00     0.339 C 
ATOM      6  N   UNL     1      48.078 123.915  23.124  1.00  0.00    -0.319 N 
ATOM      7  C   UNL     1      48.822 125.121  22.745  1.00  0.00     0.150 C 
ATOM      8  C   UNL     1      48.853 122.722  23.473  1.00  0.00     0.150 C 
ATOM      9  C   UNL     1      49.947 124.743  21.776  1.00  0.00     0.181 C 
ATOM     10  C   UNL     1      49.989 122.530  22.460  1.00  0.00     0.181 C 
ATOM     11  O   UNL     1      50.752 123.715  22.324  1.00  0.00    -0.378 OA
ATOM     12  O   UNL     1      46.334 123.458  24.609  1.00  0.00    -0.247 OA
ENDBRANCH   1   5
BRANCH   1  13
ATOM     13  C   UNL     1      45.556 126.184  22.955  1.00  0.00     0.059 C 
ATOM     14  C   UNL     1      45.671 127.052  21.928  1.00  0.00     0.008 C 
ATOM     15  C   UNL     1      45.187 126.698  24.300  1.00  0.00     0.026 C 
ATOM     16  C   UNL     1      45.583 128.537  22.190  1.00  0.00     0.056 C 
ATOM     17  C   UNL     1      44.739 127.953  24.456  1.00  0.00     0.016 C 
ATOM     18  C   UNL     1      45.321 129.343  20.910  1.00  0.00     0.019 C 
ATOM     19  C   UNL     1      44.486 128.816  23.243  1.00  0.00     0.136 C 
ATOM     20  C   UNL     1      45.293 130.855  21.216  1.00  0.00     0.019 C 
ATOM     21  C   UNL     1      44.482 130.313  23.605  1.00  0.00     0.054 C 
ATOM     22  C   UNL     1      44.945 131.615  19.956  1.00  0.00    -0.023 C 
ATOM     23  C   UNL     1      44.296 131.212  22.360  1.00  0.00     0.022 C 
ATOM     24  C   UNL     1      43.672 131.908  19.661  1.00  0.00    -0.004 C 
ATOM     25  C   UNL     1      42.866 131.210  21.861  1.00  0.00    -0.023 C 
ATOM     26  C   UNL     1      42.587 131.593  20.610  1.00  0.00    -0.004 C 
ATOM     27  F   UNL     1      43.245 128.463  22.732  1.00  0.00    -0.239 F 
ENDBRANCH   1  13
TORSDOF 3
ENDMDL
MODEL 5
REMARK VINA RESULT:      -4.9      2.558      3.864
REMARK SMILES NN(C(=O)N1CCOCC1)C1=C[C@H]2C[C@H]3C=CC=C[C@H]3C[C@]2(F)C=C1
REMARK SMILES IDX 2 1 1 2 3 5 5 6 6 7 10 8 7 9 9 10 8 11 4 12 11 13 12 14
REMARK SMILES IDX 25 15 13 16 24 17 14 18 22 19 15 20 21 21 16 22 20 23 17 24
REMARK SMILES IDX 19 25 18 26 23 27
REMARK H PARENT 1 3 1 4
ROOT
ATOM      1  N   UNL     1      44.841 128.362  23.231  1.00  0.00    -0.230 N 
ENDROOT
BRANCH   1   2
ATOM      2  N   UNL     1      44.524 128.680  24.564  1.00  0.00    -0.239 NA
ATOM      3  H   UNL     1      44.900 129.636  24.767  1.00  0.00     0.144 HD
ATOM      4  H   UNL     1      45.026 128.000  25.180  1.00  0.00     0.144 HD
ENDBRANCH   1   2
BRANCH   1   5
ATOM      5  C   UNL     1      45.022 126.983  22.850  1.00  0.00     0.339 C 
ATOM      6  N   UNL     1      46.216 126.267  23.214  1.00  0.00    -0.319 N 
ATOM      7  C   UNL     1      46.694 126.302  24.600  1.00  0.00     0.150 C 
ATOM      8  C   UNL     1      46.707 125.189  22.353  1.00  0.00     0.150 C 
ATOM      9  C   UNL     1      48.207 126.057  24.624  1.00  0.00     0.181 C 
ATOM     10  C   UNL     1      48.218 125.014  22.556  1.00  0.00     0.181 C 
ATOM     11  O   UNL     1      48.531 124.867  23.929  1.00  0.00    -0.378 OA
ATOM     12  O   UNL     1      44.119 126.393  22.194  1.00  0.00    -0.247 OA
ENDBRANCH   1   5
BRANCH   1  13
ATOM     13  C   UNL     1      44.905 129.430  22.265  1.00  0.00     0.059 C 
ATOM     14  C   UNL     1      45.418 129.228  21.033  1.00  0.00     0.008 C 
ATOM     15  C   UNL     1      44.366 130.771  22.614  1.00  0.00     0.026 C 
ATOM     16  C   UNL     1      45.582 130.396  20.090  1.00  0.00     0.056 C 
ATOM     17  C   UNL     1      44.164 131.697  21.666  1.00  0.00     0.016 C 
ATOM     18  C   UNL     1      45.777 129.950  18.634  1.00  0.00     0.019 C 
ATOM     19  C   UNL     1      44.365 131.340  20.211  1.00  0.00     0.136 C 
ATOM     20  C   UNL     1      45.996 131.171  17.716  1.00  0.00     0.019 C 
ATOM     21  C   UNL     1      44.590 132.594  19.347  1.00  0.00     0.054 C 
ATOM     22  C   UNL     1      46.095 130.708  16.280  1.00  0.00    -0.023 C 
ATOM     23  C   UNL     1      44.869 132.239  17.868  1.00  0.00     0.022 C 
ATOM     24  C   UNL     1      45.005 130.639  15.505  1.00  0.00    -0.004 C 
ATOM     25  C   UNL     1      43.613 131.817  17.134  1.00  0.00    -0.023 C 
ATOM     26  C   UNL     1      43.698 131.115  15.998  1.00  0.00    -0.004 C 
ATOM     27  F   UNL     1      43.219 130.685  19.782  1.00  0.00    -0.239 F 
ENDBRANCH   1  13
TORSDOF 3
ENDMDL
MODEL 6
REMARK VINA RESULT:      -4.8      2.916      4.671
REMARK SMILES NN(C(=O)N1CCOCC1)C1=C[C@H]2C[C@H]3C=CC=C[C@H]3C[C@]2(F)C=C1
REMARK SMILES IDX 2 1 1 2 3 5 5 6 6 7 10 8 7 9 9 10 8 11 4 12 11 13 12 14
REMARK SMILES IDX 25 15 13 16 24 17 14 18 22 19 15 20 21 21 16 22 20 23 17 24
REMARK SMILES IDX 19 25 18 26 23 27
REMARK H PARENT 1 3 1 4
ROOT
ATOM      1  N   UNL     1      45.314 127.371  23.540  1.00  0.00    -0.230 N 
ENDROOT
BRANCH   1   2
ATOM      2  N   UNL     1      46.411 127.283  24.416  1.00  0.00    -0.239 NA
ATOM      3  H   UNL     1      47.279 127.185  23.840  1.00  0.00     0.144 HD
ATOM      4  H   UNL     1      46.299 126.409  24.980  1.00  0.00     0.144 HD
ENDBRANCH   1   2
BRANCH   1   5
ATOM      5  C   UNL     1      44.480 126.215  23.325  1.00  0.00     0.339 C 
ATOM      6  N   UNL     1      45.058 124.927  23.045  1.00  0.00    -0.319 N 
ATOM      7  C   UNL     1      46.137 124.412  23.894  1.00  0.00     0.150 C 
ATOM      8  C   UNL     1      44.323 123.964  22.222  1.00  0.00     0.150 C 
ATOM      9  C   UNL     1      46.991 123.424  23.092  1.00  0.00     0.181 C 
ATOM     10  C   UNL     1      45.310 122.997  21.555  1.00  0.00     0.181 C 
ATOM     11  O   UNL     1      46.178 122.419  22.514  1.00  0.00    -0.378 OA
ATOM     12  O   UNL     1      43.224 126.332  23.389  1.00  0.00    -0.247 OA
ENDBRANCH   1   5
BRANCH   1  13
ATOM     13  C   UNL     1      45.017 128.644  22.933  1.00  0.00     0.059 C 
ATOM     14  C   UNL     1      45.420 128.932  21.679  1.00  0.00     0.008 C 
ATOM     15  C   UNL     1      44.220 129.648  23.687  1.00  0.00     0.026 C 
ATOM     16  C   UNL     1      45.198 130.318  21.121  1.00  0.00     0.056 C 
ATOM     17  C   UNL     1      43.699 130.717  23.066  1.00  0.00     0.016 C 
ATOM     18  C   UNL     1      45.327 130.361  19.592  1.00  0.00     0.019 C 
ATOM     19  C   UNL     1      43.814 130.843  21.565  1.00  0.00     0.136 C 
ATOM     20  C   UNL     1      45.147 131.803  19.072  1.00  0.00     0.019 C 
ATOM     21  C   UNL     1      43.639 132.302  21.105  1.00  0.00     0.054 C 
ATOM     22  C   UNL     1      45.190 131.800  17.560  1.00  0.00    -0.023 C 
ATOM     23  C   UNL     1      43.826 132.457  19.578  1.00  0.00     0.022 C 
ATOM     24  C   UNL     1      44.067 131.670  16.843  1.00  0.00    -0.004 C 
ATOM     25  C   UNL     1      42.630 131.947  18.800  1.00  0.00    -0.023 C 
ATOM     26  C   UNL     1      42.749 131.636  17.505  1.00  0.00    -0.004 C 
ATOM     27  F   UNL     1      42.814 130.061  21.005  1.00  0.00    -0.239 F 
ENDBRANCH   1  13
TORSDOF 3
ENDMDL
MODEL 7
REMARK VINA RESULT:      -4.5      7.462      9.209
REMARK SMILES NN(C(=O)N1CCOCC1)C1=C[C@H]2C[C@H]3C=CC=C[C@H]3C[C@]2(F)C=C1
REMARK SMILES IDX 2 1 1 2 3 5 5 6 6 7 10 8 7 9 9 10 8 11 4 12 11 13 12 14
REMARK SMILES IDX 25 15 13 16 24 17 14 18 22 19 15 20 21 21 16 22 20 23 17 24
REMARK SMILES IDX 19 25 18 26 23 27
REMARK H PARENT 1 3 1 4
ROOT
ATOM      1  N   UNL     1      45.362 123.795  23.220  1.00  0.00    -0.230 N 
ENDROOT
BRANCH   1   2
ATOM      2  N   UNL     1      45.317 123.867  24.625  1.00  0.00    -0.239 NA
ATOM      3  H   UNL     1      44.339 123.650  24.929  1.00  0.00     0.144 HD
ATOM      4  H   UNL     1      45.528 124.853  24.900  1.00  0.00     0.144 HD
ENDBRANCH   1   2
BRANCH   1   5
ATOM      5  C   UNL     1      44.132 123.705  22.472  1.00  0.00     0.339 C 
ATOM      6  N   UNL     1      43.005 124.536  22.800  1.00  0.00    -0.319 N 
ATOM      7  C   UNL     1      43.188 125.980  22.977  1.00  0.00     0.150 C 
ATOM      8  C   UNL     1      41.646 124.050  22.546  1.00  0.00     0.150 C 
ATOM      9  C   UNL     1      42.095 126.525  23.902  1.00  0.00     0.181 C 
ATOM     10  C   UNL     1      40.662 124.751  23.492  1.00  0.00     0.181 C 
ATOM     11  O   UNL     1      40.812 126.158  23.428  1.00  0.00    -0.378 OA
ATOM     12  O   UNL     1      44.046 122.891  21.510  1.00  0.00    -0.247 OA
ENDBRANCH   1   5
BRANCH   1  13
ATOM     13  C   UNL     1      46.642 123.886  22.566  1.00  0.00     0.059 C 
ATOM     14  C   UNL     1      47.552 124.812  22.935  1.00  0.00     0.008 C 
ATOM     15  C   UNL     1      46.987 122.920  21.489  1.00  0.00     0.026 C 
ATOM     16  C   UNL     1      48.832 124.958  22.148  1.00  0.00     0.056 C 
ATOM     17  C   UNL     1      48.250 122.802  21.053  1.00  0.00     0.016 C 
ATOM     18  C   UNL     1      49.907 125.738  22.918  1.00  0.00     0.019 C 
ATOM     19  C   UNL     1      49.358 123.563  21.743  1.00  0.00     0.136 C 
ATOM     20  C   UNL     1      51.176 125.910  22.057  1.00  0.00     0.019 C 
ATOM     21  C   UNL     1      50.591 123.715  20.834  1.00  0.00     0.054 C 
ATOM     22  C   UNL     1      52.245 126.601  22.872  1.00  0.00    -0.023 C 
ATOM     23  C   UNL     1      51.706 124.554  21.501  1.00  0.00     0.022 C 
ATOM     24  C   UNL     1      53.131 125.892  23.583  1.00  0.00    -0.004 C 
ATOM     25  C   UNL     1      52.446 123.776  22.569  1.00  0.00    -0.023 C 
ATOM     26  C   UNL     1      53.154 124.419  23.504  1.00  0.00    -0.004 C 
ATOM     27  F   UNL     1      49.709 122.846  22.878  1.00  0.00    -0.239 F 
ENDBRANCH   1  13
TORSDOF 3
ENDMDL
MODEL 8
REMARK VINA RESULT:      -4.4      4.248      6.395
REMARK SMILES NN(C(=O)N1CCOCC1)C1=C[C@H]2C[C@H]3C=CC=C[C@H]3C[C@]2(F)C=C1
REMARK SMILES IDX 2 1 1 2 3 5 5 6 6 7 10 8 7 9 9 10 8 11 4 12 11 13 12 14
REMARK SMILES IDX 25 15 13 16 24 17 14 18 22 19 15 20 21 21 16 22 20 23 17 24
REMARK SMILES IDX 19 25 18 26 23 27
REMARK H PARENT 1 3 1 4
ROOT
ATOM      1  N   UNL     1      44.460 124.759  22.933  1.00  0.00    -0.230 N 
ENDROOT
BRANCH   1   2
ATOM      2  N   UNL     1      45.240 124.004  23.828  1.00  0.00    -0.239 NA
ATOM      3  H   UNL     1      44.869 123.026  23.835  1.00  0.00     0.144 HD
ATOM      4  H   UNL     1      45.105 124.406  24.784  1.00  0.00     0.144 HD
ENDBRANCH   1   2
BRANCH   1   5
ATOM      5  C   UNL     1      43.604 124.084  21.989  1.00  0.00     0.339 C 
ATOM      6  N   UNL     1      42.190 123.967  22.228  1.00  0.00    -0.319 N 
ATOM      7  C   UNL     1      41.412 125.151  22.603  1.00  0.00     0.150 C 
ATOM      8  C   UNL     1      41.458 122.813  21.700  1.00  0.00     0.150 C 
ATOM      9  C   UNL     1      40.175 124.720  23.397  1.00  0.00     0.181 C 
ATOM     10  C   UNL     1      40.206 122.563  22.551  1.00  0.00     0.181 C 
ATOM     11  O   UNL     1      39.437 123.746  22.680  1.00  0.00    -0.378 OA
ATOM     12  O   UNL     1      44.100 123.594  20.936  1.00  0.00    -0.247 OA
ENDBRANCH   1   5
BRANCH   1  13
ATOM     13  C   UNL     1      44.490 126.196  23.036  1.00  0.00     0.059 C 
ATOM     14  C   UNL     1      44.790 126.967  21.970  1.00  0.00     0.008 C 
ATOM     15  C   UNL     1      44.151 126.847  24.329  1.00  0.00     0.026 C 
ATOM     16  C   UNL     1      44.932 128.461  22.143  1.00  0.00     0.056 C 
ATOM     17  C   UNL     1      43.906 128.164  24.390  1.00  0.00     0.016 C 
ATOM     18  C   UNL     1      44.861 129.214  20.807  1.00  0.00     0.019 C 
ATOM     19  C   UNL     1      43.850 128.978  23.118  1.00  0.00     0.136 C 
ATOM     20  C   UNL     1      45.065 130.728  21.025  1.00  0.00     0.019 C 
ATOM     21  C   UNL     1      44.073 130.476  23.394  1.00  0.00     0.054 C 
ATOM     22  C   UNL     1      44.900 131.451  19.708  1.00  0.00    -0.023 C 
ATOM     23  C   UNL     1      44.090 131.312  22.093  1.00  0.00     0.022 C 
ATOM     24  C   UNL     1      43.705 131.924  19.330  1.00  0.00    -0.004 C 
ATOM     25  C   UNL     1      42.702 131.506  21.519  1.00  0.00    -0.023 C 
ATOM     26  C   UNL     1      42.544 131.847  20.236  1.00  0.00    -0.004 C 
ATOM     27  F   UNL     1      42.592 128.795  22.563  1.00  0.00    -0.239 F 
ENDBRANCH   1  13
TORSDOF 3
ENDMDL
MODEL 9
REMARK VINA RESULT:      -4.1      3.690      7.866
REMARK SMILES NN(C(=O)N1CCOCC1)C1=C[C@H]2C[C@H]3C=CC=C[C@H]3C[C@]2(F)C=C1
REMARK SMILES IDX 2 1 1 2 3 5 5 6 6 7 10 8 7 9 9 10 8 11 4 12 11 13 12 14
REMARK SMILES IDX 25 15 13 16 24 17 14 18 22 19 15 20 21 21 16 22 20 23 17 24
REMARK SMILES IDX 19 25 18 26 23 27
REMARK H PARENT 1 3 1 4
ROOT
ATOM      1  N   UNL     1      44.738 130.293  21.379  1.00  0.00    -0.230 N 
ENDROOT
BRANCH   1   2
ATOM      2  N   UNL     1      43.832 131.268  21.836  1.00  0.00    -0.239 NA
ATOM      3  H   UNL     1      42.997 131.254  21.206  1.00  0.00     0.144 HD
ATOM      4  H   UNL     1      44.294 132.202  21.737  1.00  0.00     0.144 HD
ENDBRANCH   1   2
BRANCH   1   5
ATOM      5  C   UNL     1      45.649 130.613  20.307  1.00  0.00     0.339 C 
ATOM      6  N   UNL     1      45.167 130.835  18.970  1.00  0.00    -0.319 N 
ATOM      7  C   UNL     1      44.042 131.746  18.740  1.00  0.00     0.150 C 
ATOM      8  C   UNL     1      46.025 130.515  17.827  1.00  0.00     0.150 C 
ATOM      9  C   UNL     1      43.320 131.352  17.447  1.00  0.00     0.181 C 
ATOM     10  C   UNL     1      45.158 130.227  16.594  1.00  0.00     0.181 C 
ATOM     11  O   UNL     1      44.235 131.278  16.369  1.00  0.00    -0.378 OA
ATOM     12  O   UNL     1      46.885 130.707  20.546  1.00  0.00    -0.247 OA
ENDBRANCH   1   5
BRANCH   1  13
ATOM     13  C   UNL     1      44.775 129.018  22.049  1.00  0.00     0.059 C 
ATOM     14  C   UNL     1      45.466 127.979  21.537  1.00  0.00     0.008 C 
ATOM     15  C   UNL     1      44.069 128.850  23.347  1.00  0.00     0.026 C 
ATOM     16  C   UNL     1      45.383 126.625  22.201  1.00  0.00     0.056 C 
ATOM     17  C   UNL     1      44.302 127.780  24.121  1.00  0.00     0.016 C 
ATOM     18  C   UNL     1      46.515 125.687  21.762  1.00  0.00     0.019 C 
ATOM     19  C   UNL     1      45.383 126.796  23.737  1.00  0.00     0.136 C 
ATOM     20  C   UNL     1      46.359 124.300  22.421  1.00  0.00     0.019 C 
ATOM     21  C   UNL     1      45.169 125.430  24.412  1.00  0.00     0.054 C 
ATOM     22  C   UNL     1      47.535 123.429  22.042  1.00  0.00    -0.023 C 
ATOM     23  C   UNL     1      46.226 124.390  23.972  1.00  0.00     0.022 C 
ATOM     24  C   UNL     1      48.634 123.389  22.806  1.00  0.00    -0.004 C 
ATOM     25  C   UNL     1      47.572 124.632  24.623  1.00  0.00    -0.023 C 
ATOM     26  C   UNL     1      48.683 124.108  24.094  1.00  0.00    -0.004 C 
ATOM     27  F   UNL     1      46.595 127.328  24.150  1.00  0.00    -0.239 F 
ENDBRANCH   1  13
TORSDOF 3
ENDMDL


