MODEL 1
REMARK VINA RESULT:      -5.0      0.000      0.000
REMARK SMILES Cc1cc(-c2c([NH2+]c3cccc4c3CCC4)ccc3[nH]ccc23)cc([O-])c1F
REMARK SMILES IDX 5 1 6 2 17 3 18 4 19 5 20 6 21 7 22 8 23 9 4 11 2 12 3 13
REMARK SMILES IDX 27 14 25 15 24 16 1 17 28 18 26 19 7 20 8 23 9 24 13 25
REMARK SMILES IDX 10 26 12 27 14 28 11 29 16 30 15 31
REMARK H PARENT 20 10 7 21 7 22
ROOT
ATOM      1  C   UNL     1      44.062 125.559  22.935  1.00  0.00     0.052 A 
ATOM      2  C   UNL     1      43.670 126.823  23.467  1.00  0.00     0.143 A 
ATOM      3  C   UNL     1      42.288 127.097  23.658  1.00  0.00     0.071 A 
ATOM      4  C   UNL     1      41.307 126.147  23.334  1.00  0.00     0.033 A 
ATOM      5  C   UNL     1      41.727 124.925  22.820  1.00  0.00     0.046 A 
ATOM      6  N   UNL     1      40.954 123.892  22.446  1.00  0.00    -0.361 N 
ATOM      7  C   UNL     1      41.801 122.935  22.009  1.00  0.00     0.083 A 
ATOM      8  C   UNL     1      43.120 123.363  22.104  1.00  0.00     0.029 A 
ATOM      9  C   UNL     1      43.052 124.640  22.626  1.00  0.00     0.013 A 
ATOM     10  H   UNL     1      39.912 123.837  22.484  1.00  0.00     0.166 HD
ENDROOT
BRANCH   1  11
ATOM     11  C   UNL     1      45.473 125.208  22.695  1.00  0.00    -0.012 A 
ATOM     12  C   UNL     1      47.775 125.093  23.476  1.00  0.00    -0.015 A 
ATOM     13  C   UNL     1      46.434 125.448  23.687  1.00  0.00     0.015 A 
ATOM     14  C   UNL     1      48.159 124.554  22.236  1.00  0.00     0.118 A 
ATOM     15  C   UNL     1      47.203 124.340  21.236  1.00  0.00    -0.071 A 
ATOM     16  C   UNL     1      45.862 124.662  21.466  1.00  0.00     0.003 A 
ATOM     17  C   UNL     1      48.795 125.330  24.551  1.00  0.00     0.047 C 
ATOM     18  F   UNL     1      49.458 124.232  22.000  1.00  0.00    -0.207 F 
ATOM     19  O   UNL     1      47.584 123.803  20.012  1.00  0.00    -0.870 OA
ENDBRANCH   1  11
BRANCH   2  20
ATOM     20  N   UNL     1      44.650 127.834  23.807  1.00  0.00    -0.281 N 
ATOM     21  H   UNL     1      44.525 128.155  24.795  1.00  0.00     0.358 HD
ATOM     22  H   UNL     1      45.599 127.400  23.751  1.00  0.00     0.358 HD
BRANCH  20  23
ATOM     23  C   UNL     1      44.538 128.992  22.945  1.00  0.00     0.138 A 
ATOM     24  C   UNL     1      45.260 129.062  21.731  1.00  0.00     0.068 A 
ATOM     25  C   UNL     1      43.670 130.062  23.254  1.00  0.00     0.017 A 
ATOM     26  C   UNL     1      45.160 130.191  20.902  1.00  0.00     0.006 A 
ATOM     27  C   UNL     1      43.581 131.163  22.436  1.00  0.00    -0.039 A 
ATOM     28  C   UNL     1      42.746 130.178  24.413  1.00  0.00     0.042 C 
ATOM     29  C   UNL     1      44.321 131.253  21.257  1.00  0.00     0.004 A 
ATOM     30  C   UNL     1      42.622 132.170  22.944  1.00  0.00     0.036 C 
ATOM     31  C   UNL     1      42.152 131.591  24.288  1.00  0.00     0.010 C 
ENDBRANCH  20  23
ENDBRANCH   2  20
TORSDOF 3
ENDMDL
MODEL 2
REMARK VINA RESULT:      -4.9      2.640      6.198
REMARK SMILES Cc1cc(-c2c([NH2+]c3cccc4c3CCC4)ccc3[nH]ccc23)cc([O-])c1F
REMARK SMILES IDX 5 1 6 2 17 3 18 4 19 5 20 6 21 7 22 8 23 9 4 11 2 12 3 13
REMARK SMILES IDX 27 14 25 15 24 16 1 17 28 18 26 19 7 20 8 23 9 24 13 25
REMARK SMILES IDX 10 26 12 27 14 28 11 29 16 30 15 31
REMARK H PARENT 20 10 7 21 7 22
ROOT
ATOM      1  C   UNL     1      43.747 127.407  23.681  1.00  0.00     0.052 A 
ATOM      2  C   UNL     1      44.742 126.424  23.962  1.00  0.00     0.143 A 
ATOM      3  C   UNL     1      44.339 125.144  24.433  1.00  0.00     0.071 A 
ATOM      4  C   UNL     1      42.984 124.833  24.624  1.00  0.00     0.033 A 
ATOM      5  C   UNL     1      42.043 125.815  24.338  1.00  0.00     0.046 A 
ATOM      6  N   UNL     1      40.708 125.721  24.457  1.00  0.00    -0.361 N 
ATOM      7  C   UNL     1      40.216 126.920  24.073  1.00  0.00     0.083 A 
ATOM      8  C   UNL     1      41.245 127.780  23.709  1.00  0.00     0.029 A 
ATOM      9  C   UNL     1      42.408 127.055  23.885  1.00  0.00     0.013 A 
ATOM     10  H   UNL     1      40.159 124.893  24.781  1.00  0.00     0.166 HD
ENDROOT
BRANCH   1  11
ATOM     11  C   UNL     1      44.087 128.758  23.205  1.00  0.00    -0.012 A 
ATOM     12  C   UNL     1      44.042 131.172  23.512  1.00  0.00    -0.015 A 
ATOM     13  C   UNL     1      43.699 129.883  23.947  1.00  0.00     0.015 A 
ATOM     14  C   UNL     1      44.720 131.331  22.291  1.00  0.00     0.118 A 
ATOM     15  C   UNL     1      45.083 130.209  21.537  1.00  0.00    -0.071 A 
ATOM     16  C   UNL     1      44.771 128.925  21.994  1.00  0.00     0.003 A 
ATOM     17  C   UNL     1      43.645 132.371  24.324  1.00  0.00     0.047 C 
ATOM     18  F   UNL     1      45.034 132.573  21.838  1.00  0.00    -0.207 F 
ATOM     19  O   UNL     1      45.758 130.369  20.333  1.00  0.00    -0.870 OA
ENDBRANCH   1  11
BRANCH   2  20
ATOM     20  N   UNL     1      46.151 126.706  23.785  1.00  0.00    -0.281 N 
ATOM     21  H   UNL     1      46.288 127.548  23.178  1.00  0.00     0.358 HD
ATOM     22  H   UNL     1      46.557 126.942  24.719  1.00  0.00     0.358 HD
BRANCH  20  23
ATOM     23  C   UNL     1      46.841 125.593  23.167  1.00  0.00     0.138 A 
ATOM     24  C   UNL     1      46.157 124.709  22.301  1.00  0.00     0.068 A 
ATOM     25  C   UNL     1      48.224 125.384  23.358  1.00  0.00     0.017 A 
ATOM     26  C   UNL     1      46.825 123.623  21.712  1.00  0.00     0.006 A 
ATOM     27  C   UNL     1      48.867 124.317  22.779  1.00  0.00    -0.039 A 
ATOM     28  C   UNL     1      49.172 126.222  24.140  1.00  0.00     0.042 C 
ATOM     29  C   UNL     1      48.188 123.419  21.955  1.00  0.00     0.004 A 
ATOM     30  C   UNL     1      50.309 124.275  23.112  1.00  0.00     0.036 C 
ATOM     31  C   UNL     1      50.500 125.447  24.087  1.00  0.00     0.010 C 
ENDBRANCH  20  23
ENDBRANCH   2  20
TORSDOF 3
ENDMDL
MODEL 3
REMARK VINA RESULT:      -4.5      2.637      6.433
REMARK SMILES Cc1cc(-c2c([NH2+]c3cccc4c3CCC4)ccc3[nH]ccc23)cc([O-])c1F
REMARK SMILES IDX 5 1 6 2 17 3 18 4 19 5 20 6 21 7 22 8 23 9 4 11 2 12 3 13
REMARK SMILES IDX 27 14 25 15 24 16 1 17 28 18 26 19 7 20 8 23 9 24 13 25
REMARK SMILES IDX 10 26 12 27 14 28 11 29 16 30 15 31
REMARK H PARENT 20 10 7 21 7 22
ROOT
ATOM      1  C   UNL     1      45.082 126.350  23.716  1.00  0.00     0.052 A 
ATOM      2  C   UNL     1      46.368 125.767  23.919  1.00  0.00     0.143 A 
ATOM      3  C   UNL     1      46.457 124.420  24.368  1.00  0.00     0.071 A 
ATOM      4  C   UNL     1      45.303 123.659  24.610  1.00  0.00     0.033 A 
ATOM      5  C   UNL     1      44.068 124.259  24.399  1.00  0.00     0.046 A 
ATOM      6  N   UNL     1      42.855 123.708  24.576  1.00  0.00    -0.361 N 
ATOM      7  C   UNL     1      41.961 124.669  24.252  1.00  0.00     0.083 A 
ATOM      8  C   UNL     1      42.610 125.836  23.869  1.00  0.00     0.029 A 
ATOM      9  C   UNL     1      43.959 125.555  23.969  1.00  0.00     0.013 A 
ATOM     10  H   UNL     1      42.643 122.738  24.898  1.00  0.00     0.166 HD
ENDROOT
BRANCH   1  11
ATOM     11  C   UNL     1      44.910 127.742  23.267  1.00  0.00    -0.012 A 
ATOM     12  C   UNL     1      44.165 130.018  23.702  1.00  0.00    -0.015 A 
ATOM     13  C   UNL     1      44.309 128.684  24.114  1.00  0.00     0.015 A 
ATOM     14  C   UNL     1      44.569 130.389  22.408  1.00  0.00     0.118 A 
ATOM     15  C   UNL     1      45.144 129.442  21.553  1.00  0.00    -0.071 A 
ATOM     16  C   UNL     1      45.319 128.123  21.983  1.00  0.00     0.003 A 
ATOM     17  C   UNL     1      43.543 131.026  24.624  1.00  0.00     0.047 C 
ATOM     18  F   UNL     1      44.410 131.668  21.981  1.00  0.00    -0.207 F 
ATOM     19  O   UNL     1      45.547 129.811  20.276  1.00  0.00    -0.870 OA
ENDBRANCH   1  11
BRANCH   2  20
ATOM     20  N   UNL     1      47.583 126.521  23.687  1.00  0.00    -0.281 N 
ATOM     21  H   UNL     1      47.504 127.093  22.814  1.00  0.00     0.358 HD
ATOM     22  H   UNL     1      47.704 127.195  24.477  1.00  0.00     0.358 HD
BRANCH  20  23
ATOM     23  C   UNL     1      48.730 125.649  23.546  1.00  0.00     0.138 A 
ATOM     24  C   UNL     1      49.773 125.666  24.500  1.00  0.00     0.068 A 
ATOM     25  C   UNL     1      48.823 124.716  22.490  1.00  0.00     0.017 A 
ATOM     26  C   UNL     1      50.890 124.828  24.355  1.00  0.00     0.006 A 
ATOM     27  C   UNL     1      49.922 123.902  22.356  1.00  0.00    -0.039 A 
ATOM     28  C   UNL     1      47.821 124.445  21.425  1.00  0.00     0.042 C 
ATOM     29  C   UNL     1      50.972 123.943  23.274  1.00  0.00     0.004 A 
ATOM     30  C   UNL     1      49.824 123.007  21.181  1.00  0.00     0.036 C 
ATOM     31  C   UNL     1      48.511 123.426  20.502  1.00  0.00     0.010 C 
ENDBRANCH  20  23
ENDBRANCH   2  20
TORSDOF 3
ENDMDL
MODEL 4
REMARK VINA RESULT:      -3.7      1.746      2.934
REMARK SMILES Cc1cc(-c2c([NH2+]c3cccc4c3CCC4)ccc3[nH]ccc23)cc([O-])c1F
REMARK SMILES IDX 5 1 6 2 17 3 18 4 19 5 20 6 21 7 22 8 23 9 4 11 2 12 3 13
REMARK SMILES IDX 27 14 25 15 24 16 1 17 28 18 26 19 7 20 8 23 9 24 13 25
REMARK SMILES IDX 10 26 12 27 14 28 11 29 16 30 15 31
REMARK H PARENT 20 10 7 21 7 22
ROOT
ATOM      1  C   UNL     1      43.202 127.568  23.495  1.00  0.00     0.052 A 
ATOM      2  C   UNL     1      43.510 128.960  23.560  1.00  0.00     0.143 A 
ATOM      3  C   UNL     1      42.514 129.871  24.008  1.00  0.00     0.071 A 
ATOM      4  C   UNL     1      41.239 129.424  24.388  1.00  0.00     0.033 A 
ATOM      5  C   UNL     1      40.976 128.061  24.314  1.00  0.00     0.046 A 
ATOM      6  N   UNL     1      39.828 127.437  24.625  1.00  0.00    -0.361 N 
ATOM      7  C   UNL     1      40.045 126.124  24.390  1.00  0.00     0.083 A 
ATOM      8  C   UNL     1      41.338 125.914  23.926  1.00  0.00     0.029 A 
ATOM      9  C   UNL     1      41.919 127.166  23.884  1.00  0.00     0.013 A 
ATOM     10  H   UNL     1      38.947 127.873  24.977  1.00  0.00     0.166 HD
ENDROOT
BRANCH   1  11
ATOM     11  C   UNL     1      44.176 126.567  23.028  1.00  0.00    -0.012 A 
ATOM     12  C   UNL     1      44.659 124.341  22.170  1.00  0.00    -0.015 A 
ATOM     13  C   UNL     1      43.740 125.292  22.640  1.00  0.00     0.015 A 
ATOM     14  C   UNL     1      46.029 124.655  22.153  1.00  0.00     0.118 A 
ATOM     15  C   UNL     1      46.466 125.919  22.567  1.00  0.00    -0.071 A 
ATOM     16  C   UNL     1      45.541 126.875  22.999  1.00  0.00     0.003 A 
ATOM     17  C   UNL     1      44.184 122.987  21.733  1.00  0.00     0.047 C 
ATOM     18  F   UNL     1      46.938 123.738  21.730  1.00  0.00    -0.207 F 
ATOM     19  O   UNL     1      47.820 126.229  22.545  1.00  0.00    -0.870 OA
ENDBRANCH   1  11
BRANCH   2  20
ATOM     20  N   UNL     1      44.811 129.463  23.170  1.00  0.00    -0.281 N 
ATOM     21  H   UNL     1      45.149 130.185  23.848  1.00  0.00     0.358 HD
ATOM     22  H   UNL     1      45.492 128.671  23.210  1.00  0.00     0.358 HD
BRANCH  20  23
ATOM     23  C   UNL     1      44.772 130.070  21.856  1.00  0.00     0.138 A 
ATOM     24  C   UNL     1      45.696 129.687  20.856  1.00  0.00     0.068 A 
ATOM     25  C   UNL     1      43.785 131.018  21.509  1.00  0.00     0.017 A 
ATOM     26  C   UNL     1      45.665 130.286  19.585  1.00  0.00     0.006 A 
ATOM     27  C   UNL     1      43.766 131.598  20.263  1.00  0.00    -0.039 A 
ATOM     28  C   UNL     1      42.660 131.508  22.347  1.00  0.00     0.042 C 
ATOM     29  C   UNL     1      44.699 131.253  19.286  1.00  0.00     0.004 A 
ATOM     30  C   UNL     1      42.658 132.569  20.107  1.00  0.00     0.036 C 
ATOM     31  C   UNL     1      41.995 132.602  21.494  1.00  0.00     0.010 C 
ENDBRANCH  20  23
ENDBRANCH   2  20
TORSDOF 3
ENDMDL
MODEL 5
REMARK VINA RESULT:      -2.3      5.194      7.721
REMARK SMILES Cc1cc(-c2c([NH2+]c3cccc4c3CCC4)ccc3[nH]ccc23)cc([O-])c1F
REMARK SMILES IDX 5 1 6 2 17 3 18 4 19 5 20 6 21 7 22 8 23 9 4 11 2 12 3 13
REMARK SMILES IDX 27 14 25 15 24 16 1 17 28 18 26 19 7 20 8 23 9 24 13 25
REMARK SMILES IDX 10 26 12 27 14 28 11 29 16 30 15 31
REMARK H PARENT 20 10 7 21 7 22
ROOT
ATOM      1  C   UNL     1      44.862 131.851  21.680  1.00  0.00     0.052 A 
ATOM      2  C   UNL     1      45.790 132.807  22.191  1.00  0.00     0.143 A 
ATOM      3  C   UNL     1      45.878 133.007  23.596  1.00  0.00     0.071 A 
ATOM      4  C   UNL     1      45.071 132.280  24.485  1.00  0.00     0.033 A 
ATOM      5  C   UNL     1      44.180 131.356  23.952  1.00  0.00     0.046 A 
ATOM      6  N   UNL     1      43.325 130.569  24.625  1.00  0.00    -0.361 N 
ATOM      7  C   UNL     1      42.668 129.849  23.689  1.00  0.00     0.083 A 
ATOM      8  C   UNL     1      43.109 130.181  22.414  1.00  0.00     0.029 A 
ATOM      9  C   UNL     1      44.078 131.148  22.602  1.00  0.00     0.013 A 
ATOM     10  H   UNL     1      43.191 130.521  25.660  1.00  0.00     0.166 HD
ENDROOT
BRANCH   1  11
ATOM     11  C   UNL     1      44.704 131.599  20.238  1.00  0.00    -0.012 A 
ATOM     12  C   UNL     1      43.388 131.792  18.199  1.00  0.00    -0.015 A 
ATOM     13  C   UNL     1      43.535 132.006  19.578  1.00  0.00     0.015 A 
ATOM     14  C   UNL     1      44.395 131.108  17.496  1.00  0.00     0.118 A 
ATOM     15  C   UNL     1      45.548 130.677  18.161  1.00  0.00    -0.071 A 
ATOM     16  C   UNL     1      45.705 130.926  19.528  1.00  0.00     0.003 A 
ATOM     17  C   UNL     1      42.146 132.253  17.494  1.00  0.00     0.047 C 
ATOM     18  F   UNL     1      44.257 130.864  16.167  1.00  0.00    -0.207 F 
ATOM     19  O   UNL     1      46.544 130.004  17.463  1.00  0.00    -0.870 OA
ENDBRANCH   1  11
BRANCH   2  20
ATOM     20  N   UNL     1      46.635 133.583  21.307  1.00  0.00    -0.281 N 
ATOM     21  H   UNL     1      46.904 133.024  20.464  1.00  0.00     0.358 HD
ATOM     22  H   UNL     1      46.083 134.400  20.961  1.00  0.00     0.358 HD
BRANCH  20  23
ATOM     23  C   UNL     1      47.852 134.002  21.971  1.00  0.00     0.138 A 
ATOM     24  C   UNL     1      48.449 133.193  22.965  1.00  0.00     0.068 A 
ATOM     25  C   UNL     1      48.514 135.196  21.614  1.00  0.00     0.017 A 
ATOM     26  C   UNL     1      49.623 133.606  23.616  1.00  0.00     0.006 A 
ATOM     27  C   UNL     1      49.661 135.592  22.258  1.00  0.00    -0.039 A 
ATOM     28  C   UNL     1      48.139 136.160  20.545  1.00  0.00     0.042 C 
ATOM     29  C   UNL     1      50.232 134.816  23.267  1.00  0.00     0.004 A 
ATOM     30  C   UNL     1      50.190 136.874  21.739  1.00  0.00     0.036 C 
ATOM     31  C   UNL     1      49.148 137.312  20.697  1.00  0.00     0.010 C 
ENDBRANCH  20  23
ENDBRANCH   2  20
TORSDOF 3
ENDMDL
MODEL 6
REMARK VINA RESULT:      -2.2      5.424      7.743
REMARK SMILES Cc1cc(-c2c([NH2+]c3cccc4c3CCC4)ccc3[nH]ccc23)cc([O-])c1F
REMARK SMILES IDX 5 1 6 2 17 3 18 4 19 5 20 6 21 7 22 8 23 9 4 11 2 12 3 13
REMARK SMILES IDX 27 14 25 15 24 16 1 17 28 18 26 19 7 20 8 23 9 24 13 25
REMARK SMILES IDX 10 26 12 27 14 28 11 29 16 30 15 31
REMARK H PARENT 20 10 7 21 7 22
ROOT
ATOM      1  C   UNL     1      44.626 131.836  21.719  1.00  0.00     0.052 A 
ATOM      2  C   UNL     1      45.577 132.750  22.264  1.00  0.00     0.143 A 
ATOM      3  C   UNL     1      45.734 132.829  23.675  1.00  0.00     0.071 A 
ATOM      4  C   UNL     1      44.973 132.025  24.537  1.00  0.00     0.033 A 
ATOM      5  C   UNL     1      44.058 131.145  23.970  1.00  0.00     0.046 A 
ATOM      6  N   UNL     1      43.237 130.299  24.615  1.00  0.00    -0.361 N 
ATOM      7  C   UNL     1      42.536 129.659  23.654  1.00  0.00     0.083 A 
ATOM      8  C   UNL     1      42.913 130.101  22.392  1.00  0.00     0.029 A 
ATOM      9  C   UNL     1      43.889 131.053  22.615  1.00  0.00     0.013 A 
ATOM     10  H   UNL     1      43.155 130.162  25.647  1.00  0.00     0.166 HD
ENDROOT
BRANCH   1  11
ATOM     11  C   UNL     1      44.397 131.708  20.270  1.00  0.00    -0.012 A 
ATOM     12  C   UNL     1      45.157 130.983  18.075  1.00  0.00    -0.015 A 
ATOM     13  C   UNL     1      45.379 131.131  19.452  1.00  0.00     0.015 A 
ATOM     14  C   UNL     1      43.968 131.477  17.510  1.00  0.00     0.118 A 
ATOM     15  C   UNL     1      43.001 132.078  18.323  1.00  0.00    -0.071 A 
ATOM     16  C   UNL     1      43.212 132.189  19.701  1.00  0.00     0.003 A 
ATOM     17  C   UNL     1      46.202 130.342  17.209  1.00  0.00     0.047 C 
ATOM     18  F   UNL     1      43.748 131.370  16.174  1.00  0.00    -0.207 F 
ATOM     19  O   UNL     1      41.824 132.561  17.763  1.00  0.00    -0.870 OA
ENDBRANCH   1  11
BRANCH   2  20
ATOM     20  N   UNL     1      46.377 133.603  21.410  1.00  0.00    -0.281 N 
ATOM     21  H   UNL     1      46.605 133.119  20.510  1.00  0.00     0.358 HD
ATOM     22  H   UNL     1      45.807 134.443  21.162  1.00  0.00     0.358 HD
BRANCH  20  23
ATOM     23  C   UNL     1      47.625 133.970  22.046  1.00  0.00     0.138 A 
ATOM     24  C   UNL     1      48.195 133.150  23.047  1.00  0.00     0.068 A 
ATOM     25  C   UNL     1      48.342 135.122  21.656  1.00  0.00     0.017 A 
ATOM     26  C   UNL     1      49.399 133.514  23.672  1.00  0.00     0.006 A 
ATOM     27  C   UNL     1      49.518 135.470  22.276  1.00  0.00    -0.039 A 
ATOM     28  C   UNL     1      48.000 136.083  20.574  1.00  0.00     0.042 C 
ATOM     29  C   UNL     1      50.064 134.685  23.291  1.00  0.00     0.004 A 
ATOM     30  C   UNL     1      50.103 136.713  21.724  1.00  0.00     0.036 C 
ATOM     31  C   UNL     1      49.069 137.184  20.689  1.00  0.00     0.010 C 
ENDBRANCH  20  23
ENDBRANCH   2  20
TORSDOF 3
ENDMDL


