REMARK SMILES [O-]c1ccc(-c2cc3cc(/N=C4\[CH]C=CC4)ncc3[nH+]c2Cl)cc1
REMARK SMILES IDX 10 1 17 2 18 3 19 4 8 5 9 6 7 7 6 8 21 9 22 10 20 11 11 13
REMARK SMILES IDX 12 14 13 15 14 16 15 17 16 18 5 19 4 20 23 21 3 22 24 23
REMARK SMILES IDX 2 24 1 25
REMARK H PARENT 20 12
ROOT
ATOM      1  C   UNL     1      -1.800   0.709   0.784  1.00  0.00     0.152 A 
ATOM      2  N   UNL     1      -1.328   1.973   0.590  1.00  0.00    -0.230 NA
ATOM      3  C   UNL     1      -0.509   2.290  -0.447  1.00  0.00     0.193 A 
ATOM      4  C   UNL     1      -0.117   1.302  -1.359  1.00  0.00     0.230 A 
ATOM      5  C   UNL     1      -0.586  -0.013  -1.181  1.00  0.00     0.052 A 
ATOM      6  C   UNL     1      -1.430  -0.309  -0.102  1.00  0.00     0.064 A 
ATOM      7  C   UNL     1      -0.196  -1.003  -2.088  1.00  0.00     0.032 A 
ATOM      8  C   UNL     1       0.656  -0.685  -3.156  1.00  0.00     0.067 A 
ATOM      9  C   UNL     1       1.093   0.649  -3.304  1.00  0.00     0.281 A 
ATOM     10  Cl  UNL     1       2.093   1.143  -4.669  1.00  0.00    -0.010 Cl
ATOM     11  N   UNL     1       0.701   1.599  -2.408  1.00  0.00    -0.193 N 
ATOM     12  H   UNL     1       1.035   2.581  -2.542  1.00  0.00     0.455 HD
ENDROOT
BRANCH   1  13
ATOM     13  N   UNL     1      -2.657   0.389   1.891  1.00  0.00    -0.237 NA
BRANCH  13  14
ATOM     14  C   UNL     1      -3.158   1.212   2.767  1.00  0.00     0.032 C 
ATOM     15  C   UNL     1      -2.959   2.692   2.795  1.00  0.00     0.069 C 
ATOM     16  C   UNL     1      -3.732   3.071   4.011  1.00  0.00    -0.020 C 
ATOM     17  C   UNL     1      -4.303   2.024   4.600  1.00  0.00    -0.025 C 
ATOM     18  C   UNL     1      -4.014   0.746   3.891  1.00  0.00     0.079 C 
ENDBRANCH  13  14
ENDBRANCH   1  13
BRANCH   8  19
ATOM     19  C   UNL     1       1.067  -1.753  -4.095  1.00  0.00    -0.011 A 
ATOM     20  C   UNL     1       0.097  -2.517  -4.765  1.00  0.00     0.008 A 
ATOM     21  C   UNL     1       2.428  -2.042  -4.296  1.00  0.00     0.008 A 
ATOM     22  C   UNL     1       0.482  -3.539  -5.638  1.00  0.00    -0.008 A 
ATOM     23  C   UNL     1       2.810  -3.065  -5.170  1.00  0.00    -0.008 A 
ATOM     24  C   UNL     1       1.838  -3.812  -5.843  1.00  0.00    -0.109 A 
ATOM     25  O   UNL     1       2.219  -4.827  -6.711  1.00  0.00    -0.872 OA
ENDBRANCH   8  19
TORSDOF 3


