MODEL 1
REMARK VINA RESULT:      -7.1      0.000      0.000
REMARK SMILES O=C1NC[C@H](/C(O)=[N+]2/CCC[C@H](c3ccc4cc(F)ccc4n3)[C@@H]2F)N1
REMARK SMILES IDX 8 1 9 2 10 3 11 4 12 5 24 6 25 7 6 8 7 9 5 11 26 12 4 13
REMARK SMILES IDX 2 14 3 15 1 17 13 19 23 20 14 21 22 22 15 23 21 24 16 25
REMARK SMILES IDX 20 26 17 27 18 28 19 29
REMARK H PARENT 7 10 26 16 3 18
ROOT
ATOM      1  N   UNL     1      44.073 129.403  23.746  1.00  0.00    -0.168 N 
ATOM      2  C   UNL     1      43.781 130.564  24.617  1.00  0.00     0.357 C 
ATOM      3  C   UNL     1      44.553 131.802  24.151  1.00  0.00     0.074 C 
ATOM      4  C   UNL     1      44.269 132.094  22.677  1.00  0.00     0.026 C 
ATOM      5  C   UNL     1      44.617 130.867  21.819  1.00  0.00     0.142 C 
ATOM      6  C   UNL     1      43.855 129.613  22.296  1.00  0.00     0.454 C 
ATOM      7  F   UNL     1      42.495 129.739  22.058  1.00  0.00    -0.174 F 
ENDROOT
BRANCH   1   8
ATOM      8  C   UNL     1      44.389 128.233  24.272  1.00  0.00     0.361 C 
BRANCH   8   9
ATOM      9  O   UNL     1      45.737 127.917  24.484  1.00  0.00    -0.462 OA
ATOM     10  H   UNL     1      46.421 127.881  23.739  1.00  0.00     0.299 HD
ENDBRANCH   8   9
BRANCH   8  11
ATOM     11  C   UNL     1      43.339 127.183  24.621  1.00  0.00     0.240 C 
ATOM     12  N   UNL     1      43.804 125.837  24.297  1.00  0.00    -0.321 N 
ATOM     13  C   UNL     1      42.034 127.381  23.794  1.00  0.00     0.158 C 
ATOM     14  C   UNL     1      42.887 125.266  23.396  1.00  0.00     0.315 C 
ATOM     15  N   UNL     1      41.831 126.136  23.066  1.00  0.00    -0.335 N 
ATOM     16  H   UNL     1      44.634 125.356  24.711  1.00  0.00     0.166 HD
ATOM     17  O   UNL     1      42.997 124.099  22.936  1.00  0.00    -0.249 OA
ATOM     18  H   UNL     1      41.038 125.923  22.421  1.00  0.00     0.165 HD
ENDBRANCH   8  11
ENDBRANCH   1   8
BRANCH   5  19
ATOM     19  C   UNL     1      44.411 131.125  20.341  1.00  0.00     0.054 A 
ATOM     20  N   UNL     1      45.339 130.657  19.459  1.00  0.00    -0.252 NA
ATOM     21  C   UNL     1      43.278 131.803  19.854  1.00  0.00     0.025 A 
ATOM     22  C   UNL     1      45.217 130.833  18.116  1.00  0.00     0.071 A 
ATOM     23  C   UNL     1      43.126 131.998  18.479  1.00  0.00     0.012 A 
ATOM     24  C   UNL     1      46.197 130.338  17.250  1.00  0.00     0.032 A 
ATOM     25  C   UNL     1      44.096 131.515  17.594  1.00  0.00     0.003 A 
ATOM     26  C   UNL     1      46.068 130.519  15.870  1.00  0.00     0.041 A 
ATOM     27  C   UNL     1      43.974 131.693  16.208  1.00  0.00     0.049 A 
ATOM     28  C   UNL     1      44.959 131.195  15.350  1.00  0.00     0.123 A 
ATOM     29  F   UNL     1      44.840 131.368  14.010  1.00  0.00    -0.207 F 
ENDBRANCH   5  19
TORSDOF 4
ENDMDL
MODEL 2
REMARK VINA RESULT:      -6.8      1.566      1.883
REMARK SMILES O=C1NC[C@H](/C(O)=[N+]2/CCC[C@H](c3ccc4cc(F)ccc4n3)[C@@H]2F)N1
REMARK SMILES IDX 8 1 9 2 10 3 11 4 12 5 24 6 25 7 6 8 7 9 5 11 26 12 4 13
REMARK SMILES IDX 2 14 3 15 1 17 13 19 23 20 14 21 22 22 15 23 21 24 16 25
REMARK SMILES IDX 20 26 17 27 18 28 19 29
REMARK H PARENT 7 10 26 16 3 18
ROOT
ATOM      1  N   UNL     1      43.307 130.161  22.873  1.00  0.00    -0.168 N 
ATOM      2  C   UNL     1      43.646 131.380  23.643  1.00  0.00     0.357 C 
ATOM      3  C   UNL     1      44.976 131.972  23.166  1.00  0.00     0.074 C 
ATOM      4  C   UNL     1      44.945 132.226  21.659  1.00  0.00     0.026 C 
ATOM      5  C   UNL     1      44.618 130.923  20.910  1.00  0.00     0.142 C 
ATOM      6  C   UNL     1      43.288 130.313  21.400  1.00  0.00     0.454 C 
ATOM      7  F   UNL     1      42.214 131.113  21.043  1.00  0.00    -0.174 F 
ENDROOT
BRANCH   1   8
ATOM      8  C   UNL     1      42.932 129.058  23.497  1.00  0.00     0.361 C 
BRANCH   8   9
ATOM      9  O   UNL     1      41.577 128.868  23.799  1.00  0.00    -0.462 OA
ATOM     10  H   UNL     1      41.257 128.315  24.584  1.00  0.00     0.299 HD
ENDBRANCH   8   9
BRANCH   8  11
ATOM     11  C   UNL     1      43.926 127.992  23.946  1.00  0.00     0.240 C 
ATOM     12  N   UNL     1      45.142 128.025  23.140  1.00  0.00    -0.321 N 
ATOM     13  C   UNL     1      43.348 126.557  23.765  1.00  0.00     0.158 C 
ATOM     14  C   UNL     1      45.307 126.759  22.550  1.00  0.00     0.315 C 
ATOM     15  N   UNL     1      44.276 125.862  22.883  1.00  0.00    -0.335 N 
ATOM     16  H   UNL     1      45.811 128.825  23.066  1.00  0.00     0.166 HD
ATOM     17  O   UNL     1      46.277 126.458  21.805  1.00  0.00    -0.249 OA
ATOM     18  H   UNL     1      44.195 124.871  22.563  1.00  0.00     0.165 HD
ENDBRANCH   8  11
ENDBRANCH   1   8
BRANCH   5  19
ATOM     19  C   UNL     1      44.636 131.106  19.407  1.00  0.00     0.054 A 
ATOM     20  N   UNL     1      45.603 130.476  18.682  1.00  0.00    -0.252 NA
ATOM     21  C   UNL     1      43.668 131.878  18.739  1.00  0.00     0.025 A 
ATOM     22  C   UNL     1      45.676 130.576  17.328  1.00  0.00     0.071 A 
ATOM     23  C   UNL     1      43.718 132.000  17.349  1.00  0.00     0.012 A 
ATOM     24  C   UNL     1      46.690 129.914  16.628  1.00  0.00     0.032 A 
ATOM     25  C   UNL     1      44.724 131.349  16.627  1.00  0.00     0.003 A 
ATOM     26  C   UNL     1      46.761 130.018  15.235  1.00  0.00     0.041 A 
ATOM     27  C   UNL     1      44.803 131.449  15.230  1.00  0.00     0.049 A 
ATOM     28  C   UNL     1      45.821 130.784  14.538  1.00  0.00     0.123 A 
ATOM     29  F   UNL     1      45.895 130.881  13.188  1.00  0.00    -0.207 F 
ENDBRANCH   5  19
TORSDOF 4
ENDMDL
MODEL 3
REMARK VINA RESULT:      -6.0      1.506      1.758
REMARK SMILES O=C1NC[C@H](/C(O)=[N+]2/CCC[C@H](c3ccc4cc(F)ccc4n3)[C@@H]2F)N1
REMARK SMILES IDX 8 1 9 2 10 3 11 4 12 5 24 6 25 7 6 8 7 9 5 11 26 12 4 13
REMARK SMILES IDX 2 14 3 15 1 17 13 19 23 20 14 21 22 22 15 23 21 24 16 25
REMARK SMILES IDX 20 26 17 27 18 28 19 29
REMARK H PARENT 7 10 26 16 3 18
ROOT
ATOM      1  N   UNL     1      43.662 129.435  23.408  1.00  0.00    -0.168 N 
ATOM      2  C   UNL     1      43.512 130.627  24.274  1.00  0.00     0.357 C 
ATOM      3  C   UNL     1      44.530 131.706  23.896  1.00  0.00     0.074 C 
ATOM      4  C   UNL     1      44.425 132.052  22.410  1.00  0.00     0.026 C 
ATOM      5  C   UNL     1      44.618 130.785  21.560  1.00  0.00     0.142 C 
ATOM      6  C   UNL     1      43.606 129.687  21.950  1.00  0.00     0.454 C 
ATOM      7  F   UNL     1      42.316 130.057  21.605  1.00  0.00    -0.174 F 
ENDROOT
BRANCH   1   8
ATOM      8  C   UNL     1      43.718 128.225  23.937  1.00  0.00     0.361 C 
BRANCH   8   9
ATOM      9  O   UNL     1      42.533 127.600  24.346  1.00  0.00    -0.462 OA
ATOM     10  H   UNL     1      42.500 126.652  24.697  1.00  0.00     0.299 HD
ENDBRANCH   8   9
BRANCH   8  11
ATOM     11  C   UNL     1      45.036 127.491  24.164  1.00  0.00     0.240 C 
ATOM     12  N   UNL     1      45.812 127.395  22.932  1.00  0.00    -0.321 N 
ATOM     13  C   UNL     1      44.800 126.020  24.621  1.00  0.00     0.158 C 
ATOM     14  C   UNL     1      46.045 126.033  22.670  1.00  0.00     0.315 C 
ATOM     15  N   UNL     1      45.467 125.184  23.632  1.00  0.00    -0.335 N 
ATOM     16  H   UNL     1      46.187 128.197  22.376  1.00  0.00     0.166 HD
ATOM     17  O   UNL     1      46.705 125.617  21.681  1.00  0.00    -0.249 OA
ATOM     18  H   UNL     1      45.515 124.142  23.640  1.00  0.00     0.165 HD
ENDBRANCH   8  11
ENDBRANCH   1   8
BRANCH   5  19
ATOM     19  C   UNL     1      44.585 131.082  20.075  1.00  0.00     0.054 A 
ATOM     20  N   UNL     1      45.478 130.451  19.261  1.00  0.00    -0.252 NA
ATOM     21  C   UNL     1      43.642 131.962  19.512  1.00  0.00     0.025 A 
ATOM     22  C   UNL     1      45.500 130.651  17.917  1.00  0.00     0.071 A 
ATOM     23  C   UNL     1      43.642 132.187  18.134  1.00  0.00     0.012 A 
ATOM     24  C   UNL     1      46.438 129.983  17.122  1.00  0.00     0.032 A 
ATOM     25  C   UNL     1      44.573 131.533  17.320  1.00  0.00     0.003 A 
ATOM     26  C   UNL     1      46.458 130.189  15.739  1.00  0.00     0.041 A 
ATOM     27  C   UNL     1      44.600 131.735  15.932  1.00  0.00     0.049 A 
ATOM     28  C   UNL     1      45.542 131.064  15.145  1.00  0.00     0.123 A 
ATOM     29  F   UNL     1      45.566 131.260  13.804  1.00  0.00    -0.207 F 
ENDBRANCH   5  19
TORSDOF 4
ENDMDL
MODEL 4
REMARK VINA RESULT:      -5.4      2.416      4.058
REMARK SMILES O=C1NC[C@H](/C(O)=[N+]2/CCC[C@H](c3ccc4cc(F)ccc4n3)[C@@H]2F)N1
REMARK SMILES IDX 8 1 9 2 10 3 11 4 12 5 24 6 25 7 6 8 7 9 5 11 26 12 4 13
REMARK SMILES IDX 2 14 3 15 1 17 13 19 23 20 14 21 22 22 15 23 21 24 16 25
REMARK SMILES IDX 20 26 17 27 18 28 19 29
REMARK H PARENT 7 10 26 16 3 18
ROOT
ATOM      1  N   UNL     1      44.283 131.423  20.635  1.00  0.00    -0.168 N 
ATOM      2  C   UNL     1      42.820 131.210  20.709  1.00  0.00     0.357 C 
ATOM      3  C   UNL     1      42.099 131.991  19.607  1.00  0.00     0.074 C 
ATOM      4  C   UNL     1      42.668 131.637  18.233  1.00  0.00     0.026 C 
ATOM      5  C   UNL     1      44.182 131.904  18.204  1.00  0.00     0.142 C 
ATOM      6  C   UNL     1      44.910 131.133  19.324  1.00  0.00     0.454 C 
ATOM      7  F   UNL     1      44.868 129.767  19.095  1.00  0.00    -0.174 F 
ENDROOT
BRANCH   1   8
ATOM      8  C   UNL     1      44.972 131.733  21.719  1.00  0.00     0.361 C 
BRANCH   8   9
ATOM      9  O   UNL     1      46.215 132.364  21.585  1.00  0.00    -0.462 OA
ATOM     10  H   UNL     1      47.096 131.873  21.665  1.00  0.00     0.299 HD
ENDBRANCH   8   9
BRANCH   8  11
ATOM     11  C   UNL     1      44.486 131.389  23.123  1.00  0.00     0.240 C 
ATOM     12  N   UNL     1      44.604 129.959  23.392  1.00  0.00    -0.321 N 
ATOM     13  C   UNL     1      42.974 131.720  23.303  1.00  0.00     0.158 C 
ATOM     14  C   UNL     1      43.326 129.470  23.718  1.00  0.00     0.315 C 
ATOM     15  N   UNL     1      42.333 130.466  23.676  1.00  0.00    -0.335 N 
ATOM     16  H   UNL     1      45.491 129.406  23.406  1.00  0.00     0.166 HD
ATOM     17  O   UNL     1      43.095 128.270  24.020  1.00  0.00    -0.249 OA
ATOM     18  H   UNL     1      41.319 130.333  23.885  1.00  0.00     0.165 HD
ENDBRANCH   8  11
ENDBRANCH   1   8
BRANCH   5  19
ATOM     19  C   UNL     1      44.786 131.627  16.843  1.00  0.00     0.054 A 
ATOM     20  N   UNL     1      45.927 130.884  16.772  1.00  0.00    -0.252 NA
ATOM     21  C   UNL     1      44.189 132.086  15.655  1.00  0.00     0.025 A 
ATOM     22  C   UNL     1      46.520 130.577  15.588  1.00  0.00     0.071 A 
ATOM     23  C   UNL     1      44.776 131.787  14.424  1.00  0.00     0.012 A 
ATOM     24  C   UNL     1      47.693 129.814  15.565  1.00  0.00     0.032 A 
ATOM     25  C   UNL     1      45.950 131.028  14.377  1.00  0.00     0.003 A 
ATOM     26  C   UNL     1      48.300 129.500  14.345  1.00  0.00     0.041 A 
ATOM     27  C   UNL     1      46.565 130.709  13.157  1.00  0.00     0.049 A 
ATOM     28  C   UNL     1      47.738 129.946  13.144  1.00  0.00     0.123 A 
ATOM     29  F   UNL     1      48.331 129.638  11.965  1.00  0.00    -0.207 F 
ENDBRANCH   5  19
TORSDOF 4
ENDMDL
MODEL 5
REMARK VINA RESULT:      -5.2      4.772      7.167
REMARK SMILES O=C1NC[C@H](/C(O)=[N+]2/CCC[C@H](c3ccc4cc(F)ccc4n3)[C@@H]2F)N1
REMARK SMILES IDX 8 1 9 2 10 3 11 4 12 5 24 6 25 7 6 8 7 9 5 11 26 12 4 13
REMARK SMILES IDX 2 14 3 15 1 17 13 19 23 20 14 21 22 22 15 23 21 24 16 25
REMARK SMILES IDX 20 26 17 27 18 28 19 29
REMARK H PARENT 7 10 26 16 3 18
ROOT
ATOM      1  N   UNL     1      47.420 124.149  23.133  1.00  0.00    -0.168 N 
ATOM      2  C   UNL     1      46.614 122.907  23.167  1.00  0.00     0.357 C 
ATOM      3  C   UNL     1      45.521 122.997  24.236  1.00  0.00     0.074 C 
ATOM      4  C   UNL     1      44.660 124.243  24.025  1.00  0.00     0.026 C 
ATOM      5  C   UNL     1      45.545 125.502  24.028  1.00  0.00     0.142 C 
ATOM      6  C   UNL     1      46.658 125.408  22.965  1.00  0.00     0.454 C 
ATOM      7  F   UNL     1      46.128 125.447  21.686  1.00  0.00    -0.174 F 
ENDROOT
BRANCH   1   8
ATOM      8  C   UNL     1      48.740 124.091  23.132  1.00  0.00     0.361 C 
BRANCH   8   9
ATOM      9  O   UNL     1      49.402 123.495  24.213  1.00  0.00    -0.462 OA
ATOM     10  H   UNL     1      49.348 122.505  24.419  1.00  0.00     0.299 HD
ENDBRANCH   8   9
BRANCH   8  11
ATOM     11  C   UNL     1      49.585 124.691  22.013  1.00  0.00     0.240 C 
ATOM     12  N   UNL     1      49.797 123.733  20.933  1.00  0.00    -0.321 N 
ATOM     13  C   UNL     1      51.010 125.073  22.514  1.00  0.00     0.158 C 
ATOM     14  C   UNL     1      51.184 123.559  20.771  1.00  0.00     0.315 C 
ATOM     15  N   UNL     1      51.940 124.322  21.680  1.00  0.00    -0.335 N 
ATOM     16  H   UNL     1      49.054 123.302  20.337  1.00  0.00     0.166 HD
ATOM     17  O   UNL     1      51.695 122.805  19.902  1.00  0.00    -0.249 OA
ATOM     18  H   UNL     1      52.982 124.353  21.740  1.00  0.00     0.165 HD
ENDBRANCH   8  11
ENDBRANCH   1   8
BRANCH   5  19
ATOM     19  C   UNL     1      44.733 126.772  23.885  1.00  0.00     0.054 A 
ATOM     20  N   UNL     1      45.150 127.720  22.999  1.00  0.00    -0.252 NA
ATOM     21  C   UNL     1      43.548 126.986  24.614  1.00  0.00     0.025 A 
ATOM     22  C   UNL     1      44.467 128.878  22.800  1.00  0.00     0.071 A 
ATOM     23  C   UNL     1      42.826 128.167  24.431  1.00  0.00     0.012 A 
ATOM     24  C   UNL     1      44.937 129.823  21.881  1.00  0.00     0.032 A 
ATOM     25  C   UNL     1      43.278 129.127  23.520  1.00  0.00     0.003 A 
ATOM     26  C   UNL     1      44.231 131.013  21.678  1.00  0.00     0.041 A 
ATOM     27  C   UNL     1      42.576 130.324  23.311  1.00  0.00     0.049 A 
ATOM     28  C   UNL     1      43.054 131.263  22.392  1.00  0.00     0.123 A 
ATOM     29  F   UNL     1      42.374 132.419  22.190  1.00  0.00    -0.207 F 
ENDBRANCH   5  19
TORSDOF 4
ENDMDL
MODEL 6
REMARK VINA RESULT:      -5.1      3.483      4.967
REMARK SMILES O=C1NC[C@H](/C(O)=[N+]2/CCC[C@H](c3ccc4cc(F)ccc4n3)[C@@H]2F)N1
REMARK SMILES IDX 8 1 9 2 10 3 11 4 12 5 24 6 25 7 6 8 7 9 5 11 26 12 4 13
REMARK SMILES IDX 2 14 3 15 1 17 13 19 23 20 14 21 22 22 15 23 21 24 16 25
REMARK SMILES IDX 20 26 17 27 18 28 19 29
REMARK H PARENT 7 10 26 16 3 18
ROOT
ATOM      1  N   UNL     1      44.041 131.205  21.213  1.00  0.00    -0.168 N 
ATOM      2  C   UNL     1      45.061 130.507  22.029  1.00  0.00     0.357 C 
ATOM      3  C   UNL     1      45.629 129.302  21.274  1.00  0.00     0.074 C 
ATOM      4  C   UNL     1      46.168 129.724  19.907  1.00  0.00     0.026 C 
ATOM      5  C   UNL     1      45.061 130.417  19.094  1.00  0.00     0.142 C 
ATOM      6  C   UNL     1      44.473 131.621  19.858  1.00  0.00     0.454 C 
ATOM      7  F   UNL     1      45.407 132.638  19.974  1.00  0.00    -0.174 F 
ENDROOT
BRANCH   1   8
ATOM      8  C   UNL     1      42.871 131.529  21.735  1.00  0.00     0.361 C 
BRANCH   8   9
ATOM      9  O   UNL     1      42.695 131.452  23.123  1.00  0.00    -0.462 OA
ATOM     10  H   UNL     1      41.880 131.818  23.598  1.00  0.00     0.299 HD
ENDBRANCH   8   9
BRANCH   8  11
ATOM     11  C   UNL     1      41.679 131.944  20.879  1.00  0.00     0.240 C 
ATOM     12  N   UNL     1      41.759 131.369  19.540  1.00  0.00    -0.321 N 
ATOM     13  C   UNL     1      41.637 133.487  20.666  1.00  0.00     0.158 C 
ATOM     14  C   UNL     1      41.747 132.426  18.611  1.00  0.00     0.315 C 
ATOM     15  N   UNL     1      41.680 133.691  19.224  1.00  0.00    -0.335 N 
ATOM     16  H   UNL     1      41.758 130.350  19.306  1.00  0.00     0.166 HD
ATOM     17  O   UNL     1      41.787 132.258  17.364  1.00  0.00    -0.249 OA
ATOM     18  H   UNL     1      41.656 134.612  18.733  1.00  0.00     0.165 HD
ENDBRANCH   8  11
ENDBRANCH   1   8
BRANCH   5  19
ATOM     19  C   UNL     1      45.527 130.801  17.706  1.00  0.00     0.054 A 
ATOM     20  N   UNL     1      46.249 129.898  16.984  1.00  0.00    -0.252 NA
ATOM     21  C   UNL     1      45.209 132.046  17.131  1.00  0.00     0.025 A 
ATOM     22  C   UNL     1      46.688 130.162  15.724  1.00  0.00     0.071 A 
ATOM     23  C   UNL     1      45.647 132.344  15.839  1.00  0.00     0.012 A 
ATOM     24  C   UNL     1      47.429 129.204  15.023  1.00  0.00     0.032 A 
ATOM     25  C   UNL     1      46.392 131.403  15.120  1.00  0.00     0.003 A 
ATOM     26  C   UNL     1      47.878 129.477  13.727  1.00  0.00     0.041 A 
ATOM     27  C   UNL     1      46.846 131.670  13.820  1.00  0.00     0.049 A 
ATOM     28  C   UNL     1      47.588 130.707  13.127  1.00  0.00     0.123 A 
ATOM     29  F   UNL     1      48.026 130.966  11.870  1.00  0.00    -0.207 F 
ENDBRANCH   5  19
TORSDOF 4
ENDMDL
MODEL 7
REMARK VINA RESULT:      -4.9      5.874      8.715
REMARK SMILES O=C1NC[C@H](/C(O)=[N+]2/CCC[C@H](c3ccc4cc(F)ccc4n3)[C@@H]2F)N1
REMARK SMILES IDX 8 1 9 2 10 3 11 4 12 5 24 6 25 7 6 8 7 9 5 11 26 12 4 13
REMARK SMILES IDX 2 14 3 15 1 17 13 19 23 20 14 21 22 22 15 23 21 24 16 25
REMARK SMILES IDX 20 26 17 27 18 28 19 29
REMARK H PARENT 7 10 26 16 3 18
ROOT
ATOM      1  N   UNL     1      49.287 123.982  22.216  1.00  0.00    -0.168 N 
ATOM      2  C   UNL     1      49.248 122.561  22.632  1.00  0.00     0.357 C 
ATOM      3  C   UNL     1      48.725 122.428  24.065  1.00  0.00     0.074 C 
ATOM      4  C   UNL     1      47.366 123.113  24.210  1.00  0.00     0.026 C 
ATOM      5  C   UNL     1      47.471 124.589  23.794  1.00  0.00     0.142 C 
ATOM      6  C   UNL     1      48.015 124.729  22.357  1.00  0.00     0.454 C 
ATOM      7  F   UNL     1      47.103 124.247  21.432  1.00  0.00    -0.174 F 
ENDROOT
BRANCH   1   8
ATOM      8  C   UNL     1      50.368 124.485  21.647  1.00  0.00     0.361 C 
BRANCH   8   9
ATOM      9  O   UNL     1      50.662 125.844  21.813  1.00  0.00    -0.462 OA
ATOM     10  H   UNL     1      50.282 126.405  22.564  1.00  0.00     0.299 HD
ENDBRANCH   8   9
BRANCH   8  11
ATOM     11  C   UNL     1      51.294 123.649  20.769  1.00  0.00     0.240 C 
ATOM     12  N   UNL     1      52.289 124.482  20.100  1.00  0.00    -0.321 N 
ATOM     13  C   UNL     1      50.511 122.939  19.624  1.00  0.00     0.158 C 
ATOM     14  C   UNL     1      52.152 124.294  18.713  1.00  0.00     0.315 C 
ATOM     15  N   UNL     1      51.117 123.400  18.382  1.00  0.00    -0.335 N 
ATOM     16  H   UNL     1      53.019 125.064  20.569  1.00  0.00     0.166 HD
ATOM     17  O   UNL     1      52.880 124.863  17.858  1.00  0.00    -0.249 OA
ATOM     18  H   UNL     1      50.840 123.110  17.418  1.00  0.00     0.165 HD
ENDBRANCH   8  11
ENDBRANCH   1   8
BRANCH   5  19
ATOM     19  C   UNL     1      46.164 125.331  23.978  1.00  0.00     0.054 A 
ATOM     20  N   UNL     1      46.101 126.645  23.622  1.00  0.00    -0.252 NA
ATOM     21  C   UNL     1      45.010 124.696  24.474  1.00  0.00     0.025 A 
ATOM     22  C   UNL     1      44.960 127.375  23.741  1.00  0.00     0.071 A 
ATOM     23  C   UNL     1      43.824 125.421  24.606  1.00  0.00     0.012 A 
ATOM     24  C   UNL     1      44.945 128.723  23.366  1.00  0.00     0.032 A 
ATOM     25  C   UNL     1      43.786 126.770  24.241  1.00  0.00     0.003 A 
ATOM     26  C   UNL     1      43.770 129.470  23.487  1.00  0.00     0.041 A 
ATOM     27  C   UNL     1      42.611 127.527  24.361  1.00  0.00     0.049 A 
ATOM     28  C   UNL     1      42.605 128.874  23.984  1.00  0.00     0.123 A 
ATOM     29  F   UNL     1      41.469 129.604  24.100  1.00  0.00    -0.207 F 
ENDBRANCH   5  19
TORSDOF 4
ENDMDL
MODEL 8
REMARK VINA RESULT:      -4.8      5.266      7.507
REMARK SMILES O=C1NC[C@H](/C(O)=[N+]2/CCC[C@H](c3ccc4cc(F)ccc4n3)[C@@H]2F)N1
REMARK SMILES IDX 8 1 9 2 10 3 11 4 12 5 24 6 25 7 6 8 7 9 5 11 26 12 4 13
REMARK SMILES IDX 2 14 3 15 1 17 13 19 23 20 14 21 22 22 15 23 21 24 16 25
REMARK SMILES IDX 20 26 17 27 18 28 19 29
REMARK H PARENT 7 10 26 16 3 18
ROOT
ATOM      1  N   UNL     1      43.965 127.418  23.344  1.00  0.00    -0.168 N 
ATOM      2  C   UNL     1      43.025 126.326  23.685  1.00  0.00     0.357 C 
ATOM      3  C   UNL     1      43.197 125.143  22.727  1.00  0.00     0.074 C 
ATOM      4  C   UNL     1      44.651 124.672  22.705  1.00  0.00     0.026 C 
ATOM      5  C   UNL     1      45.578 125.837  22.319  1.00  0.00     0.142 C 
ATOM      6  C   UNL     1      45.395 127.038  23.270  1.00  0.00     0.454 C 
ATOM      7  F   UNL     1      45.850 126.736  24.543  1.00  0.00    -0.174 F 
ENDROOT
BRANCH   1   8
ATOM      8  C   UNL     1      43.537 128.664  23.242  1.00  0.00     0.361 C 
BRANCH   8   9
ATOM      9  O   UNL     1      42.191 128.950  23.506  1.00  0.00    -0.462 OA
ATOM     10  H   UNL     1      41.621 128.400  24.136  1.00  0.00     0.299 HD
ENDBRANCH   8   9
BRANCH   8  11
ATOM     11  C   UNL     1      44.443 129.808  22.801  1.00  0.00     0.240 C 
ATOM     12  N   UNL     1      43.675 131.016  22.514  1.00  0.00    -0.321 N 
ATOM     13  C   UNL     1      45.190 129.468  21.477  1.00  0.00     0.158 C 
ATOM     14  C   UNL     1      43.932 131.389  21.182  1.00  0.00     0.315 C 
ATOM     15  N   UNL     1      44.814 130.507  20.528  1.00  0.00    -0.335 N 
ATOM     16  H   UNL     1      43.090 131.549  23.195  1.00  0.00     0.166 HD
ATOM     17  O   UNL     1      43.430 132.405  20.633  1.00  0.00    -0.249 OA
ATOM     18  H   UNL     1      45.146 130.590  19.542  1.00  0.00     0.165 HD
ENDBRANCH   8  11
ENDBRANCH   1   8
BRANCH   5  19
ATOM     19  C   UNL     1      47.026 125.408  22.222  1.00  0.00     0.054 A 
ATOM     20  N   UNL     1      47.357 124.409  21.356  1.00  0.00    -0.252 NA
ATOM     21  C   UNL     1      48.040 126.031  22.973  1.00  0.00     0.025 A 
ATOM     22  C   UNL     1      48.638 123.980  21.198  1.00  0.00     0.071 A 
ATOM     23  C   UNL     1      49.364 125.611  22.833  1.00  0.00     0.012 A 
ATOM     24  C   UNL     1      48.928 122.948  20.299  1.00  0.00     0.032 A 
ATOM     25  C   UNL     1      49.678 124.579  21.942  1.00  0.00     0.003 A 
ATOM     26  C   UNL     1      50.246 122.509  20.139  1.00  0.00     0.041 A 
ATOM     27  C   UNL     1      50.998 124.133  21.776  1.00  0.00     0.049 A 
ATOM     28  C   UNL     1      51.278 123.100  20.876  1.00  0.00     0.123 A 
ATOM     29  F   UNL     1      52.554 122.670  20.715  1.00  0.00    -0.207 F 
ENDBRANCH   5  19
TORSDOF 4
ENDMDL
MODEL 9
REMARK VINA RESULT:      -4.5      3.980      5.756
REMARK SMILES O=C1NC[C@H](/C(O)=[N+]2/CCC[C@H](c3ccc4cc(F)ccc4n3)[C@@H]2F)N1
REMARK SMILES IDX 8 1 9 2 10 3 11 4 12 5 24 6 25 7 6 8 7 9 5 11 26 12 4 13
REMARK SMILES IDX 2 14 3 15 1 17 13 19 23 20 14 21 22 22 15 23 21 24 16 25
REMARK SMILES IDX 20 26 17 27 18 28 19 29
REMARK H PARENT 7 10 26 16 3 18
ROOT
ATOM      1  N   UNL     1      45.795 132.428  22.426  1.00  0.00    -0.168 N 
ATOM      2  C   UNL     1      44.873 131.648  23.283  1.00  0.00     0.357 C 
ATOM      3  C   UNL     1      43.423 131.824  22.823  1.00  0.00     0.074 C 
ATOM      4  C   UNL     1      43.278 131.471  21.343  1.00  0.00     0.026 C 
ATOM      5  C   UNL     1      44.236 132.330  20.500  1.00  0.00     0.142 C 
ATOM      6  C   UNL     1      45.696 132.170  20.971  1.00  0.00     0.454 C 
ATOM      7  F   UNL     1      46.166 130.894  20.705  1.00  0.00    -0.174 F 
ENDROOT
BRANCH   1   8
ATOM      8  C   UNL     1      46.717 133.205  22.967  1.00  0.00     0.361 C 
BRANCH   8   9
ATOM      9  O   UNL     1      46.474 133.790  24.216  1.00  0.00    -0.462 OA
ATOM     10  H   UNL     1      45.650 133.593  24.769  1.00  0.00     0.299 HD
ENDBRANCH   8   9
BRANCH   8  11
ATOM     11  C   UNL     1      48.029 133.531  22.261  1.00  0.00     0.240 C 
ATOM     12  N   UNL     1      49.165 133.420  23.171  1.00  0.00    -0.321 N 
ATOM     13  C   UNL     1      48.052 135.002  21.747  1.00  0.00     0.158 C 
ATOM     14  C   UNL     1      49.823 134.664  23.200  1.00  0.00     0.315 C 
ATOM     15  N   UNL     1      49.204 135.628  22.382  1.00  0.00    -0.335 N 
ATOM     16  H   UNL     1      49.477 132.553  23.664  1.00  0.00     0.166 HD
ATOM     17  O   UNL     1      50.857 134.889  23.882  1.00  0.00    -0.249 OA
ATOM     18  H   UNL     1      49.520 136.614  22.247  1.00  0.00     0.165 HD
ENDBRANCH   8  11
ENDBRANCH   1   8
BRANCH   5  19
ATOM     19  C   UNL     1      44.088 132.063  19.016  1.00  0.00     0.054 A 
ATOM     20  N   UNL     1      45.214 131.927  18.260  1.00  0.00    -0.252 NA
ATOM     21  C   UNL     1      42.828 131.922  18.406  1.00  0.00     0.025 A 
ATOM     22  C   UNL     1      45.165 131.670  16.926  1.00  0.00     0.071 A 
ATOM     23  C   UNL     1      42.747 131.657  17.038  1.00  0.00     0.012 A 
ATOM     24  C   UNL     1      46.349 131.542  16.191  1.00  0.00     0.032 A 
ATOM     25  C   UNL     1      43.917 131.528  16.281  1.00  0.00     0.003 A 
ATOM     26  C   UNL     1      46.295 131.275  14.819  1.00  0.00     0.041 A 
ATOM     27  C   UNL     1      43.871 131.262  14.905  1.00  0.00     0.049 A 
ATOM     28  C   UNL     1      45.059 131.136  14.177  1.00  0.00     0.123 A 
ATOM     29  F   UNL     1      45.014 130.878  12.847  1.00  0.00    -0.207 F 
ENDBRANCH   5  19
TORSDOF 4
ENDMDL


