REMARK SMILES Cc1ccc([NH2+]c2cc(F)c(CN3CC[C@H]4CCC[C@H]43)cc2N)c(F)[nH+]1
REMARK SMILES IDX 7 1 8 2 9 3 10 4 11 5 21 6 22 7 6 8 5 11 2 12 3 13 26 14
REMARK SMILES IDX 4 15 24 16 1 17 25 19 23 20 12 23 13 24 14 25 20 26 15 27
REMARK SMILES IDX 19 28 16 29 18 30 17 31
REMARK H PARENT 6 9 6 10 26 18 23 21 23 22
ROOT
ATOM      1  C   UNL     1      -2.079   0.484   0.721  1.00  0.00     0.161 A 
ATOM      2  C   UNL     1      -1.585   1.345  -0.278  1.00  0.00     0.110 A 
ATOM      3  C   UNL     1      -0.653   0.900  -1.217  1.00  0.00     0.133 A 
ATOM      4  F   UNL     1      -0.195   1.763  -2.159  1.00  0.00    -0.206 F 
ATOM      5  C   UNL     1      -0.194  -0.423  -1.182  1.00  0.00     0.004 A 
ATOM      6  C   UNL     1      -0.659  -1.285  -0.179  1.00  0.00     0.040 A 
ATOM      7  C   UNL     1      -1.586  -0.847   0.779  1.00  0.00     0.094 A 
ENDROOT
BRANCH   1   8
ATOM      8  N   UNL     1      -3.081   0.975   1.646  1.00  0.00    -0.272 N 
ATOM      9  H   UNL     1      -2.788   0.755   2.625  1.00  0.00     0.358 HD
ATOM     10  H   UNL     1      -3.150   2.018   1.597  1.00  0.00     0.358 HD
BRANCH   8  11
ATOM     11  C   UNL     1      -4.386   0.427   1.344  1.00  0.00     0.239 A 
ATOM     12  C   UNL     1      -6.931  -0.576   0.771  1.00  0.00     0.179 A 
ATOM     13  C   UNL     1      -6.319  -0.893   1.989  1.00  0.00     0.080 A 
ATOM     14  N   UNL     1      -6.279   0.218  -0.125  1.00  0.00    -0.179 N 
ATOM     15  C   UNL     1      -5.057  -0.378   2.279  1.00  0.00     0.085 A 
ATOM     16  C   UNL     1      -5.045   0.733   0.136  1.00  0.00     0.420 A 
ATOM     17  C   UNL     1      -8.273  -1.154   0.432  1.00  0.00     0.124 C 
ATOM     18  H   UNL     1      -6.733   0.450  -1.038  1.00  0.00     0.456 HD
ATOM     19  F   UNL     1      -4.467   1.553  -0.776  1.00  0.00    -0.131 F 
ENDBRANCH   8  11
ENDBRANCH   1   8
BRANCH   7  20
ATOM     20  N   UNL     1      -1.991  -1.762   1.805  1.00  0.00    -0.394 N 
ATOM     21  H   UNL     1      -2.520  -1.459   2.649  1.00  0.00     0.156 HD
ATOM     22  H   UNL     1      -1.684  -2.760   1.775  1.00  0.00     0.156 HD
ENDBRANCH   7  20
BRANCH   5  23
ATOM     23  C   UNL     1       0.845  -0.895  -2.167  1.00  0.00     0.123 C 
BRANCH  23  24
ATOM     24  N   UNL     1       2.166  -0.327  -1.834  1.00  0.00    -0.296 NA
ATOM     25  C   UNL     1       3.124  -0.542  -2.922  1.00  0.00     0.085 C 
ATOM     26  C   UNL     1       2.768  -0.935  -0.630  1.00  0.00     0.060 C 
ATOM     27  C   UNL     1       4.497  -0.546  -2.287  1.00  0.00     0.021 C 
ATOM     28  C   UNL     1       2.664   0.021   0.564  1.00  0.00     0.019 C 
ATOM     29  C   UNL     1       4.258  -1.134  -0.901  1.00  0.00     0.007 C 
ATOM     30  C   UNL     1       4.043   0.635   0.743  1.00  0.00     0.002 C 
ATOM     31  C   UNL     1       5.014  -0.400   0.206  1.00  0.00     0.005 C 
ENDBRANCH  23  24
ENDBRANCH   5  23
TORSDOF 5


