REMARK SMILES Nc1c([C@@H]2O[C@H]2c2ccccc2)cc(C(=O)[O-])c([NH2+]c2cc3ccccc3[n-]2)c1[O-]
REMARK SMILES IDX 2 1 3 2 13 3 14 4 18 5 29 6 30 7 1 8 4 11 5 12 6 13 7 14
REMARK SMILES IDX 8 15 12 16 9 17 11 18 10 19 19 20 20 23 21 24 28 25 22 26
REMARK SMILES IDX 27 27 23 28 26 29 24 30 25 31 15 32 16 33 17 34
REMARK H PARENT 1 9 1 10 19 21 19 22
ROOT
ATOM      1  C   UNL     1       0.029  -1.993  -0.729  1.00  0.00     0.035 A 
ATOM      2  C   UNL     1       0.494  -2.080   0.599  1.00  0.00     0.007 A 
ATOM      3  C   UNL     1      -0.243  -1.478   1.628  1.00  0.00     0.024 A 
ATOM      4  C   UNL     1      -1.403  -0.736   1.362  1.00  0.00     0.058 A 
ATOM      5  C   UNL     1      -1.875  -0.638   0.024  1.00  0.00     0.136 A 
ATOM      6  C   UNL     1      -1.141  -1.266  -1.009  1.00  0.00    -0.020 A 
ATOM      7  O   UNL     1      -1.589  -1.176  -2.326  1.00  0.00    -0.867 OA
ENDROOT
BRANCH   1   8
ATOM      8  N   UNL     1       0.725  -2.653  -1.797  1.00  0.00    -0.399 N 
ATOM      9  H   UNL     1       1.517  -3.306  -1.615  1.00  0.00     0.156 HD
ATOM     10  H   UNL     1       0.430  -2.535  -2.792  1.00  0.00     0.156 HD
ENDBRANCH   1   8
BRANCH   2  11
ATOM     11  C   UNL     1       1.755  -2.839   0.934  1.00  0.00     0.185 C 
ATOM     12  O   UNL     1       2.473  -2.227   1.982  1.00  0.00    -0.359 OA
ATOM     13  C   UNL     1       3.030  -2.111   0.693  1.00  0.00     0.183 C 
BRANCH  13  14
ATOM     14  C   UNL     1       4.265  -2.956   0.554  1.00  0.00    -0.016 A 
ATOM     15  C   UNL     1       5.212  -3.016   1.592  1.00  0.00     0.006 A 
ATOM     16  C   UNL     1       4.518  -3.635  -0.648  1.00  0.00     0.006 A 
ATOM     17  C   UNL     1       6.377  -3.773   1.439  1.00  0.00     0.000 A 
ATOM     18  C   UNL     1       5.686  -4.391  -0.798  1.00  0.00     0.000 A 
ATOM     19  C   UNL     1       6.612  -4.462   0.245  1.00  0.00     0.000 A 
ENDBRANCH  13  14
ENDBRANCH   2  11
BRANCH   5  20
ATOM     20  N   UNL     1      -3.096   0.070  -0.304  1.00  0.00    -0.299 N 
ATOM     21  H   UNL     1      -3.551  -0.347  -1.148  1.00  0.00     0.356 HD
ATOM     22  H   UNL     1      -3.794  -0.021   0.468  1.00  0.00     0.356 HD
BRANCH  20  23
ATOM     23  C   UNL     1      -2.819   1.454  -0.585  1.00  0.00     0.036 A 
ATOM     24  C   UNL     1      -3.600   2.516  -0.138  1.00  0.00     0.050 A 
ATOM     25  N   UNL     1      -1.827   1.861  -1.417  1.00  0.00    -0.610 NA
ATOM     26  C   UNL     1      -3.025   3.626  -0.705  1.00  0.00    -0.036 A 
ATOM     27  C   UNL     1      -1.966   3.198  -1.463  1.00  0.00    -0.125 A 
ATOM     28  C   UNL     1      -3.369   4.973  -0.610  1.00  0.00     0.007 A 
ATOM     29  C   UNL     1      -1.175   4.094  -2.181  1.00  0.00    -0.015 A 
ATOM     30  C   UNL     1      -2.586   5.899  -1.322  1.00  0.00     0.001 A 
ATOM     31  C   UNL     1      -1.494   5.462  -2.103  1.00  0.00    -0.001 A 
ENDBRANCH  20  23
ENDBRANCH   5  20
BRANCH   4  32
ATOM     32  C   UNL     1      -2.082  -0.090   2.512  1.00  0.00     0.077 C 
ATOM     33  O   UNL     1      -2.659   1.022   2.386  1.00  0.00    -0.545 OA
ATOM     34  O   UNL     1      -2.045  -0.689   3.766  1.00  0.00    -0.545 OA
ENDBRANCH   4  32
TORSDOF 6


