REMARK SMILES Cc1cc(N)c([NH2+]c2cc(F)c(C)nc2F)cc1F
REMARK SMILES IDX 1 1 2 2 3 3 4 4 6 5 17 6 18 7 19 8 5 9 7 12 8 15 9 16 15 17
REMARK SMILES IDX 10 18 14 19 12 20 16 21 11 22 13 23
REMARK H PARENT 5 10 5 11 7 13 7 14
ROOT
ATOM      1  C   UNL     1      -3.748  -3.585   0.479  1.00  0.00     0.047 C 
ATOM      2  C   UNL     1      -2.906  -2.342   0.488  1.00  0.00    -0.013 A 
ATOM      3  C   UNL     1      -2.623  -1.666  -0.706  1.00  0.00     0.038 A 
ATOM      4  C   UNL     1      -1.825  -0.511  -0.713  1.00  0.00     0.094 A 
ATOM      5  C   UNL     1      -1.267  -0.037   0.505  1.00  0.00     0.160 A 
ATOM      6  C   UNL     1      -1.565  -0.725   1.698  1.00  0.00     0.110 A 
ATOM      7  C   UNL     1      -2.368  -1.866   1.691  1.00  0.00     0.132 A 
ATOM      8  F   UNL     1      -2.618  -2.510   2.859  1.00  0.00    -0.206 F 
ENDROOT
BRANCH   4   9
ATOM      9  N   UNL     1      -1.609   0.164  -1.959  1.00  0.00    -0.394 N 
ATOM     10  H   UNL     1      -1.955  -0.253  -2.852  1.00  0.00     0.156 HD
ATOM     11  H   UNL     1      -1.188   1.113  -2.016  1.00  0.00     0.156 HD
ENDBRANCH   4   9
BRANCH   5  12
ATOM     12  N   UNL     1      -0.389   1.115   0.552  1.00  0.00    -0.276 N 
ATOM     13  H   UNL     1      -0.832   1.910   0.038  1.00  0.00     0.358 HD
ATOM     14  H   UNL     1      -0.267   1.446   1.538  1.00  0.00     0.358 HD
BRANCH  12  15
ATOM     15  C   UNL     1       0.919   0.799   0.021  1.00  0.00     0.193 A 
ATOM     16  C   UNL     1       1.413   1.471  -1.111  1.00  0.00     0.114 A 
ATOM     17  C   UNL     1       1.762  -0.134   0.659  1.00  0.00     0.275 A 
ATOM     18  C   UNL     1       2.681   1.173  -1.612  1.00  0.00     0.150 A 
ATOM     19  N   UNL     1       2.994  -0.403   0.151  1.00  0.00    -0.217 NA
ATOM     20  C   UNL     1       3.467   0.212  -0.966  1.00  0.00     0.077 A 
ATOM     21  F   UNL     1       1.368  -0.763   1.793  1.00  0.00    -0.178 F 
ATOM     22  F   UNL     1       3.141   1.823  -2.711  1.00  0.00    -0.205 F 
ATOM     23  C   UNL     1       4.835  -0.122  -1.472  1.00  0.00     0.070 C 
ENDBRANCH  12  15
ENDBRANCH   5  12
TORSDOF 3


