MODEL 1
REMARK VINA RESULT:      -6.6      0.000      0.000
REMARK SMILES Cc1ccc(-c2cc(C=O)c(/N=C(\O)N[C@@H](c3ccc(F)cc3)C(C)C)cc2F)cc1
REMARK SMILES IDX 13 1 15 2 14 4 12 6 11 7 27 8 8 9 28 10 7 11 6 12 29 13 9 14
REMARK SMILES IDX 10 15 5 16 4 17 30 18 3 19 31 20 2 21 1 22 16 23 17 24 18 25
REMARK SMILES IDX 23 26 19 27 22 28 20 29 21 30 24 31 25 32 26 33
REMARK H PARENT 15 3 14 5
ROOT
ATOM      1  C   UNL     1      42.193 132.324  20.356  1.00  0.00     0.287 C 
ATOM      2  N   UNL     1      43.073 131.341  20.915  1.00  0.00    -0.333 N 
ATOM      3  H   UNL     1      43.805 130.922  20.296  1.00  0.00     0.165 HD
ENDROOT
BRANCH   1   4
ATOM      4  O   UNL     1      41.148 132.830  21.135  1.00  0.00    -0.481 OA
ATOM      5  H   UNL     1      40.593 132.257  21.758  1.00  0.00     0.296 HD
ENDBRANCH   1   4
BRANCH   1   6
ATOM      6  N   UNL     1      42.369 132.693  19.119  1.00  0.00    -0.197 NA
BRANCH   6   7
ATOM      7  C   UNL     1      43.314 132.140  18.191  1.00  0.00     0.082 A 
ATOM      8  C   UNL     1      42.939 131.930  16.853  1.00  0.00     0.069 A 
ATOM      9  C   UNL     1      44.656 131.916  18.579  1.00  0.00     0.041 A 
ATOM     10  C   UNL     1      43.858 131.450  15.920  1.00  0.00     0.133 A 
ATOM     11  C   UNL     1      45.574 131.435  17.629  1.00  0.00     0.025 A 
ATOM     12  C   UNL     1      45.184 131.189  16.302  1.00  0.00     0.018 A 
ATOM     13  F   UNL     1      43.460 131.286  14.632  1.00  0.00    -0.206 F 
BRANCH   9  14
ATOM     14  C   UNL     1      45.140 132.147  19.960  1.00  0.00     0.262 C 
ATOM     15  O   UNL     1      45.575 133.267  20.336  1.00  0.00    -0.298 OA
ENDBRANCH   9  14
BRANCH  12  16
ATOM     16  C   UNL     1      46.174 130.675  15.323  1.00  0.00    -0.015 A 
ATOM     17  C   UNL     1      46.650 131.500  14.289  1.00  0.00     0.009 A 
ATOM     18  C   UNL     1      46.640 129.353  15.411  1.00  0.00     0.009 A 
ATOM     19  C   UNL     1      47.578 131.011  13.364  1.00  0.00     0.004 A 
ATOM     20  C   UNL     1      47.568 128.866  14.486  1.00  0.00     0.004 A 
ATOM     21  C   UNL     1      48.032 129.687  13.448  1.00  0.00    -0.051 A 
ATOM     22  C   UNL     1      49.056 129.176  12.479  1.00  0.00     0.044 C 
ENDBRANCH  12  16
ENDBRANCH   6   7
ENDBRANCH   1   6
BRANCH   2  23
ATOM     23  C   UNL     1      42.872 130.798  22.263  1.00  0.00     0.116 C 
BRANCH  23  24
ATOM     24  C   UNL     1      43.692 129.531  22.411  1.00  0.00    -0.025 A 
ATOM     25  C   UNL     1      44.834 129.319  21.616  1.00  0.00     0.009 A 
ATOM     26  C   UNL     1      43.327 128.557  23.358  1.00  0.00     0.009 A 
ATOM     27  C   UNL     1      45.590 128.151  21.763  1.00  0.00     0.039 A 
ATOM     28  C   UNL     1      44.087 127.392  23.502  1.00  0.00     0.039 A 
ATOM     29  C   UNL     1      45.217 127.189  22.705  1.00  0.00     0.123 A 
ATOM     30  F   UNL     1      45.951 126.058  22.846  1.00  0.00    -0.207 F 
ENDBRANCH  23  24
BRANCH  23  31
ATOM     31  C   UNL     1      43.236 131.852  23.346  1.00  0.00     0.010 C 
ATOM     32  C   UNL     1      44.733 131.809  23.698  1.00  0.00     0.010 C 
ATOM     33  C   UNL     1      42.408 131.635  24.624  1.00  0.00     0.010 C 
ENDBRANCH  23  31
ENDBRANCH   2  23
TORSDOF 8
ENDMDL
MODEL 2
REMARK VINA RESULT:      -4.6      2.644      4.581
REMARK SMILES Cc1ccc(-c2cc(C=O)c(/N=C(\O)N[C@@H](c3ccc(F)cc3)C(C)C)cc2F)cc1
REMARK SMILES IDX 13 1 15 2 14 4 12 6 11 7 27 8 8 9 28 10 7 11 6 12 29 13 9 14
REMARK SMILES IDX 10 15 5 16 4 17 30 18 3 19 31 20 2 21 1 22 16 23 17 24 18 25
REMARK SMILES IDX 23 26 19 27 22 28 20 29 21 30 24 31 25 32 26 33
REMARK H PARENT 15 3 14 5
ROOT
ATOM      1  C   UNL     1      44.007 128.838  23.927  1.00  0.00     0.287 C 
ATOM      2  N   UNL     1      45.211 128.063  23.874  1.00  0.00    -0.333 N 
ATOM      3  H   UNL     1      46.003 128.418  23.291  1.00  0.00     0.165 HD
ENDROOT
BRANCH   1   4
ATOM      4  O   UNL     1      42.901 128.340  24.623  1.00  0.00    -0.481 OA
ATOM      5  H   UNL     1      41.964 128.703  24.508  1.00  0.00     0.296 HD
ENDBRANCH   1   4
BRANCH   1   6
ATOM      6  N   UNL     1      43.963 129.974  23.290  1.00  0.00    -0.197 NA
BRANCH   6   7
ATOM      7  C   UNL     1      44.345 130.201  21.925  1.00  0.00     0.082 A 
ATOM      8  C   UNL     1      45.367 129.429  21.348  1.00  0.00     0.069 A 
ATOM      9  C   UNL     1      43.623 131.112  21.119  1.00  0.00     0.041 A 
ATOM     10  C   UNL     1      45.714 129.592  20.006  1.00  0.00     0.133 A 
ATOM     11  C   UNL     1      43.980 131.265  19.768  1.00  0.00     0.025 A 
ATOM     12  C   UNL     1      45.028 130.519  19.205  1.00  0.00     0.018 A 
ATOM     13  F   UNL     1      46.691 128.807  19.482  1.00  0.00    -0.206 F 
BRANCH   9  14
ATOM     14  C   UNL     1      42.509 131.937  21.642  1.00  0.00     0.262 C 
ATOM     15  O   UNL     1      42.616 132.605  22.704  1.00  0.00    -0.298 OA
ENDBRANCH   9  14
BRANCH  12  16
ATOM     16  C   UNL     1      45.387 130.706  17.777  1.00  0.00    -0.015 A 
ATOM     17  C   UNL     1      45.179 131.945  17.145  1.00  0.00     0.009 A 
ATOM     18  C   UNL     1      45.929 129.643  17.035  1.00  0.00     0.009 A 
ATOM     19  C   UNL     1      45.512 132.115  15.798  1.00  0.00     0.004 A 
ATOM     20  C   UNL     1      46.263 129.816  15.689  1.00  0.00     0.004 A 
ATOM     21  C   UNL     1      46.042 131.050  15.058  1.00  0.00    -0.051 A 
ATOM     22  C   UNL     1      46.436 131.245  13.624  1.00  0.00     0.044 C 
ENDBRANCH  12  16
ENDBRANCH   6   7
ENDBRANCH   1   6
BRANCH   2  23
ATOM     23  C   UNL     1      45.300 126.728  24.475  1.00  0.00     0.116 C 
BRANCH  23  24
ATOM     24  C   UNL     1      44.302 125.813  23.793  1.00  0.00    -0.025 A 
ATOM     25  C   UNL     1      43.354 125.097  24.548  1.00  0.00     0.009 A 
ATOM     26  C   UNL     1      44.304 125.679  22.393  1.00  0.00     0.009 A 
ATOM     27  C   UNL     1      42.432 124.260  23.912  1.00  0.00     0.039 A 
ATOM     28  C   UNL     1      43.379 124.841  21.762  1.00  0.00     0.039 A 
ATOM     29  C   UNL     1      42.444 124.132  22.521  1.00  0.00     0.123 A 
ATOM     30  F   UNL     1      41.549 123.320  21.906  1.00  0.00    -0.207 F 
ENDBRANCH  23  24
BRANCH  23  31
ATOM     31  C   UNL     1      46.750 126.173  24.383  1.00  0.00     0.010 C 
ATOM     32  C   UNL     1      47.439 126.605  23.078  1.00  0.00     0.010 C 
ATOM     33  C   UNL     1      46.758 124.638  24.478  1.00  0.00     0.010 C 
ENDBRANCH  23  31
ENDBRANCH   2  23
TORSDOF 8
ENDMDL
MODEL 3
REMARK VINA RESULT:      -4.5      1.142      1.727
REMARK SMILES Cc1ccc(-c2cc(C=O)c(/N=C(\O)N[C@@H](c3ccc(F)cc3)C(C)C)cc2F)cc1
REMARK SMILES IDX 13 1 15 2 14 4 12 6 11 7 27 8 8 9 28 10 7 11 6 12 29 13 9 14
REMARK SMILES IDX 10 15 5 16 4 17 30 18 3 19 31 20 2 21 1 22 16 23 17 24 18 25
REMARK SMILES IDX 23 26 19 27 22 28 20 29 21 30 24 31 25 32 26 33
REMARK H PARENT 15 3 14 5
ROOT
ATOM      1  C   UNL     1      42.167 132.246  20.977  1.00  0.00     0.287 C 
ATOM      2  N   UNL     1      42.877 131.106  21.473  1.00  0.00    -0.333 N 
ATOM      3  H   UNL     1      43.256 130.418  20.782  1.00  0.00     0.165 HD
ENDROOT
BRANCH   1   4
ATOM      4  O   UNL     1      41.571 133.130  21.882  1.00  0.00    -0.481 OA
ATOM      5  H   UNL     1      41.446 134.116  21.693  1.00  0.00     0.296 HD
ENDBRANCH   1   4
BRANCH   1   6
ATOM      6  N   UNL     1      42.065 132.410  19.688  1.00  0.00    -0.197 NA
BRANCH   6   7
ATOM      7  C   UNL     1      43.009 131.978  18.696  1.00  0.00     0.082 A 
ATOM      8  C   UNL     1      42.581 131.752  17.377  1.00  0.00     0.069 A 
ATOM      9  C   UNL     1      44.386 131.891  19.004  1.00  0.00     0.041 A 
ATOM     10  C   UNL     1      43.491 131.389  16.383  1.00  0.00     0.133 A 
ATOM     11  C   UNL     1      45.294 131.527  17.995  1.00  0.00     0.025 A 
ATOM     12  C   UNL     1      44.857 131.265  16.685  1.00  0.00     0.018 A 
ATOM     13  F   UNL     1      43.039 131.206  15.116  1.00  0.00    -0.206 F 
BRANCH   9  14
ATOM     14  C   UNL     1      44.922 132.148  20.362  1.00  0.00     0.262 C 
ATOM     15  O   UNL     1      45.554 133.200  20.641  1.00  0.00    -0.298 OA
ENDBRANCH   9  14
BRANCH  12  16
ATOM     16  C   UNL     1      45.837 130.877  15.642  1.00  0.00    -0.015 A 
ATOM     17  C   UNL     1      46.266 129.543  15.525  1.00  0.00     0.009 A 
ATOM     18  C   UNL     1      46.358 131.841  14.762  1.00  0.00     0.009 A 
ATOM     19  C   UNL     1      47.195 129.182  14.544  1.00  0.00     0.004 A 
ATOM     20  C   UNL     1      47.285 131.478  13.781  1.00  0.00     0.004 A 
ATOM     21  C   UNL     1      47.721 130.148  13.676  1.00  0.00    -0.051 A 
ATOM     22  C   UNL     1      48.687 129.753  12.599  1.00  0.00     0.044 C 
ENDBRANCH  12  16
ENDBRANCH   6   7
ENDBRANCH   1   6
BRANCH   2  23
ATOM     23  C   UNL     1      42.943 130.797  22.906  1.00  0.00     0.116 C 
BRANCH  23  24
ATOM     24  C   UNL     1      42.782 129.302  23.096  1.00  0.00    -0.025 A 
ATOM     25  C   UNL     1      43.901 128.449  23.056  1.00  0.00     0.009 A 
ATOM     26  C   UNL     1      41.510 128.749  23.330  1.00  0.00     0.009 A 
ATOM     27  C   UNL     1      43.746 127.071  23.239  1.00  0.00     0.039 A 
ATOM     28  C   UNL     1      41.361 127.371  23.515  1.00  0.00     0.039 A 
ATOM     29  C   UNL     1      42.478 126.533  23.469  1.00  0.00     0.123 A 
ATOM     30  F   UNL     1      42.330 125.197  23.647  1.00  0.00    -0.207 F 
ENDBRANCH  23  24
BRANCH  23  31
ATOM     31  C   UNL     1      44.271 131.319  23.526  1.00  0.00     0.010 C 
ATOM     32  C   UNL     1      44.040 132.573  24.385  1.00  0.00     0.010 C 
ATOM     33  C   UNL     1      45.302 131.638  22.429  1.00  0.00     0.010 C 
ENDBRANCH  23  31
ENDBRANCH   2  23
TORSDOF 8
ENDMDL


