MODEL 1
REMARK VINA RESULT:      -6.9      0.000      0.000
REMARK SMILES Cc1cccc(/C(O)=N/c2ccc(-c3ccc(C)c4n[nH]cc34)cc2C(=O)[O-])c1
REMARK SMILES IDX 9 1 7 2 8 3 6 5 5 6 29 7 4 8 2 9 3 10 1 11 10 12 11 13 25 14
REMARK SMILES IDX 12 15 24 16 13 17 26 18 27 19 28 20 14 21 15 22 23 23 16 24
REMARK SMILES IDX 22 25 19 26 17 27 21 28 20 29 18 30
REMARK H PARENT 8 4 21 31
ROOT
ATOM      1  N   UNL     1      43.996 130.629  22.900  1.00  0.00    -0.213 NA
ENDROOT
BRANCH   1   2
ATOM      2  C   UNL     1      44.034 129.558  23.642  1.00  0.00     0.218 C 
BRANCH   2   3
ATOM      3  O   UNL     1      45.234 129.095  24.195  1.00  0.00    -0.493 OA
ATOM      4  H   UNL     1      45.274 128.510  25.018  1.00  0.00     0.295 HD
ENDBRANCH   2   3
BRANCH   2   5
ATOM      5  C   UNL     1      42.777 128.829  23.944  1.00  0.00     0.037 A 
ATOM      6  C   UNL     1      41.608 129.523  24.315  1.00  0.00     0.014 A 
ATOM      7  C   UNL     1      42.736 127.426  23.866  1.00  0.00     0.017 A 
ATOM      8  C   UNL     1      40.433 128.828  24.605  1.00  0.00     0.001 A 
ATOM      9  C   UNL     1      41.549 126.726  24.141  1.00  0.00    -0.050 A 
ATOM     10  C   UNL     1      40.403 127.435  24.527  1.00  0.00     0.003 A 
ATOM     11  C   UNL     1      41.530 125.226  24.093  1.00  0.00     0.044 C 
ENDBRANCH   2   5
ENDBRANCH   1   2
BRANCH   1  12
ATOM     12  C   UNL     1      44.373 130.730  21.519  1.00  0.00     0.076 A 
ATOM     13  C   UNL     1      45.440 129.955  21.032  1.00  0.00     0.030 A 
ATOM     14  C   UNL     1      43.607 131.509  20.616  1.00  0.00     0.024 A 
ATOM     15  C   UNL     1      45.783 129.984  19.680  1.00  0.00     0.011 A 
ATOM     16  C   UNL     1      43.967 131.525  19.255  1.00  0.00     0.021 A 
ATOM     17  C   UNL     1      45.047 130.765  18.780  1.00  0.00    -0.017 A 
BRANCH  14  18
ATOM     18  C   UNL     1      42.446 132.326  21.060  1.00  0.00     0.074 C 
ATOM     19  O   UNL     1      42.172 132.462  22.282  1.00  0.00    -0.545 OA
ATOM     20  O   UNL     1      41.641 132.966  20.124  1.00  0.00    -0.545 OA
ENDBRANCH  14  18
BRANCH  17  21
ATOM     21  C   UNL     1      45.419 130.796  17.347  1.00  0.00    -0.007 A 
ATOM     22  C   UNL     1      46.666 130.294  16.911  1.00  0.00     0.010 A 
ATOM     23  C   UNL     1      44.563 131.308  16.361  1.00  0.00     0.028 A 
ATOM     24  C   UNL     1      47.025 130.330  15.546  1.00  0.00     0.006 A 
ATOM     25  C   UNL     1      43.279 131.809  16.407  1.00  0.00     0.114 A 
ATOM     26  C   UNL     1      44.911 131.341  15.035  1.00  0.00     0.096 A 
ATOM     27  C   UNL     1      46.148 130.872  14.583  1.00  0.00    -0.023 A 
ATOM     28  N   UNL     1      42.918 132.123  15.144  1.00  0.00    -0.284 N 
ATOM     29  N   UNL     1      43.902 131.841  14.298  1.00  0.00    -0.175 NA
ATOM     30  C   UNL     1      46.498 130.871  13.126  1.00  0.00     0.047 C 
ATOM     31  H   UNL     1      41.997 132.523  14.856  1.00  0.00     0.189 HD
ENDBRANCH  17  21
ENDBRANCH   1  12
TORSDOF 6
ENDMDL
MODEL 2
REMARK VINA RESULT:      -6.3      1.691      2.289
REMARK SMILES Cc1cccc(/C(O)=N/c2ccc(-c3ccc(C)c4n[nH]cc34)cc2C(=O)[O-])c1
REMARK SMILES IDX 9 1 7 2 8 3 6 5 5 6 29 7 4 8 2 9 3 10 1 11 10 12 11 13 25 14
REMARK SMILES IDX 12 15 24 16 13 17 26 18 27 19 28 20 14 21 15 22 23 23 16 24
REMARK SMILES IDX 22 25 19 26 17 27 21 28 20 29 18 30
REMARK H PARENT 8 4 21 31
ROOT
ATOM      1  N   UNL     1      43.562 131.432  22.390  1.00  0.00    -0.213 NA
ENDROOT
BRANCH   1   2
ATOM      2  C   UNL     1      44.112 130.829  23.406  1.00  0.00     0.218 C 
BRANCH   2   3
ATOM      3  O   UNL     1      44.832 131.538  24.375  1.00  0.00    -0.493 OA
ATOM      4  H   UNL     1      44.633 131.482  25.364  1.00  0.00     0.295 HD
ENDBRANCH   2   3
BRANCH   2   5
ATOM      5  C   UNL     1      43.943 129.363  23.568  1.00  0.00     0.037 A 
ATOM      6  C   UNL     1      42.792 128.830  24.180  1.00  0.00     0.014 A 
ATOM      7  C   UNL     1      44.940 128.481  23.113  1.00  0.00     0.017 A 
ATOM      8  C   UNL     1      42.647 127.450  24.336  1.00  0.00     0.001 A 
ATOM      9  C   UNL     1      44.786 127.092  23.253  1.00  0.00    -0.050 A 
ATOM     10  C   UNL     1      43.642 126.583  23.882  1.00  0.00     0.003 A 
ATOM     11  C   UNL     1      45.874 126.163  22.798  1.00  0.00     0.044 C 
ENDBRANCH   2   5
ENDBRANCH   1   2
BRANCH   1  12
ATOM     12  C   UNL     1      44.054 131.461  21.041  1.00  0.00     0.076 A 
ATOM     13  C   UNL     1      45.210 130.736  20.707  1.00  0.00     0.030 A 
ATOM     14  C   UNL     1      43.319 132.114  20.019  1.00  0.00     0.024 A 
ATOM     15  C   UNL     1      45.670 130.694  19.391  1.00  0.00     0.011 A 
ATOM     16  C   UNL     1      43.797 132.059  18.696  1.00  0.00     0.021 A 
ATOM     17  C   UNL     1      44.966 131.351  18.374  1.00  0.00    -0.017 A 
BRANCH  14  18
ATOM     18  C   UNL     1      42.070 132.871  20.300  1.00  0.00     0.074 C 
ATOM     19  O   UNL     1      41.738 133.866  19.603  1.00  0.00    -0.545 OA
ATOM     20  O   UNL     1      41.235 132.482  21.342  1.00  0.00    -0.545 OA
ENDBRANCH  14  18
BRANCH  17  21
ATOM     21  C   UNL     1      45.461 131.307  16.979  1.00  0.00    -0.007 A 
ATOM     22  C   UNL     1      45.944 132.474  16.345  1.00  0.00     0.010 A 
ATOM     23  C   UNL     1      45.485 130.123  16.229  1.00  0.00     0.028 A 
ATOM     24  C   UNL     1      46.410 132.435  15.013  1.00  0.00     0.006 A 
ATOM     25  C   UNL     1      45.162 128.817  16.533  1.00  0.00     0.114 A 
ATOM     26  C   UNL     1      45.940 130.084  14.936  1.00  0.00     0.096 A 
ATOM     27  C   UNL     1      46.401 131.229  14.280  1.00  0.00    -0.023 A 
ATOM     28  N   UNL     1      45.417 128.068  15.439  1.00  0.00    -0.284 N 
ATOM     29  N   UNL     1      45.893 128.826  14.460  1.00  0.00    -0.175 NA
ATOM     30  C   UNL     1      46.937 131.166  12.882  1.00  0.00     0.047 C 
ATOM     31  H   UNL     1      45.275 127.036  15.362  1.00  0.00     0.189 HD
ENDBRANCH  17  21
ENDBRANCH   1  12
TORSDOF 6
ENDMDL
MODEL 3
REMARK VINA RESULT:      -5.5      1.876      2.463
REMARK SMILES Cc1cccc(/C(O)=N/c2ccc(-c3ccc(C)c4n[nH]cc34)cc2C(=O)[O-])c1
REMARK SMILES IDX 9 1 7 2 8 3 6 5 5 6 29 7 4 8 2 9 3 10 1 11 10 12 11 13 25 14
REMARK SMILES IDX 12 15 24 16 13 17 26 18 27 19 28 20 14 21 15 22 23 23 16 24
REMARK SMILES IDX 22 25 19 26 17 27 21 28 20 29 18 30
REMARK H PARENT 8 4 21 31
ROOT
ATOM      1  N   UNL     1      43.451 131.661  22.239  1.00  0.00    -0.213 NA
ENDROOT
BRANCH   1   2
ATOM      2  C   UNL     1      42.781 130.707  22.823  1.00  0.00     0.218 C 
BRANCH   2   3
ATOM      3  O   UNL     1      41.489 130.920  23.318  1.00  0.00    -0.493 OA
ATOM      4  H   UNL     1      40.730 130.268  23.182  1.00  0.00     0.295 HD
ENDBRANCH   2   3
BRANCH   2   5
ATOM      5  C   UNL     1      43.378 129.353  22.935  1.00  0.00     0.037 A 
ATOM      6  C   UNL     1      44.739 129.135  22.644  1.00  0.00     0.014 A 
ATOM      7  C   UNL     1      42.586 128.261  23.332  1.00  0.00     0.017 A 
ATOM      8  C   UNL     1      45.289 127.855  22.743  1.00  0.00     0.001 A 
ATOM      9  C   UNL     1      43.143 126.977  23.451  1.00  0.00    -0.050 A 
ATOM     10  C   UNL     1      44.495 126.778  23.138  1.00  0.00     0.003 A 
ATOM     11  C   UNL     1      42.278 125.813  23.838  1.00  0.00     0.044 C 
ENDBRANCH   2   5
ENDBRANCH   1   2
BRANCH   1  12
ATOM     12  C   UNL     1      43.969 131.649  20.900  1.00  0.00     0.076 A 
ATOM     13  C   UNL     1      45.227 131.077  20.646  1.00  0.00     0.030 A 
ATOM     14  C   UNL     1      43.174 132.099  19.815  1.00  0.00     0.024 A 
ATOM     15  C   UNL     1      45.723 130.994  19.345  1.00  0.00     0.011 A 
ATOM     16  C   UNL     1      43.690 132.004  18.509  1.00  0.00     0.021 A 
ATOM     17  C   UNL     1      44.957 131.452  18.266  1.00  0.00    -0.017 A 
BRANCH  14  18
ATOM     18  C   UNL     1      41.822 132.684  20.011  1.00  0.00     0.074 C 
ATOM     19  O   UNL     1      40.783 132.063  19.660  1.00  0.00    -0.545 OA
ATOM     20  O   UNL     1      41.679 133.935  20.601  1.00  0.00    -0.545 OA
ENDBRANCH  14  18
BRANCH  17  21
ATOM     21  C   UNL     1      45.491 131.365  16.887  1.00  0.00    -0.007 A 
ATOM     22  C   UNL     1      45.973 132.516  16.223  1.00  0.00     0.010 A 
ATOM     23  C   UNL     1      45.554 130.155  16.182  1.00  0.00     0.028 A 
ATOM     24  C   UNL     1      46.476 132.436  14.906  1.00  0.00     0.006 A 
ATOM     25  C   UNL     1      45.242 128.856  16.525  1.00  0.00     0.114 A 
ATOM     26  C   UNL     1      46.043 130.077  14.903  1.00  0.00     0.096 A 
ATOM     27  C   UNL     1      46.504 131.204  14.218  1.00  0.00    -0.023 A 
ATOM     28  N   UNL     1      45.538 128.071  15.467  1.00  0.00    -0.284 N 
ATOM     29  N   UNL     1      46.029 128.802  14.473  1.00  0.00    -0.175 NA
ATOM     30  C   UNL     1      47.079 131.099  12.837  1.00  0.00     0.047 C 
ATOM     31  H   UNL     1      45.414 127.035  15.424  1.00  0.00     0.189 HD
ENDBRANCH  17  21
ENDBRANCH   1  12
TORSDOF 6
ENDMDL
MODEL 4
REMARK VINA RESULT:      -4.5      5.525      8.810
REMARK SMILES Cc1cccc(/C(O)=N/c2ccc(-c3ccc(C)c4n[nH]cc34)cc2C(=O)[O-])c1
REMARK SMILES IDX 9 1 7 2 8 3 6 5 5 6 29 7 4 8 2 9 3 10 1 11 10 12 11 13 25 14
REMARK SMILES IDX 12 15 24 16 13 17 26 18 27 19 28 20 14 21 15 22 23 23 16 24
REMARK SMILES IDX 22 25 19 26 17 27 21 28 20 29 18 30
REMARK H PARENT 8 4 21 31
ROOT
ATOM      1  N   UNL     1      47.877 123.433  23.010  1.00  0.00    -0.213 NA
ENDROOT
BRANCH   1   2
ATOM      2  C   UNL     1      49.168 123.296  22.897  1.00  0.00     0.218 C 
BRANCH   2   3
ATOM      3  O   UNL     1      49.964 122.944  23.994  1.00  0.00    -0.493 OA
ATOM      4  H   UNL     1      49.673 123.073  24.953  1.00  0.00     0.295 HD
ENDBRANCH   2   3
BRANCH   2   5
ATOM      5  C   UNL     1      49.812 123.476  21.572  1.00  0.00     0.037 A 
ATOM      6  C   UNL     1      49.135 123.132  20.386  1.00  0.00     0.014 A 
ATOM      7  C   UNL     1      51.117 123.994  21.483  1.00  0.00     0.017 A 
ATOM      8  C   UNL     1      49.753 123.297  19.144  1.00  0.00     0.001 A 
ATOM      9  C   UNL     1      51.732 124.177  20.234  1.00  0.00    -0.050 A 
ATOM     10  C   UNL     1      51.048 123.810  19.067  1.00  0.00     0.003 A 
ATOM     11  C   UNL     1      53.139 124.693  20.155  1.00  0.00     0.044 C 
ENDBRANCH   2   5
ENDBRANCH   1   2
BRANCH   1  12
ATOM     12  C   UNL     1      47.135 124.661  22.941  1.00  0.00     0.076 A 
ATOM     13  C   UNL     1      47.821 125.887  22.929  1.00  0.00     0.030 A 
ATOM     14  C   UNL     1      45.729 124.645  22.764  1.00  0.00     0.024 A 
ATOM     15  C   UNL     1      47.129 127.090  22.795  1.00  0.00     0.011 A 
ATOM     16  C   UNL     1      45.047 125.869  22.628  1.00  0.00     0.021 A 
ATOM     17  C   UNL     1      45.737 127.091  22.639  1.00  0.00    -0.017 A 
BRANCH  14  18
ATOM     18  C   UNL     1      44.947 123.381  22.735  1.00  0.00     0.074 C 
ATOM     19  O   UNL     1      45.345 122.381  22.081  1.00  0.00    -0.545 OA
ATOM     20  O   UNL     1      43.754 123.279  23.443  1.00  0.00    -0.545 OA
ENDBRANCH  14  18
BRANCH  17  21
ATOM     21  C   UNL     1      45.006 128.372  22.502  1.00  0.00    -0.007 A 
ATOM     22  C   UNL     1      45.419 129.345  21.564  1.00  0.00     0.010 A 
ATOM     23  C   UNL     1      43.877 128.678  23.276  1.00  0.00     0.028 A 
ATOM     24  C   UNL     1      44.727 130.569  21.437  1.00  0.00     0.006 A 
ATOM     25  C   UNL     1      43.170 127.962  24.219  1.00  0.00     0.114 A 
ATOM     26  C   UNL     1      43.204 129.866  23.152  1.00  0.00     0.096 A 
ATOM     27  C   UNL     1      43.607 130.853  22.248  1.00  0.00    -0.023 A 
ATOM     28  N   UNL     1      42.134 128.730  24.621  1.00  0.00    -0.284 N 
ATOM     29  N   UNL     1      42.141 129.891  23.977  1.00  0.00    -0.175 NA
ATOM     30  C   UNL     1      42.836 132.128  22.089  1.00  0.00     0.047 C 
ATOM     31  H   UNL     1      41.415 128.460  25.329  1.00  0.00     0.189 HD
ENDBRANCH  17  21
ENDBRANCH   1  12
TORSDOF 6
ENDMDL
MODEL 5
REMARK VINA RESULT:      -4.5      1.591      2.194
REMARK SMILES Cc1cccc(/C(O)=N/c2ccc(-c3ccc(C)c4n[nH]cc34)cc2C(=O)[O-])c1
REMARK SMILES IDX 9 1 7 2 8 3 6 5 5 6 29 7 4 8 2 9 3 10 1 11 10 12 11 13 25 14
REMARK SMILES IDX 12 15 24 16 13 17 26 18 27 19 28 20 14 21 15 22 23 23 16 24
REMARK SMILES IDX 22 25 19 26 17 27 21 28 20 29 18 30
REMARK H PARENT 8 4 21 31
ROOT
ATOM      1  N   UNL     1      43.220 132.137  22.213  1.00  0.00    -0.213 NA
ENDROOT
BRANCH   1   2
ATOM      2  C   UNL     1      43.360 131.529  23.358  1.00  0.00     0.218 C 
BRANCH   2   3
ATOM      3  O   UNL     1      43.461 132.244  24.557  1.00  0.00    -0.493 OA
ATOM      4  H   UNL     1      43.517 133.252  24.598  1.00  0.00     0.295 HD
ENDBRANCH   2   3
BRANCH   2   5
ATOM      5  C   UNL     1      43.372 130.046  23.403  1.00  0.00     0.037 A 
ATOM      6  C   UNL     1      44.480 129.316  22.929  1.00  0.00     0.014 A 
ATOM      7  C   UNL     1      42.269 129.344  23.921  1.00  0.00     0.017 A 
ATOM      8  C   UNL     1      44.478 127.920  22.968  1.00  0.00     0.001 A 
ATOM      9  C   UNL     1      42.273 127.941  23.977  1.00  0.00    -0.050 A 
ATOM     10  C   UNL     1      43.378 127.233  23.483  1.00  0.00     0.003 A 
ATOM     11  C   UNL     1      41.074 127.202  24.496  1.00  0.00     0.044 C 
ENDBRANCH   2   5
ENDBRANCH   1   2
BRANCH   1  12
ATOM     12  C   UNL     1      43.867 131.798  20.977  1.00  0.00     0.076 A 
ATOM     13  C   UNL     1      45.093 131.111  21.000  1.00  0.00     0.030 A 
ATOM     14  C   UNL     1      43.224 132.039  19.737  1.00  0.00     0.024 A 
ATOM     15  C   UNL     1      45.708 130.711  19.814  1.00  0.00     0.011 A 
ATOM     16  C   UNL     1      43.859 131.626  18.550  1.00  0.00     0.021 A 
ATOM     17  C   UNL     1      45.094 130.961  18.580  1.00  0.00    -0.017 A 
BRANCH  14  18
ATOM     18  C   UNL     1      41.911 132.730  19.645  1.00  0.00     0.074 C 
ATOM     19  O   UNL     1      41.264 132.765  18.564  1.00  0.00    -0.545 OA
ATOM     20  O   UNL     1      41.366 133.350  20.764  1.00  0.00    -0.545 OA
ENDBRANCH  14  18
BRANCH  17  21
ATOM     21  C   UNL     1      45.754 130.538  17.323  1.00  0.00    -0.007 A 
ATOM     22  C   UNL     1      46.135 129.192  17.123  1.00  0.00     0.010 A 
ATOM     23  C   UNL     1      46.022 131.434  16.278  1.00  0.00     0.028 A 
ATOM     24  C   UNL     1      46.771 128.788  15.928  1.00  0.00     0.006 A 
ATOM     25  C   UNL     1      45.741 132.772  16.100  1.00  0.00     0.114 A 
ATOM     26  C   UNL     1      46.637 131.042  15.117  1.00  0.00     0.096 A 
ATOM     27  C   UNL     1      47.044 129.721  14.905  1.00  0.00    -0.023 A 
ATOM     28  N   UNL     1      46.194 133.125  14.878  1.00  0.00    -0.284 N 
ATOM     29  N   UNL     1      46.740 132.081  14.268  1.00  0.00    -0.175 NA
ATOM     30  C   UNL     1      47.675 129.296  13.614  1.00  0.00     0.047 C 
ATOM     31  H   UNL     1      46.124 134.077  14.455  1.00  0.00     0.189 HD
ENDBRANCH  17  21
ENDBRANCH   1  12
TORSDOF 6
ENDMDL
MODEL 6
REMARK VINA RESULT:      -4.1      1.591      2.386
REMARK SMILES Cc1cccc(/C(O)=N/c2ccc(-c3ccc(C)c4n[nH]cc34)cc2C(=O)[O-])c1
REMARK SMILES IDX 9 1 7 2 8 3 6 5 5 6 29 7 4 8 2 9 3 10 1 11 10 12 11 13 25 14
REMARK SMILES IDX 12 15 24 16 13 17 26 18 27 19 28 20 14 21 15 22 23 23 16 24
REMARK SMILES IDX 22 25 19 26 17 27 21 28 20 29 18 30
REMARK H PARENT 8 4 21 31
ROOT
ATOM      1  N   UNL     1      42.765 132.312  22.288  1.00  0.00    -0.213 NA
ENDROOT
BRANCH   1   2
ATOM      2  C   UNL     1      42.709 131.635  23.400  1.00  0.00     0.218 C 
BRANCH   2   3
ATOM      3  O   UNL     1      42.448 132.261  24.624  1.00  0.00    -0.493 OA
ATOM      4  H   UNL     1      41.831 133.055  24.720  1.00  0.00     0.295 HD
ENDBRANCH   2   3
BRANCH   2   5
ATOM      5  C   UNL     1      42.886 130.161  23.371  1.00  0.00     0.037 A 
ATOM      6  C   UNL     1      44.127 129.588  23.031  1.00  0.00     0.014 A 
ATOM      7  C   UNL     1      41.808 129.313  23.681  1.00  0.00     0.017 A 
ATOM      8  C   UNL     1      44.280 128.200  22.997  1.00  0.00     0.001 A 
ATOM      9  C   UNL     1      41.967 127.917  23.665  1.00  0.00    -0.050 A 
ATOM     10  C   UNL     1      43.205 127.367  23.306  1.00  0.00     0.003 A 
ATOM     11  C   UNL     1      40.799 127.022  23.959  1.00  0.00     0.044 C 
ENDBRANCH   2   5
ENDBRANCH   1   2
BRANCH   1  12
ATOM     12  C   UNL     1      43.407 131.909  21.068  1.00  0.00     0.076 A 
ATOM     13  C   UNL     1      42.631 131.417  20.004  1.00  0.00     0.030 A 
ATOM     14  C   UNL     1      44.797 132.113  20.883  1.00  0.00     0.024 A 
ATOM     15  C   UNL     1      43.222 131.082  18.787  1.00  0.00     0.011 A 
ATOM     16  C   UNL     1      45.376 131.771  19.646  1.00  0.00     0.021 A 
ATOM     17  C   UNL     1      44.598 131.259  18.596  1.00  0.00    -0.017 A 
BRANCH  14  18
ATOM     18  C   UNL     1      45.669 132.660  21.956  1.00  0.00     0.074 C 
ATOM     19  O   UNL     1      46.713 133.310  21.683  1.00  0.00    -0.545 OA
ATOM     20  O   UNL     1      45.338 132.467  23.293  1.00  0.00    -0.545 OA
ENDBRANCH  14  18
BRANCH  17  21
ATOM     21  C   UNL     1      45.222 130.897  17.303  1.00  0.00    -0.007 A 
ATOM     22  C   UNL     1      46.447 130.193  17.261  1.00  0.00     0.010 A 
ATOM     23  C   UNL     1      44.635 131.218  16.070  1.00  0.00     0.028 A 
ATOM     24  C   UNL     1      47.046 129.852  16.029  1.00  0.00     0.006 A 
ATOM     25  C   UNL     1      43.444 131.827  15.733  1.00  0.00     0.114 A 
ATOM     26  C   UNL     1      45.216 130.886  14.874  1.00  0.00     0.096 A 
ATOM     27  C   UNL     1      46.438 130.211  14.807  1.00  0.00    -0.023 A 
ATOM     28  N   UNL     1      43.362 131.845  14.386  1.00  0.00    -0.284 N 
ATOM     29  N   UNL     1      44.433 131.273  13.849  1.00  0.00    -0.175 NA
ATOM     30  C   UNL     1      47.040 129.813  13.493  1.00  0.00     0.047 C 
ATOM     31  H   UNL     1      42.571 132.239  13.829  1.00  0.00     0.189 HD
ENDBRANCH  17  21
ENDBRANCH   1  12
TORSDOF 6
ENDMDL


