MODEL 1
REMARK VINA RESULT:      -9.0      0.000      0.000
REMARK SMILES Nc1c(/C(O)=N/Cc2ccc[nH]2)cc(-n2nc3ccccc3n2)c([O-])c1N
REMARK SMILES IDX 4 1 5 2 6 4 7 5 8 6 9 7 12 8 10 9 11 10 3 12 13 13 2 14
REMARK SMILES IDX 14 15 26 16 24 17 25 18 1 19 15 22 16 23 23 24 17 25 22 26
REMARK SMILES IDX 18 27 21 28 19 29 20 30 27 31
REMARK H PARENT 5 3 12 11 1 20 1 21 27 32 27 33
ROOT
ATOM      1  C   UNL     1      45.176 131.165  21.390  1.00  0.00     0.216 C 
ENDROOT
BRANCH   1   2
ATOM      2  O   UNL     1      46.100 132.115  21.840  1.00  0.00    -0.493 OA
ATOM      3  H   UNL     1      46.795 132.540  21.240  1.00  0.00     0.295 HD
ENDBRANCH   1   2
BRANCH   1   4
ATOM      4  N   UNL     1      44.874 130.121  22.108  1.00  0.00    -0.245 NA
BRANCH   4   5
ATOM      5  C   UNL     1      43.689 129.993  22.948  1.00  0.00     0.199 C 
BRANCH   5   6
ATOM      6  C   UNL     1      43.471 128.552  23.274  1.00  0.00     0.037 A 
ATOM      7  C   UNL     1      42.385 128.039  23.956  1.00  0.00     0.025 A 
ATOM      8  N   UNL     1      44.366 127.579  23.020  1.00  0.00    -0.363 N 
ATOM      9  C   UNL     1      42.627 126.689  24.104  1.00  0.00     0.020 A 
ATOM     10  C   UNL     1      43.853 126.440  23.519  1.00  0.00     0.082 A 
ATOM     11  H   UNL     1      45.288 127.686  22.540  1.00  0.00     0.166 HD
ENDBRANCH   5   6
ENDBRANCH   4   5
ENDBRANCH   1   4
BRANCH   1  12
ATOM     12  C   UNL     1      44.552 131.332  20.056  1.00  0.00     0.063 A 
ATOM     13  C   UNL     1      45.320 131.044  18.916  1.00  0.00     0.045 A 
ATOM     14  C   UNL     1      43.236 131.826  19.902  1.00  0.00     0.067 A 
ATOM     15  C   UNL     1      44.824 131.267  17.625  1.00  0.00     0.081 A 
ATOM     16  C   UNL     1      42.717 132.040  18.602  1.00  0.00     0.050 A 
ATOM     17  C   UNL     1      43.516 131.769  17.475  1.00  0.00    -0.055 A 
ATOM     18  O   UNL     1      42.988 131.980  16.204  1.00  0.00    -0.870 OA
BRANCH  14  19
ATOM     19  N   UNL     1      42.419 132.080  21.056  1.00  0.00    -0.396 N 
ATOM     20  H   UNL     1      42.435 131.438  21.879  1.00  0.00     0.156 HD
ATOM     21  H   UNL     1      41.802 132.918  21.115  1.00  0.00     0.156 HD
ENDBRANCH  14  19
BRANCH  15  22
ATOM     22  N   UNL     1      45.660 130.979  16.482  1.00  0.00    -0.151 N 
ATOM     23  N   UNL     1      46.171 129.772  16.234  1.00  0.00    -0.148 NA
ATOM     24  N   UNL     1      46.015 131.882  15.567  1.00  0.00    -0.148 NA
ATOM     25  C   UNL     1      46.881 129.920  15.107  1.00  0.00     0.113 A 
ATOM     26  C   UNL     1      46.786 131.212  14.699  1.00  0.00     0.113 A 
ATOM     27  C   UNL     1      47.619 128.971  14.406  1.00  0.00     0.032 A 
ATOM     28  C   UNL     1      47.422 131.678  13.552  1.00  0.00     0.032 A 
ATOM     29  C   UNL     1      48.279 129.401  13.237  1.00  0.00     0.002 A 
ATOM     30  C   UNL     1      48.180 130.748  12.812  1.00  0.00     0.002 A 
ENDBRANCH  15  22
BRANCH  16  31
ATOM     31  N   UNL     1      41.362 132.481  18.411  1.00  0.00    -0.397 N 
ATOM     32  H   UNL     1      40.983 133.300  18.933  1.00  0.00     0.156 HD
ATOM     33  H   UNL     1      40.737 132.061  17.691  1.00  0.00     0.156 HD
ENDBRANCH  16  31
ENDBRANCH   1  12
TORSDOF 8
ENDMDL
MODEL 2
REMARK VINA RESULT:      -8.9      0.883      1.094
REMARK SMILES Nc1c(/C(O)=N/Cc2ccc[nH]2)cc(-n2nc3ccccc3n2)c([O-])c1N
REMARK SMILES IDX 4 1 5 2 6 4 7 5 8 6 9 7 12 8 10 9 11 10 3 12 13 13 2 14
REMARK SMILES IDX 14 15 26 16 24 17 25 18 1 19 15 22 16 23 23 24 17 25 22 26
REMARK SMILES IDX 18 27 21 28 19 29 20 30 27 31
REMARK H PARENT 5 3 12 11 1 20 1 21 27 32 27 33
ROOT
ATOM      1  C   UNL     1      44.818 131.153  21.318  1.00  0.00     0.216 C 
ENDROOT
BRANCH   1   2
ATOM      2  O   UNL     1      45.966 131.849  21.712  1.00  0.00    -0.493 OA
ATOM      3  H   UNL     1      46.437 132.522  21.121  1.00  0.00     0.295 HD
ENDBRANCH   1   2
BRANCH   1   4
ATOM      4  N   UNL     1      44.232 130.307  22.116  1.00  0.00    -0.245 NA
BRANCH   4   5
ATOM      5  C   UNL     1      43.895 130.562  23.512  1.00  0.00     0.199 C 
BRANCH   5   6
ATOM      6  C   UNL     1      42.950 129.509  23.989  1.00  0.00     0.037 A 
ATOM      7  C   UNL     1      43.276 128.188  24.231  1.00  0.00     0.025 A 
ATOM      8  N   UNL     1      41.628 129.701  24.153  1.00  0.00    -0.363 N 
ATOM      9  C   UNL     1      42.097 127.558  24.576  1.00  0.00     0.020 A 
ATOM     10  C   UNL     1      41.105 128.517  24.517  1.00  0.00     0.082 A 
ATOM     11  H   UNL     1      41.103 130.594  24.013  1.00  0.00     0.166 HD
ENDBRANCH   5   6
ENDBRANCH   4   5
ENDBRANCH   1   4
BRANCH   1  12
ATOM     12  C   UNL     1      44.275 131.357  19.954  1.00  0.00     0.063 A 
ATOM     13  C   UNL     1      45.092 131.046  18.855  1.00  0.00     0.045 A 
ATOM     14  C   UNL     1      42.991 131.908  19.734  1.00  0.00     0.067 A 
ATOM     15  C   UNL     1      44.677 131.300  17.541  1.00  0.00     0.081 A 
ATOM     16  C   UNL     1      42.554 132.154  18.410  1.00  0.00     0.050 A 
ATOM     17  C   UNL     1      43.401 131.859  17.325  1.00  0.00    -0.055 A 
ATOM     18  O   UNL     1      42.953 132.102  16.030  1.00  0.00    -0.870 OA
BRANCH  14  19
ATOM     19  N   UNL     1      42.124 132.187  20.844  1.00  0.00    -0.396 N 
ATOM     20  H   UNL     1      41.741 131.417  21.436  1.00  0.00     0.156 HD
ATOM     21  H   UNL     1      41.866 133.163  21.104  1.00  0.00     0.156 HD
ENDBRANCH  14  19
BRANCH  15  22
ATOM     22  N   UNL     1      45.561 130.986  16.442  1.00  0.00    -0.151 N 
ATOM     23  N   UNL     1      46.192 129.817  16.321  1.00  0.00    -0.148 NA
ATOM     24  N   UNL     1      45.846 131.826  15.446  1.00  0.00    -0.148 NA
ATOM     25  C   UNL     1      46.909 129.924  15.193  1.00  0.00     0.113 A 
ATOM     26  C   UNL     1      46.698 131.154  14.658  1.00  0.00     0.113 A 
ATOM     27  C   UNL     1      47.751 128.989  14.600  1.00  0.00     0.032 A 
ATOM     28  C   UNL     1      47.309 131.566  13.478  1.00  0.00     0.032 A 
ATOM     29  C   UNL     1      48.391 129.365  13.401  1.00  0.00     0.002 A 
ATOM     30  C   UNL     1      48.170 130.649  12.843  1.00  0.00     0.002 A 
ENDBRANCH  15  22
BRANCH  16  31
ATOM     31  N   UNL     1      41.232 132.654  18.150  1.00  0.00    -0.397 N 
ATOM     32  H   UNL     1      40.484 132.031  17.772  1.00  0.00     0.156 HD
ATOM     33  H   UNL     1      40.942 133.622  18.403  1.00  0.00     0.156 HD
ENDBRANCH  16  31
ENDBRANCH   1  12
TORSDOF 8
ENDMDL
MODEL 3
REMARK VINA RESULT:      -8.7      0.647      1.434
REMARK SMILES Nc1c(/C(O)=N/Cc2ccc[nH]2)cc(-n2nc3ccccc3n2)c([O-])c1N
REMARK SMILES IDX 4 1 5 2 6 4 7 5 8 6 9 7 12 8 10 9 11 10 3 12 13 13 2 14
REMARK SMILES IDX 14 15 26 16 24 17 25 18 1 19 15 22 16 23 23 24 17 25 22 26
REMARK SMILES IDX 18 27 21 28 19 29 20 30 27 31
REMARK H PARENT 5 3 12 11 1 20 1 21 27 32 27 33
ROOT
ATOM      1  C   UNL     1      44.982 131.218  21.318  1.00  0.00     0.216 C 
ENDROOT
BRANCH   1   2
ATOM      2  O   UNL     1      46.297 131.617  21.582  1.00  0.00    -0.493 OA
ATOM      3  H   UNL     1      46.570 132.583  21.706  1.00  0.00     0.295 HD
ENDBRANCH   1   2
BRANCH   1   4
ATOM      4  N   UNL     1      44.244 130.665  22.237  1.00  0.00    -0.245 NA
BRANCH   4   5
ATOM      5  C   UNL     1      44.748 129.942  23.398  1.00  0.00     0.199 C 
BRANCH   5   6
ATOM      6  C   UNL     1      44.437 128.489  23.244  1.00  0.00     0.037 A 
ATOM      7  C   UNL     1      45.171 127.587  22.497  1.00  0.00     0.025 A 
ATOM      8  N   UNL     1      43.338 127.896  23.745  1.00  0.00    -0.363 N 
ATOM      9  C   UNL     1      44.490 126.388  22.568  1.00  0.00     0.020 A 
ATOM     10  C   UNL     1      43.369 126.613  23.341  1.00  0.00     0.082 A 
ATOM     11  H   UNL     1      42.594 128.346  24.326  1.00  0.00     0.166 HD
ENDBRANCH   5   6
ENDBRANCH   4   5
ENDBRANCH   1   4
BRANCH   1  12
ATOM     12  C   UNL     1      44.427 131.401  19.956  1.00  0.00     0.063 A 
ATOM     13  C   UNL     1      45.232 131.070  18.854  1.00  0.00     0.045 A 
ATOM     14  C   UNL     1      43.142 131.950  19.738  1.00  0.00     0.067 A 
ATOM     15  C   UNL     1      44.806 131.302  17.540  1.00  0.00     0.081 A 
ATOM     16  C   UNL     1      42.692 132.175  18.414  1.00  0.00     0.050 A 
ATOM     17  C   UNL     1      43.529 131.860  17.326  1.00  0.00    -0.055 A 
ATOM     18  O   UNL     1      43.069 132.082  16.032  1.00  0.00    -0.870 OA
BRANCH  14  19
ATOM     19  N   UNL     1      42.285 132.249  20.851  1.00  0.00    -0.396 N 
ATOM     20  H   UNL     1      41.675 133.096  20.850  1.00  0.00     0.156 HD
ATOM     21  H   UNL     1      42.233 131.623  21.684  1.00  0.00     0.156 HD
ENDBRANCH  14  19
BRANCH  15  22
ATOM     22  N   UNL     1      45.679 130.969  16.439  1.00  0.00    -0.151 N 
ATOM     23  N   UNL     1      45.990 131.826  15.465  1.00  0.00    -0.148 NA
ATOM     24  N   UNL     1      46.255 129.777  16.272  1.00  0.00    -0.148 NA
ATOM     25  C   UNL     1      46.803 131.143  14.646  1.00  0.00     0.113 A 
ATOM     26  C   UNL     1      46.964 129.889  15.140  1.00  0.00     0.113 A 
ATOM     27  C   UNL     1      47.419 131.566  13.472  1.00  0.00     0.032 A 
ATOM     28  C   UNL     1      47.758 128.937  14.506  1.00  0.00     0.032 A 
ATOM     29  C   UNL     1      48.232 130.632  12.798  1.00  0.00     0.002 A 
ATOM     30  C   UNL     1      48.401 129.324  13.313  1.00  0.00     0.002 A 
ENDBRANCH  15  22
BRANCH  16  31
ATOM     31  N   UNL     1      41.368 132.672  18.158  1.00  0.00    -0.397 N 
ATOM     32  H   UNL     1      40.555 132.023  18.076  1.00  0.00     0.156 HD
ATOM     33  H   UNL     1      41.152 133.691  18.128  1.00  0.00     0.156 HD
ENDBRANCH  16  31
ENDBRANCH   1  12
TORSDOF 8
ENDMDL
MODEL 4
REMARK VINA RESULT:      -8.4      2.585      4.355
REMARK SMILES Nc1c(/C(O)=N/Cc2ccc[nH]2)cc(-n2nc3ccccc3n2)c([O-])c1N
REMARK SMILES IDX 4 1 5 2 6 4 7 5 8 6 9 7 12 8 10 9 11 10 3 12 13 13 2 14
REMARK SMILES IDX 14 15 26 16 24 17 25 18 1 19 15 22 16 23 23 24 17 25 22 26
REMARK SMILES IDX 18 27 21 28 19 29 20 30 27 31
REMARK H PARENT 5 3 12 11 1 20 1 21 27 32 27 33
ROOT
ATOM      1  C   UNL     1      45.550 131.862  21.470  1.00  0.00     0.216 C 
ENDROOT
BRANCH   1   2
ATOM      2  O   UNL     1      45.004 131.286  22.622  1.00  0.00    -0.493 OA
ATOM      3  H   UNL     1      45.044 131.722  23.534  1.00  0.00     0.295 HD
ENDBRANCH   1   2
BRANCH   1   4
ATOM      4  N   UNL     1      46.670 132.524  21.509  1.00  0.00    -0.245 NA
BRANCH   4   5
ATOM      5  C   UNL     1      46.787 133.976  21.577  1.00  0.00     0.199 C 
BRANCH   5   6
ATOM      6  C   UNL     1      48.072 134.334  22.248  1.00  0.00     0.037 A 
ATOM      7  C   UNL     1      48.945 135.322  21.834  1.00  0.00     0.025 A 
ATOM      8  N   UNL     1      48.587 133.665  23.297  1.00  0.00    -0.363 N 
ATOM      9  C   UNL     1      50.029 135.258  22.686  1.00  0.00     0.020 A 
ATOM     10  C   UNL     1      49.777 134.229  23.572  1.00  0.00     0.082 A 
ATOM     11  H   UNL     1      48.154 132.856  23.796  1.00  0.00     0.166 HD
ENDBRANCH   5   6
ENDBRANCH   4   5
ENDBRANCH   1   4
BRANCH   1  12
ATOM     12  C   UNL     1      44.823 131.743  20.184  1.00  0.00     0.063 A 
ATOM     13  C   UNL     1      45.553 131.419  19.029  1.00  0.00     0.045 A 
ATOM     14  C   UNL     1      43.437 132.002  20.080  1.00  0.00     0.067 A 
ATOM     15  C   UNL     1      44.946 131.379  17.767  1.00  0.00     0.081 A 
ATOM     16  C   UNL     1      42.807 131.950  18.813  1.00  0.00     0.050 A 
ATOM     17  C   UNL     1      43.567 131.649  17.665  1.00  0.00    -0.055 A 
ATOM     18  O   UNL     1      42.931 131.595  16.428  1.00  0.00    -0.870 OA
BRANCH  14  19
ATOM     19  N   UNL     1      42.665 132.288  21.258  1.00  0.00    -0.396 N 
ATOM     20  H   UNL     1      41.755 132.796  21.196  1.00  0.00     0.156 HD
ATOM     21  H   UNL     1      42.978 131.981  22.203  1.00  0.00     0.156 HD
ENDBRANCH  14  19
BRANCH  15  22
ATOM     22  N   UNL     1      45.743 131.065  16.603  1.00  0.00    -0.151 N 
ATOM     23  N   UNL     1      45.995 131.943  15.630  1.00  0.00    -0.148 NA
ATOM     24  N   UNL     1      46.298 129.874  16.373  1.00  0.00    -0.148 NA
ATOM     25  C   UNL     1      46.747 131.274  14.745  1.00  0.00     0.113 A 
ATOM     26  C   UNL     1      46.932 130.007  15.200  1.00  0.00     0.113 A 
ATOM     27  C   UNL     1      47.288 131.719  13.543  1.00  0.00     0.032 A 
ATOM     28  C   UNL     1      47.675 129.065  14.494  1.00  0.00     0.032 A 
ATOM     29  C   UNL     1      48.048 130.796  12.796  1.00  0.00     0.002 A 
ATOM     30  C   UNL     1      48.241 129.475  13.270  1.00  0.00     0.002 A 
ENDBRANCH  15  22
BRANCH  16  31
ATOM     31  N   UNL     1      41.390 132.146  18.683  1.00  0.00    -0.397 N 
ATOM     32  H   UNL     1      40.821 131.558  18.035  1.00  0.00     0.156 HD
ATOM     33  H   UNL     1      40.863 132.816  19.282  1.00  0.00     0.156 HD
ENDBRANCH  16  31
ENDBRANCH   1  12
TORSDOF 8
ENDMDL
MODEL 5
REMARK VINA RESULT:      -7.6      1.477      2.178
REMARK SMILES Nc1c(/C(O)=N/Cc2ccc[nH]2)cc(-n2nc3ccccc3n2)c([O-])c1N
REMARK SMILES IDX 4 1 5 2 6 4 7 5 8 6 9 7 12 8 10 9 11 10 3 12 13 13 2 14
REMARK SMILES IDX 14 15 26 16 24 17 25 18 1 19 15 22 16 23 23 24 17 25 22 26
REMARK SMILES IDX 18 27 21 28 19 29 20 30 27 31
REMARK H PARENT 5 3 12 11 1 20 1 21 27 32 27 33
ROOT
ATOM      1  C   UNL     1      44.488 130.898  22.872  1.00  0.00     0.216 C 
ENDROOT
BRANCH   1   2
ATOM      2  O   UNL     1      45.055 131.861  23.713  1.00  0.00    -0.493 OA
ATOM      3  H   UNL     1      45.531 131.633  24.576  1.00  0.00     0.295 HD
ENDBRANCH   1   2
BRANCH   1   4
ATOM      4  N   UNL     1      44.511 129.632  23.177  1.00  0.00    -0.245 NA
BRANCH   4   5
ATOM      5  C   UNL     1      45.084 128.578  22.350  1.00  0.00     0.199 C 
BRANCH   5   6
ATOM      6  C   UNL     1      44.614 127.251  22.850  1.00  0.00     0.037 A 
ATOM      7  C   UNL     1      45.309 126.061  22.743  1.00  0.00     0.025 A 
ATOM      8  N   UNL     1      43.399 127.036  23.388  1.00  0.00    -0.363 N 
ATOM      9  C   UNL     1      44.481 125.085  23.259  1.00  0.00     0.020 A 
ATOM     10  C   UNL     1      43.316 125.718  23.646  1.00  0.00     0.082 A 
ATOM     11  H   UNL     1      42.657 127.750  23.563  1.00  0.00     0.166 HD
ENDBRANCH   5   6
ENDBRANCH   4   5
ENDBRANCH   1   4
BRANCH   1  12
ATOM     12  C   UNL     1      43.875 131.323  21.590  1.00  0.00     0.063 A 
ATOM     13  C   UNL     1      44.573 131.072  20.398  1.00  0.00     0.045 A 
ATOM     14  C   UNL     1      42.646 132.020  21.543  1.00  0.00     0.067 A 
ATOM     15  C   UNL     1      44.096 131.526  19.162  1.00  0.00     0.081 A 
ATOM     16  C   UNL     1      42.144 132.471  20.299  1.00  0.00     0.050 A 
ATOM     17  C   UNL     1      42.876 132.231  19.119  1.00  0.00    -0.055 A 
ATOM     18  O   UNL     1      42.366 132.675  17.903  1.00  0.00    -0.870 OA
BRANCH  14  19
ATOM     19  N   UNL     1      41.894 132.243  22.747  1.00  0.00    -0.396 N 
ATOM     20  H   UNL     1      41.322 133.106  22.873  1.00  0.00     0.156 HD
ATOM     21  H   UNL     1      41.883 131.544  23.521  1.00  0.00     0.156 HD
ENDBRANCH  14  19
BRANCH  15  22
ATOM     22  N   UNL     1      44.861 131.267  17.964  1.00  0.00    -0.151 N 
ATOM     23  N   UNL     1      45.005 132.155  16.980  1.00  0.00    -0.148 NA
ATOM     24  N   UNL     1      45.492 130.118  17.711  1.00  0.00    -0.148 NA
ATOM     25  C   UNL     1      45.764 131.539  16.063  1.00  0.00     0.113 A 
ATOM     26  C   UNL     1      46.061 130.292  16.510  1.00  0.00     0.113 A 
ATOM     27  C   UNL     1      46.217 132.017  14.837  1.00  0.00     0.032 A 
ATOM     28  C   UNL     1      46.839 129.403  15.774  1.00  0.00     0.032 A 
ATOM     29  C   UNL     1      47.009 131.149  14.058  1.00  0.00     0.002 A 
ATOM     30  C   UNL     1      47.319 129.848  14.525  1.00  0.00     0.002 A 
ENDBRANCH  15  22
BRANCH  16  31
ATOM     31  N   UNL     1      40.868 133.126  20.209  1.00  0.00    -0.397 N 
ATOM     32  H   UNL     1      39.980 132.601  20.364  1.00  0.00     0.156 HD
ATOM     33  H   UNL     1      40.779 134.155  20.072  1.00  0.00     0.156 HD
ENDBRANCH  16  31
ENDBRANCH   1  12
TORSDOF 8
ENDMDL
MODEL 6
REMARK VINA RESULT:      -7.4      1.731      2.192
REMARK SMILES Nc1c(/C(O)=N/Cc2ccc[nH]2)cc(-n2nc3ccccc3n2)c([O-])c1N
REMARK SMILES IDX 4 1 5 2 6 4 7 5 8 6 9 7 12 8 10 9 11 10 3 12 13 13 2 14
REMARK SMILES IDX 14 15 26 16 24 17 25 18 1 19 15 22 16 23 23 24 17 25 22 26
REMARK SMILES IDX 18 27 21 28 19 29 20 30 27 31
REMARK H PARENT 5 3 12 11 1 20 1 21 27 32 27 33
ROOT
ATOM      1  C   UNL     1      44.391 130.936  23.025  1.00  0.00     0.216 C 
ENDROOT
BRANCH   1   2
ATOM      2  O   UNL     1      44.986 131.888  23.860  1.00  0.00    -0.493 OA
ATOM      3  H   UNL     1      44.465 132.609  24.341  1.00  0.00     0.295 HD
ENDBRANCH   1   2
BRANCH   1   4
ATOM      4  N   UNL     1      44.455 129.664  23.294  1.00  0.00    -0.245 NA
BRANCH   4   5
ATOM      5  C   UNL     1      44.831 128.622  22.347  1.00  0.00     0.199 C 
BRANCH   5   6
ATOM      6  C   UNL     1      44.738 127.291  23.019  1.00  0.00     0.037 A 
ATOM      7  C   UNL     1      45.795 126.601  23.581  1.00  0.00     0.025 A 
ATOM      8  N   UNL     1      43.615 126.552  23.074  1.00  0.00    -0.363 N 
ATOM      9  C   UNL     1      45.280 125.395  24.013  1.00  0.00     0.020 A 
ATOM     10  C   UNL     1      43.938 125.398  23.685  1.00  0.00     0.082 A 
ATOM     11  H   UNL     1      42.674 126.815  22.703  1.00  0.00     0.166 HD
ENDBRANCH   5   6
ENDBRANCH   4   5
ENDBRANCH   1   4
BRANCH   1  12
ATOM     12  C   UNL     1      43.701 131.383  21.791  1.00  0.00     0.063 A 
ATOM     13  C   UNL     1      44.302 131.112  20.552  1.00  0.00     0.045 A 
ATOM     14  C   UNL     1      42.493 132.118  21.833  1.00  0.00     0.067 A 
ATOM     15  C   UNL     1      43.751 131.583  19.353  1.00  0.00     0.081 A 
ATOM     16  C   UNL     1      41.917 132.586  20.628  1.00  0.00     0.050 A 
ATOM     17  C   UNL     1      42.554 132.325  19.399  1.00  0.00    -0.055 A 
ATOM     18  O   UNL     1      41.971 132.788  18.223  1.00  0.00    -0.870 OA
BRANCH  14  19
ATOM     19  N   UNL     1      41.839 132.362  23.088  1.00  0.00    -0.396 N 
ATOM     20  H   UNL     1      41.901 133.292  23.557  1.00  0.00     0.156 HD
ATOM     21  H   UNL     1      41.268 131.627  23.559  1.00  0.00     0.156 HD
ENDBRANCH  14  19
BRANCH  15  22
ATOM     22  N   UNL     1      44.419 131.302  18.103  1.00  0.00    -0.151 N 
ATOM     23  N   UNL     1      45.480 130.500  18.005  1.00  0.00    -0.148 NA
ATOM     24  N   UNL     1      44.056 131.815  16.927  1.00  0.00    -0.148 NA
ATOM     25  C   UNL     1      45.802 130.507  16.703  1.00  0.00     0.113 A 
ATOM     26  C   UNL     1      44.930 131.312  16.043  1.00  0.00     0.113 A 
ATOM     27  C   UNL     1      46.833 129.835  16.053  1.00  0.00     0.032 A 
ATOM     28  C   UNL     1      45.007 131.524  14.670  1.00  0.00     0.032 A 
ATOM     29  C   UNL     1      46.947 130.022  14.660  1.00  0.00     0.002 A 
ATOM     30  C   UNL     1      46.038 130.862  13.972  1.00  0.00     0.002 A 
ENDBRANCH  15  22
BRANCH  16  31
ATOM     31  N   UNL     1      40.659 133.281  20.631  1.00  0.00    -0.397 N 
ATOM     32  H   UNL     1      40.464 134.046  19.948  1.00  0.00     0.156 HD
ATOM     33  H   UNL     1      39.869 132.999  21.248  1.00  0.00     0.156 HD
ENDBRANCH  16  31
ENDBRANCH   1  12
TORSDOF 8
ENDMDL
MODEL 7
REMARK VINA RESULT:      -7.4      2.414      4.072
REMARK SMILES Nc1c(/C(O)=N/Cc2ccc[nH]2)cc(-n2nc3ccccc3n2)c([O-])c1N
REMARK SMILES IDX 4 1 5 2 6 4 7 5 8 6 9 7 12 8 10 9 11 10 3 12 13 13 2 14
REMARK SMILES IDX 14 15 26 16 24 17 25 18 1 19 15 22 16 23 23 24 17 25 22 26
REMARK SMILES IDX 18 27 21 28 19 29 20 30 27 31
REMARK H PARENT 5 3 12 11 1 20 1 21 27 32 27 33
ROOT
ATOM      1  C   UNL     1      45.295 131.366  21.528  1.00  0.00     0.216 C 
ENDROOT
BRANCH   1   2
ATOM      2  O   UNL     1      45.117 130.208  22.294  1.00  0.00    -0.493 OA
ATOM      3  H   UNL     1      44.732 130.214  23.229  1.00  0.00     0.295 HD
ENDBRANCH   1   2
BRANCH   1   4
ATOM      4  N   UNL     1      46.011 132.363  21.964  1.00  0.00    -0.245 NA
BRANCH   4   5
ATOM      5  C   UNL     1      46.498 133.467  21.147  1.00  0.00     0.199 C 
BRANCH   5   6
ATOM      6  C   UNL     1      47.712 134.055  21.790  1.00  0.00     0.037 A 
ATOM      7  C   UNL     1      48.432 133.480  22.820  1.00  0.00     0.025 A 
ATOM      8  N   UNL     1      48.200 135.276  21.503  1.00  0.00    -0.363 N 
ATOM      9  C   UNL     1      49.413 134.390  23.157  1.00  0.00     0.020 A 
ATOM     10  C   UNL     1      49.242 135.483  22.329  1.00  0.00     0.082 A 
ATOM     11  H   UNL     1      47.835 135.943  20.786  1.00  0.00     0.166 HD
ENDBRANCH   5   6
ENDBRANCH   4   5
ENDBRANCH   1   4
BRANCH   1  12
ATOM     12  C   UNL     1      44.630 131.473  20.208  1.00  0.00     0.063 A 
ATOM     13  C   UNL     1      45.374 131.170  19.056  1.00  0.00     0.045 A 
ATOM     14  C   UNL     1      43.296 131.926  20.076  1.00  0.00     0.067 A 
ATOM     15  C   UNL     1      44.836 131.337  17.773  1.00  0.00     0.081 A 
ATOM     16  C   UNL     1      42.736 132.084  18.785  1.00  0.00     0.050 A 
ATOM     17  C   UNL     1      43.511 131.799  17.644  1.00  0.00    -0.055 A 
ATOM     18  O   UNL     1      42.942 131.954  16.384  1.00  0.00    -0.870 OA
BRANCH  14  19
ATOM     19  N   UNL     1      42.505 132.194  21.244  1.00  0.00    -0.396 N 
ATOM     20  H   UNL     1      41.538 131.812  21.340  1.00  0.00     0.156 HD
ATOM     21  H   UNL     1      42.876 132.760  22.037  1.00  0.00     0.156 HD
ENDBRANCH  14  19
BRANCH  15  22
ATOM     22  N   UNL     1      45.648 131.037  16.617  1.00  0.00    -0.151 N 
ATOM     23  N   UNL     1      46.201 129.842  16.401  1.00  0.00    -0.148 NA
ATOM     24  N   UNL     1      45.938 131.914  15.655  1.00  0.00    -0.148 NA
ATOM     25  C   UNL     1      46.870 129.971  15.246  1.00  0.00     0.113 A 
ATOM     26  C   UNL     1      46.710 131.241  14.790  1.00  0.00     0.113 A 
ATOM     27  C   UNL     1      47.625 129.024  14.561  1.00  0.00     0.032 A 
ATOM     28  C   UNL     1      47.290 131.683  13.605  1.00  0.00     0.032 A 
ATOM     29  C   UNL     1      48.231 129.432  13.355  1.00  0.00     0.002 A 
ATOM     30  C   UNL     1      48.063 130.755  12.879  1.00  0.00     0.002 A 
ENDBRANCH  15  22
BRANCH  16  31
ATOM     31  N   UNL     1      41.365 132.480  18.619  1.00  0.00    -0.397 N 
ATOM     32  H   UNL     1      41.053 133.451  18.843  1.00  0.00     0.156 HD
ATOM     33  H   UNL     1      40.651 131.852  18.192  1.00  0.00     0.156 HD
ENDBRANCH  16  31
ENDBRANCH   1  12
TORSDOF 8
ENDMDL
MODEL 8
REMARK VINA RESULT:      -7.2      1.081      1.623
REMARK SMILES Nc1c(/C(O)=N/Cc2ccc[nH]2)cc(-n2nc3ccccc3n2)c([O-])c1N
REMARK SMILES IDX 4 1 5 2 6 4 7 5 8 6 9 7 12 8 10 9 11 10 3 12 13 13 2 14
REMARK SMILES IDX 14 15 26 16 24 17 25 18 1 19 15 22 16 23 23 24 17 25 22 26
REMARK SMILES IDX 18 27 21 28 19 29 20 30 27 31
REMARK H PARENT 5 3 12 11 1 20 1 21 27 32 27 33
ROOT
ATOM      1  C   UNL     1      44.680 130.914  21.470  1.00  0.00     0.216 C 
ENDROOT
BRANCH   1   2
ATOM      2  O   UNL     1      45.841 130.144  21.604  1.00  0.00    -0.493 OA
ATOM      3  H   UNL     1      46.773 130.533  21.567  1.00  0.00     0.295 HD
ENDBRANCH   1   2
BRANCH   1   4
ATOM      4  N   UNL     1      44.030 131.347  22.511  1.00  0.00    -0.245 NA
BRANCH   4   5
ATOM      5  C   UNL     1      44.288 130.947  23.889  1.00  0.00     0.199 C 
BRANCH   5   6
ATOM      6  C   UNL     1      43.422 129.779  24.232  1.00  0.00     0.037 A 
ATOM      7  C   UNL     1      43.858 128.478  24.392  1.00  0.00     0.025 A 
ATOM      8  N   UNL     1      42.082 129.839  24.335  1.00  0.00    -0.363 N 
ATOM      9  C   UNL     1      42.728 127.720  24.622  1.00  0.00     0.020 A 
ATOM     10  C   UNL     1      41.654 128.587  24.580  1.00  0.00     0.082 A 
ATOM     11  H   UNL     1      41.484 130.690  24.234  1.00  0.00     0.166 HD
ENDBRANCH   5   6
ENDBRANCH   4   5
ENDBRANCH   1   4
BRANCH   1  12
ATOM     12  C   UNL     1      44.162 131.218  20.114  1.00  0.00     0.063 A 
ATOM     13  C   UNL     1      44.964 130.903  19.005  1.00  0.00     0.045 A 
ATOM     14  C   UNL     1      42.920 131.863  19.915  1.00  0.00     0.067 A 
ATOM     15  C   UNL     1      44.576 131.245  17.702  1.00  0.00     0.081 A 
ATOM     16  C   UNL     1      42.509 132.200  18.602  1.00  0.00     0.050 A 
ATOM     17  C   UNL     1      43.343 131.898  17.508  1.00  0.00    -0.055 A 
ATOM     18  O   UNL     1      42.921 132.230  16.224  1.00  0.00    -0.870 OA
BRANCH  14  19
ATOM     19  N   UNL     1      42.066 132.149  21.034  1.00  0.00    -0.396 N 
ATOM     20  H   UNL     1      41.898 131.438  21.780  1.00  0.00     0.156 HD
ATOM     21  H   UNL     1      41.603 133.077  21.144  1.00  0.00     0.156 HD
ENDBRANCH  14  19
BRANCH  15  22
ATOM     22  N   UNL     1      45.445 130.923  16.594  1.00  0.00    -0.151 N 
ATOM     23  N   UNL     1      45.412 131.569  15.427  1.00  0.00    -0.148 NA
ATOM     24  N   UNL     1      46.357 129.950  16.613  1.00  0.00    -0.148 NA
ATOM     25  C   UNL     1      46.350 130.976  14.674  1.00  0.00     0.113 A 
ATOM     26  C   UNL     1      46.928 129.984  15.401  1.00  0.00     0.113 A 
ATOM     27  C   UNL     1      46.732 131.260  13.367  1.00  0.00     0.032 A 
ATOM     28  C   UNL     1      47.943 129.182  14.888  1.00  0.00     0.032 A 
ATOM     29  C   UNL     1      47.758 130.470  12.809  1.00  0.00     0.002 A 
ATOM     30  C   UNL     1      48.361 129.436  13.567  1.00  0.00     0.002 A 
ENDBRANCH  15  22
BRANCH  16  31
ATOM     31  N   UNL     1      41.226 132.799  18.360  1.00  0.00    -0.397 N 
ATOM     32  H   UNL     1      41.137 133.815  18.139  1.00  0.00     0.156 HD
ATOM     33  H   UNL     1      40.349 132.237  18.311  1.00  0.00     0.156 HD
ENDBRANCH  16  31
ENDBRANCH   1  12
TORSDOF 8
ENDMDL
MODEL 9
REMARK VINA RESULT:      -6.5      0.995      1.619
REMARK SMILES Nc1c(/C(O)=N/Cc2ccc[nH]2)cc(-n2nc3ccccc3n2)c([O-])c1N
REMARK SMILES IDX 4 1 5 2 6 4 7 5 8 6 9 7 12 8 10 9 11 10 3 12 13 13 2 14
REMARK SMILES IDX 14 15 26 16 24 17 25 18 1 19 15 22 16 23 23 24 17 25 22 26
REMARK SMILES IDX 18 27 21 28 19 29 20 30 27 31
REMARK H PARENT 5 3 12 11 1 20 1 21 27 32 27 33
ROOT
ATOM      1  C   UNL     1      45.044 131.003  20.806  1.00  0.00     0.216 C 
ENDROOT
BRANCH   1   2
ATOM      2  O   UNL     1      46.155 130.173  20.988  1.00  0.00    -0.493 OA
ATOM      3  H   UNL     1      46.422 129.450  20.333  1.00  0.00     0.295 HD
ENDBRANCH   1   2
BRANCH   1   4
ATOM      4  N   UNL     1      44.434 131.550  21.818  1.00  0.00    -0.245 NA
BRANCH   4   5
ATOM      5  C   UNL     1      44.622 131.178  23.215  1.00  0.00     0.199 C 
BRANCH   5   6
ATOM      6  C   UNL     1      43.616 130.137  23.586  1.00  0.00     0.037 A 
ATOM      7  C   UNL     1      42.535 130.330  24.425  1.00  0.00     0.025 A 
ATOM      8  N   UNL     1      43.697 128.846  23.217  1.00  0.00    -0.363 N 
ATOM      9  C   UNL     1      41.924 129.099  24.552  1.00  0.00     0.020 A 
ATOM     10  C   UNL     1      42.663 128.210  23.798  1.00  0.00     0.082 A 
ATOM     11  H   UNL     1      44.427 128.414  22.606  1.00  0.00     0.166 HD
ENDBRANCH   5   6
ENDBRANCH   4   5
ENDBRANCH   1   4
BRANCH   1  12
ATOM     12  C   UNL     1      44.530 131.240  19.436  1.00  0.00     0.063 A 
ATOM     13  C   UNL     1      45.369 130.954  18.347  1.00  0.00     0.045 A 
ATOM     14  C   UNL     1      43.251 131.796  19.202  1.00  0.00     0.067 A 
ATOM     15  C   UNL     1      44.982 131.238  17.031  1.00  0.00     0.081 A 
ATOM     16  C   UNL     1      42.842 132.074  17.875  1.00  0.00     0.050 A 
ATOM     17  C   UNL     1      43.712 131.803  16.801  1.00  0.00    -0.055 A 
ATOM     18  O   UNL     1      43.291 132.076  15.503  1.00  0.00    -0.870 OA
BRANCH  14  19
ATOM     19  N   UNL     1      42.361 132.050  20.300  1.00  0.00    -0.396 N 
ATOM     20  H   UNL     1      42.502 131.591  21.226  1.00  0.00     0.156 HD
ATOM     21  H   UNL     1      41.561 132.713  20.212  1.00  0.00     0.156 HD
ENDBRANCH  14  19
BRANCH  15  22
ATOM     22  N   UNL     1      45.889 130.949  15.944  1.00  0.00    -0.151 N 
ATOM     23  N   UNL     1      45.943 131.672  14.824  1.00  0.00    -0.148 NA
ATOM     24  N   UNL     1      46.754 129.934  15.939  1.00  0.00    -0.148 NA
ATOM     25  C   UNL     1      46.889 131.085  14.077  1.00  0.00     0.113 A 
ATOM     26  C   UNL     1      47.385 130.021  14.759  1.00  0.00     0.113 A 
ATOM     27  C   UNL     1      47.348 131.437  12.811  1.00  0.00     0.032 A 
ATOM     28  C   UNL     1      48.387 129.206  14.240  1.00  0.00     0.032 A 
ATOM     29  C   UNL     1      48.363 130.638  12.248  1.00  0.00     0.002 A 
ATOM     30  C   UNL     1      48.880 129.527  12.959  1.00  0.00     0.002 A 
ENDBRANCH  15  22
BRANCH  16  31
ATOM     31  N   UNL     1      41.526 132.581  17.599  1.00  0.00    -0.397 N 
ATOM     32  H   UNL     1      41.364 133.597  17.426  1.00  0.00     0.156 HD
ATOM     33  H   UNL     1      40.702 131.954  17.475  1.00  0.00     0.156 HD
ENDBRANCH  16  31
ENDBRANCH   1  12
TORSDOF 8
ENDMDL


