REMARK SMILES O/C(=N\c1cc(F)c(F)cc1[NH2+]c1ccc(F)cc1)[C@H]1C[C@H](O)CN1
REMARK SMILES IDX 3 1 2 2 1 3 20 5 25 6 21 7 24 8 22 9 23 11 4 13 5 14 11 15
REMARK SMILES IDX 6 16 10 17 8 18 7 19 9 20 12 21 13 24 14 25 19 26 15 27
REMARK SMILES IDX 18 28 16 29 17 30
REMARK H PARENT 1 4 25 10 23 12 12 22 12 23
ROOT
ATOM      1  N   UNL     1       0.666  -0.394   0.471  1.00  0.00    -0.210 NA
ENDROOT
BRANCH   1   2
ATOM      2  C   UNL     1      -0.544  -0.018   0.765  1.00  0.00     0.203 C 
BRANCH   2   3
ATOM      3  O   UNL     1      -1.052  -0.203   2.052  1.00  0.00    -0.495 OA
ATOM      4  H   UNL     1      -1.984   0.100   2.300  1.00  0.00     0.295 HD
ENDBRANCH   2   3
BRANCH   2   5
ATOM      5  C   UNL     1      -1.376   0.667  -0.285  1.00  0.00     0.143 C 
ATOM      6  N   UNL     1      -1.746   2.010   0.178  1.00  0.00    -0.303 NA
ATOM      7  C   UNL     1      -2.659  -0.105  -0.597  1.00  0.00     0.062 C 
ATOM      8  C   UNL     1      -3.206   2.079   0.181  1.00  0.00     0.113 C 
ATOM      9  C   UNL     1      -3.725   0.965  -0.708  1.00  0.00     0.130 C 
ATOM     10  H   UNL     1      -1.388   2.709  -0.514  1.00  0.00     0.123 HD
BRANCH   9  11
ATOM     11  O   UNL     1      -3.824   1.426  -2.030  1.00  0.00    -0.392 OA
ATOM     12  H   UNL     1      -4.357   0.750  -2.528  1.00  0.00     0.211 HD
ENDBRANCH   9  11
ENDBRANCH   2   5
ENDBRANCH   1   2
BRANCH   1  13
ATOM     13  C   UNL     1       1.562  -1.091   1.350  1.00  0.00     0.131 A 
ATOM     14  C   UNL     1       1.110  -2.182   2.115  1.00  0.00     0.077 A 
ATOM     15  C   UNL     1       2.928  -0.726   1.393  1.00  0.00     0.163 A 
ATOM     16  C   UNL     1       1.994  -2.887   2.934  1.00  0.00     0.161 A 
ATOM     17  C   UNL     1       3.805  -1.449   2.223  1.00  0.00     0.113 A 
ATOM     18  C   UNL     1       3.340  -2.519   2.991  1.00  0.00     0.164 A 
ATOM     19  F   UNL     1       1.546  -3.937   3.666  1.00  0.00    -0.204 F 
ATOM     20  F   UNL     1       4.199  -3.204   3.785  1.00  0.00    -0.204 F 
BRANCH  15  21
ATOM     21  N   UNL     1       3.433   0.371   0.599  1.00  0.00    -0.280 N 
ATOM     22  H   UNL     1       4.261   0.806   1.070  1.00  0.00     0.358 HD
ATOM     23  H   UNL     1       2.713   1.128   0.523  1.00  0.00     0.358 HD
BRANCH  21  24
ATOM     24  C   UNL     1       3.818  -0.099  -0.709  1.00  0.00     0.134 A 
ATOM     25  C   UNL     1       5.057  -0.738  -0.899  1.00  0.00     0.071 A 
ATOM     26  C   UNL     1       2.951   0.050  -1.808  1.00  0.00     0.071 A 
ATOM     27  C   UNL     1       5.424  -1.210  -2.162  1.00  0.00     0.045 A 
ATOM     28  C   UNL     1       3.322  -0.425  -3.069  1.00  0.00     0.045 A 
ATOM     29  C   UNL     1       4.559  -1.051  -3.247  1.00  0.00     0.123 A 
ATOM     30  F   UNL     1       4.913  -1.515  -4.470  1.00  0.00    -0.207 F 
ENDBRANCH  21  24
ENDBRANCH  15  21
ENDBRANCH   1  13
TORSDOF 7


