MODEL 1
REMARK VINA RESULT:      -9.8      0.000      0.000
REMARK SMILES CC(=O)n1nc2cc(-c3c[nH+]c(F)cc3C)ccc2c1C
REMARK SMILES IDX 4 1 5 2 6 3 7 4 8 5 17 6 18 7 19 8 20 9 21 10 2 11 1 12 3 13
REMARK SMILES IDX 9 14 10 15 15 16 11 17 14 18 12 19 16 20 13 22
REMARK H PARENT 11 21
ROOT
ATOM      1  N   UNL     1      46.324 130.476  15.165  1.00  0.00    -0.204 N 
ATOM      2  N   UNL     1      46.617 130.343  16.455  1.00  0.00    -0.165 NA
ATOM      3  C   UNL     1      45.548 130.774  17.146  1.00  0.00     0.094 A 
ATOM      4  C   UNL     1      45.397 130.826  18.528  1.00  0.00     0.040 A 
ATOM      5  C   UNL     1      44.178 131.318  19.045  1.00  0.00    -0.010 A 
ATOM      6  C   UNL     1      43.162 131.758  18.156  1.00  0.00     0.010 A 
ATOM      7  C   UNL     1      43.347 131.691  16.763  1.00  0.00     0.013 A 
ATOM      8  C   UNL     1      44.561 131.189  16.295  1.00  0.00     0.023 A 
ATOM      9  C   UNL     1      45.071 130.992  15.026  1.00  0.00     0.052 A 
ATOM     10  C   UNL     1      44.379 131.293  13.729  1.00  0.00     0.067 C 
ENDROOT
BRANCH   1  11
ATOM     11  C   UNL     1      47.244 130.110  14.120  1.00  0.00     0.243 C 
ATOM     12  C   UNL     1      47.579 131.086  13.036  1.00  0.00     0.117 C 
ATOM     13  O   UNL     1      47.779 128.969  14.103  1.00  0.00    -0.273 OA
ENDBRANCH   1  11
BRANCH   5  14
ATOM     14  C   UNL     1      43.967 131.406  20.508  1.00  0.00     0.049 A 
ATOM     15  C   UNL     1      44.888 130.782  21.365  1.00  0.00     0.317 A 
ATOM     16  C   UNL     1      42.872 132.101  21.075  1.00  0.00    -0.028 A 
ATOM     17  N   UNL     1      44.714 130.819  22.713  1.00  0.00    -0.186 N 
ATOM     18  C   UNL     1      42.715 132.101  22.468  1.00  0.00     0.118 A 
ATOM     19  C   UNL     1      43.652 131.454  23.274  1.00  0.00     0.358 A 
ATOM     20  C   UNL     1      41.862 132.828  20.226  1.00  0.00     0.045 C 
ATOM     21  H   UNL     1      45.409 130.342  23.329  1.00  0.00     0.456 HD
ATOM     22  F   UNL     1      43.504 131.465  24.623  1.00  0.00    -0.136 F 
ENDBRANCH   5  14
TORSDOF 2
ENDMDL
MODEL 2
REMARK VINA RESULT:      -9.6      3.889      7.369
REMARK SMILES CC(=O)n1nc2cc(-c3c[nH+]c(F)cc3C)ccc2c1C
REMARK SMILES IDX 4 1 5 2 6 3 7 4 8 5 17 6 18 7 19 8 20 9 21 10 2 11 1 12 3 13
REMARK SMILES IDX 9 14 10 15 15 16 11 17 14 18 12 19 16 20 13 22
REMARK H PARENT 11 21
ROOT
ATOM      1  N   UNL     1      44.181 131.376  21.661  1.00  0.00    -0.204 N 
ATOM      2  N   UNL     1      45.204 131.029  20.886  1.00  0.00    -0.165 NA
ATOM      3  C   UNL     1      44.827 131.253  19.615  1.00  0.00     0.094 A 
ATOM      4  C   UNL     1      45.570 131.035  18.460  1.00  0.00     0.040 A 
ATOM      5  C   UNL     1      44.973 131.345  17.218  1.00  0.00    -0.010 A 
ATOM      6  C   UNL     1      43.644 131.844  17.180  1.00  0.00     0.010 A 
ATOM      7  C   UNL     1      42.920 132.052  18.368  1.00  0.00     0.013 A 
ATOM      8  C   UNL     1      43.552 131.745  19.573  1.00  0.00     0.023 A 
ATOM      9  C   UNL     1      43.147 131.819  20.892  1.00  0.00     0.052 A 
ATOM     10  C   UNL     1      41.816 132.295  21.393  1.00  0.00     0.067 C 
ENDROOT
BRANCH   1  11
ATOM     11  C   UNL     1      44.225 131.269  23.096  1.00  0.00     0.243 C 
ATOM     12  C   UNL     1      43.765 130.015  23.772  1.00  0.00     0.117 C 
ATOM     13  O   UNL     1      44.651 132.223  23.801  1.00  0.00    -0.273 OA
ENDBRANCH   1  11
BRANCH   5  14
ATOM     14  C   UNL     1      45.714 131.122  15.955  1.00  0.00     0.049 A 
ATOM     15  C   UNL     1      46.372 132.207  15.354  1.00  0.00     0.317 A 
ATOM     16  C   UNL     1      45.786 129.852  15.334  1.00  0.00    -0.028 A 
ATOM     17  N   UNL     1      47.040 132.047  14.181  1.00  0.00    -0.186 N 
ATOM     18  C   UNL     1      46.469 129.730  14.115  1.00  0.00     0.118 A 
ATOM     19  C   UNL     1      47.094 130.843  13.554  1.00  0.00     0.358 A 
ATOM     20  C   UNL     1      45.140 128.631  15.934  1.00  0.00     0.045 C 
ATOM     21  H   UNL     1      47.516 132.870  13.750  1.00  0.00     0.456 HD
ATOM     22  F   UNL     1      47.763 130.720  12.379  1.00  0.00    -0.136 F 
ENDBRANCH   5  14
TORSDOF 2
ENDMDL
MODEL 3
REMARK VINA RESULT:      -9.4      3.750      7.255
REMARK SMILES CC(=O)n1nc2cc(-c3c[nH+]c(F)cc3C)ccc2c1C
REMARK SMILES IDX 4 1 5 2 6 3 7 4 8 5 17 6 18 7 19 8 20 9 21 10 2 11 1 12 3 13
REMARK SMILES IDX 9 14 10 15 15 16 11 17 14 18 12 19 16 20 13 22
REMARK H PARENT 11 21
ROOT
ATOM      1  N   UNL     1      44.050 131.328  21.974  1.00  0.00    -0.204 N 
ATOM      2  N   UNL     1      45.046 130.846  21.236  1.00  0.00    -0.165 NA
ATOM      3  C   UNL     1      44.715 131.054  19.950  1.00  0.00     0.094 A 
ATOM      4  C   UNL     1      45.453 130.712  18.821  1.00  0.00     0.040 A 
ATOM      5  C   UNL     1      44.912 131.029  17.555  1.00  0.00    -0.010 A 
ATOM      6  C   UNL     1      43.642 131.658  17.468  1.00  0.00     0.010 A 
ATOM      7  C   UNL     1      42.923 131.990  18.630  1.00  0.00     0.013 A 
ATOM      8  C   UNL     1      43.498 131.670  19.860  1.00  0.00     0.023 A 
ATOM      9  C   UNL     1      43.081 131.841  21.166  1.00  0.00     0.052 A 
ATOM     10  C   UNL     1      41.797 132.472  21.618  1.00  0.00     0.067 C 
ENDROOT
BRANCH   1  11
ATOM     11  C   UNL     1      44.058 131.277  23.413  1.00  0.00     0.243 C 
ATOM     12  C   UNL     1      44.395 132.500  24.208  1.00  0.00     0.117 C 
ATOM     13  O   UNL     1      43.781 130.209  24.022  1.00  0.00    -0.273 OA
ENDBRANCH   1  11
BRANCH   5  14
ATOM     14  C   UNL     1      45.648 130.678  16.318  1.00  0.00     0.049 A 
ATOM     15  C   UNL     1      46.850 129.961  16.425  1.00  0.00     0.317 A 
ATOM     16  C   UNL     1      45.180 131.037  15.032  1.00  0.00    -0.028 A 
ATOM     17  N   UNL     1      47.567 129.644  15.314  1.00  0.00    -0.186 N 
ATOM     18  C   UNL     1      45.956 130.709  13.911  1.00  0.00     0.118 A 
ATOM     19  C   UNL     1      47.151 130.006  14.073  1.00  0.00     0.358 A 
ATOM     20  C   UNL     1      43.882 131.772  14.830  1.00  0.00     0.045 C 
ATOM     21  H   UNL     1      48.462 129.116  15.420  1.00  0.00     0.456 HD
ATOM     22  F   UNL     1      47.895 129.681  12.986  1.00  0.00    -0.136 F 
ENDBRANCH   5  14
TORSDOF 2
ENDMDL
MODEL 4
REMARK VINA RESULT:      -9.3      3.832      7.306
REMARK SMILES CC(=O)n1nc2cc(-c3c[nH+]c(F)cc3C)ccc2c1C
REMARK SMILES IDX 4 1 5 2 6 3 7 4 8 5 17 6 18 7 19 8 20 9 21 10 2 11 1 12 3 13
REMARK SMILES IDX 9 14 10 15 15 16 11 17 14 18 12 19 16 20 13 22
REMARK H PARENT 11 21
ROOT
ATOM      1  N   UNL     1      44.032 131.418  21.628  1.00  0.00    -0.204 N 
ATOM      2  N   UNL     1      45.064 130.937  20.941  1.00  0.00    -0.165 NA
ATOM      3  C   UNL     1      44.776 131.097  19.638  1.00  0.00     0.094 A 
ATOM      4  C   UNL     1      45.560 130.739  18.547  1.00  0.00     0.040 A 
ATOM      5  C   UNL     1      45.058 131.004  17.253  1.00  0.00    -0.010 A 
ATOM      6  C   UNL     1      43.779 131.600  17.102  1.00  0.00     0.010 A 
ATOM      7  C   UNL     1      43.011 131.950  18.228  1.00  0.00     0.013 A 
ATOM      8  C   UNL     1      43.549 131.682  19.486  1.00  0.00     0.023 A 
ATOM      9  C   UNL     1      43.081 131.883  20.771  1.00  0.00     0.052 A 
ATOM     10  C   UNL     1      41.769 132.497  21.158  1.00  0.00     0.067 C 
ENDROOT
BRANCH   1  11
ATOM     11  C   UNL     1      43.990 131.411  23.067  1.00  0.00     0.243 C 
ATOM     12  C   UNL     1      43.159 130.399  23.792  1.00  0.00     0.117 C 
ATOM     13  O   UNL     1      44.649 132.253  23.735  1.00  0.00    -0.273 OA
ENDBRANCH   1  11
BRANCH   5  14
ATOM     14  C   UNL     1      45.845 130.633  16.055  1.00  0.00     0.049 A 
ATOM     15  C   UNL     1      46.082 129.274  15.792  1.00  0.00     0.317 A 
ATOM     16  C   UNL     1      46.365 131.600  15.161  1.00  0.00    -0.028 A 
ATOM     17  N   UNL     1      46.823 128.896  14.717  1.00  0.00    -0.186 N 
ATOM     18  C   UNL     1      47.140 131.173  14.073  1.00  0.00     0.118 A 
ATOM     19  C   UNL     1      47.356 129.810  13.866  1.00  0.00     0.358 A 
ATOM     20  C   UNL     1      46.123 133.074  15.350  1.00  0.00     0.045 C 
ATOM     21  H   UNL     1      46.991 127.879  14.547  1.00  0.00     0.456 HD
ATOM     22  F   UNL     1      48.098 129.399  12.807  1.00  0.00    -0.136 F 
ENDBRANCH   5  14
TORSDOF 2
ENDMDL
MODEL 5
REMARK VINA RESULT:      -9.3      0.755      1.523
REMARK SMILES CC(=O)n1nc2cc(-c3c[nH+]c(F)cc3C)ccc2c1C
REMARK SMILES IDX 4 1 5 2 6 3 7 4 8 5 17 6 18 7 19 8 20 9 21 10 2 11 1 12 3 13
REMARK SMILES IDX 9 14 10 15 15 16 11 17 14 18 12 19 16 20 13 22
REMARK H PARENT 11 21
ROOT
ATOM      1  N   UNL     1      46.249 130.524  15.133  1.00  0.00    -0.204 N 
ATOM      2  N   UNL     1      46.503 130.393  16.431  1.00  0.00    -0.165 NA
ATOM      3  C   UNL     1      45.413 130.823  17.089  1.00  0.00     0.094 A 
ATOM      4  C   UNL     1      45.220 130.875  18.466  1.00  0.00     0.040 A 
ATOM      5  C   UNL     1      43.984 131.365  18.944  1.00  0.00    -0.010 A 
ATOM      6  C   UNL     1      42.996 131.803  18.025  1.00  0.00     0.010 A 
ATOM      7  C   UNL     1      43.223 131.736  16.638  1.00  0.00     0.013 A 
ATOM      8  C   UNL     1      44.452 131.235  16.208  1.00  0.00     0.023 A 
ATOM      9  C   UNL     1      45.000 131.038  14.955  1.00  0.00     0.052 A 
ATOM     10  C   UNL     1      44.348 131.336  13.637  1.00  0.00     0.067 C 
ENDROOT
BRANCH   1  11
ATOM     11  C   UNL     1      47.202 130.159  14.117  1.00  0.00     0.243 C 
ATOM     12  C   UNL     1      47.584 131.142  13.054  1.00  0.00     0.117 C 
ATOM     13  O   UNL     1      47.727 129.013  14.107  1.00  0.00    -0.273 OA
ENDBRANCH   1  11
BRANCH   5  14
ATOM     14  C   UNL     1      43.729 131.454  20.400  1.00  0.00     0.049 A 
ATOM     15  C   UNL     1      42.602 132.162  20.850  1.00  0.00     0.317 A 
ATOM     16  C   UNL     1      44.578 130.847  21.356  1.00  0.00    -0.028 A 
ATOM     17  N   UNL     1      42.349 132.288  22.179  1.00  0.00    -0.186 N 
ATOM     18  C   UNL     1      44.295 131.015  22.720  1.00  0.00     0.118 A 
ATOM     19  C   UNL     1      43.170 131.739  23.113  1.00  0.00     0.358 A 
ATOM     20  C   UNL     1      45.784 130.040  20.955  1.00  0.00     0.045 C 
ATOM     21  H   UNL     1      41.509 132.825  22.489  1.00  0.00     0.456 HD
ATOM     22  F   UNL     1      42.893 131.891  24.432  1.00  0.00    -0.136 F 
ENDBRANCH   5  14
TORSDOF 2
ENDMDL
MODEL 6
REMARK VINA RESULT:      -7.4      4.058      7.610
REMARK SMILES CC(=O)n1nc2cc(-c3c[nH+]c(F)cc3C)ccc2c1C
REMARK SMILES IDX 4 1 5 2 6 3 7 4 8 5 17 6 18 7 19 8 20 9 21 10 2 11 1 12 3 13
REMARK SMILES IDX 9 14 10 15 15 16 11 17 14 18 12 19 16 20 13 22
REMARK H PARENT 11 21
ROOT
ATOM      1  N   UNL     1      42.721 132.146  20.884  1.00  0.00    -0.204 N 
ATOM      2  N   UNL     1      42.718 132.376  19.574  1.00  0.00    -0.165 NA
ATOM      3  C   UNL     1      43.809 131.774  19.069  1.00  0.00     0.094 A 
ATOM      4  C   UNL     1      44.223 131.747  17.741  1.00  0.00     0.040 A 
ATOM      5  C   UNL     1      45.410 131.048  17.430  1.00  0.00    -0.010 A 
ATOM      6  C   UNL     1      46.149 130.417  18.466  1.00  0.00     0.010 A 
ATOM      7  C   UNL     1      45.702 130.464  19.799  1.00  0.00     0.013 A 
ATOM      8  C   UNL     1      44.519 131.155  20.060  1.00  0.00     0.023 A 
ATOM      9  C   UNL     1      43.811 131.401  21.221  1.00  0.00     0.052 A 
ATOM     10  C   UNL     1      44.170 130.939  22.602  1.00  0.00     0.067 C 
ENDROOT
BRANCH   1  11
ATOM     11  C   UNL     1      41.692 132.645  21.759  1.00  0.00     0.243 C 
ATOM     12  C   UNL     1      41.664 132.234  23.198  1.00  0.00     0.117 C 
ATOM     13  O   UNL     1      40.807 133.432  21.330  1.00  0.00    -0.273 OA
ENDBRANCH   1  11
BRANCH   5  14
ATOM     14  C   UNL     1      45.904 130.996  16.035  1.00  0.00     0.049 A 
ATOM     15  C   UNL     1      46.517 132.135  15.489  1.00  0.00     0.317 A 
ATOM     16  C   UNL     1      45.785 129.836  15.232  1.00  0.00    -0.028 A 
ATOM     17  N   UNL     1      46.959 132.135  14.204  1.00  0.00    -0.186 N 
ATOM     18  C   UNL     1      46.236 129.879  13.905  1.00  0.00     0.118 A 
ATOM     19  C   UNL     1      46.825 131.042  13.408  1.00  0.00     0.358 A 
ATOM     20  C   UNL     1      45.176 128.562  15.755  1.00  0.00     0.045 C 
ATOM     21  H   UNL     1      47.405 132.997  13.818  1.00  0.00     0.456 HD
ATOM     22  F   UNL     1      47.269 131.078  12.127  1.00  0.00    -0.136 F 
ENDBRANCH   5  14
TORSDOF 2
ENDMDL


