MODEL 1
REMARK VINA RESULT:      -0.7      0.000      0.000
REMARK SMILES N#CC1(/C(O)=N/CCCS[C@H](C(=O)c2ccc(F)cc2)[C@H](O)c2ccc(Cl)c(F)c2)CC1
REMARK SMILES IDX 8 1 7 2 6 3 4 4 5 5 3 7 31 8 32 9 2 10 1 11 9 12 10 13 11 14
REMARK SMILES IDX 12 15 13 16 14 17 15 18 20 19 16 20 19 21 17 22 18 23 21 24
REMARK SMILES IDX 22 25 23 27 24 28 30 29 25 30 28 31 26 32 29 33 27 34
REMARK H PARENT 5 6 22 26
ROOT
ATOM      1  C   UNL     1      47.326 133.548  20.620  1.00  0.00     0.035 C 
ENDROOT
BRANCH   1   2
ATOM      2  C   UNL     1      46.871 134.527  21.714  1.00  0.00     0.147 C 
BRANCH   2   3
ATOM      3  N   UNL     1      47.684 134.393  22.921  1.00  0.00    -0.254 NA
BRANCH   3   4
ATOM      4  C   UNL     1      48.975 134.256  22.920  1.00  0.00     0.201 C 
BRANCH   4   5
ATOM      5  O   UNL     1      49.555 132.991  23.022  1.00  0.00    -0.495 OA
ATOM      6  H   UNL     1      49.557 132.486  23.900  1.00  0.00     0.295 HD
ENDBRANCH   4   5
BRANCH   4   7
ATOM      7  C   UNL     1      49.850 135.465  22.785  1.00  0.00     0.132 C 
ATOM      8  C   UNL     1      50.139 136.273  24.041  1.00  0.00     0.034 C 
ATOM      9  C   UNL     1      51.213 135.366  23.453  1.00  0.00     0.034 C 
BRANCH   7  10
ATOM     10  C   UNL     1      49.827 136.209  21.519  1.00  0.00     0.079 C 
ATOM     11  N   UNL     1      49.810 136.794  20.521  1.00  0.00    -0.197 NA
ENDBRANCH   7  10
ENDBRANCH   4   7
ENDBRANCH   3   4
ENDBRANCH   2   3
ENDBRANCH   1   2
BRANCH   1  12
ATOM     12  C   UNL     1      46.207 132.616  20.137  1.00  0.00     0.072 C 
BRANCH  12  13
ATOM     13  S   UNL     1      45.406 133.241  18.610  1.00  0.00    -0.147 SA
BRANCH  13  14
ATOM     14  C   UNL     1      44.580 131.672  18.127  1.00  0.00     0.151 C 
BRANCH  14  15
ATOM     15  C   UNL     1      44.378 131.623  16.625  1.00  0.00     0.178 C 
ATOM     16  O   UNL     1      43.223 131.827  16.158  1.00  0.00    -0.293 OA
BRANCH  15  17
ATOM     17  C   UNL     1      45.460 131.198  15.702  1.00  0.00     0.019 A 
ATOM     18  C   UNL     1      46.112 132.116  14.854  1.00  0.00     0.015 A 
ATOM     19  C   UNL     1      45.870 129.853  15.689  1.00  0.00     0.015 A 
ATOM     20  C   UNL     1      47.168 131.698  14.039  1.00  0.00     0.040 A 
ATOM     21  C   UNL     1      46.928 129.441  14.873  1.00  0.00     0.040 A 
ATOM     22  C   UNL     1      47.580 130.363  14.052  1.00  0.00     0.123 A 
ATOM     23  F   UNL     1      48.607 129.962  13.264  1.00  0.00    -0.207 F 
ENDBRANCH  15  17
ENDBRANCH  14  15
BRANCH  14  24
ATOM     24  C   UNL     1      43.224 131.531  18.856  1.00  0.00     0.165 C 
BRANCH  24  25
ATOM     25  O   UNL     1      42.549 132.764  18.867  1.00  0.00    -0.387 OA
ATOM     26  H   UNL     1      43.110 133.414  18.369  1.00  0.00     0.211 HD
ENDBRANCH  24  25
BRANCH  24  27
ATOM     27  C   UNL     1      43.432 131.081  20.287  1.00  0.00    -0.015 A 
ATOM     28  C   UNL     1      44.351 130.060  20.583  1.00  0.00     0.008 A 
ATOM     29  C   UNL     1      42.780 131.742  21.344  1.00  0.00     0.047 A 
ATOM     30  C   UNL     1      44.618 129.712  21.910  1.00  0.00     0.024 A 
ATOM     31  C   UNL     1      43.049 131.394  22.671  1.00  0.00     0.142 A 
ATOM     32  C   UNL     1      43.971 130.379  22.955  1.00  0.00     0.076 A 
ATOM     33  F   UNL     1      42.422 132.052  23.678  1.00  0.00    -0.205 F 
ATOM     34  Cl  UNL     1      44.330 129.947  24.618  1.00  0.00    -0.081 Cl
ENDBRANCH  24  27
ENDBRANCH  14  24
ENDBRANCH  13  14
ENDBRANCH  12  13
ENDBRANCH   1  12
TORSDOF 14
ENDMDL
MODEL 2
REMARK VINA RESULT:      -0.4      3.980      7.865
REMARK SMILES N#CC1(/C(O)=N/CCCS[C@H](C(=O)c2ccc(F)cc2)[C@H](O)c2ccc(Cl)c(F)c2)CC1
REMARK SMILES IDX 8 1 7 2 6 3 4 4 5 5 3 7 31 8 32 9 2 10 1 11 9 12 10 13 11 14
REMARK SMILES IDX 12 15 13 16 14 17 15 18 20 19 16 20 19 21 17 22 18 23 21 24
REMARK SMILES IDX 22 25 23 27 24 28 30 29 25 30 28 31 26 32 29 33 27 34
REMARK H PARENT 5 6 22 26
ROOT
ATOM      1  C   UNL     1      44.853 132.053  18.263  1.00  0.00     0.035 C 
ENDROOT
BRANCH   1   2
ATOM      2  C   UNL     1      43.720 131.123  17.798  1.00  0.00     0.147 C 
BRANCH   2   3
ATOM      3  N   UNL     1      44.232 130.032  16.972  1.00  0.00    -0.254 NA
BRANCH   3   4
ATOM      4  C   UNL     1      45.348 130.081  16.308  1.00  0.00     0.201 C 
BRANCH   4   5
ATOM      5  O   UNL     1      46.497 129.467  16.807  1.00  0.00    -0.495 OA
ATOM      6  H   UNL     1      47.134 129.967  17.415  1.00  0.00     0.295 HD
ENDBRANCH   4   5
BRANCH   4   7
ATOM      7  C   UNL     1      45.395 130.782  14.985  1.00  0.00     0.132 C 
ATOM      8  C   UNL     1      46.633 131.605  14.664  1.00  0.00     0.034 C 
ATOM      9  C   UNL     1      46.423 130.252  13.998  1.00  0.00     0.034 C 
BRANCH   7  10
ATOM     10  C   UNL     1      44.133 131.238  14.388  1.00  0.00     0.079 C 
ATOM     11  N   UNL     1      43.138 131.597  13.918  1.00  0.00    -0.197 NA
ENDBRANCH   7  10
ENDBRANCH   4   7
ENDBRANCH   3   4
ENDBRANCH   2   3
ENDBRANCH   1   2
BRANCH   1  12
ATOM     12  C   UNL     1      45.436 131.663  19.628  1.00  0.00     0.072 C 
BRANCH  12  13
ATOM     13  S   UNL     1      44.683 132.625  20.995  1.00  0.00    -0.147 SA
BRANCH  13  14
ATOM     14  C   UNL     1      45.174 131.500  22.362  1.00  0.00     0.151 C 
BRANCH  14  15
ATOM     15  C   UNL     1      44.150 130.394  22.530  1.00  0.00     0.178 C 
ATOM     16  O   UNL     1      42.923 130.686  22.480  1.00  0.00    -0.293 OA
BRANCH  15  17
ATOM     17  C   UNL     1      44.543 129.010  22.897  1.00  0.00     0.019 A 
ATOM     18  C   UNL     1      44.074 128.397  24.076  1.00  0.00     0.015 A 
ATOM     19  C   UNL     1      45.380 128.278  22.037  1.00  0.00     0.015 A 
ATOM     20  C   UNL     1      44.414 127.072  24.366  1.00  0.00     0.040 A 
ATOM     21  C   UNL     1      45.715 126.952  22.332  1.00  0.00     0.040 A 
ATOM     22  C   UNL     1      45.229 126.348  23.493  1.00  0.00     0.123 A 
ATOM     23  F   UNL     1      45.551 125.062  23.775  1.00  0.00    -0.207 F 
ENDBRANCH  15  17
ENDBRANCH  14  15
BRANCH  14  24
ATOM     24  C   UNL     1      45.328 132.292  23.682  1.00  0.00     0.165 C 
BRANCH  24  25
ATOM     25  O   UNL     1      44.189 133.085  23.907  1.00  0.00    -0.387 OA
ATOM     26  H   UNL     1      44.425 133.750  24.605  1.00  0.00     0.211 HD
ENDBRANCH  24  25
BRANCH  24  27
ATOM     27  C   UNL     1      46.543 133.195  23.623  1.00  0.00    -0.015 A 
ATOM     28  C   UNL     1      47.543 133.102  24.606  1.00  0.00     0.008 A 
ATOM     29  C   UNL     1      46.730 134.067  22.535  1.00  0.00     0.047 A 
ATOM     30  C   UNL     1      48.711 133.863  24.498  1.00  0.00     0.024 A 
ATOM     31  C   UNL     1      47.899 134.826  22.429  1.00  0.00     0.142 A 
ATOM     32  C   UNL     1      48.893 134.722  23.410  1.00  0.00     0.076 A 
ATOM     33  F   UNL     1      48.069 135.651  21.366  1.00  0.00    -0.205 F 
ATOM     34  Cl  UNL     1      50.372 135.656  23.277  1.00  0.00    -0.081 Cl
ENDBRANCH  24  27
ENDBRANCH  14  24
ENDBRANCH  13  14
ENDBRANCH  12  13
ENDBRANCH   1  12
TORSDOF 14
ENDMDL
MODEL 3
REMARK VINA RESULT:      -0.1      3.555      4.449
REMARK SMILES N#CC1(/C(O)=N/CCCS[C@H](C(=O)c2ccc(F)cc2)[C@H](O)c2ccc(Cl)c(F)c2)CC1
REMARK SMILES IDX 8 1 7 2 6 3 4 4 5 5 3 7 31 8 32 9 2 10 1 11 9 12 10 13 11 14
REMARK SMILES IDX 12 15 13 16 14 17 15 18 20 19 16 20 19 21 17 22 18 23 21 24
REMARK SMILES IDX 22 25 23 27 24 28 30 29 25 30 28 31 26 32 29 33 27 34
REMARK H PARENT 5 6 22 26
ROOT
ATOM      1  C   UNL     1      48.491 134.359  22.520  1.00  0.00     0.035 C 
ENDROOT
BRANCH   1   2
ATOM      2  C   UNL     1      49.814 134.192  23.285  1.00  0.00     0.147 C 
BRANCH   2   3
ATOM      3  N   UNL     1      50.954 134.616  22.476  1.00  0.00    -0.254 NA
BRANCH   3   4
ATOM      4  C   UNL     1      51.858 135.459  22.873  1.00  0.00     0.201 C 
BRANCH   4   5
ATOM      5  O   UNL     1      53.194 135.071  22.975  1.00  0.00    -0.495 OA
ATOM      6  H   UNL     1      53.681 135.102  23.863  1.00  0.00     0.295 HD
ENDBRANCH   4   5
BRANCH   4   7
ATOM      7  C   UNL     1      51.467 136.867  23.203  1.00  0.00     0.132 C 
ATOM      8  C   UNL     1      51.011 137.161  24.625  1.00  0.00     0.034 C 
ATOM      9  C   UNL     1      52.394 137.599  24.161  1.00  0.00     0.034 C 
BRANCH   7  10
ATOM     10  C   UNL     1      50.881 137.698  22.143  1.00  0.00     0.079 C 
ATOM     11  N   UNL     1      50.419 138.353  21.308  1.00  0.00    -0.197 NA
ENDBRANCH   7  10
ENDBRANCH   4   7
ENDBRANCH   3   4
ENDBRANCH   2   3
ENDBRANCH   1   2
BRANCH   1  12
ATOM     12  C   UNL     1      47.714 133.046  22.358  1.00  0.00     0.072 C 
BRANCH  12  13
ATOM     13  S   UNL     1      46.008 133.172  23.018  1.00  0.00    -0.147 SA
BRANCH  13  14
ATOM     14  C   UNL     1      45.392 131.569  22.363  1.00  0.00     0.151 C 
BRANCH  14  15
ATOM     15  C   UNL     1      45.491 131.544  20.850  1.00  0.00     0.178 C 
ATOM     16  O   UNL     1      46.629 131.428  20.316  1.00  0.00    -0.293 OA
BRANCH  15  17
ATOM     17  C   UNL     1      44.314 131.800  19.983  1.00  0.00     0.019 A 
ATOM     18  C   UNL     1      43.300 132.703  20.361  1.00  0.00     0.015 A 
ATOM     19  C   UNL     1      44.216 131.152  18.739  1.00  0.00     0.015 A 
ATOM     20  C   UNL     1      42.234 132.970  19.498  1.00  0.00     0.040 A 
ATOM     21  C   UNL     1      43.148 131.424  17.879  1.00  0.00     0.040 A 
ATOM     22  C   UNL     1      42.160 132.335  18.256  1.00  0.00     0.123 A 
ATOM     23  F   UNL     1      41.126 132.600  17.419  1.00  0.00    -0.207 F 
ENDBRANCH  15  17
ENDBRANCH  14  15
BRANCH  14  24
ATOM     24  C   UNL     1      43.929 131.333  22.808  1.00  0.00     0.165 C 
BRANCH  24  25
ATOM     25  O   UNL     1      43.599 132.196  23.868  1.00  0.00    -0.387 OA
ATOM     26  H   UNL     1      44.259 132.041  24.593  1.00  0.00     0.211 HD
ENDBRANCH  24  25
BRANCH  24  27
ATOM     27  C   UNL     1      43.737 129.904  23.271  1.00  0.00    -0.015 A 
ATOM     28  C   UNL     1      42.493 129.269  23.114  1.00  0.00     0.008 A 
ATOM     29  C   UNL     1      44.824 129.166  23.774  1.00  0.00     0.047 A 
ATOM     30  C   UNL     1      42.341 127.920  23.447  1.00  0.00     0.024 A 
ATOM     31  C   UNL     1      44.670 127.816  24.106  1.00  0.00     0.142 A 
ATOM     32  C   UNL     1      43.428 127.191  23.940  1.00  0.00     0.076 A 
ATOM     33  F   UNL     1      45.732 127.116  24.576  1.00  0.00    -0.205 F 
ATOM     34  Cl  UNL     1      43.229 125.493  24.336  1.00  0.00    -0.081 Cl
ENDBRANCH  24  27
ENDBRANCH  14  24
ENDBRANCH  13  14
ENDBRANCH  12  13
ENDBRANCH   1  12
TORSDOF 14
ENDMDL
MODEL 4
REMARK VINA RESULT:       0.2      1.567      2.154
REMARK SMILES N#CC1(/C(O)=N/CCCS[C@H](C(=O)c2ccc(F)cc2)[C@H](O)c2ccc(Cl)c(F)c2)CC1
REMARK SMILES IDX 8 1 7 2 6 3 4 4 5 5 3 7 31 8 32 9 2 10 1 11 9 12 10 13 11 14
REMARK SMILES IDX 12 15 13 16 14 17 15 18 20 19 16 20 19 21 17 22 18 23 21 24
REMARK SMILES IDX 22 25 23 27 24 28 30 29 25 30 28 31 26 32 29 33 27 34
REMARK H PARENT 5 6 22 26
ROOT
ATOM      1  C   UNL     1      46.872 132.788  20.548  1.00  0.00     0.035 C 
ENDROOT
BRANCH   1   2
ATOM      2  C   UNL     1      47.230 133.402  21.912  1.00  0.00     0.147 C 
BRANCH   2   3
ATOM      3  N   UNL     1      48.591 133.933  21.915  1.00  0.00    -0.254 NA
BRANCH   3   4
ATOM      4  C   UNL     1      49.049 134.762  22.804  1.00  0.00     0.201 C 
BRANCH   4   5
ATOM      5  O   UNL     1      48.511 134.792  24.091  1.00  0.00    -0.495 OA
ATOM      6  H   UNL     1      47.902 135.546  24.385  1.00  0.00     0.295 HD
ENDBRANCH   4   5
BRANCH   4   7
ATOM      7  C   UNL     1      50.181 135.679  22.451  1.00  0.00     0.132 C 
ATOM      8  C   UNL     1      50.439 135.949  20.977  1.00  0.00     0.034 C 
ATOM      9  C   UNL     1      49.778 137.013  21.843  1.00  0.00     0.034 C 
BRANCH   7  10
ATOM     10  C   UNL     1      51.349 135.724  23.340  1.00  0.00     0.079 C 
ATOM     11  N   UNL     1      52.270 135.760  24.040  1.00  0.00    -0.197 NA
ENDBRANCH   7  10
ENDBRANCH   4   7
ENDBRANCH   3   4
ENDBRANCH   2   3
ENDBRANCH   1   2
BRANCH   1  12
ATOM     12  C   UNL     1      45.477 132.149  20.519  1.00  0.00     0.072 C 
BRANCH  12  13
ATOM     13  S   UNL     1      45.533 130.407  19.951  1.00  0.00    -0.147 SA
BRANCH  13  14
ATOM     14  C   UNL     1      44.608 130.649  18.382  1.00  0.00     0.151 C 
BRANCH  14  15
ATOM     15  C   UNL     1      45.353 131.607  17.472  1.00  0.00     0.178 C 
ATOM     16  O   UNL     1      45.264 132.847  17.688  1.00  0.00    -0.293 OA
BRANCH  15  17
ATOM     17  C   UNL     1      46.060 131.139  16.253  1.00  0.00     0.019 A 
ATOM     18  C   UNL     1      46.776 129.926  16.234  1.00  0.00     0.015 A 
ATOM     19  C   UNL     1      45.991 131.906  15.077  1.00  0.00     0.015 A 
ATOM     20  C   UNL     1      47.381 129.481  15.055  1.00  0.00     0.040 A 
ATOM     21  C   UNL     1      46.597 131.455  13.900  1.00  0.00     0.040 A 
ATOM     22  C   UNL     1      47.288 130.242  13.887  1.00  0.00     0.123 A 
ATOM     23  F   UNL     1      47.871 129.806  12.743  1.00  0.00    -0.207 F 
ENDBRANCH  15  17
ENDBRANCH  14  15
BRANCH  14  24
ATOM     24  C   UNL     1      43.186 131.184  18.673  1.00  0.00     0.165 C 
BRANCH  24  25
ATOM     25  O   UNL     1      42.990 132.417  18.027  1.00  0.00    -0.387 OA
ATOM     26  H   UNL     1      42.349 132.264  17.284  1.00  0.00     0.211 HD
ENDBRANCH  24  25
BRANCH  24  27
ATOM     27  C   UNL     1      42.985 131.381  20.161  1.00  0.00    -0.015 A 
ATOM     28  C   UNL     1      42.345 132.535  20.644  1.00  0.00     0.008 A 
ATOM     29  C   UNL     1      43.349 130.369  21.069  1.00  0.00     0.047 A 
ATOM     30  C   UNL     1      42.069 132.672  22.007  1.00  0.00     0.024 A 
ATOM     31  C   UNL     1      43.071 130.508  22.432  1.00  0.00     0.142 A 
ATOM     32  C   UNL     1      42.427 131.659  22.903  1.00  0.00     0.076 A 
ATOM     33  F   UNL     1      43.416 129.516  23.291  1.00  0.00    -0.205 F 
ATOM     34  Cl  UNL     1      42.057 131.834  24.609  1.00  0.00    -0.081 Cl
ENDBRANCH  24  27
ENDBRANCH  14  24
ENDBRANCH  13  14
ENDBRANCH  12  13
ENDBRANCH   1  12
TORSDOF 14
ENDMDL
MODEL 5
REMARK VINA RESULT:       0.3      3.117      6.327
REMARK SMILES N#CC1(/C(O)=N/CCCS[C@H](C(=O)c2ccc(F)cc2)[C@H](O)c2ccc(Cl)c(F)c2)CC1
REMARK SMILES IDX 8 1 7 2 6 3 4 4 5 5 3 7 31 8 32 9 2 10 1 11 9 12 10 13 11 14
REMARK SMILES IDX 12 15 13 16 14 17 15 18 20 19 16 20 19 21 17 22 18 23 21 24
REMARK SMILES IDX 22 25 23 27 24 28 30 29 25 30 28 31 26 32 29 33 27 34
REMARK H PARENT 5 6 22 26
ROOT
ATOM      1  C   UNL     1      46.958 134.712  20.868  1.00  0.00     0.035 C 
ENDROOT
BRANCH   1   2
ATOM      2  C   UNL     1      48.289 135.446  21.100  1.00  0.00     0.147 C 
BRANCH   2   3
ATOM      3  N   UNL     1      49.019 134.879  22.232  1.00  0.00    -0.254 NA
BRANCH   3   4
ATOM      4  C   UNL     1      50.128 135.364  22.702  1.00  0.00     0.201 C 
BRANCH   4   5
ATOM      5  O   UNL     1      50.443 136.712  22.528  1.00  0.00    -0.495 OA
ATOM      6  H   UNL     1      49.744 137.376  22.218  1.00  0.00     0.295 HD
ENDBRANCH   4   5
BRANCH   4   7
ATOM      7  C   UNL     1      51.067 134.473  23.457  1.00  0.00     0.132 C 
ATOM      8  C   UNL     1      52.533 134.482  23.050  1.00  0.00     0.034 C 
ATOM      9  C   UNL     1      52.092 135.187  24.326  1.00  0.00     0.034 C 
BRANCH   7  10
ATOM     10  C   UNL     1      50.548 133.215  24.008  1.00  0.00     0.079 C 
ATOM     11  N   UNL     1      50.139 132.223  24.442  1.00  0.00    -0.197 NA
ENDBRANCH   7  10
ENDBRANCH   4   7
ENDBRANCH   3   4
ENDBRANCH   2   3
ENDBRANCH   1   2
BRANCH   1  12
ATOM     12  C   UNL     1      46.752 133.518  21.809  1.00  0.00     0.072 C 
BRANCH  12  13
ATOM     13  S   UNL     1      47.141 131.924  20.991  1.00  0.00    -0.147 SA
BRANCH  13  14
ATOM     14  C   UNL     1      45.413 131.447  20.588  1.00  0.00     0.151 C 
BRANCH  14  15
ATOM     15  C   UNL     1      44.613 131.238  21.859  1.00  0.00     0.178 C 
ATOM     16  O   UNL     1      44.991 130.358  22.680  1.00  0.00    -0.293 OA
BRANCH  15  17
ATOM     17  C   UNL     1      43.321 131.931  22.094  1.00  0.00     0.019 A 
ATOM     18  C   UNL     1      42.566 132.467  21.031  1.00  0.00     0.015 A 
ATOM     19  C   UNL     1      42.818 132.032  23.402  1.00  0.00     0.015 A 
ATOM     20  C   UNL     1      41.324 133.061  21.276  1.00  0.00     0.040 A 
ATOM     21  C   UNL     1      41.574 132.625  23.641  1.00  0.00     0.040 A 
ATOM     22  C   UNL     1      40.826 133.136  22.579  1.00  0.00     0.123 A 
ATOM     23  F   UNL     1      39.619 133.708  22.812  1.00  0.00    -0.207 F 
ENDBRANCH  15  17
ENDBRANCH  14  15
BRANCH  14  24
ATOM     24  C   UNL     1      45.397 130.162  19.727  1.00  0.00     0.165 C 
BRANCH  24  25
ATOM     25  O   UNL     1      46.448 129.310  20.107  1.00  0.00    -0.387 OA
ATOM     26  H   UNL     1      47.183 129.436  19.453  1.00  0.00     0.211 HD
ENDBRANCH  24  25
BRANCH  24  27
ATOM     27  C   UNL     1      45.556 130.501  18.259  1.00  0.00    -0.015 A 
ATOM     28  C   UNL     1      46.602 129.936  17.510  1.00  0.00     0.008 A 
ATOM     29  C   UNL     1      44.606 131.308  17.608  1.00  0.00     0.047 A 
ATOM     30  C   UNL     1      46.692 130.168  16.135  1.00  0.00     0.024 A 
ATOM     31  C   UNL     1      44.697 131.539  16.232  1.00  0.00     0.142 A 
ATOM     32  C   UNL     1      45.739 130.966  15.493  1.00  0.00     0.076 A 
ATOM     33  F   UNL     1      43.763 132.308  15.617  1.00  0.00    -0.205 F 
ATOM     34  Cl  UNL     1      45.851 131.233  13.762  1.00  0.00    -0.081 Cl
ENDBRANCH  24  27
ENDBRANCH  14  24
ENDBRANCH  13  14
ENDBRANCH  12  13
ENDBRANCH   1  12
TORSDOF 14
ENDMDL
MODEL 6
REMARK VINA RESULT:       1.4      3.459      7.447
REMARK SMILES N#CC1(/C(O)=N/CCCS[C@H](C(=O)c2ccc(F)cc2)[C@H](O)c2ccc(Cl)c(F)c2)CC1
REMARK SMILES IDX 8 1 7 2 6 3 4 4 5 5 3 7 31 8 32 9 2 10 1 11 9 12 10 13 11 14
REMARK SMILES IDX 12 15 13 16 14 17 15 18 20 19 16 20 19 21 17 22 18 23 21 24
REMARK SMILES IDX 22 25 23 27 24 28 30 29 25 30 28 31 26 32 29 33 27 34
REMARK H PARENT 5 6 22 26
ROOT
ATOM      1  C   UNL     1      45.216 131.939  18.121  1.00  0.00     0.035 C 
ENDROOT
BRANCH   1   2
ATOM      2  C   UNL     1      44.210 132.325  17.024  1.00  0.00     0.147 C 
BRANCH   2   3
ATOM      3  N   UNL     1      43.893 131.185  16.168  1.00  0.00    -0.254 NA
BRANCH   3   4
ATOM      4  C   UNL     1      44.424 130.979  15.000  1.00  0.00     0.201 C 
BRANCH   4   5
ATOM      5  O   UNL     1      43.722 131.293  13.836  1.00  0.00    -0.495 OA
ATOM      6  H   UNL     1      42.710 131.261  13.811  1.00  0.00     0.295 HD
ENDBRANCH   4   5
BRANCH   4   7
ATOM      7  C   UNL     1      45.810 130.420  14.903  1.00  0.00     0.132 C 
ATOM      8  C   UNL     1      46.403 129.777  16.148  1.00  0.00     0.034 C 
ATOM      9  C   UNL     1      45.915 128.905  14.998  1.00  0.00     0.034 C 
BRANCH   7  10
ATOM     10  C   UNL     1      46.759 131.055  13.979  1.00  0.00     0.079 C 
ATOM     11  N   UNL     1      47.506 131.556  13.251  1.00  0.00    -0.197 NA
ENDBRANCH   7  10
ENDBRANCH   4   7
ENDBRANCH   3   4
ENDBRANCH   2   3
ENDBRANCH   1   2
BRANCH   1  12
ATOM     12  C   UNL     1      44.873 132.532  19.494  1.00  0.00     0.072 C 
BRANCH  12  13
ATOM     13  S   UNL     1      45.708 131.635  20.857  1.00  0.00    -0.147 SA
BRANCH  13  14
ATOM     14  C   UNL     1      45.463 132.912  22.155  1.00  0.00     0.151 C 
BRANCH  14  15
ATOM     15  C   UNL     1      46.748 133.132  22.929  1.00  0.00     0.178 C 
ATOM     16  O   UNL     1      46.920 132.513  24.016  1.00  0.00    -0.293 OA
BRANCH  15  17
ATOM     17  C   UNL     1      47.739 134.160  22.525  1.00  0.00     0.019 A 
ATOM     18  C   UNL     1      48.940 134.350  23.238  1.00  0.00     0.015 A 
ATOM     19  C   UNL     1      47.494 134.949  21.387  1.00  0.00     0.015 A 
ATOM     20  C   UNL     1      49.882 135.285  22.800  1.00  0.00     0.040 A 
ATOM     21  C   UNL     1      48.441 135.881  20.952  1.00  0.00     0.040 A 
ATOM     22  C   UNL     1      49.636 136.047  21.655  1.00  0.00     0.123 A 
ATOM     23  F   UNL     1      50.554 136.949  21.229  1.00  0.00    -0.207 F 
ENDBRANCH  15  17
ENDBRANCH  14  15
BRANCH  14  24
ATOM     24  C   UNL     1      44.325 132.492  23.114  1.00  0.00     0.165 C 
BRANCH  24  25
ATOM     25  O   UNL     1      44.480 133.126  24.359  1.00  0.00    -0.387 OA
ATOM     26  H   UNL     1      43.697 132.880  24.917  1.00  0.00     0.211 HD
ENDBRANCH  24  25
BRANCH  24  27
ATOM     27  C   UNL     1      44.336 130.992  23.331  1.00  0.00    -0.015 A 
ATOM     28  C   UNL     1      43.734 130.436  24.472  1.00  0.00     0.008 A 
ATOM     29  C   UNL     1      44.865 130.135  22.348  1.00  0.00     0.047 A 
ATOM     30  C   UNL     1      43.655 129.049  24.624  1.00  0.00     0.024 A 
ATOM     31  C   UNL     1      44.784 128.748  22.502  1.00  0.00     0.142 A 
ATOM     32  C   UNL     1      44.176 128.203  23.640  1.00  0.00     0.076 A 
ATOM     33  F   UNL     1      45.286 127.936  21.538  1.00  0.00    -0.205 F 
ATOM     34  Cl  UNL     1      44.053 126.463  23.834  1.00  0.00    -0.081 Cl
ENDBRANCH  24  27
ENDBRANCH  14  24
ENDBRANCH  13  14
ENDBRANCH  12  13
ENDBRANCH   1  12
TORSDOF 14
ENDMDL
MODEL 7
REMARK VINA RESULT:       1.7      2.927      6.579
REMARK SMILES N#CC1(/C(O)=N/CCCS[C@H](C(=O)c2ccc(F)cc2)[C@H](O)c2ccc(Cl)c(F)c2)CC1
REMARK SMILES IDX 8 1 7 2 6 3 4 4 5 5 3 7 31 8 32 9 2 10 1 11 9 12 10 13 11 14
REMARK SMILES IDX 12 15 13 16 14 17 15 18 20 19 16 20 19 21 17 22 18 23 21 24
REMARK SMILES IDX 22 25 23 27 24 28 30 29 25 30 28 31 26 32 29 33 27 34
REMARK H PARENT 5 6 22 26
ROOT
ATOM      1  C   UNL     1      47.036 132.503  20.806  1.00  0.00     0.035 C 
ENDROOT
BRANCH   1   2
ATOM      2  C   UNL     1      47.896 133.228  21.854  1.00  0.00     0.147 C 
BRANCH   2   3
ATOM      3  N   UNL     1      48.622 134.350  21.263  1.00  0.00    -0.254 NA
BRANCH   3   4
ATOM      4  C   UNL     1      48.232 135.587  21.327  1.00  0.00     0.201 C 
BRANCH   4   5
ATOM      5  O   UNL     1      47.010 135.917  21.914  1.00  0.00    -0.495 OA
ATOM      6  H   UNL     1      46.956 136.190  22.888  1.00  0.00     0.295 HD
ENDBRANCH   4   5
BRANCH   4   7
ATOM      7  C   UNL     1      49.112 136.672  20.784  1.00  0.00     0.132 C 
ATOM      8  C   UNL     1      50.384 137.001  21.551  1.00  0.00     0.034 C 
ATOM      9  C   UNL     1      50.460 136.216  20.248  1.00  0.00     0.034 C 
BRANCH   7  10
ATOM     10  C   UNL     1      48.487 137.778  20.047  1.00  0.00     0.079 C 
ATOM     11  N   UNL     1      47.994 138.649  19.466  1.00  0.00    -0.197 NA
ENDBRANCH   7  10
ENDBRANCH   4   7
ENDBRANCH   3   4
ENDBRANCH   2   3
ENDBRANCH   1   2
BRANCH   1  12
ATOM     12  C   UNL     1      45.548 132.869  20.886  1.00  0.00     0.072 C 
BRANCH  12  13
ATOM     13  S   UNL     1      44.695 132.624  19.282  1.00  0.00    -0.147 SA
BRANCH  13  14
ATOM     14  C   UNL     1      44.583 130.792  19.360  1.00  0.00     0.151 C 
BRANCH  14  15
ATOM     15  C   UNL     1      44.387 130.336  20.794  1.00  0.00     0.178 C 
ATOM     16  O   UNL     1      44.796 129.190  21.131  1.00  0.00    -0.293 OA
BRANCH  15  17
ATOM     17  C   UNL     1      43.601 131.133  21.769  1.00  0.00     0.019 A 
ATOM     18  C   UNL     1      42.361 131.707  21.425  1.00  0.00     0.015 A 
ATOM     19  C   UNL     1      44.086 131.297  23.079  1.00  0.00     0.015 A 
ATOM     20  C   UNL     1      41.615 132.402  22.381  1.00  0.00     0.040 A 
ATOM     21  C   UNL     1      43.334 131.991  24.032  1.00  0.00     0.040 A 
ATOM     22  C   UNL     1      42.098 132.540  23.685  1.00  0.00     0.123 A 
ATOM     23  F   UNL     1      41.369 133.210  24.611  1.00  0.00    -0.207 F 
ENDBRANCH  15  17
ENDBRANCH  14  15
BRANCH  14  24
ATOM     24  C   UNL     1      45.855 130.149  18.762  1.00  0.00     0.165 C 
BRANCH  24  25
ATOM     25  O   UNL     1      47.004 130.722  19.335  1.00  0.00    -0.387 OA
ATOM     26  H   UNL     1      47.790 130.237  18.972  1.00  0.00     0.211 HD
ENDBRANCH  24  25
BRANCH  24  27
ATOM     27  C   UNL     1      45.905 130.361  17.263  1.00  0.00    -0.015 A 
ATOM     28  C   UNL     1      45.117 131.357  16.661  1.00  0.00     0.008 A 
ATOM     29  C   UNL     1      46.809 129.630  16.470  1.00  0.00     0.047 A 
ATOM     30  C   UNL     1      45.236 131.621  15.294  1.00  0.00     0.024 A 
ATOM     31  C   UNL     1      46.927 129.896  15.103  1.00  0.00     0.142 A 
ATOM     32  C   UNL     1      46.141 130.895  14.513  1.00  0.00     0.076 A 
ATOM     33  F   UNL     1      47.813 129.192  14.356  1.00  0.00    -0.205 F 
ATOM     34  Cl  UNL     1      46.295 131.250  12.802  1.00  0.00    -0.081 Cl
ENDBRANCH  24  27
ENDBRANCH  14  24
ENDBRANCH  13  14
ENDBRANCH  12  13
ENDBRANCH   1  12
TORSDOF 14
ENDMDL


