REMARK SMILES C[C@@H](CC(=O)[O-])/N=C(/O)N(N)c1ccc2cc3ccccc3cc2c1
REMARK SMILES IDX 7 1 8 2 9 3 10 5 12 6 13 7 25 8 14 9 24 10 15 11 23 12 16 13
REMARK SMILES IDX 22 14 17 15 21 16 18 17 20 18 19 19 11 20 2 23 1 24 3 25
REMARK SMILES IDX 4 26 5 27 6 28
REMARK H PARENT 9 4 11 21 11 22
ROOT
ATOM      1  N   UNL     1       1.326  -1.613   2.425  1.00  0.00    -0.231 NA
ENDROOT
BRANCH   1   2
ATOM      2  C   UNL     1       2.306  -0.839   2.059  1.00  0.00     0.304 C 
BRANCH   2   3
ATOM      3  O   UNL     1       2.926  -0.046   3.020  1.00  0.00    -0.480 OA
ATOM      4  H   UNL     1       3.677   0.586   2.772  1.00  0.00     0.297 HD
ENDBRANCH   2   3
BRANCH   2   5
ATOM      5  N   UNL     1       2.763  -0.788   0.693  1.00  0.00    -0.232 N 
BRANCH   5   6
ATOM      6  C   UNL     1       1.944  -0.215  -0.351  1.00  0.00     0.063 A 
ATOM      7  C   UNL     1       2.251  -0.465  -1.700  1.00  0.00     0.028 A 
ATOM      8  C   UNL     1       0.823   0.583  -0.045  1.00  0.00     0.036 A 
ATOM      9  C   UNL     1       1.455   0.058  -2.723  1.00  0.00     0.011 A 
ATOM     10  C   UNL     1       0.014   1.105  -1.065  1.00  0.00    -0.016 A 
ATOM     11  C   UNL     1       0.334   0.840  -2.417  1.00  0.00    -0.018 A 
ATOM     12  C   UNL     1      -1.111   1.883  -0.753  1.00  0.00     0.017 A 
ATOM     13  C   UNL     1      -0.474   1.359  -3.441  1.00  0.00     0.017 A 
ATOM     14  C   UNL     1      -1.919   2.400  -1.775  1.00  0.00    -0.018 A 
ATOM     15  C   UNL     1      -1.598   2.137  -3.129  1.00  0.00    -0.018 A 
ATOM     16  C   UNL     1      -3.047   3.179  -1.468  1.00  0.00     0.009 A 
ATOM     17  C   UNL     1      -2.411   2.657  -4.149  1.00  0.00     0.009 A 
ATOM     18  C   UNL     1      -3.847   3.690  -2.494  1.00  0.00     0.001 A 
ATOM     19  C   UNL     1      -3.530   3.430  -3.829  1.00  0.00     0.001 A 
ENDBRANCH   5   6
BRANCH   5  20
ATOM     20  N   UNL     1       4.106  -1.099   0.415  1.00  0.00    -0.239 NA
ATOM     21  H   UNL     1       4.691  -0.294   0.734  1.00  0.00     0.144 HD
ATOM     22  H   UNL     1       4.376  -1.934   0.983  1.00  0.00     0.144 HD
ENDBRANCH   5  20
ENDBRANCH   2   5
ENDBRANCH   1   2
BRANCH   1  23
ATOM     23  C   UNL     1       0.604  -2.562   1.570  1.00  0.00     0.113 C 
ATOM     24  C   UNL     1       1.430  -3.840   1.402  1.00  0.00     0.034 C 
BRANCH  23  25
ATOM     25  C   UNL     1      -0.758  -2.882   2.202  1.00  0.00     0.079 C 
BRANCH  25  26
ATOM     26  C   UNL     1      -1.624  -1.660   2.255  1.00  0.00     0.044 C 
ATOM     27  O   UNL     1      -2.265  -1.294   1.235  1.00  0.00    -0.550 OA
ATOM     28  O   UNL     1      -1.682  -0.898   3.414  1.00  0.00    -0.550 OA
ENDBRANCH  25  26
ENDBRANCH  23  25
ENDBRANCH   1  23
TORSDOF 8


