REMARK SMILES C=Cc1ccc(-c2ccc([NH2+]c3ccc(O)cc3F)c3ccoc23)[nH+]c1
REMARK SMILES IDX 7 1 8 2 9 3 10 4 20 5 21 6 22 7 23 8 24 9 6 10 3 11 4 12
REMARK SMILES IDX 26 13 5 14 25 15 2 17 1 18 11 19 12 22 13 23 18 24 14 25
REMARK SMILES IDX 17 26 15 27 19 28 16 29
REMARK H PARENT 25 16 11 20 11 21 16 30
ROOT
ATOM      1  C   UNL     1      -0.502  -1.192   0.840  1.00  0.00     0.090 A 
ATOM      2  C   UNL     1      -0.613  -0.005   1.597  1.00  0.00     0.025 A 
ATOM      3  C   UNL     1       0.407   0.968   1.570  1.00  0.00     0.070 A 
ATOM      4  C   UNL     1       1.565   0.783   0.783  1.00  0.00     0.145 A 
ATOM      5  C   UNL     1       1.648  -0.404   0.038  1.00  0.00     0.082 A 
ATOM      6  C   UNL     1       2.619  -0.880  -0.818  1.00  0.00     0.057 A 
ATOM      7  C   UNL     1       2.134  -2.101  -1.266  1.00  0.00     0.196 A 
ATOM      8  O   UNL     1       0.959  -2.354  -0.722  1.00  0.00    -0.463 OA
ATOM      9  C   UNL     1       0.655  -1.351   0.066  1.00  0.00     0.153 A 
ENDROOT
BRANCH   1  10
ATOM     10  C   UNL     1      -1.567  -2.223   0.865  1.00  0.00     0.214 A 
ATOM     11  C   UNL     1      -3.562  -4.185   0.911  1.00  0.00     0.038 A 
ATOM     12  C   UNL     1      -3.911  -2.825   0.841  1.00  0.00     0.021 A 
ATOM     13  C   UNL     1      -2.200  -4.519   0.944  1.00  0.00     0.314 A 
ATOM     14  C   UNL     1      -2.917  -1.846   0.823  1.00  0.00     0.081 A 
ATOM     15  N   UNL     1      -1.246  -3.549   0.925  1.00  0.00    -0.210 N 
ATOM     16  H   UNL     1      -0.245  -3.845   0.983  1.00  0.00     0.453 HD
BRANCH  11  17
ATOM     17  C   UNL     1      -4.567  -5.277   0.926  1.00  0.00     0.006 C 
ATOM     18  C   UNL     1      -5.863  -5.103   1.185  1.00  0.00     0.009 C 
ENDBRANCH  11  17
ENDBRANCH   1  10
BRANCH   4  19
ATOM     19  N   UNL     1       2.590   1.798   0.726  1.00  0.00    -0.278 N 
ATOM     20  H   UNL     1       2.742   2.191   1.684  1.00  0.00     0.358 HD
ATOM     21  H   UNL     1       3.505   1.387   0.429  1.00  0.00     0.358 HD
BRANCH  19  22
ATOM     22  C   UNL     1       2.199   2.838  -0.196  1.00  0.00     0.171 A 
ATOM     23  C   UNL     1       2.420   2.679  -1.576  1.00  0.00     0.075 A 
ATOM     24  C   UNL     1       1.563   4.011   0.262  1.00  0.00     0.187 A 
ATOM     25  C   UNL     1       2.019   3.668  -2.478  1.00  0.00     0.052 A 
ATOM     26  C   UNL     1       1.165   4.997  -0.646  1.00  0.00     0.091 A 
ATOM     27  C   UNL     1       1.390   4.830  -2.015  1.00  0.00     0.118 A 
ATOM     28  F   UNL     1       1.334   4.204   1.586  1.00  0.00    -0.200 F 
BRANCH  27  29
ATOM     29  O   UNL     1       0.986   5.822  -2.905  1.00  0.00    -0.508 OA
ATOM     30  H   UNL     1       1.135   5.731  -3.903  1.00  0.00     0.293 HD
ENDBRANCH  27  29
ENDBRANCH  19  22
ENDBRANCH   4  19
TORSDOF 5


