MODEL 1
REMARK VINA RESULT:     -10.1      0.000      0.000
REMARK SMILES Cc1cc(N)c(O)c(-n2[nH+]c3ccccc3[nH+]2)c1F
REMARK SMILES IDX 1 1 2 2 3 3 4 4 6 5 8 6 18 7 19 8 5 9 9 12 10 13 17 14 11 15
REMARK SMILES IDX 16 16 12 17 15 18 13 19 14 20 7 23
REMARK H PARENT 5 10 5 11 10 21 17 22 7 24
ROOT
ATOM      1  C   UNL     1      45.041 130.815  21.780  1.00  0.00     0.048 C 
ATOM      2  C   UNL     1      44.503 131.137  20.416  1.00  0.00    -0.010 A 
ATOM      3  C   UNL     1      43.247 131.742  20.278  1.00  0.00     0.036 A 
ATOM      4  C   UNL     1      42.746 132.085  19.015  1.00  0.00     0.077 A 
ATOM      5  C   UNL     1      43.515 131.800  17.861  1.00  0.00     0.177 A 
ATOM      6  C   UNL     1      44.795 131.227  17.999  1.00  0.00     0.247 A 
ATOM      7  C   UNL     1      45.283 130.900  19.276  1.00  0.00     0.165 A 
ATOM      8  F   UNL     1      46.529 130.379  19.410  1.00  0.00    -0.204 F 
ENDROOT
BRANCH   4   9
ATOM      9  N   UNL     1      41.467 132.731  18.936  1.00  0.00    -0.396 N 
ATOM     10  H   UNL     1      40.636 132.209  18.578  1.00  0.00     0.156 HD
ATOM     11  H   UNL     1      41.293 133.685  19.312  1.00  0.00     0.156 HD
ENDBRANCH   4   9
BRANCH   6  12
ATOM     12  N   UNL     1      45.601 130.964  16.838  1.00  0.00     0.086 N 
ATOM     13  N   UNL     1      45.804 131.837  15.853  1.00  0.00    -0.062 N 
ATOM     14  N   UNL     1      46.229 129.813  16.604  1.00  0.00    -0.062 N 
ATOM     15  C   UNL     1      46.593 131.217  14.961  1.00  0.00     0.306 A 
ATOM     16  C   UNL     1      46.856 129.963  15.426  1.00  0.00     0.306 A 
ATOM     17  C   UNL     1      47.103 131.684  13.753  1.00  0.00     0.089 A 
ATOM     18  C   UNL     1      47.647 129.060  14.723  1.00  0.00     0.089 A 
ATOM     19  C   UNL     1      47.912 130.799  13.011  1.00  0.00     0.007 A 
ATOM     20  C   UNL     1      48.182 129.495  13.493  1.00  0.00     0.007 A 
ATOM     21  H   UNL     1      45.433 132.813  15.806  1.00  0.00     0.495 HD
ATOM     22  H   UNL     1      46.207 128.962  17.211  1.00  0.00     0.495 HD
ENDBRANCH   6  12
BRANCH   5  23
ATOM     23  O   UNL     1      43.030 132.041  16.572  1.00  0.00    -0.504 OA
ATOM     24  H   UNL     1      42.411 131.416  16.074  1.00  0.00     0.293 HD
ENDBRANCH   5  23
TORSDOF 3
ENDMDL
MODEL 2
REMARK VINA RESULT:     -10.0      0.239      1.352
REMARK SMILES Cc1cc(N)c(O)c(-n2[nH+]c3ccccc3[nH+]2)c1F
REMARK SMILES IDX 1 1 2 2 3 3 4 4 6 5 8 6 18 7 19 8 5 9 9 12 10 13 17 14 11 15
REMARK SMILES IDX 16 16 12 17 15 18 13 19 14 20 7 23
REMARK H PARENT 5 10 5 11 10 21 17 22 7 24
ROOT
ATOM      1  C   UNL     1      45.077 131.117  21.935  1.00  0.00     0.048 C 
ATOM      2  C   UNL     1      44.486 131.364  20.577  1.00  0.00    -0.010 A 
ATOM      3  C   UNL     1      43.208 131.924  20.456  1.00  0.00     0.036 A 
ATOM      4  C   UNL     1      42.657 132.198  19.197  1.00  0.00     0.077 A 
ATOM      5  C   UNL     1      43.398 131.889  18.031  1.00  0.00     0.177 A 
ATOM      6  C   UNL     1      44.699 131.361  18.151  1.00  0.00     0.247 A 
ATOM      7  C   UNL     1      45.237 131.103  19.423  1.00  0.00     0.165 A 
ATOM      8  F   UNL     1      46.503 130.627  19.538  1.00  0.00    -0.204 F 
ENDROOT
BRANCH   4   9
ATOM      9  N   UNL     1      41.356 132.801  19.133  1.00  0.00    -0.396 N 
ATOM     10  H   UNL     1      40.710 132.575  18.345  1.00  0.00     0.156 HD
ATOM     11  H   UNL     1      40.971 133.395  19.896  1.00  0.00     0.156 HD
ENDBRANCH   4   9
BRANCH   6  12
ATOM     12  N   UNL     1      45.476 131.074  16.975  1.00  0.00     0.086 N 
ATOM     13  N   UNL     1      46.066 129.905  16.734  1.00  0.00    -0.062 N 
ATOM     14  N   UNL     1      45.707 131.947  15.996  1.00  0.00    -0.062 N 
ATOM     15  C   UNL     1      46.694 130.040  15.555  1.00  0.00     0.306 A 
ATOM     16  C   UNL     1      46.473 131.306  15.098  1.00  0.00     0.306 A 
ATOM     17  C   UNL     1      47.457 129.117  14.846  1.00  0.00     0.089 A 
ATOM     18  C   UNL     1      46.999 131.765  13.895  1.00  0.00     0.089 A 
ATOM     19  C   UNL     1      48.006 129.543  13.619  1.00  0.00     0.007 A 
ATOM     20  C   UNL     1      47.778 130.860  13.147  1.00  0.00     0.007 A 
ATOM     21  H   UNL     1      46.024 129.055  17.340  1.00  0.00     0.495 HD
ATOM     22  H   UNL     1      45.377 132.938  15.961  1.00  0.00     0.495 HD
ENDBRANCH   6  12
BRANCH   5  23
ATOM     23  O   UNL     1      42.865 132.060  16.750  1.00  0.00    -0.504 OA
ATOM     24  H   UNL     1      42.907 131.361  16.021  1.00  0.00     0.293 HD
ENDBRANCH   5  23
TORSDOF 3
ENDMDL
MODEL 3
REMARK VINA RESULT:      -9.9      2.042      2.871
REMARK SMILES Cc1cc(N)c(O)c(-n2[nH+]c3ccccc3[nH+]2)c1F
REMARK SMILES IDX 1 1 2 2 3 3 4 4 6 5 8 6 18 7 19 8 5 9 9 12 10 13 17 14 11 15
REMARK SMILES IDX 16 16 12 17 15 18 13 19 14 20 7 23
REMARK H PARENT 5 10 5 11 10 21 17 22 7 24
ROOT
ATOM      1  C   UNL     1      41.289 132.643  19.489  1.00  0.00     0.048 C 
ATOM      2  C   UNL     1      42.689 132.106  19.560  1.00  0.00    -0.010 A 
ATOM      3  C   UNL     1      43.263 131.796  20.799  1.00  0.00     0.036 A 
ATOM      4  C   UNL     1      44.555 131.258  20.881  1.00  0.00     0.077 A 
ATOM      5  C   UNL     1      45.295 131.039  19.694  1.00  0.00     0.177 A 
ATOM      6  C   UNL     1      44.704 131.315  18.444  1.00  0.00     0.247 A 
ATOM      7  C   UNL     1      43.405 131.845  18.383  1.00  0.00     0.165 A 
ATOM      8  F   UNL     1      42.825 132.077  17.178  1.00  0.00    -0.204 F 
ENDROOT
BRANCH   4   9
ATOM      9  N   UNL     1      45.081 130.930  22.175  1.00  0.00    -0.396 N 
ATOM     10  H   UNL     1      45.605 130.039  22.320  1.00  0.00     0.156 HD
ATOM     11  H   UNL     1      45.050 131.589  22.980  1.00  0.00     0.156 HD
ENDBRANCH   4   9
BRANCH   6  12
ATOM     12  N   UNL     1      45.432 131.066  17.229  1.00  0.00     0.086 N 
ATOM     13  N   UNL     1      46.045 129.918  16.943  1.00  0.00    -0.062 N 
ATOM     14  N   UNL     1      45.588 131.957  16.251  1.00  0.00    -0.062 N 
ATOM     15  C   UNL     1      46.611 130.087  15.737  1.00  0.00     0.306 A 
ATOM     16  C   UNL     1      46.329 131.350  15.309  1.00  0.00     0.306 A 
ATOM     17  C   UNL     1      47.367 129.197  14.981  1.00  0.00     0.089 A 
ATOM     18  C   UNL     1      46.781 131.839  14.087  1.00  0.00     0.089 A 
ATOM     19  C   UNL     1      47.842 129.654  13.735  1.00  0.00     0.007 A 
ATOM     20  C   UNL     1      47.552 130.968  13.291  1.00  0.00     0.007 A 
ATOM     21  H   UNL     1      46.059 129.061  17.540  1.00  0.00     0.495 HD
ATOM     22  H   UNL     1      45.226 132.937  16.244  1.00  0.00     0.495 HD
ENDBRANCH   6  12
BRANCH   5  23
ATOM     23  O   UNL     1      46.617 130.587  19.720  1.00  0.00    -0.504 OA
ATOM     24  H   UNL     1      46.930 129.784  20.247  1.00  0.00     0.293 HD
ENDBRANCH   5  23
TORSDOF 3
ENDMDL
MODEL 4
REMARK VINA RESULT:      -9.9      2.038      2.540
REMARK SMILES Cc1cc(N)c(O)c(-n2[nH+]c3ccccc3[nH+]2)c1F
REMARK SMILES IDX 1 1 2 2 3 3 4 4 6 5 8 6 18 7 19 8 5 9 9 12 10 13 17 14 11 15
REMARK SMILES IDX 16 16 12 17 15 18 13 19 14 20 7 23
REMARK H PARENT 5 10 5 11 10 21 17 22 7 24
ROOT
ATOM      1  C   UNL     1      41.276 132.555  19.462  1.00  0.00     0.048 C 
ATOM      2  C   UNL     1      42.687 132.049  19.540  1.00  0.00    -0.010 A 
ATOM      3  C   UNL     1      43.264 131.758  20.783  1.00  0.00     0.036 A 
ATOM      4  C   UNL     1      44.566 131.248  20.872  1.00  0.00     0.077 A 
ATOM      5  C   UNL     1      45.314 131.039  19.688  1.00  0.00     0.177 A 
ATOM      6  C   UNL     1      44.722 131.295  18.434  1.00  0.00     0.247 A 
ATOM      7  C   UNL     1      43.412 131.797  18.367  1.00  0.00     0.165 A 
ATOM      8  F   UNL     1      42.831 132.010  17.159  1.00  0.00    -0.204 F 
ENDROOT
BRANCH   4   9
ATOM      9  N   UNL     1      45.095 130.939  22.169  1.00  0.00    -0.396 N 
ATOM     10  H   UNL     1      45.714 131.621  22.661  1.00  0.00     0.156 HD
ATOM     11  H   UNL     1      44.816 130.091  22.705  1.00  0.00     0.156 HD
ENDBRANCH   4   9
BRANCH   6  12
ATOM     12  N   UNL     1      45.459 131.055  17.223  1.00  0.00     0.086 N 
ATOM     13  N   UNL     1      45.648 131.964  16.268  1.00  0.00    -0.062 N 
ATOM     14  N   UNL     1      46.027 129.892  16.907  1.00  0.00    -0.062 N 
ATOM     15  C   UNL     1      46.367 131.356  15.311  1.00  0.00     0.306 A 
ATOM     16  C   UNL     1      46.601 130.072  15.706  1.00  0.00     0.306 A 
ATOM     17  C   UNL     1      46.835 131.858  14.100  1.00  0.00     0.089 A 
ATOM     18  C   UNL     1      47.319 129.173  14.924  1.00  0.00     0.089 A 
ATOM     19  C   UNL     1      47.570 130.978  13.280  1.00  0.00     0.007 A 
ATOM     20  C   UNL     1      47.810 129.643  13.690  1.00  0.00     0.007 A 
ATOM     21  H   UNL     1      45.315 132.954  16.283  1.00  0.00     0.495 HD
ATOM     22  H   UNL     1      46.000 129.016  17.476  1.00  0.00     0.495 HD
ENDBRANCH   6  12
BRANCH   5  23
ATOM     23  O   UNL     1      46.646 130.615  19.721  1.00  0.00    -0.504 OA
ATOM     24  H   UNL     1      47.300 130.860  20.450  1.00  0.00     0.293 HD
ENDBRANCH   5  23
TORSDOF 3
ENDMDL
MODEL 5
REMARK VINA RESULT:      -9.6      0.971      1.076
REMARK SMILES Cc1cc(N)c(O)c(-n2[nH+]c3ccccc3[nH+]2)c1F
REMARK SMILES IDX 1 1 2 2 3 3 4 4 6 5 8 6 18 7 19 8 5 9 9 12 10 13 17 14 11 15
REMARK SMILES IDX 16 16 12 17 15 18 13 19 14 20 7 23
REMARK H PARENT 5 10 5 11 10 21 17 22 7 24
ROOT
ATOM      1  C   UNL     1      44.774 130.971  22.639  1.00  0.00     0.048 C 
ATOM      2  C   UNL     1      44.163 131.343  21.319  1.00  0.00    -0.010 A 
ATOM      3  C   UNL     1      42.921 131.991  21.276  1.00  0.00     0.036 A 
ATOM      4  C   UNL     1      42.355 132.381  20.054  1.00  0.00     0.077 A 
ATOM      5  C   UNL     1      43.040 132.102  18.848  1.00  0.00     0.177 A 
ATOM      6  C   UNL     1      44.307 131.486  18.892  1.00  0.00     0.247 A 
ATOM      7  C   UNL     1      44.862 131.111  20.127  1.00  0.00     0.165 A 
ATOM      8  F   UNL     1      46.097 130.549  20.171  1.00  0.00    -0.204 F 
ENDROOT
BRANCH   4   9
ATOM      9  N   UNL     1      41.095 133.069  20.071  1.00  0.00    -0.396 N 
ATOM     10  H   UNL     1      40.747 133.508  20.953  1.00  0.00     0.156 HD
ATOM     11  H   UNL     1      40.535 133.242  19.211  1.00  0.00     0.156 HD
ENDBRANCH   4   9
BRANCH   6  12
ATOM     12  N   UNL     1      45.030 131.227  17.676  1.00  0.00     0.086 N 
ATOM     13  N   UNL     1      45.318 132.154  16.764  1.00  0.00    -0.062 N 
ATOM     14  N   UNL     1      45.485 130.029  17.314  1.00  0.00    -0.062 N 
ATOM     15  C   UNL     1      45.985 131.519  15.786  1.00  0.00     0.306 A 
ATOM     16  C   UNL     1      46.087 130.203  16.126  1.00  0.00     0.306 A 
ATOM     17  C   UNL     1      46.513 132.025  14.601  1.00  0.00     0.089 A 
ATOM     18  C   UNL     1      46.723 129.272  15.310  1.00  0.00     0.089 A 
ATOM     19  C   UNL     1      47.167 131.113  13.748  1.00  0.00     0.007 A 
ATOM     20  C   UNL     1      47.271 129.745  14.100  1.00  0.00     0.007 A 
ATOM     21  H   UNL     1      45.083 133.170  16.820  1.00  0.00     0.495 HD
ATOM     22  H   UNL     1      45.367 129.136  17.843  1.00  0.00     0.495 HD
ENDBRANCH   6  12
BRANCH   5  23
ATOM     23  O   UNL     1      42.484 132.390  17.598  1.00  0.00    -0.504 OA
ATOM     24  H   UNL     1      41.708 133.021  17.456  1.00  0.00     0.293 HD
ENDBRANCH   5  23
TORSDOF 3
ENDMDL
MODEL 6
REMARK VINA RESULT:      -9.5      1.150      1.891
REMARK SMILES Cc1cc(N)c(O)c(-n2[nH+]c3ccccc3[nH+]2)c1F
REMARK SMILES IDX 1 1 2 2 3 3 4 4 6 5 8 6 18 7 19 8 5 9 9 12 10 13 17 14 11 15
REMARK SMILES IDX 16 16 12 17 15 18 13 19 14 20 7 23
REMARK H PARENT 5 10 5 11 10 21 17 22 7 24
ROOT
ATOM      1  C   UNL     1      44.738 130.986  22.882  1.00  0.00     0.048 C 
ATOM      2  C   UNL     1      44.113 131.383  21.576  1.00  0.00    -0.010 A 
ATOM      3  C   UNL     1      42.880 132.047  21.558  1.00  0.00     0.036 A 
ATOM      4  C   UNL     1      42.301 132.459  20.350  1.00  0.00     0.077 A 
ATOM      5  C   UNL     1      42.966 132.187  19.130  1.00  0.00     0.177 A 
ATOM      6  C   UNL     1      44.226 131.554  19.149  1.00  0.00     0.247 A 
ATOM      7  C   UNL     1      44.793 131.157  20.371  1.00  0.00     0.165 A 
ATOM      8  F   UNL     1      46.021 130.579  20.391  1.00  0.00    -0.204 F 
ENDROOT
BRANCH   4   9
ATOM      9  N   UNL     1      41.051 133.162  20.393  1.00  0.00    -0.396 N 
ATOM     10  H   UNL     1      40.544 133.389  19.508  1.00  0.00     0.156 HD
ATOM     11  H   UNL     1      40.558 133.384  21.283  1.00  0.00     0.156 HD
ENDBRANCH   4   9
BRANCH   6  12
ATOM     12  N   UNL     1      44.928 131.302  17.920  1.00  0.00     0.086 N 
ATOM     13  N   UNL     1      45.515 130.145  17.615  1.00  0.00    -0.062 N 
ATOM     14  N   UNL     1      45.086 132.198  16.948  1.00  0.00    -0.062 N 
ATOM     15  C   UNL     1      46.064 130.313  16.402  1.00  0.00     0.306 A 
ATOM     16  C   UNL     1      45.799 131.586  15.989  1.00  0.00     0.306 A 
ATOM     17  C   UNL     1      46.790 129.415  15.625  1.00  0.00     0.089 A 
ATOM     18  C   UNL     1      46.241 132.076  14.764  1.00  0.00     0.089 A 
ATOM     19  C   UNL     1      47.254 129.874  14.376  1.00  0.00     0.007 A 
ATOM     20  C   UNL     1      46.981 131.197  13.948  1.00  0.00     0.007 A 
ATOM     21  H   UNL     1      45.522 129.282  18.205  1.00  0.00     0.495 HD
ATOM     22  H   UNL     1      44.743 133.185  16.955  1.00  0.00     0.495 HD
ENDBRANCH   6  12
BRANCH   5  23
ATOM     23  O   UNL     1      42.396 132.497  17.893  1.00  0.00    -0.504 OA
ATOM     24  H   UNL     1      41.640 131.977  17.471  1.00  0.00     0.293 HD
ENDBRANCH   5  23
TORSDOF 3
ENDMDL
MODEL 7
REMARK VINA RESULT:      -8.1      2.442      2.983
REMARK SMILES Cc1cc(N)c(O)c(-n2[nH+]c3ccccc3[nH+]2)c1F
REMARK SMILES IDX 1 1 2 2 3 3 4 4 6 5 8 6 18 7 19 8 5 9 9 12 10 13 17 14 11 15
REMARK SMILES IDX 16 16 12 17 15 18 13 19 14 20 7 23
REMARK H PARENT 5 10 5 11 10 21 17 22 7 24
ROOT
ATOM      1  C   UNL     1      41.512 133.050  21.191  1.00  0.00     0.048 C 
ATOM      2  C   UNL     1      42.750 132.216  21.027  1.00  0.00    -0.010 A 
ATOM      3  C   UNL     1      43.283 131.523  22.121  1.00  0.00     0.036 A 
ATOM      4  C   UNL     1      44.415 130.709  21.977  1.00  0.00     0.077 A 
ATOM      5  C   UNL     1      45.037 130.599  20.710  1.00  0.00     0.177 A 
ATOM      6  C   UNL     1      44.479 131.265  19.600  1.00  0.00     0.247 A 
ATOM      7  C   UNL     1      43.339 132.068  19.764  1.00  0.00     0.165 A 
ATOM      8  F   UNL     1      42.783 132.681  18.687  1.00  0.00    -0.204 F 
ENDROOT
BRANCH   4   9
ATOM      9  N   UNL     1      44.899 129.998  23.126  1.00  0.00    -0.396 N 
ATOM     10  H   UNL     1      44.644 128.996  23.270  1.00  0.00     0.156 HD
ATOM     11  H   UNL     1      45.585 130.406  23.794  1.00  0.00     0.156 HD
ENDBRANCH   4   9
BRANCH   6  12
ATOM     12  N   UNL     1      45.081 131.134  18.300  1.00  0.00     0.086 N 
ATOM     13  N   UNL     1      45.136 132.113  17.398  1.00  0.00    -0.062 N 
ATOM     14  N   UNL     1      45.641 130.017  17.841  1.00  0.00    -0.062 N 
ATOM     15  C   UNL     1      45.759 131.597  16.326  1.00  0.00     0.306 A 
ATOM     16  C   UNL     1      46.070 130.298  16.600  1.00  0.00     0.306 A 
ATOM     17  C   UNL     1      46.073 132.197  15.110  1.00  0.00     0.089 A 
ATOM     18  C   UNL     1      46.720 129.480  15.681  1.00  0.00     0.089 A 
ATOM     19  C   UNL     1      46.735 131.402  14.152  1.00  0.00     0.007 A 
ATOM     20  C   UNL     1      47.056 130.051  14.436  1.00  0.00     0.007 A 
ATOM     21  H   UNL     1      44.780 133.087  17.521  1.00  0.00     0.495 HD
ATOM     22  H   UNL     1      45.703 129.104  18.344  1.00  0.00     0.495 HD
ENDBRANCH   6  12
BRANCH   5  23
ATOM     23  O   UNL     1      46.216 129.872  20.527  1.00  0.00    -0.504 OA
ATOM     24  H   UNL     1      46.432 129.344  19.693  1.00  0.00     0.293 HD
ENDBRANCH   5  23
TORSDOF 3
ENDMDL
MODEL 8
REMARK VINA RESULT:      -7.6      2.348      6.454
REMARK SMILES Cc1cc(N)c(O)c(-n2[nH+]c3ccccc3[nH+]2)c1F
REMARK SMILES IDX 1 1 2 2 3 3 4 4 6 5 8 6 18 7 19 8 5 9 9 12 10 13 17 14 11 15
REMARK SMILES IDX 16 16 12 17 15 18 13 19 14 20 7 23
REMARK H PARENT 5 10 5 11 10 21 17 22 7 24
ROOT
ATOM      1  C   UNL     1      43.215 131.830  13.634  1.00  0.00     0.048 C 
ATOM      2  C   UNL     1      44.169 131.327  14.678  1.00  0.00    -0.010 A 
ATOM      3  C   UNL     1      45.386 130.746  14.299  1.00  0.00     0.036 A 
ATOM      4  C   UNL     1      46.306 130.307  15.261  1.00  0.00     0.077 A 
ATOM      5  C   UNL     1      45.993 130.440  16.636  1.00  0.00     0.177 A 
ATOM      6  C   UNL     1      44.786 131.059  17.019  1.00  0.00     0.247 A 
ATOM      7  C   UNL     1      43.882 131.501  16.039  1.00  0.00     0.165 A 
ATOM      8  F   UNL     1      42.736 132.129  16.409  1.00  0.00    -0.204 F 
ENDROOT
BRANCH   4   9
ATOM      9  N   UNL     1      47.550 129.748  14.816  1.00  0.00    -0.396 N 
ATOM     10  H   UNL     1      47.958 130.036  13.899  1.00  0.00     0.156 HD
ATOM     11  H   UNL     1      48.133 129.124  15.411  1.00  0.00     0.156 HD
ENDBRANCH   4   9
BRANCH   6  12
ATOM     12  N   UNL     1      44.470 131.231  18.411  1.00  0.00     0.086 N 
ATOM     13  N   UNL     1      45.275 130.878  19.412  1.00  0.00    -0.062 N 
ATOM     14  N   UNL     1      43.331 131.752  18.864  1.00  0.00    -0.062 N 
ATOM     15  C   UNL     1      44.623 131.189  20.543  1.00  0.00     0.306 A 
ATOM     16  C   UNL     1      43.418 131.729  20.204  1.00  0.00     0.306 A 
ATOM     17  C   UNL     1      45.019 131.026  21.868  1.00  0.00     0.089 A 
ATOM     18  C   UNL     1      42.498 132.152  21.159  1.00  0.00     0.089 A 
ATOM     19  C   UNL     1      44.115 131.445  22.865  1.00  0.00     0.007 A 
ATOM     20  C   UNL     1      42.862 132.004  22.513  1.00  0.00     0.007 A 
ATOM     21  H   UNL     1      46.229 130.460  19.319  1.00  0.00     0.495 HD
ATOM     22  H   UNL     1      42.528 132.082  18.283  1.00  0.00     0.495 HD
ENDBRANCH   6  12
BRANCH   5  23
ATOM     23  O   UNL     1      46.832 129.942  17.636  1.00  0.00    -0.504 OA
ATOM     24  H   UNL     1      47.352 129.079  17.561  1.00  0.00     0.293 HD
ENDBRANCH   5  23
TORSDOF 3
ENDMDL
MODEL 9
REMARK VINA RESULT:      -7.6      1.776      5.964
REMARK SMILES Cc1cc(N)c(O)c(-n2[nH+]c3ccccc3[nH+]2)c1F
REMARK SMILES IDX 1 1 2 2 3 3 4 4 6 5 8 6 18 7 19 8 5 9 9 12 10 13 17 14 11 15
REMARK SMILES IDX 16 16 12 17 15 18 13 19 14 20 7 23
REMARK H PARENT 5 10 5 11 10 21 17 22 7 24
ROOT
ATOM      1  C   UNL     1      47.309 129.799  14.587  1.00  0.00     0.048 C 
ATOM      2  C   UNL     1      46.052 130.463  15.071  1.00  0.00    -0.010 A 
ATOM      3  C   UNL     1      45.092 130.908  14.153  1.00  0.00     0.036 A 
ATOM      4  C   UNL     1      43.896 131.494  14.589  1.00  0.00     0.077 A 
ATOM      5  C   UNL     1      43.663 131.653  15.977  1.00  0.00     0.177 A 
ATOM      6  C   UNL     1      44.611 131.171  16.902  1.00  0.00     0.247 A 
ATOM      7  C   UNL     1      45.799 130.577  16.445  1.00  0.00     0.165 A 
ATOM      8  F   UNL     1      46.695 130.082  17.337  1.00  0.00    -0.204 F 
ENDROOT
BRANCH   4   9
ATOM      9  N   UNL     1      42.934 131.903  13.606  1.00  0.00    -0.396 N 
ATOM     10  H   UNL     1      43.203 132.581  12.858  1.00  0.00     0.156 HD
ATOM     11  H   UNL     1      41.985 131.483  13.535  1.00  0.00     0.156 HD
ENDBRANCH   4   9
BRANCH   6  12
ATOM     12  N   UNL     1      44.372 131.295  18.315  1.00  0.00     0.086 N 
ATOM     13  N   UNL     1      45.237 130.923  19.257  1.00  0.00    -0.062 N 
ATOM     14  N   UNL     1      43.253 131.783  18.847  1.00  0.00    -0.062 N 
ATOM     15  C   UNL     1      44.645 131.189  20.432  1.00  0.00     0.306 A 
ATOM     16  C   UNL     1      43.415 131.721  20.179  1.00  0.00     0.306 A 
ATOM     17  C   UNL     1      45.117 130.992  21.727  1.00  0.00     0.089 A 
ATOM     18  C   UNL     1      42.545 132.099  21.196  1.00  0.00     0.089 A 
ATOM     19  C   UNL     1      44.265 131.366  22.786  1.00  0.00     0.007 A 
ATOM     20  C   UNL     1      42.986 131.916  22.522  1.00  0.00     0.007 A 
ATOM     21  H   UNL     1      46.190 130.524  19.098  1.00  0.00     0.495 HD
ATOM     22  H   UNL     1      42.413 132.118  18.322  1.00  0.00     0.495 HD
ENDBRANCH   6  12
BRANCH   5  23
ATOM     23  O   UNL     1      42.529 132.308  16.465  1.00  0.00    -0.504 OA
ATOM     24  H   UNL     1      42.128 133.134  16.046  1.00  0.00     0.293 HD
ENDBRANCH   5  23
TORSDOF 3
ENDMDL


