REMARK SMILES Cc1cc(F)c(CCC(=O)c2ccccc2)c(F)c1
REMARK SMILES IDX 7 1 6 2 2 3 3 4 19 5 4 6 17 7 1 8 5 9 18 10 8 11 9 12 10 13
REMARK SMILES IDX 11 14 12 15 16 16 13 17 15 18 14 19
REMARK H PARENT
ROOT
ATOM      1  C   UNL     1       1.836  -0.664  -1.435  1.00  0.00     0.050 C 
ENDROOT
BRANCH   1   2
ATOM      2  C   UNL     1       1.177  -1.381  -0.279  1.00  0.00     0.024 A 
ATOM      3  C   UNL     1      -0.133  -2.555   1.921  1.00  0.00    -0.045 A 
ATOM      4  C   UNL     1       1.119  -1.947   2.086  1.00  0.00     0.043 A 
ATOM      5  C   UNL     1      -0.711  -2.606   0.645  1.00  0.00     0.043 A 
ATOM      6  C   UNL     1       1.768  -1.358   0.997  1.00  0.00     0.129 A 
ATOM      7  C   UNL     1      -0.066  -2.021  -0.448  1.00  0.00     0.129 A 
ATOM      8  C   UNL     1      -0.818  -3.203   3.087  1.00  0.00     0.044 C 
ATOM      9  F   UNL     1       2.965  -0.748   1.192  1.00  0.00    -0.207 F 
ATOM     10  F   UNL     1      -0.669  -2.056  -1.663  1.00  0.00    -0.207 F 
ENDBRANCH   1   2
BRANCH   1  11
ATOM     11  C   UNL     1       1.597   0.853  -1.387  1.00  0.00     0.086 C 
BRANCH  11  12
ATOM     12  C   UNL     1       0.145   1.205  -1.604  1.00  0.00     0.163 C 
ATOM     13  O   UNL     1      -0.225   1.483  -2.778  1.00  0.00    -0.294 OA
BRANCH  12  14
ATOM     14  C   UNL     1      -0.873   1.155  -0.518  1.00  0.00     0.017 A 
ATOM     15  C   UNL     1      -2.233   0.991  -0.849  1.00  0.00     0.012 A 
ATOM     16  C   UNL     1      -0.517   1.236   0.845  1.00  0.00     0.012 A 
ATOM     17  C   UNL     1      -3.203   0.889   0.153  1.00  0.00     0.001 A 
ATOM     18  C   UNL     1      -1.492   1.130   1.841  1.00  0.00     0.001 A 
ATOM     19  C   UNL     1      -2.832   0.954   1.496  1.00  0.00     0.000 A 
ENDBRANCH  12  14
ENDBRANCH  11  12
ENDBRANCH   1  11
TORSDOF 4


