REMARK SMILES C=C1CC[C@@H](Nc2cccc(N=C=O)c2[O-])C[C@H]1F
REMARK SMILES IDX 7 1 8 2 9 3 10 4 11 5 15 6 16 7 6 8 5 10 2 11 3 12 18 13
REMARK SMILES IDX 4 14 17 15 1 16 19 17 12 18 13 19 14 20
REMARK H PARENT 6 9
ROOT
ATOM      1  C   UNL     1      -1.685   1.958   0.557  1.00  0.00     0.028 A 
ATOM      2  C   UNL     1      -2.663   2.462   1.435  1.00  0.00     0.025 A 
ATOM      3  C   UNL     1      -2.847   3.836   1.575  1.00  0.00     0.004 A 
ATOM      4  C   UNL     1      -2.067   4.728   0.841  1.00  0.00     0.029 A 
ATOM      5  C   UNL     1      -1.091   4.261  -0.046  1.00  0.00     0.070 A 
ATOM      6  C   UNL     1      -0.900   2.862  -0.189  1.00  0.00    -0.057 A 
ATOM      7  O   UNL     1       0.068   2.363  -1.054  1.00  0.00    -0.870 OA
ENDROOT
BRANCH   1   8
ATOM      8  N   UNL     1      -1.489   0.537   0.390  1.00  0.00    -0.383 N 
ATOM      9  H   UNL     1      -1.040   0.217  -0.497  1.00  0.00     0.160 HD
BRANCH   8  10
ATOM     10  C   UNL     1      -1.891  -0.479   1.376  1.00  0.00     0.082 C 
ATOM     11  C   UNL     1       0.579  -1.942   1.970  1.00  0.00    -0.043 C 
ATOM     12  C   UNL     1       0.358  -0.574   2.567  1.00  0.00     0.035 C 
ATOM     13  C   UNL     1      -0.193  -2.324   0.729  1.00  0.00     0.194 C 
ATOM     14  C   UNL     1      -1.139  -0.293   2.711  1.00  0.00     0.029 C 
ATOM     15  C   UNL     1      -1.674  -1.912   0.835  1.00  0.00     0.067 C 
ATOM     16  C   UNL     1       1.557  -2.736   2.432  1.00  0.00     0.011 C 
ATOM     17  F   UNL     1       0.398  -1.732  -0.373  1.00  0.00    -0.243 F 
ENDBRANCH   8  10
ENDBRANCH   1   8
BRANCH   5  18
ATOM     18  N   UNL     1      -0.327   5.243  -0.770  1.00  0.00    -0.169 NA
BRANCH  18  19
ATOM     19  C   UNL     1       0.591   4.987  -1.613  1.00  0.00     0.240 C 
ATOM     20  O   UNL     1       1.484   4.741  -2.434  1.00  0.00    -0.211 OA
ENDBRANCH  18  19
ENDBRANCH   5  18
TORSDOF 4


