REMARK SMILES CC[C@](C)(N)CC(=O)n1[nH+]c2cc(-c3c[nH+]c(F)cc3C)ccc2c1C
REMARK SMILES IDX 6 1 3 2 4 3 2 4 1 5 5 6 7 9 8 10 9 11 10 12 25 13 11 14
REMARK SMILES IDX 24 15 12 16 23 17 13 18 22 19 26 21 14 22 15 23 20 24 16 25
REMARK SMILES IDX 19 26 17 27 21 28 18 30
REMARK H PARENT 5 7 5 8 10 20 16 29
ROOT
ATOM      1  C   UNL     1       4.143   1.339   1.565  1.00  0.00     0.128 C 
ENDROOT
BRANCH   1   2
ATOM      2  C   UNL     1       5.060   0.511   0.618  1.00  0.00     0.021 C 
ATOM      3  C   UNL     1       4.220  -0.501  -0.193  1.00  0.00     0.028 C 
BRANCH   2   4
ATOM      4  C   UNL     1       6.161  -0.233   1.438  1.00  0.00     0.019 C 
ATOM      5  C   UNL     1       5.641  -1.244   2.466  1.00  0.00     0.006 C 
ENDBRANCH   2   4
BRANCH   2   6
ATOM      6  N   UNL     1       5.716   1.426  -0.329  1.00  0.00    -0.325 NA
ATOM      7  H   UNL     1       6.353   0.885  -0.960  1.00  0.00     0.119 HD
ATOM      8  H   UNL     1       6.312   2.107   0.197  1.00  0.00     0.119 HD
ENDBRANCH   2   6
ENDBRANCH   1   2
BRANCH   1   9
ATOM      9  C   UNL     1       3.216   2.269   0.821  1.00  0.00     0.284 C 
ATOM     10  O   UNL     1       3.578   3.465   0.649  1.00  0.00    -0.268 OA
BRANCH   9  11
ATOM     11  N   UNL     1       1.964   1.812   0.269  1.00  0.00    -0.090 N 
ATOM     12  N   UNL     1       1.265   0.783   0.743  1.00  0.00    -0.116 N 
ATOM     13  C   UNL     1       1.304   2.343  -0.798  1.00  0.00     0.097 A 
ATOM     14  C   UNL     1       0.159   0.654  -0.008  1.00  0.00     0.237 A 
ATOM     15  C   UNL     1       0.143   1.613  -0.983  1.00  0.00     0.074 A 
ATOM     16  C   UNL     1      -0.863  -0.282   0.126  1.00  0.00     0.091 A 
ATOM     17  C   UNL     1      -0.902   1.711  -1.899  1.00  0.00     0.018 A 
ATOM     18  C   UNL     1      -1.935  -0.225  -0.793  1.00  0.00    -0.005 A 
ATOM     19  C   UNL     1      -1.952   0.780  -1.795  1.00  0.00     0.010 A 
ATOM     20  H   UNL     1       1.515   0.194   1.567  1.00  0.00     0.489 HD
ATOM     21  C   UNL     1       1.765   3.508  -1.623  1.00  0.00     0.072 C 
BRANCH  18  22
ATOM     22  C   UNL     1      -3.049  -1.194  -0.685  1.00  0.00     0.049 A 
ATOM     23  C   UNL     1      -3.783  -1.254   0.510  1.00  0.00     0.317 A 
ATOM     24  C   UNL     1      -3.397  -2.067  -1.743  1.00  0.00    -0.028 A 
ATOM     25  N   UNL     1      -4.829  -2.113   0.637  1.00  0.00    -0.186 N 
ATOM     26  C   UNL     1      -4.494  -2.926  -1.582  1.00  0.00     0.118 A 
ATOM     27  C   UNL     1      -5.199  -2.937  -0.378  1.00  0.00     0.358 A 
ATOM     28  C   UNL     1      -2.636  -2.091  -3.042  1.00  0.00     0.045 C 
ATOM     29  H   UNL     1      -5.364  -2.134   1.534  1.00  0.00     0.456 HD
ATOM     30  F   UNL     1      -6.253  -3.775  -0.221  1.00  0.00    -0.136 F 
ENDBRANCH  18  22
ENDBRANCH   9  11
ENDBRANCH   1   9
TORSDOF 6


