MODEL 1
REMARK VINA RESULT:      -5.0      0.000      0.000
REMARK SMILES C=C[C@@H]1C[NH2+][C@@H](c2ccc3ncnn3c2)N(C(=O)c2cccc(C)c2)C1
REMARK SMILES IDX 3 1 4 2 5 3 6 4 16 5 26 6 2 9 1 10 17 11 18 12 19 13 20 14
REMARK SMILES IDX 25 15 21 16 23 17 22 18 24 19 7 20 8 21 15 22 9 23 14 24
REMARK SMILES IDX 10 25 13 26 11 27 12 28
REMARK H PARENT 5 7 5 8
ROOT
ATOM      1  C   UNL     1      41.809 126.452  23.521  1.00  0.00     0.086 C 
ATOM      2  C   UNL     1      42.064 124.944  23.756  1.00  0.00     0.272 C 
ATOM      3  N   UNL     1      43.398 124.538  23.274  1.00  0.00    -0.322 N 
ATOM      4  C   UNL     1      44.450 125.321  23.951  1.00  0.00     0.320 C 
ATOM      5  N   UNL     1      44.230 126.754  23.691  1.00  0.00    -0.284 N 
ATOM      6  C   UNL     1      42.943 127.280  24.151  1.00  0.00     0.139 C 
ATOM      7  H   UNL     1      43.435 124.695  22.240  1.00  0.00     0.348 HD
ATOM      8  H   UNL     1      43.529 123.520  23.477  1.00  0.00     0.348 HD
ENDROOT
BRANCH   1   9
ATOM      9  C   UNL     1      40.468 126.861  24.082  1.00  0.00    -0.024 C 
ATOM     10  C   UNL     1      40.276 128.069  24.622  1.00  0.00     0.004 C 
ENDBRANCH   1   9
BRANCH   5  11
ATOM     11  C   UNL     1      44.907 127.444  22.623  1.00  0.00     0.258 C 
ATOM     12  O   UNL     1      45.628 126.789  21.822  1.00  0.00    -0.269 OA
BRANCH  11  13
ATOM     13  C   UNL     1      44.765 128.911  22.461  1.00  0.00     0.040 A 
ATOM     14  C   UNL     1      45.130 129.535  21.255  1.00  0.00     0.014 A 
ATOM     15  C   UNL     1      44.239 129.695  23.504  1.00  0.00     0.017 A 
ATOM     16  C   UNL     1      44.978 130.914  21.099  1.00  0.00     0.001 A 
ATOM     17  C   UNL     1      44.103 131.084  23.355  1.00  0.00    -0.050 A 
ATOM     18  C   UNL     1      44.461 131.687  22.141  1.00  0.00     0.003 A 
ATOM     19  C   UNL     1      43.509 131.907  24.459  1.00  0.00     0.044 C 
ENDBRANCH  11  13
ENDBRANCH   5  11
BRANCH   4  20
ATOM     20  C   UNL     1      45.868 124.887  23.595  1.00  0.00     0.050 A 
ATOM     21  C   UNL     1      46.952 125.484  24.288  1.00  0.00     0.017 A 
ATOM     22  C   UNL     1      46.157 123.955  22.571  1.00  0.00     0.127 A 
ATOM     23  C   UNL     1      48.278 125.150  23.976  1.00  0.00     0.050 A 
ATOM     24  N   UNL     1      47.458 123.671  22.312  1.00  0.00    -0.221 N 
ATOM     25  C   UNL     1      48.484 124.222  22.962  1.00  0.00     0.155 A 
ATOM     26  N   UNL     1      47.926 122.838  21.405  1.00  0.00    -0.155 NA
ATOM     27  N   UNL     1      49.667 123.773  22.510  1.00  0.00    -0.215 NA
ATOM     28  C   UNL     1      49.273 122.910  21.538  1.00  0.00     0.247 A 
ENDBRANCH   4  20
TORSDOF 4
ENDMDL
MODEL 2
REMARK VINA RESULT:      -5.0      2.517      6.825
REMARK SMILES C=C[C@@H]1C[NH2+][C@@H](c2ccc3ncnn3c2)N(C(=O)c2cccc(C)c2)C1
REMARK SMILES IDX 3 1 4 2 5 3 6 4 16 5 26 6 2 9 1 10 17 11 18 12 19 13 20 14
REMARK SMILES IDX 25 15 21 16 23 17 22 18 24 19 7 20 8 21 15 22 9 23 14 24
REMARK SMILES IDX 10 25 13 26 11 27 12 28
REMARK H PARENT 5 7 5 8
ROOT
ATOM      1  C   UNL     1      45.913 124.888  23.058  1.00  0.00     0.086 C 
ATOM      2  C   UNL     1      46.673 125.961  22.243  1.00  0.00     0.272 C 
ATOM      3  N   UNL     1      45.836 127.152  22.002  1.00  0.00    -0.322 N 
ATOM      4  C   UNL     1      45.392 127.737  23.282  1.00  0.00     0.320 C 
ATOM      5  N   UNL     1      44.634 126.726  24.039  1.00  0.00    -0.284 N 
ATOM      6  C   UNL     1      45.373 125.504  24.361  1.00  0.00     0.139 C 
ATOM      7  H   UNL     1      45.010 126.862  21.428  1.00  0.00     0.348 HD
ATOM      8  H   UNL     1      46.401 127.853  21.469  1.00  0.00     0.348 HD
ENDROOT
BRANCH   1   9
ATOM      9  C   UNL     1      46.809 123.707  23.352  1.00  0.00    -0.024 C 
ATOM     10  C   UNL     1      46.313 122.474  23.496  1.00  0.00     0.004 C 
ENDBRANCH   1   9
BRANCH   5  11
ATOM     11  C   UNL     1      43.196 126.661  23.986  1.00  0.00     0.258 C 
ATOM     12  O   UNL     1      42.514 127.507  24.625  1.00  0.00    -0.269 OA
BRANCH  11  13
ATOM     13  C   UNL     1      42.516 125.611  23.190  1.00  0.00     0.040 A 
ATOM     14  C   UNL     1      43.170 125.000  22.106  1.00  0.00     0.014 A 
ATOM     15  C   UNL     1      41.215 125.193  23.526  1.00  0.00     0.017 A 
ATOM     16  C   UNL     1      42.535 123.998  21.370  1.00  0.00     0.001 A 
ATOM     17  C   UNL     1      40.568 124.199  22.776  1.00  0.00    -0.050 A 
ATOM     18  C   UNL     1      41.240 123.593  21.704  1.00  0.00     0.003 A 
ATOM     19  C   UNL     1      39.194 123.736  23.162  1.00  0.00     0.044 C 
ENDBRANCH  11  13
ENDBRANCH   5  11
BRANCH   4  20
ATOM     20  C   UNL     1      44.615 129.039  23.130  1.00  0.00     0.050 A 
ATOM     21  C   UNL     1      44.242 129.746  24.301  1.00  0.00     0.017 A 
ATOM     22  C   UNL     1      44.202 129.551  21.878  1.00  0.00     0.127 A 
ATOM     23  C   UNL     1      43.494 130.930  24.222  1.00  0.00     0.050 A 
ATOM     24  N   UNL     1      43.480 130.699  21.861  1.00  0.00    -0.221 N 
ATOM     25  C   UNL     1      43.130 131.374  22.957  1.00  0.00     0.155 A 
ATOM     26  N   UNL     1      43.007 131.328  20.804  1.00  0.00    -0.155 NA
ATOM     27  N   UNL     1      42.414 132.474  22.665  1.00  0.00    -0.215 NA
ATOM     28  C   UNL     1      42.361 132.407  21.309  1.00  0.00     0.247 A 
ENDBRANCH   4  20
TORSDOF 4
ENDMDL
MODEL 3
REMARK VINA RESULT:      -3.6      4.113      7.222
REMARK SMILES C=C[C@@H]1C[NH2+][C@@H](c2ccc3ncnn3c2)N(C(=O)c2cccc(C)c2)C1
REMARK SMILES IDX 3 1 4 2 5 3 6 4 16 5 26 6 2 9 1 10 17 11 18 12 19 13 20 14
REMARK SMILES IDX 25 15 21 16 23 17 22 18 24 19 7 20 8 21 15 22 9 23 14 24
REMARK SMILES IDX 10 25 13 26 11 27 12 28
REMARK H PARENT 5 7 5 8
ROOT
ATOM      1  C   UNL     1      46.412 133.633  22.092  1.00  0.00     0.086 C 
ATOM      2  C   UNL     1      46.298 133.274  23.593  1.00  0.00     0.272 C 
ATOM      3  N   UNL     1      45.079 132.490  23.872  1.00  0.00    -0.322 N 
ATOM      4  C   UNL     1      45.071 131.249  23.072  1.00  0.00     0.320 C 
ATOM      5  N   UNL     1      45.138 131.594  21.642  1.00  0.00    -0.284 N 
ATOM      6  C   UNL     1      46.323 132.355  21.239  1.00  0.00     0.139 C 
ATOM      7  H   UNL     1      44.248 133.080  23.636  1.00  0.00     0.348 HD
ATOM      8  H   UNL     1      45.062 132.254  24.891  1.00  0.00     0.348 HD
ENDROOT
BRANCH   1   9
ATOM      9  C   UNL     1      47.698 134.375  21.817  1.00  0.00    -0.024 C 
ATOM     10  C   UNL     1      48.737 134.306  22.656  1.00  0.00     0.004 C 
ENDBRANCH   1   9
BRANCH   5  11
ATOM     11  C   UNL     1      43.953 131.697  20.831  1.00  0.00     0.258 C 
ATOM     12  O   UNL     1      42.846 131.946  21.381  1.00  0.00    -0.269 OA
BRANCH  11  13
ATOM     13  C   UNL     1      44.024 131.512  19.361  1.00  0.00     0.040 A 
ATOM     14  C   UNL     1      42.979 131.957  18.533  1.00  0.00     0.014 A 
ATOM     15  C   UNL     1      45.152 130.910  18.773  1.00  0.00     0.017 A 
ATOM     16  C   UNL     1      43.057 131.798  17.148  1.00  0.00     0.001 A 
ATOM     17  C   UNL     1      45.223 130.732  17.383  1.00  0.00    -0.050 A 
ATOM     18  C   UNL     1      44.176 131.193  16.572  1.00  0.00     0.003 A 
ATOM     19  C   UNL     1      46.444 130.121  16.761  1.00  0.00     0.044 C 
ENDBRANCH  11  13
ENDBRANCH   5  11
BRANCH   4  20
ATOM     20  C   UNL     1      43.901 130.323  23.382  1.00  0.00     0.050 A 
ATOM     21  C   UNL     1      42.763 130.864  24.032  1.00  0.00     0.017 A 
ATOM     22  C   UNL     1      43.915 128.937  23.098  1.00  0.00     0.127 A 
ATOM     23  C   UNL     1      41.673 130.050  24.376  1.00  0.00     0.050 A 
ATOM     24  N   UNL     1      42.835 128.198  23.452  1.00  0.00    -0.221 N 
ATOM     25  C   UNL     1      41.758 128.699  24.059  1.00  0.00     0.155 A 
ATOM     26  N   UNL     1      42.661 126.904  23.275  1.00  0.00    -0.155 NA
ATOM     27  N   UNL     1      40.832 127.755  24.304  1.00  0.00    -0.215 NA
ATOM     28  C   UNL     1      41.437 126.650  23.798  1.00  0.00     0.247 A 
ENDBRANCH   4  20
TORSDOF 4
ENDMDL
MODEL 4
REMARK VINA RESULT:      -3.4      2.170      3.535
REMARK SMILES C=C[C@@H]1C[NH2+][C@@H](c2ccc3ncnn3c2)N(C(=O)c2cccc(C)c2)C1
REMARK SMILES IDX 3 1 4 2 5 3 6 4 16 5 26 6 2 9 1 10 17 11 18 12 19 13 20 14
REMARK SMILES IDX 25 15 21 16 23 17 22 18 24 19 7 20 8 21 15 22 9 23 14 24
REMARK SMILES IDX 10 25 13 26 11 27 12 28
REMARK H PARENT 5 7 5 8
ROOT
ATOM      1  C   UNL     1      43.761 123.210  22.730  1.00  0.00     0.086 C 
ATOM      2  C   UNL     1      44.430 122.531  21.512  1.00  0.00     0.272 C 
ATOM      3  N   UNL     1      45.766 123.096  21.242  1.00  0.00    -0.322 N 
ATOM      4  C   UNL     1      46.637 122.944  22.424  1.00  0.00     0.320 C 
ATOM      5  N   UNL     1      46.018 123.626  23.573  1.00  0.00    -0.284 N 
ATOM      6  C   UNL     1      44.693 123.131  23.952  1.00  0.00     0.139 C 
ATOM      7  H   UNL     1      45.652 124.109  21.002  1.00  0.00     0.348 HD
ATOM      8  H   UNL     1      46.183 122.589  20.427  1.00  0.00     0.348 HD
ENDROOT
BRANCH   1   9
ATOM      9  C   UNL     1      42.425 122.572  23.031  1.00  0.00    -0.024 C 
ATOM     10  C   UNL     1      41.281 123.249  22.888  1.00  0.00     0.004 C 
ENDBRANCH   1   9
BRANCH   5  11
ATOM     11  C   UNL     1      46.373 124.974  23.935  1.00  0.00     0.258 C 
ATOM     12  O   UNL     1      47.413 125.178  24.618  1.00  0.00    -0.269 OA
BRANCH  11  13
ATOM     13  C   UNL     1      45.528 126.117  23.513  1.00  0.00     0.040 A 
ATOM     14  C   UNL     1      45.900 126.915  22.416  1.00  0.00     0.014 A 
ATOM     15  C   UNL     1      44.328 126.405  24.190  1.00  0.00     0.017 A 
ATOM     16  C   UNL     1      45.093 127.979  22.009  1.00  0.00     0.001 A 
ATOM     17  C   UNL     1      43.526 127.486  23.795  1.00  0.00    -0.050 A 
ATOM     18  C   UNL     1      43.908 128.263  22.691  1.00  0.00     0.003 A 
ATOM     19  C   UNL     1      42.232 127.764  24.501  1.00  0.00     0.044 C 
ENDBRANCH  11  13
ENDBRANCH   5  11
BRANCH   4  20
ATOM     20  C   UNL     1      48.074 123.399  22.195  1.00  0.00     0.050 A 
ATOM     21  C   UNL     1      48.367 124.783  22.284  1.00  0.00     0.017 A 
ATOM     22  C   UNL     1      49.120 122.513  21.847  1.00  0.00     0.127 A 
ATOM     23  C   UNL     1      49.664 125.263  22.045  1.00  0.00     0.050 A 
ATOM     24  N   UNL     1      50.353 123.031  21.628  1.00  0.00    -0.221 N 
ATOM     25  C   UNL     1      50.641 124.331  21.715  1.00  0.00     0.155 A 
ATOM     26  N   UNL     1      51.447 122.375  21.297  1.00  0.00    -0.155 NA
ATOM     27  N   UNL     1      51.934 124.581  21.445  1.00  0.00    -0.215 NA
ATOM     28  C   UNL     1      52.400 123.331  21.190  1.00  0.00     0.247 A 
ENDBRANCH   4  20
TORSDOF 4
ENDMDL
MODEL 5
REMARK VINA RESULT:      -3.0      1.905      3.835
REMARK SMILES C=C[C@@H]1C[NH2+][C@@H](c2ccc3ncnn3c2)N(C(=O)c2cccc(C)c2)C1
REMARK SMILES IDX 3 1 4 2 5 3 6 4 16 5 26 6 2 9 1 10 17 11 18 12 19 13 20 14
REMARK SMILES IDX 25 15 21 16 23 17 22 18 24 19 7 20 8 21 15 22 9 23 14 24
REMARK SMILES IDX 10 25 13 26 11 27 12 28
REMARK H PARENT 5 7 5 8
ROOT
ATOM      1  C   UNL     1      42.944 130.844  22.918  1.00  0.00     0.086 C 
ATOM      2  C   UNL     1      42.288 129.754  23.798  1.00  0.00     0.272 C 
ATOM      3  N   UNL     1      42.802 128.410  23.470  1.00  0.00    -0.322 N 
ATOM      4  C   UNL     1      44.267 128.363  23.648  1.00  0.00     0.320 C 
ATOM      5  N   UNL     1      44.893 129.373  22.778  1.00  0.00    -0.284 N 
ATOM      6  C   UNL     1      44.477 130.754  23.028  1.00  0.00     0.139 C 
ATOM      7  H   UNL     1      42.548 128.193  22.479  1.00  0.00     0.348 HD
ATOM      8  H   UNL     1      42.346 127.715  24.107  1.00  0.00     0.348 HD
ENDROOT
BRANCH   1   9
ATOM      9  C   UNL     1      42.455 132.216  23.314  1.00  0.00    -0.024 C 
ATOM     10  C   UNL     1      42.463 132.619  24.589  1.00  0.00     0.004 C 
ENDBRANCH   1   9
BRANCH   5  11
ATOM     11  C   UNL     1      45.402 129.038  21.473  1.00  0.00     0.258 C 
ATOM     12  O   UNL     1      45.966 127.924  21.295  1.00  0.00    -0.269 OA
BRANCH  11  13
ATOM     13  C   UNL     1      45.271 129.990  20.344  1.00  0.00     0.040 A 
ATOM     14  C   UNL     1      44.658 131.241  20.531  1.00  0.00     0.014 A 
ATOM     15  C   UNL     1      45.781 129.662  19.073  1.00  0.00     0.017 A 
ATOM     16  C   UNL     1      44.553 132.143  19.470  1.00  0.00     0.001 A 
ATOM     17  C   UNL     1      45.658 130.560  18.001  1.00  0.00    -0.050 A 
ATOM     18  C   UNL     1      45.054 131.808  18.210  1.00  0.00     0.003 A 
ATOM     19  C   UNL     1      46.235 130.217  16.660  1.00  0.00     0.044 C 
ENDBRANCH  11  13
ENDBRANCH   5  11
BRANCH   4  20
ATOM     20  C   UNL     1      44.869 126.978  23.440  1.00  0.00     0.050 A 
ATOM     21  C   UNL     1      46.185 126.735  23.910  1.00  0.00     0.017 A 
ATOM     22  C   UNL     1      44.199 125.937  22.757  1.00  0.00     0.127 A 
ATOM     23  C   UNL     1      46.804 125.491  23.713  1.00  0.00     0.050 A 
ATOM     24  N   UNL     1      44.844 124.755  22.595  1.00  0.00    -0.221 N 
ATOM     25  C   UNL     1      46.080 124.515  23.038  1.00  0.00     0.155 A 
ATOM     26  N   UNL     1      44.392 123.675  21.990  1.00  0.00    -0.155 NA
ATOM     27  N   UNL     1      46.488 123.269  22.743  1.00  0.00    -0.215 NA
ATOM     28  C   UNL     1      45.403 122.779  22.090  1.00  0.00     0.247 A 
ENDBRANCH   4  20
TORSDOF 4
ENDMDL
MODEL 6
REMARK VINA RESULT:      -2.4      3.893      7.156
REMARK SMILES C=C[C@@H]1C[NH2+][C@@H](c2ccc3ncnn3c2)N(C(=O)c2cccc(C)c2)C1
REMARK SMILES IDX 3 1 4 2 5 3 6 4 16 5 26 6 2 9 1 10 17 11 18 12 19 13 20 14
REMARK SMILES IDX 25 15 21 16 23 17 22 18 24 19 7 20 8 21 15 22 9 23 14 24
REMARK SMILES IDX 10 25 13 26 11 27 12 28
REMARK H PARENT 5 7 5 8
ROOT
ATOM      1  C   UNL     1      46.517 133.890  22.478  1.00  0.00     0.086 C 
ATOM      2  C   UNL     1      46.166 133.542  23.944  1.00  0.00     0.272 C 
ATOM      3  N   UNL     1      44.992 132.653  24.024  1.00  0.00    -0.322 N 
ATOM      4  C   UNL     1      45.239 131.406  23.274  1.00  0.00     0.320 C 
ATOM      5  N   UNL     1      45.532 131.736  21.869  1.00  0.00    -0.284 N 
ATOM      6  C   UNL     1      46.698 132.598  21.661  1.00  0.00     0.139 C 
ATOM      7  H   UNL     1      44.167 133.159  23.626  1.00  0.00     0.348 HD
ATOM      8  H   UNL     1      44.812 132.429  25.031  1.00  0.00     0.348 HD
ENDROOT
BRANCH   1   9
ATOM      9  C   UNL     1      47.760 134.745  22.414  1.00  0.00    -0.024 C 
ATOM     10  C   UNL     1      48.185 135.275  21.263  1.00  0.00     0.004 C 
ENDBRANCH   1   9
BRANCH   5  11
ATOM     11  C   UNL     1      44.509 131.717  20.856  1.00  0.00     0.258 C 
ATOM     12  O   UNL     1      43.336 132.075  21.153  1.00  0.00    -0.269 OA
BRANCH  11  13
ATOM     13  C   UNL     1      44.821 131.281  19.474  1.00  0.00     0.040 A 
ATOM     14  C   UNL     1      45.873 130.381  19.228  1.00  0.00     0.014 A 
ATOM     15  C   UNL     1      44.051 131.743  18.390  1.00  0.00     0.017 A 
ATOM     16  C   UNL     1      46.152 129.957  17.927  1.00  0.00     0.001 A 
ATOM     17  C   UNL     1      44.343 131.333  17.080  1.00  0.00    -0.050 A 
ATOM     18  C   UNL     1      45.388 130.426  16.856  1.00  0.00     0.003 A 
ATOM     19  C   UNL     1      43.495 131.804  15.935  1.00  0.00     0.044 C 
ENDBRANCH  11  13
ENDBRANCH   5  11
BRANCH   4  20
ATOM     20  C   UNL     1      44.120 130.378  23.397  1.00  0.00     0.050 A 
ATOM     21  C   UNL     1      42.837 130.821  23.810  1.00  0.00     0.017 A 
ATOM     22  C   UNL     1      44.311 128.995  23.169  1.00  0.00     0.127 A 
ATOM     23  C   UNL     1      41.780 129.914  23.977  1.00  0.00     0.050 A 
ATOM     24  N   UNL     1      43.254 128.164  23.346  1.00  0.00    -0.221 N 
ATOM     25  C   UNL     1      42.042 128.572  23.728  1.00  0.00     0.155 A 
ATOM     26  N   UNL     1      43.232 126.857  23.185  1.00  0.00    -0.155 NA
ATOM     27  N   UNL     1      41.176 127.549  23.833  1.00  0.00    -0.215 NA
ATOM     28  C   UNL     1      41.961 126.497  23.485  1.00  0.00     0.247 A 
ENDBRANCH   4  20
TORSDOF 4
ENDMDL
MODEL 7
REMARK VINA RESULT:      -2.2      3.591      6.050
REMARK SMILES C=C[C@@H]1C[NH2+][C@@H](c2ccc3ncnn3c2)N(C(=O)c2cccc(C)c2)C1
REMARK SMILES IDX 3 1 4 2 5 3 6 4 16 5 26 6 2 9 1 10 17 11 18 12 19 13 20 14
REMARK SMILES IDX 25 15 21 16 23 17 22 18 24 19 7 20 8 21 15 22 9 23 14 24
REMARK SMILES IDX 10 25 13 26 11 27 12 28
REMARK H PARENT 5 7 5 8
ROOT
ATOM      1  C   UNL     1      44.856 132.730  23.715  1.00  0.00     0.086 C 
ATOM      2  C   UNL     1      43.613 132.588  24.625  1.00  0.00     0.272 C 
ATOM      3  N   UNL     1      42.803 131.411  24.255  1.00  0.00    -0.322 N 
ATOM      4  C   UNL     1      43.613 130.181  24.341  1.00  0.00     0.320 C 
ATOM      5  N   UNL     1      44.774 130.302  23.443  1.00  0.00    -0.284 N 
ATOM      6  C   UNL     1      45.670 131.424  23.730  1.00  0.00     0.139 C 
ATOM      7  H   UNL     1      42.451 131.548  23.279  1.00  0.00     0.348 HD
ATOM      8  H   UNL     1      41.991 131.347  24.912  1.00  0.00     0.348 HD
ENDROOT
BRANCH   1   9
ATOM      9  C   UNL     1      45.707 133.899  24.152  1.00  0.00    -0.024 C 
ATOM     10  C   UNL     1      46.903 134.135  23.605  1.00  0.00     0.004 C 
ENDBRANCH   1   9
BRANCH   5  11
ATOM     11  C   UNL     1      44.757 129.766  22.106  1.00  0.00     0.258 C 
ATOM     12  O   UNL     1      45.145 128.582  21.909  1.00  0.00    -0.269 OA
BRANCH  11  13
ATOM     13  C   UNL     1      44.291 130.592  20.966  1.00  0.00     0.040 A 
ATOM     14  C   UNL     1      43.118 131.358  21.071  1.00  0.00     0.014 A 
ATOM     15  C   UNL     1      45.033 130.639  19.770  1.00  0.00     0.017 A 
ATOM     16  C   UNL     1      42.692 132.150  20.003  1.00  0.00     0.001 A 
ATOM     17  C   UNL     1      44.595 131.419  18.689  1.00  0.00    -0.050 A 
ATOM     18  C   UNL     1      43.429 132.186  18.817  1.00  0.00     0.003 A 
ATOM     19  C   UNL     1      45.410 131.490  17.432  1.00  0.00     0.044 C 
ENDBRANCH  11  13
ENDBRANCH   5  11
BRANCH   4  20
ATOM     20  C   UNL     1      42.823 128.902  24.085  1.00  0.00     0.050 A 
ATOM     21  C   UNL     1      41.463 129.013  23.699  1.00  0.00     0.017 A 
ATOM     22  C   UNL     1      43.367 127.608  24.261  1.00  0.00     0.127 A 
ATOM     23  C   UNL     1      40.678 127.869  23.487  1.00  0.00     0.050 A 
ATOM     24  N   UNL     1      42.563 126.539  24.043  1.00  0.00    -0.221 N 
ATOM     25  C   UNL     1      41.284 126.633  23.675  1.00  0.00     0.155 A 
ATOM     26  N   UNL     1      42.881 125.265  24.155  1.00  0.00    -0.155 NA
ATOM     27  N   UNL     1      40.711 125.425  23.529  1.00  0.00    -0.215 NA
ATOM     28  C   UNL     1      41.745 124.600  23.838  1.00  0.00     0.247 A 
ENDBRANCH   4  20
TORSDOF 4
ENDMDL
MODEL 8
REMARK VINA RESULT:      -2.1      2.088      5.568
REMARK SMILES C=C[C@@H]1C[NH2+][C@@H](c2ccc3ncnn3c2)N(C(=O)c2cccc(C)c2)C1
REMARK SMILES IDX 3 1 4 2 5 3 6 4 16 5 26 6 2 9 1 10 17 11 18 12 19 13 20 14
REMARK SMILES IDX 25 15 21 16 23 17 22 18 24 19 7 20 8 21 15 22 9 23 14 24
REMARK SMILES IDX 10 25 13 26 11 27 12 28
REMARK H PARENT 5 7 5 8
ROOT
ATOM      1  C   UNL     1      47.101 125.124  23.986  1.00  0.00     0.086 C 
ATOM      2  C   UNL     1      46.378 123.764  24.124  1.00  0.00     0.272 C 
ATOM      3  N   UNL     1      44.918 123.937  24.254  1.00  0.00    -0.322 N 
ATOM      4  C   UNL     1      44.380 124.658  23.084  1.00  0.00     0.320 C 
ATOM      5  N   UNL     1      45.040 125.970  22.978  1.00  0.00    -0.284 N 
ATOM      6  C   UNL     1      46.495 125.924  22.819  1.00  0.00     0.139 C 
ATOM      7  H   UNL     1      44.727 124.473  25.132  1.00  0.00     0.348 HD
ATOM      8  H   UNL     1      44.476 122.991  24.320  1.00  0.00     0.348 HD
ENDROOT
BRANCH   1   9
ATOM      9  C   UNL     1      48.585 124.923  23.787  1.00  0.00    -0.024 C 
ATOM     10  C   UNL     1      49.481 125.755  24.327  1.00  0.00     0.004 C 
ENDBRANCH   1   9
BRANCH   5  11
ATOM     11  C   UNL     1      44.451 127.162  23.530  1.00  0.00     0.258 C 
ATOM     12  O   UNL     1      43.826 127.095  24.624  1.00  0.00    -0.269 OA
BRANCH  11  13
ATOM     13  C   UNL     1      44.571 128.461  22.826  1.00  0.00     0.040 A 
ATOM     14  C   UNL     1      45.021 128.514  21.495  1.00  0.00     0.014 A 
ATOM     15  C   UNL     1      44.212 129.659  23.473  1.00  0.00     0.017 A 
ATOM     16  C   UNL     1      45.115 129.737  20.827  1.00  0.00     0.001 A 
ATOM     17  C   UNL     1      44.324 130.890  22.810  1.00  0.00    -0.050 A 
ATOM     18  C   UNL     1      44.764 130.922  21.478  1.00  0.00     0.003 A 
ATOM     19  C   UNL     1      43.906 132.157  23.496  1.00  0.00     0.044 C 
ENDBRANCH  11  13
ENDBRANCH   5  11
BRANCH   4  20
ATOM     20  C   UNL     1      42.860 124.781  23.080  1.00  0.00     0.050 A 
ATOM     21  C   UNL     1      42.259 125.706  22.188  1.00  0.00     0.017 A 
ATOM     22  C   UNL     1      42.023 124.055  23.958  1.00  0.00     0.127 A 
ATOM     23  C   UNL     1      40.868 125.888  22.168  1.00  0.00     0.050 A 
ATOM     24  N   UNL     1      40.686 124.271  23.896  1.00  0.00    -0.221 N 
ATOM     25  C   UNL     1      40.110 125.134  23.057  1.00  0.00     0.155 A 
ATOM     26  N   UNL     1      39.750 123.698  24.625  1.00  0.00    -0.155 NA
ATOM     27  N   UNL     1      38.774 125.162  23.200  1.00  0.00    -0.215 NA
ATOM     28  C   UNL     1      38.592 124.249  24.190  1.00  0.00     0.247 A 
ENDBRANCH   4  20
TORSDOF 4
ENDMDL


