REMARK SMILES CC1=CCC=C[C@H]1C(=O)Oc1c(C)c(F)c([NH2+]N)c([O-])c1-n1nc2ccccc2n1
REMARK SMILES IDX 11 1 12 2 13 3 14 4 15 5 16 6 19 7 20 8 21 9 10 10 8 11 9 12
REMARK SMILES IDX 7 13 2 14 3 15 4 16 6 17 5 18 1 19 22 20 23 21 30 22 24 23
REMARK SMILES IDX 29 24 25 25 28 26 26 27 27 28 17 29 18 32
REMARK H PARENT 17 30 17 31 18 33 18 34
ROOT
ATOM      1  C   UNL     1       0.124  -1.613  -0.116  1.00  0.00     0.164 A 
ATOM      2  C   UNL     1       0.425  -2.970  -0.353  1.00  0.00     0.036 A 
ATOM      3  C   UNL     1       1.810  -3.392  -0.767  1.00  0.00     0.052 C 
ATOM      4  C   UNL     1      -0.592  -3.933  -0.244  1.00  0.00     0.191 A 
ATOM      5  F   UNL     1      -0.314  -5.238  -0.500  1.00  0.00    -0.200 F 
ATOM      6  C   UNL     1      -1.894  -3.560   0.134  1.00  0.00     0.179 A 
ATOM      7  C   UNL     1      -2.166  -2.212   0.438  1.00  0.00    -0.008 A 
ATOM      8  O   UNL     1      -3.433  -1.850   0.884  1.00  0.00    -0.867 OA
ATOM      9  C   UNL     1      -1.162  -1.235   0.310  1.00  0.00     0.127 A 
ENDROOT
BRANCH   1  10
ATOM     10  O   UNL     1       1.096  -0.626  -0.305  1.00  0.00    -0.423 OA
BRANCH  10  11
ATOM     11  C   UNL     1       1.553  -0.248  -1.573  1.00  0.00     0.322 C 
ATOM     12  O   UNL     1       1.055  -0.758  -2.614  1.00  0.00    -0.251 OA
BRANCH  11  13
ATOM     13  C   UNL     1       2.618   0.799  -1.693  1.00  0.00     0.147 C 
ATOM     14  C   UNL     1       2.103   2.124  -1.156  1.00  0.00    -0.059 C 
ATOM     15  C   UNL     1       2.424   2.537   0.086  1.00  0.00    -0.023 C 
ATOM     16  C   UNL     1       3.252   1.685   1.014  1.00  0.00     0.054 C 
ATOM     17  C   UNL     1       3.866   0.335  -0.979  1.00  0.00    -0.012 C 
ATOM     18  C   UNL     1       4.163   0.751   0.262  1.00  0.00    -0.026 C 
ATOM     19  C   UNL     1       1.180   2.964  -1.996  1.00  0.00     0.040 C 
ENDBRANCH  11  13
ENDBRANCH  10  11
ENDBRANCH   1  10
BRANCH   9  20
ATOM     20  N   UNL     1      -1.451   0.146   0.591  1.00  0.00    -0.147 N 
ATOM     21  N   UNL     1      -0.582   0.978   1.167  1.00  0.00    -0.148 NA
ATOM     22  N   UNL     1      -2.610   0.733   0.293  1.00  0.00    -0.148 NA
ATOM     23  C   UNL     1      -1.225   2.152   1.235  1.00  0.00     0.113 A 
ATOM     24  C   UNL     1      -2.466   2.003   0.699  1.00  0.00     0.113 A 
ATOM     25  C   UNL     1      -0.781   3.363   1.755  1.00  0.00     0.032 A 
ATOM     26  C   UNL     1      -3.374   3.054   0.626  1.00  0.00     0.032 A 
ATOM     27  C   UNL     1      -1.671   4.455   1.701  1.00  0.00     0.002 A 
ATOM     28  C   UNL     1      -2.962   4.301   1.137  1.00  0.00     0.002 A 
ENDBRANCH   9  20
BRANCH   6  29
ATOM     29  N   UNL     1      -2.924  -4.562   0.279  1.00  0.00    -0.237 N 
ATOM     30  H   UNL     1      -3.854  -4.165   0.007  1.00  0.00     0.376 HD
ATOM     31  H   UNL     1      -2.738  -5.395  -0.328  1.00  0.00     0.376 HD
BRANCH  29  32
ATOM     32  N   UNL     1      -2.974  -4.963   1.629  1.00  0.00    -0.178 NA
ATOM     33  H   UNL     1      -3.811  -5.580   1.751  1.00  0.00     0.183 HD
ATOM     34  H   UNL     1      -2.137  -5.560   1.829  1.00  0.00     0.183 HD
ENDBRANCH  29  32
ENDBRANCH   6  29
TORSDOF 6


