REMARK SMILES Cc1ccc(-c2ccc(N)c(C=O)c2)cc1
REMARK SMILES IDX 6 1 7 2 8 3 9 4 11 5 14 6 5 7 2 8 3 9 16 10 4 11 15 12 1 13
REMARK SMILES IDX 12 14 13 15 10 16
REMARK H PARENT 10 17 10 18
ROOT
ATOM      1  C   UNL     1      -0.882  -0.333  -0.773  1.00  0.00    -0.018 A 
ATOM      2  C   UNL     1      -2.106  -0.743  -1.323  1.00  0.00     0.011 A 
ATOM      3  C   UNL     1      -2.147  -1.751  -2.286  1.00  0.00     0.027 A 
ATOM      4  C   UNL     1      -0.970  -2.373  -2.726  1.00  0.00     0.042 A 
ATOM      5  C   UNL     1       0.279  -1.940  -2.211  1.00  0.00     0.038 A 
ATOM      6  C   UNL     1       0.303  -0.940  -1.223  1.00  0.00     0.022 A 
ENDROOT
BRANCH   1   7
ATOM      7  C   UNL     1      -0.841   0.732   0.261  1.00  0.00    -0.018 A 
ATOM      8  C   UNL     1      -0.773   2.762   2.217  1.00  0.00    -0.051 A 
ATOM      9  C   UNL     1       0.191   2.729   1.199  1.00  0.00     0.004 A 
ATOM     10  C   UNL     1      -1.756   1.764   2.268  1.00  0.00     0.004 A 
ATOM     11  C   UNL     1       0.154   1.726   0.225  1.00  0.00     0.009 A 
ATOM     12  C   UNL     1      -1.794   0.761   1.294  1.00  0.00     0.009 A 
ATOM     13  C   UNL     1      -0.708   3.815   3.284  1.00  0.00     0.044 C 
ENDBRANCH   1   7
BRANCH   5  14
ATOM     14  C   UNL     1       1.579  -2.465  -2.683  1.00  0.00     0.262 C 
ATOM     15  O   UNL     1       1.718  -2.949  -3.837  1.00  0.00    -0.298 OA
ENDBRANCH   5  14
BRANCH   4  16
ATOM     16  N   UNL     1      -1.078  -3.469  -3.645  1.00  0.00    -0.398 N 
ATOM     17  H   UNL     1      -1.987  -3.671  -4.118  1.00  0.00     0.156 HD
ATOM     18  H   UNL     1      -0.325  -4.182  -3.747  1.00  0.00     0.156 HD
ENDBRANCH   4  16
TORSDOF 3


