REMARK SMILES Cc1ccc(-c2ccc([O-])cc2)c2cn(C(=O)Nc3ccc(N(C)C)cc3)nc12
REMARK SMILES IDX 16 1 17 2 18 3 15 5 2 6 3 7 29 8 4 9 28 10 13 11 5 12 14 13
REMARK SMILES IDX 1 14 6 15 7 16 12 17 8 18 11 19 9 20 10 21 19 22 20 23 27 24
REMARK SMILES IDX 21 25 26 26 22 27 23 28 24 29 25 30
REMARK H PARENT 18 4
ROOT
ATOM      1  C   UNL     1      -0.463   2.072   0.065  1.00  0.00     0.346 C 
ATOM      2  O   UNL     1      -1.112   3.032   0.562  1.00  0.00    -0.246 OA
ATOM      3  N   UNL     1       0.469   1.337   0.876  1.00  0.00    -0.306 N 
ATOM      4  H   UNL     1       1.271   0.868   0.400  1.00  0.00     0.171 HD
ENDROOT
BRANCH   1   5
ATOM      5  N   UNL     1      -0.632   1.756  -1.324  1.00  0.00    -0.188 N 
ATOM      6  C   UNL     1      -1.938   2.291  -4.537  1.00  0.00    -0.023 A 
ATOM      7  C   UNL     1      -1.804   1.446  -5.658  1.00  0.00     0.006 A 
ATOM      8  C   UNL     1      -1.306   1.895  -3.356  1.00  0.00     0.096 A 
ATOM      9  C   UNL     1      -1.035   0.263  -5.582  1.00  0.00     0.010 A 
ATOM     10  N   UNL     1      -1.348   2.505  -2.157  1.00  0.00    -0.164 NA
ATOM     11  C   UNL     1      -0.558   0.748  -3.282  1.00  0.00     0.029 A 
ATOM     12  C   UNL     1      -0.388  -0.105  -4.381  1.00  0.00    -0.007 A 
ATOM     13  C   UNL     1      -0.142   0.670  -1.970  1.00  0.00     0.129 A 
ATOM     14  C   UNL     1      -2.791   3.523  -4.591  1.00  0.00     0.047 C 
BRANCH  12  15
ATOM     15  C   UNL     1       0.423  -1.343  -4.305  1.00  0.00    -0.018 A 
ATOM     16  C   UNL     1       1.714  -1.320  -3.748  1.00  0.00     0.008 A 
ATOM     17  C   UNL     1      -0.081  -2.553  -4.813  1.00  0.00     0.008 A 
ATOM     18  C   UNL     1       2.478  -2.489  -3.685  1.00  0.00    -0.008 A 
ATOM     19  C   UNL     1       0.686  -3.721  -4.749  1.00  0.00    -0.008 A 
ATOM     20  C   UNL     1       1.964  -3.690  -4.184  1.00  0.00    -0.109 A 
ATOM     21  O   UNL     1       2.724  -4.851  -4.121  1.00  0.00    -0.872 OA
ENDBRANCH  12  15
ENDBRANCH   1   5
BRANCH   3  22
ATOM     22  C   UNL     1       0.448   1.332   2.314  1.00  0.00     0.043 A 
ATOM     23  C   UNL     1      -0.756   1.430   3.030  1.00  0.00     0.028 A 
ATOM     24  C   UNL     1       1.646   1.168   3.020  1.00  0.00     0.028 A 
ATOM     25  C   UNL     1      -0.754   1.400   4.428  1.00  0.00     0.028 A 
ATOM     26  C   UNL     1       1.651   1.139   4.417  1.00  0.00     0.028 A 
ATOM     27  C   UNL     1       0.451   1.258   5.147  1.00  0.00     0.036 A 
BRANCH  27  28
ATOM     28  N   UNL     1       0.454   1.228   6.599  1.00  0.00    -0.378 N 
ATOM     29  C   UNL     1       1.683   1.520   7.348  1.00  0.00     0.143 C 
ATOM     30  C   UNL     1      -0.770   0.907   7.342  1.00  0.00     0.143 C 
ENDBRANCH  27  28
ENDBRANCH   3  22
TORSDOF 4


