MODEL 1
REMARK VINA RESULT:      -5.7      0.000      0.000
REMARK SMILES O/C=C(\O)Oc1nccc2ccc(-c3cccc([C@H]4CO4)c3)cc12
REMARK SMILES IDX 3 1 2 2 1 3 4 5 5 7 6 8 7 9 24 10 8 11 23 12 10 13 9 14
REMARK SMILES IDX 13 15 11 16 12 17 14 18 15 19 22 20 16 21 18 22 17 23 19 24
REMARK SMILES IDX 21 25 20 26
REMARK H PARENT 1 4 4 6
ROOT
ATOM      1  C   UNL     1      45.870 127.037  22.879  1.00  0.00     0.319 C 
ENDROOT
BRANCH   1   2
ATOM      2  C   UNL     1      46.065 125.890  22.230  1.00  0.00     0.271 C 
BRANCH   2   3
ATOM      3  O   UNL     1      47.264 125.182  22.320  1.00  0.00    -0.508 OA
ATOM      4  H   UNL     1      47.485 124.406  21.706  1.00  0.00     0.293 HD
ENDBRANCH   2   3
ENDBRANCH   1   2
BRANCH   1   5
ATOM      5  O   UNL     1      46.159 127.124  24.243  1.00  0.00    -0.478 OA
ATOM      6  H   UNL     1      45.912 126.390  24.892  1.00  0.00     0.297 HD
ENDBRANCH   1   5
BRANCH   1   7
ATOM      7  O   UNL     1      45.415 128.149  22.159  1.00  0.00    -0.404 OA
BRANCH   7   8
ATOM      8  C   UNL     1      44.694 129.219  22.709  1.00  0.00     0.230 A 
ATOM      9  N   UNL     1      44.418 129.252  24.043  1.00  0.00    -0.221 NA
ATOM     10  C   UNL     1      44.213 130.247  21.875  1.00  0.00     0.045 A 
ATOM     11  C   UNL     1      43.704 130.257  24.611  1.00  0.00     0.116 A 
ATOM     12  C   UNL     1      44.462 130.248  20.491  1.00  0.00     0.023 A 
ATOM     13  C   UNL     1      43.467 131.301  22.449  1.00  0.00    -0.011 A 
ATOM     14  C   UNL     1      43.216 131.302  23.826  1.00  0.00     0.029 A 
ATOM     15  C   UNL     1      43.976 131.288  19.676  1.00  0.00    -0.018 A 
ATOM     16  C   UNL     1      42.986 132.336  21.638  1.00  0.00     0.009 A 
ATOM     17  C   UNL     1      43.239 132.330  20.264  1.00  0.00     0.009 A 
BRANCH  15  18
ATOM     18  C   UNL     1      44.241 131.284  18.215  1.00  0.00    -0.018 A 
ATOM     19  C   UNL     1      43.286 131.792  17.315  1.00  0.00     0.009 A 
ATOM     20  C   UNL     1      45.450 130.772  17.709  1.00  0.00     0.015 A 
ATOM     21  C   UNL     1      43.534 131.782  15.940  1.00  0.00     0.001 A 
ATOM     22  C   UNL     1      45.707 130.779  16.329  1.00  0.00    -0.016 A 
ATOM     23  C   UNL     1      44.737 131.272  15.446  1.00  0.00     0.006 A 
BRANCH  22  24
ATOM     24  C   UNL     1      46.982 130.196  15.793  1.00  0.00     0.174 C 
ATOM     25  O   UNL     1      47.305 130.725  14.528  1.00  0.00    -0.368 OA
ATOM     26  C   UNL     1      46.859 129.390  14.557  1.00  0.00     0.198 C 
ENDBRANCH  22  24
ENDBRANCH  15  18
ENDBRANCH   7   8
ENDBRANCH   1   7
TORSDOF 7
ENDMDL
MODEL 2
REMARK VINA RESULT:      -5.7      2.326      6.709
REMARK SMILES O/C=C(\O)Oc1nccc2ccc(-c3cccc([C@H]4CO4)c3)cc12
REMARK SMILES IDX 3 1 2 2 1 3 4 5 5 7 6 8 7 9 24 10 8 11 23 12 10 13 9 14
REMARK SMILES IDX 13 15 11 16 12 17 14 18 15 19 22 20 16 21 18 22 17 23 19 24
REMARK SMILES IDX 21 25 20 26
REMARK H PARENT 1 4 4 6
ROOT
ATOM      1  C   UNL     1      45.608 130.621  18.075  1.00  0.00     0.319 C 
ENDROOT
BRANCH   1   2
ATOM      2  C   UNL     1      45.853 129.814  17.043  1.00  0.00     0.271 C 
BRANCH   2   3
ATOM      3  O   UNL     1      47.106 129.753  16.433  1.00  0.00    -0.508 OA
ATOM      4  H   UNL     1      47.564 128.874  16.218  1.00  0.00     0.293 HD
ENDBRANCH   2   3
ENDBRANCH   1   2
BRANCH   1   5
ATOM      5  O   UNL     1      45.069 131.890  17.855  1.00  0.00    -0.478 OA
ATOM      6  H   UNL     1      45.615 132.645  17.461  1.00  0.00     0.297 HD
ENDBRANCH   1   5
BRANCH   1   7
ATOM      7  O   UNL     1      45.860 130.152  19.370  1.00  0.00    -0.404 OA
BRANCH   7   8
ATOM      8  C   UNL     1      45.102 130.481  20.503  1.00  0.00     0.230 A 
ATOM      9  N   UNL     1      44.518 131.707  20.610  1.00  0.00    -0.221 NA
ATOM     10  C   UNL     1      44.974 129.556  21.558  1.00  0.00     0.045 A 
ATOM     11  C   UNL     1      43.795 132.074  21.699  1.00  0.00     0.116 A 
ATOM     12  C   UNL     1      45.569 128.284  21.497  1.00  0.00     0.023 A 
ATOM     13  C   UNL     1      44.224 129.920  22.699  1.00  0.00    -0.011 A 
ATOM     14  C   UNL     1      43.632 131.187  22.764  1.00  0.00     0.029 A 
ATOM     15  C   UNL     1      45.425 127.373  22.560  1.00  0.00    -0.018 A 
ATOM     16  C   UNL     1      44.080 129.013  23.756  1.00  0.00     0.009 A 
ATOM     17  C   UNL     1      44.674 127.750  23.687  1.00  0.00     0.009 A 
BRANCH  15  18
ATOM     18  C   UNL     1      46.056 126.031  22.492  1.00  0.00    -0.018 A 
ATOM     19  C   UNL     1      45.265 124.875  22.365  1.00  0.00     0.009 A 
ATOM     20  C   UNL     1      47.456 125.896  22.555  1.00  0.00     0.015 A 
ATOM     21  C   UNL     1      45.861 123.612  22.307  1.00  0.00     0.001 A 
ATOM     22  C   UNL     1      48.055 124.629  22.479  1.00  0.00    -0.016 A 
ATOM     23  C   UNL     1      47.251 123.487  22.370  1.00  0.00     0.006 A 
BRANCH  22  24
ATOM     24  C   UNL     1      49.545 124.489  22.585  1.00  0.00     0.174 C 
ATOM     25  O   UNL     1      50.210 125.659  22.166  1.00  0.00    -0.368 OA
ATOM     26  C   UNL     1      50.296 124.544  21.309  1.00  0.00     0.198 C 
ENDBRANCH  22  24
ENDBRANCH  15  18
ENDBRANCH   7   8
ENDBRANCH   1   7
TORSDOF 7
ENDMDL
MODEL 3
REMARK VINA RESULT:      -5.3      3.885      6.301
REMARK SMILES O/C=C(\O)Oc1nccc2ccc(-c3cccc([C@H]4CO4)c3)cc12
REMARK SMILES IDX 3 1 2 2 1 3 4 5 5 7 6 8 7 9 24 10 8 11 23 12 10 13 9 14
REMARK SMILES IDX 13 15 11 16 12 17 14 18 15 19 22 20 16 21 18 22 17 23 19 24
REMARK SMILES IDX 21 25 20 26
REMARK H PARENT 1 4 4 6
ROOT
ATOM      1  C   UNL     1      40.145 124.506  23.795  1.00  0.00     0.319 C 
ENDROOT
BRANCH   1   2
ATOM      2  C   UNL     1      40.065 124.064  22.540  1.00  0.00     0.271 C 
BRANCH   2   3
ATOM      3  O   UNL     1      40.222 122.716  22.218  1.00  0.00    -0.508 OA
ATOM      4  H   UNL     1      39.575 122.002  22.535  1.00  0.00     0.293 HD
ENDBRANCH   2   3
ENDBRANCH   1   2
BRANCH   1   5
ATOM      5  O   UNL     1      39.019 124.472  24.620  1.00  0.00    -0.478 OA
ATOM      6  H   UNL     1      38.301 123.766  24.520  1.00  0.00     0.297 HD
ENDBRANCH   1   5
BRANCH   1   7
ATOM      7  O   UNL     1      41.383 124.956  24.272  1.00  0.00    -0.404 OA
BRANCH   7   8
ATOM      8  C   UNL     1      42.615 124.342  24.008  1.00  0.00     0.230 A 
ATOM      9  N   UNL     1      42.778 123.005  24.217  1.00  0.00    -0.221 NA
ATOM     10  C   UNL     1      43.706 125.114  23.563  1.00  0.00     0.045 A 
ATOM     11  C   UNL     1      43.961 122.376  23.995  1.00  0.00     0.116 A 
ATOM     12  C   UNL     1      43.588 126.498  23.346  1.00  0.00     0.023 A 
ATOM     13  C   UNL     1      44.945 124.475  23.327  1.00  0.00    -0.011 A 
ATOM     14  C   UNL     1      45.066 123.098  23.544  1.00  0.00     0.029 A 
ATOM     15  C   UNL     1      44.690 127.250  22.897  1.00  0.00    -0.018 A 
ATOM     16  C   UNL     1      46.040 125.224  22.878  1.00  0.00     0.009 A 
ATOM     17  C   UNL     1      45.913 126.599  22.665  1.00  0.00     0.009 A 
BRANCH  15  18
ATOM     18  C   UNL     1      44.561 128.711  22.670  1.00  0.00    -0.018 A 
ATOM     19  C   UNL     1      43.820 129.510  23.559  1.00  0.00     0.009 A 
ATOM     20  C   UNL     1      45.178 129.319  21.560  1.00  0.00     0.015 A 
ATOM     21  C   UNL     1      43.694 130.884  23.340  1.00  0.00     0.001 A 
ATOM     22  C   UNL     1      45.067 130.702  21.350  1.00  0.00    -0.016 A 
ATOM     23  C   UNL     1      44.310 131.479  22.236  1.00  0.00     0.006 A 
BRANCH  22  24
ATOM     24  C   UNL     1      45.695 131.338  20.144  1.00  0.00     0.174 C 
ATOM     25  O   UNL     1      44.753 131.555  19.119  1.00  0.00    -0.368 OA
ATOM     26  C   UNL     1      45.690 130.526  18.905  1.00  0.00     0.198 C 
ENDBRANCH  22  24
ENDBRANCH  15  18
ENDBRANCH   7   8
ENDBRANCH   1   7
TORSDOF 7
ENDMDL
MODEL 4
REMARK VINA RESULT:      -5.3      3.462      7.010
REMARK SMILES O/C=C(\O)Oc1nccc2ccc(-c3cccc([C@H]4CO4)c3)cc12
REMARK SMILES IDX 3 1 2 2 1 3 4 5 5 7 6 8 7 9 24 10 8 11 23 12 10 13 9 14
REMARK SMILES IDX 13 15 11 16 12 17 14 18 15 19 22 20 16 21 18 22 17 23 19 24
REMARK SMILES IDX 21 25 20 26
REMARK H PARENT 1 4 4 6
ROOT
ATOM      1  C   UNL     1      44.551 130.884  21.358  1.00  0.00     0.319 C 
ENDROOT
BRANCH   1   2
ATOM      2  C   UNL     1      45.513 131.412  20.601  1.00  0.00     0.271 C 
BRANCH   2   3
ATOM      3  O   UNL     1      46.659 131.983  21.154  1.00  0.00    -0.508 OA
ATOM      4  H   UNL     1      46.778 132.986  21.246  1.00  0.00     0.293 HD
ENDBRANCH   2   3
ENDBRANCH   1   2
BRANCH   1   5
ATOM      5  O   UNL     1      43.236 131.336  21.229  1.00  0.00    -0.478 OA
ATOM      6  H   UNL     1      42.454 130.699  21.160  1.00  0.00     0.297 HD
ENDBRANCH   1   5
BRANCH   1   7
ATOM      7  O   UNL     1      44.882 129.848  22.241  1.00  0.00    -0.404 OA
BRANCH   7   8
ATOM      8  C   UNL     1      43.953 129.042  22.914  1.00  0.00     0.230 A 
ATOM      9  N   UNL     1      42.805 129.582  23.414  1.00  0.00    -0.221 NA
ATOM     10  C   UNL     1      44.221 127.674  23.114  1.00  0.00     0.045 A 
ATOM     11  C   UNL     1      41.890 128.841  24.091  1.00  0.00     0.116 A 
ATOM     12  C   UNL     1      45.397 127.076  22.627  1.00  0.00     0.023 A 
ATOM     13  C   UNL     1      43.280 126.888  23.817  1.00  0.00    -0.011 A 
ATOM     14  C   UNL     1      42.109 127.480  24.304  1.00  0.00     0.029 A 
ATOM     15  C   UNL     1      45.644 125.706  22.834  1.00  0.00    -0.018 A 
ATOM     16  C   UNL     1      43.525 125.524  24.020  1.00  0.00     0.009 A 
ATOM     17  C   UNL     1      44.696 124.939  23.533  1.00  0.00     0.009 A 
BRANCH  15  18
ATOM     18  C   UNL     1      46.888 125.080  22.320  1.00  0.00    -0.018 A 
ATOM     19  C   UNL     1      46.829 123.914  21.534  1.00  0.00     0.009 A 
ATOM     20  C   UNL     1      48.145 125.642  22.612  1.00  0.00     0.015 A 
ATOM     21  C   UNL     1      48.001 123.323  21.057  1.00  0.00     0.001 A 
ATOM     22  C   UNL     1      49.321 125.058  22.117  1.00  0.00    -0.016 A 
ATOM     23  C   UNL     1      49.244 123.888  21.351  1.00  0.00     0.006 A 
BRANCH  22  24
ATOM     24  C   UNL     1      50.659 125.641  22.464  1.00  0.00     0.174 C 
ATOM     25  O   UNL     1      51.625 125.351  21.479  1.00  0.00    -0.368 OA
ATOM     26  C   UNL     1      51.750 124.667  22.704  1.00  0.00     0.198 C 
ENDBRANCH  22  24
ENDBRANCH  15  18
ENDBRANCH   7   8
ENDBRANCH   1   7
TORSDOF 7
ENDMDL
MODEL 5
REMARK VINA RESULT:      -5.0      2.406      7.192
REMARK SMILES O/C=C(\O)Oc1nccc2ccc(-c3cccc([C@H]4CO4)c3)cc12
REMARK SMILES IDX 3 1 2 2 1 3 4 5 5 7 6 8 7 9 24 10 8 11 23 12 10 13 9 14
REMARK SMILES IDX 13 15 11 16 12 17 14 18 15 19 22 20 16 21 18 22 17 23 19 24
REMARK SMILES IDX 21 25 20 26
REMARK H PARENT 1 4 4 6
ROOT
ATOM      1  C   UNL     1      45.604 130.608  18.217  1.00  0.00     0.319 C 
ENDROOT
BRANCH   1   2
ATOM      2  C   UNL     1      46.196 129.901  17.255  1.00  0.00     0.271 C 
BRANCH   2   3
ATOM      3  O   UNL     1      45.768 129.952  15.928  1.00  0.00    -0.508 OA
ATOM      4  H   UNL     1      46.372 130.258  15.173  1.00  0.00     0.293 HD
ENDBRANCH   2   3
ENDBRANCH   1   2
BRANCH   1   5
ATOM      5  O   UNL     1      44.730 131.644  17.884  1.00  0.00    -0.478 OA
ATOM      6  H   UNL     1      44.745 132.534  18.362  1.00  0.00     0.297 HD
ENDBRANCH   1   5
BRANCH   1   7
ATOM      7  O   UNL     1      45.844 130.260  19.553  1.00  0.00    -0.404 OA
BRANCH   7   8
ATOM      8  C   UNL     1      44.977 130.532  20.620  1.00  0.00     0.230 A 
ATOM      9  N   UNL     1      44.343 131.735  20.703  1.00  0.00    -0.221 NA
ATOM     10  C   UNL     1      44.788 129.576  21.637  1.00  0.00     0.045 A 
ATOM     11  C   UNL     1      43.512 132.048  21.731  1.00  0.00     0.116 A 
ATOM     12  C   UNL     1      45.431 128.326  21.599  1.00  0.00     0.023 A 
ATOM     13  C   UNL     1      43.927 129.884  22.715  1.00  0.00    -0.011 A 
ATOM     14  C   UNL     1      43.287 131.128  22.756  1.00  0.00     0.029 A 
ATOM     15  C   UNL     1      45.225 127.382  22.623  1.00  0.00    -0.018 A 
ATOM     16  C   UNL     1      43.721 128.943  23.732  1.00  0.00     0.009 A 
ATOM     17  C   UNL     1      44.364 127.704  23.686  1.00  0.00     0.009 A 
BRANCH  15  18
ATOM     18  C   UNL     1      45.907 126.064  22.579  1.00  0.00    -0.018 A 
ATOM     19  C   UNL     1      47.275 125.977  22.264  1.00  0.00     0.009 A 
ATOM     20  C   UNL     1      45.194 124.881  22.852  1.00  0.00     0.015 A 
ATOM     21  C   UNL     1      47.913 124.735  22.218  1.00  0.00     0.001 A 
ATOM     22  C   UNL     1      45.839 123.636  22.824  1.00  0.00    -0.016 A 
ATOM     23  C   UNL     1      47.198 123.567  22.491  1.00  0.00     0.006 A 
BRANCH  22  24
ATOM     24  C   UNL     1      45.064 122.376  23.078  1.00  0.00     0.174 C 
ATOM     25  O   UNL     1      43.831 122.376  22.397  1.00  0.00    -0.368 OA
ATOM     26  C   UNL     1      43.778 122.537  23.794  1.00  0.00     0.198 C 
ENDBRANCH  22  24
ENDBRANCH  15  18
ENDBRANCH   7   8
ENDBRANCH   1   7
TORSDOF 7
ENDMDL
MODEL 6
REMARK VINA RESULT:      -4.9      2.363      7.177
REMARK SMILES O/C=C(\O)Oc1nccc2ccc(-c3cccc([C@H]4CO4)c3)cc12
REMARK SMILES IDX 3 1 2 2 1 3 4 5 5 7 6 8 7 9 24 10 8 11 23 12 10 13 9 14
REMARK SMILES IDX 13 15 11 16 12 17 14 18 15 19 22 20 16 21 18 22 17 23 19 24
REMARK SMILES IDX 21 25 20 26
REMARK H PARENT 1 4 4 6
ROOT
ATOM      1  C   UNL     1      45.505 130.436  17.210  1.00  0.00     0.319 C 
ENDROOT
BRANCH   1   2
ATOM      2  C   UNL     1      46.079 129.634  16.314  1.00  0.00     0.271 C 
BRANCH   2   3
ATOM      3  O   UNL     1      47.437 129.722  16.005  1.00  0.00    -0.508 OA
ATOM      4  H   UNL     1      48.011 128.903  15.835  1.00  0.00     0.293 HD
ENDBRANCH   2   3
ENDBRANCH   1   2
BRANCH   1   5
ATOM      5  O   UNL     1      44.650 131.455  16.786  1.00  0.00    -0.478 OA
ATOM      6  H   UNL     1      43.950 131.857  17.395  1.00  0.00     0.297 HD
ENDBRANCH   1   5
BRANCH   1   7
ATOM      7  O   UNL     1      45.743 130.205  18.571  1.00  0.00    -0.404 OA
BRANCH   7   8
ATOM      8  C   UNL     1      45.005 130.769  19.621  1.00  0.00     0.230 A 
ATOM      9  N   UNL     1      44.476 132.019  19.497  1.00  0.00    -0.221 NA
ATOM     10  C   UNL     1      44.841 130.062  20.828  1.00  0.00     0.045 A 
ATOM     11  C   UNL     1      43.774 132.612  20.498  1.00  0.00     0.116 A 
ATOM     12  C   UNL     1      45.380 128.775  21.005  1.00  0.00     0.023 A 
ATOM     13  C   UNL     1      44.114 130.663  21.880  1.00  0.00    -0.011 A 
ATOM     14  C   UNL     1      43.578 131.945  21.707  1.00  0.00     0.029 A 
ATOM     15  C   UNL     1      45.201 128.084  22.217  1.00  0.00    -0.018 A 
ATOM     16  C   UNL     1      43.934 129.974  23.086  1.00  0.00     0.009 A 
ATOM     17  C   UNL     1      44.473 128.695  23.252  1.00  0.00     0.009 A 
BRANCH  15  18
ATOM     18  C   UNL     1      45.773 126.726  22.400  1.00  0.00    -0.018 A 
ATOM     19  C   UNL     1      47.165 126.531  22.404  1.00  0.00     0.009 A 
ATOM     20  C   UNL     1      44.928 125.612  22.571  1.00  0.00     0.015 A 
ATOM     21  C   UNL     1      47.701 125.251  22.570  1.00  0.00     0.001 A 
ATOM     22  C   UNL     1      45.467 124.330  22.757  1.00  0.00    -0.016 A 
ATOM     23  C   UNL     1      46.856 124.152  22.740  1.00  0.00     0.006 A 
BRANCH  22  24
ATOM     24  C   UNL     1      44.560 123.142  22.900  1.00  0.00     0.174 C 
ATOM     25  O   UNL     1      43.651 123.306  23.964  1.00  0.00    -0.368 OA
ATOM     26  C   UNL     1      44.689 122.375  24.161  1.00  0.00     0.198 C 
ENDBRANCH  22  24
ENDBRANCH  15  18
ENDBRANCH   7   8
ENDBRANCH   1   7
TORSDOF 7
ENDMDL
MODEL 7
REMARK VINA RESULT:      -4.6      3.132      3.849
REMARK SMILES O/C=C(\O)Oc1nccc2ccc(-c3cccc([C@H]4CO4)c3)cc12
REMARK SMILES IDX 3 1 2 2 1 3 4 5 5 7 6 8 7 9 24 10 8 11 23 12 10 13 9 14
REMARK SMILES IDX 13 15 11 16 12 17 14 18 15 19 22 20 16 21 18 22 17 23 19 24
REMARK SMILES IDX 21 25 20 26
REMARK H PARENT 1 4 4 6
ROOT
ATOM      1  C   UNL     1      47.702 133.640  21.805  1.00  0.00     0.319 C 
ENDROOT
BRANCH   1   2
ATOM      2  C   UNL     1      48.707 133.406  22.648  1.00  0.00     0.271 C 
BRANCH   2   3
ATOM      3  O   UNL     1      48.911 134.182  23.790  1.00  0.00    -0.508 OA
ATOM      4  H   UNL     1      48.817 133.807  24.727  1.00  0.00     0.293 HD
ENDBRANCH   2   3
ENDBRANCH   1   2
BRANCH   1   5
ATOM      5  O   UNL     1      47.468 134.936  21.341  1.00  0.00    -0.478 OA
ATOM      6  H   UNL     1      46.570 135.221  20.974  1.00  0.00     0.297 HD
ENDBRANCH   1   5
BRANCH   1   7
ATOM      7  O   UNL     1      46.925 132.559  21.369  1.00  0.00    -0.404 OA
BRANCH   7   8
ATOM      8  C   UNL     1      45.580 132.350  21.709  1.00  0.00     0.230 A 
ATOM      9  N   UNL     1      45.175 132.441  23.007  1.00  0.00    -0.221 NA
ATOM     10  C   UNL     1      44.647 132.003  20.713  1.00  0.00     0.045 A 
ATOM     11  C   UNL     1      43.888 132.224  23.382  1.00  0.00     0.116 A 
ATOM     12  C   UNL     1      45.022 131.886  19.362  1.00  0.00     0.023 A 
ATOM     13  C   UNL     1      43.303 131.774  21.084  1.00  0.00    -0.011 A 
ATOM     14  C   UNL     1      42.927 131.888  22.428  1.00  0.00     0.029 A 
ATOM     15  C   UNL     1      44.073 131.543  18.382  1.00  0.00    -0.018 A 
ATOM     16  C   UNL     1      42.358 131.434  20.108  1.00  0.00     0.009 A 
ATOM     17  C   UNL     1      42.740 131.321  18.768  1.00  0.00     0.009 A 
BRANCH  15  18
ATOM     18  C   UNL     1      44.473 131.419  16.957  1.00  0.00    -0.018 A 
ATOM     19  C   UNL     1      43.571 131.747  15.930  1.00  0.00     0.009 A 
ATOM     20  C   UNL     1      45.762 130.969  16.614  1.00  0.00     0.015 A 
ATOM     21  C   UNL     1      43.947 131.624  14.590  1.00  0.00     0.001 A 
ATOM     22  C   UNL     1      46.147 130.863  15.269  1.00  0.00    -0.016 A 
ATOM     23  C   UNL     1      45.229 131.177  14.259  1.00  0.00     0.006 A 
BRANCH  22  24
ATOM     24  C   UNL     1      47.509 130.346  14.910  1.00  0.00     0.174 C 
ATOM     25  O   UNL     1      47.901 130.761  13.621  1.00  0.00    -0.368 OA
ATOM     26  C   UNL     1      47.567 129.401  13.770  1.00  0.00     0.198 C 
ENDBRANCH  22  24
ENDBRANCH  15  18
ENDBRANCH   7   8
ENDBRANCH   1   7
TORSDOF 7
ENDMDL
MODEL 8
REMARK VINA RESULT:      -4.3      2.397      7.008
REMARK SMILES O/C=C(\O)Oc1nccc2ccc(-c3cccc([C@H]4CO4)c3)cc12
REMARK SMILES IDX 3 1 2 2 1 3 4 5 5 7 6 8 7 9 24 10 8 11 23 12 10 13 9 14
REMARK SMILES IDX 13 15 11 16 12 17 14 18 15 19 22 20 16 21 18 22 17 23 19 24
REMARK SMILES IDX 21 25 20 26
REMARK H PARENT 1 4 4 6
ROOT
ATOM      1  C   UNL     1      45.821 129.946  16.938  1.00  0.00     0.319 C 
ENDROOT
BRANCH   1   2
ATOM      2  C   UNL     1      45.908 131.104  16.283  1.00  0.00     0.271 C 
BRANCH   2   3
ATOM      3  O   UNL     1      44.853 131.604  15.520  1.00  0.00    -0.508 OA
ATOM      4  H   UNL     1      44.890 131.656  14.508  1.00  0.00     0.293 HD
ENDBRANCH   2   3
ENDBRANCH   1   2
BRANCH   1   5
ATOM      5  O   UNL     1      45.433 128.789  16.260  1.00  0.00    -0.478 OA
ATOM      6  H   UNL     1      44.726 128.165  16.624  1.00  0.00     0.297 HD
ENDBRANCH   1   5
BRANCH   1   7
ATOM      7  O   UNL     1      46.167 129.913  18.295  1.00  0.00    -0.404 OA
BRANCH   7   8
ATOM      8  C   UNL     1      45.464 130.567  19.317  1.00  0.00     0.230 A 
ATOM      9  N   UNL     1      45.046 131.853  19.153  1.00  0.00    -0.221 NA
ATOM     10  C   UNL     1      45.223 129.909  20.538  1.00  0.00     0.045 A 
ATOM     11  C   UNL     1      44.383 132.530  20.126  1.00  0.00     0.116 A 
ATOM     12  C   UNL     1      45.646 128.586  20.757  1.00  0.00     0.023 A 
ATOM     13  C   UNL     1      44.533 130.597  21.562  1.00  0.00    -0.011 A 
ATOM     14  C   UNL     1      44.112 131.915  21.348  1.00  0.00     0.029 A 
ATOM     15  C   UNL     1      45.390 127.945  21.984  1.00  0.00    -0.018 A 
ATOM     16  C   UNL     1      44.278 129.958  22.782  1.00  0.00     0.009 A 
ATOM     17  C   UNL     1      44.702 128.643  22.990  1.00  0.00     0.009 A 
BRANCH  15  18
ATOM     18  C   UNL     1      45.841 126.548  22.211  1.00  0.00    -0.018 A 
ATOM     19  C   UNL     1      44.921 125.553  22.585  1.00  0.00     0.009 A 
ATOM     20  C   UNL     1      47.196 126.201  22.057  1.00  0.00     0.015 A 
ATOM     21  C   UNL     1      45.348 124.240  22.805  1.00  0.00     0.001 A 
ATOM     22  C   UNL     1      47.622 124.879  22.260  1.00  0.00    -0.016 A 
ATOM     23  C   UNL     1      46.694 123.904  22.649  1.00  0.00     0.006 A 
BRANCH  22  24
ATOM     24  C   UNL     1      49.074 124.523  22.132  1.00  0.00     0.174 C 
ATOM     25  O   UNL     1      49.474 123.601  23.120  1.00  0.00    -0.368 OA
ATOM     26  C   UNL     1      49.944 124.921  23.263  1.00  0.00     0.198 C 
ENDBRANCH  22  24
ENDBRANCH  15  18
ENDBRANCH   7   8
ENDBRANCH   1   7
TORSDOF 7
ENDMDL
MODEL 9
REMARK VINA RESULT:      -4.2      1.032      1.134
REMARK SMILES O/C=C(\O)Oc1nccc2ccc(-c3cccc([C@H]4CO4)c3)cc12
REMARK SMILES IDX 3 1 2 2 1 3 4 5 5 7 6 8 7 9 24 10 8 11 23 12 10 13 9 14
REMARK SMILES IDX 13 15 11 16 12 17 14 18 15 19 22 20 16 21 18 22 17 23 19 24
REMARK SMILES IDX 21 25 20 26
REMARK H PARENT 1 4 4 6
ROOT
ATOM      1  C   UNL     1      44.945 127.692  22.877  1.00  0.00     0.319 C 
ENDROOT
BRANCH   1   2
ATOM      2  C   UNL     1      46.080 127.021  23.071  1.00  0.00     0.271 C 
BRANCH   2   3
ATOM      3  O   UNL     1      46.451 125.944  22.265  1.00  0.00    -0.508 OA
ATOM      4  H   UNL     1      45.800 125.212  22.002  1.00  0.00     0.293 HD
ENDBRANCH   2   3
ENDBRANCH   1   2
BRANCH   1   5
ATOM      5  O   UNL     1      43.723 127.104  23.208  1.00  0.00    -0.478 OA
ATOM      6  H   UNL     1      43.643 126.402  23.931  1.00  0.00     0.297 HD
ENDBRANCH   1   5
BRANCH   1   7
ATOM      7  O   UNL     1      45.013 129.000  22.380  1.00  0.00    -0.404 OA
BRANCH   7   8
ATOM      8  C   UNL     1      44.146 130.040  22.743  1.00  0.00     0.230 A 
ATOM      9  N   UNL     1      43.799 130.225  24.048  1.00  0.00    -0.221 NA
ATOM     10  C   UNL     1      43.596 130.877  21.753  1.00  0.00     0.045 A 
ATOM     11  C   UNL     1      42.945 131.205  24.439  1.00  0.00     0.116 A 
ATOM     12  C   UNL     1      43.916 130.716  20.393  1.00  0.00     0.023 A 
ATOM     13  C   UNL     1      42.705 131.903  22.142  1.00  0.00    -0.011 A 
ATOM     14  C   UNL     1      42.384 132.065  23.495  1.00  0.00     0.029 A 
ATOM     15  C   UNL     1      43.358 131.566  19.420  1.00  0.00    -0.018 A 
ATOM     16  C   UNL     1      42.152 132.750  21.173  1.00  0.00     0.009 A 
ATOM     17  C   UNL     1      42.476 132.583  19.825  1.00  0.00     0.009 A 
BRANCH  15  18
ATOM     18  C   UNL     1      43.697 131.392  17.985  1.00  0.00    -0.018 A 
ATOM     19  C   UNL     1      43.016 132.124  16.996  1.00  0.00     0.009 A 
ATOM     20  C   UNL     1      44.705 130.490  17.594  1.00  0.00     0.015 A 
ATOM     21  C   UNL     1      43.333 131.953  15.645  1.00  0.00     0.001 A 
ATOM     22  C   UNL     1      45.036 130.333  16.239  1.00  0.00    -0.016 A 
ATOM     23  C   UNL     1      44.335 131.057  15.266  1.00  0.00     0.006 A 
BRANCH  22  24
ATOM     24  C   UNL     1      46.085 129.342  15.826  1.00  0.00     0.174 C 
ATOM     25  O   UNL     1      47.364 129.716  16.284  1.00  0.00    -0.368 OA
ATOM     26  C   UNL     1      47.127 129.846  14.902  1.00  0.00     0.198 C 
ENDBRANCH  22  24
ENDBRANCH  15  18
ENDBRANCH   7   8
ENDBRANCH   1   7
TORSDOF 7
ENDMDL


