MODEL 1
REMARK VINA RESULT:      -9.6      0.000      0.000
REMARK SMILES CC(=O)c1cc(N)c(Nc2ccc(C)nc2F)cc1F
REMARK SMILES IDX 4 1 5 2 6 3 8 4 18 5 19 6 20 7 2 8 1 9 3 10 7 11 9 14 10 16
REMARK SMILES IDX 11 17 16 18 12 19 15 20 13 21 17 22 14 23
REMARK H PARENT 7 12 7 13 9 15
ROOT
ATOM      1  C   UNL     1      43.964 131.294  20.872  1.00  0.00     0.055 A 
ATOM      2  C   UNL     1      42.855 131.813  20.177  1.00  0.00     0.042 A 
ATOM      3  C   UNL     1      42.886 131.986  18.785  1.00  0.00     0.056 A 
ATOM      4  C   UNL     1      44.058 131.658  18.070  1.00  0.00     0.065 A 
ATOM      5  C   UNL     1      45.146 131.104  18.752  1.00  0.00     0.068 A 
ATOM      6  C   UNL     1      45.111 130.925  20.137  1.00  0.00     0.136 A 
ATOM      7  F   UNL     1      46.189 130.365  20.737  1.00  0.00    -0.206 F 
ENDROOT
BRANCH   1   8
ATOM      8  C   UNL     1      43.883 131.134  22.350  1.00  0.00     0.162 C 
ATOM      9  C   UNL     1      43.005 130.107  23.002  1.00  0.00     0.093 C 
ATOM     10  O   UNL     1      44.567 131.887  23.094  1.00  0.00    -0.294 OA
ENDBRANCH   1   8
BRANCH   3  11
ATOM     11  N   UNL     1      41.709 132.456  18.115  1.00  0.00    -0.397 N 
ATOM     12  H   UNL     1      41.672 132.499  17.073  1.00  0.00     0.156 HD
ATOM     13  H   UNL     1      40.891 132.836  18.641  1.00  0.00     0.156 HD
ENDBRANCH   3  11
BRANCH   4  14
ATOM     14  N   UNL     1      44.157 131.852  16.652  1.00  0.00    -0.350 N 
ATOM     15  H   UNL     1      43.390 132.386  16.185  1.00  0.00     0.167 HD
BRANCH  14  16
ATOM     16  C   UNL     1      45.181 131.271  15.823  1.00  0.00     0.095 A 
ATOM     17  C   UNL     1      46.076 132.114  15.150  1.00  0.00     0.033 A 
ATOM     18  C   UNL     1      45.303 129.879  15.638  1.00  0.00     0.236 A 
ATOM     19  C   UNL     1      47.078 131.578  14.342  1.00  0.00     0.026 A 
ATOM     20  N   UNL     1      46.289 129.383  14.842  1.00  0.00    -0.223 NA
ATOM     21  C   UNL     1      47.180 130.189  14.205  1.00  0.00     0.041 A 
ATOM     22  F   UNL     1      44.430 129.013  16.208  1.00  0.00    -0.183 F 
ATOM     23  C   UNL     1      48.234 129.589  13.330  1.00  0.00     0.067 C 
ENDBRANCH  14  16
ENDBRANCH   4  14
TORSDOF 4
ENDMDL
MODEL 2
REMARK VINA RESULT:      -9.3      1.221      1.519
REMARK SMILES CC(=O)c1cc(N)c(Nc2ccc(C)nc2F)cc1F
REMARK SMILES IDX 4 1 5 2 6 3 8 4 18 5 19 6 20 7 2 8 1 9 3 10 7 11 9 14 10 16
REMARK SMILES IDX 11 17 16 18 12 19 15 20 13 21 17 22 14 23
REMARK H PARENT 7 12 7 13 9 15
ROOT
ATOM      1  C   UNL     1      43.910 131.420  21.074  1.00  0.00     0.055 A 
ATOM      2  C   UNL     1      42.811 131.976  20.394  1.00  0.00     0.042 A 
ATOM      3  C   UNL     1      42.799 132.080  18.995  1.00  0.00     0.056 A 
ATOM      4  C   UNL     1      43.919 131.644  18.257  1.00  0.00     0.065 A 
ATOM      5  C   UNL     1      44.996 131.054  18.926  1.00  0.00     0.068 A 
ATOM      6  C   UNL     1      45.002 130.943  20.319  1.00  0.00     0.136 A 
ATOM      7  F   UNL     1      46.066 130.344  20.907  1.00  0.00    -0.206 F 
ENDROOT
BRANCH   1   8
ATOM      8  C   UNL     1      43.876 131.336  22.561  1.00  0.00     0.162 C 
ATOM      9  C   UNL     1      42.890 130.478  23.296  1.00  0.00     0.093 C 
ATOM     10  O   UNL     1      44.697 132.011  23.239  1.00  0.00    -0.294 OA
ENDBRANCH   1   8
BRANCH   3  11
ATOM     11  N   UNL     1      41.629 132.594  18.344  1.00  0.00    -0.397 N 
ATOM     12  H   UNL     1      41.622 132.755  17.313  1.00  0.00     0.156 HD
ATOM     13  H   UNL     1      40.786 132.891  18.882  1.00  0.00     0.156 HD
ENDBRANCH   3  11
BRANCH   4  14
ATOM     14  N   UNL     1      43.976 131.763  16.828  1.00  0.00    -0.350 N 
ATOM     15  H   UNL     1      43.172 132.231  16.352  1.00  0.00     0.167 HD
BRANCH  14  16
ATOM     16  C   UNL     1      45.010 131.190  16.006  1.00  0.00     0.095 A 
ATOM     17  C   UNL     1      45.020 129.806  15.784  1.00  0.00     0.033 A 
ATOM     18  C   UNL     1      46.038 131.967  15.434  1.00  0.00     0.236 A 
ATOM     19  C   UNL     1      46.008 129.225  14.990  1.00  0.00     0.026 A 
ATOM     20  N   UNL     1      46.992 131.374  14.666  1.00  0.00    -0.223 NA
ATOM     21  C   UNL     1      46.996 130.037  14.421  1.00  0.00     0.041 A 
ATOM     22  F   UNL     1      46.123 133.300  15.664  1.00  0.00    -0.183 F 
ATOM     23  C   UNL     1      48.078 129.436  13.581  1.00  0.00     0.067 C 
ENDBRANCH  14  16
ENDBRANCH   4  14
TORSDOF 4
ENDMDL
MODEL 3
REMARK VINA RESULT:      -8.8      1.218      1.340
REMARK SMILES CC(=O)c1cc(N)c(Nc2ccc(C)nc2F)cc1F
REMARK SMILES IDX 4 1 5 2 6 3 8 4 18 5 19 6 20 7 2 8 1 9 3 10 7 11 9 14 10 16
REMARK SMILES IDX 11 17 16 18 12 19 15 20 13 21 17 22 14 23
REMARK H PARENT 7 12 7 13 9 15
ROOT
ATOM      1  C   UNL     1      43.906 131.313  21.299  1.00  0.00     0.055 A 
ATOM      2  C   UNL     1      42.790 131.903  20.678  1.00  0.00     0.042 A 
ATOM      3  C   UNL     1      42.741 132.082  19.287  1.00  0.00     0.056 A 
ATOM      4  C   UNL     1      43.841 131.686  18.497  1.00  0.00     0.065 A 
ATOM      5  C   UNL     1      44.935 131.062  19.106  1.00  0.00     0.068 A 
ATOM      6  C   UNL     1      44.978 130.878  20.490  1.00  0.00     0.136 A 
ATOM      7  F   UNL     1      46.056 130.249  21.018  1.00  0.00    -0.206 F 
ENDROOT
BRANCH   1   8
ATOM      8  C   UNL     1      43.911 131.150  22.779  1.00  0.00     0.162 C 
ATOM      9  C   UNL     1      44.178 129.832  23.443  1.00  0.00     0.093 C 
ATOM     10  O   UNL     1      43.678 132.148  23.513  1.00  0.00    -0.294 OA
ENDBRANCH   1   8
BRANCH   3  11
ATOM     11  N   UNL     1      41.554 132.628  18.696  1.00  0.00    -0.397 N 
ATOM     12  H   UNL     1      40.620 132.206  18.893  1.00  0.00     0.156 HD
ATOM     13  H   UNL     1      41.594 133.405  18.001  1.00  0.00     0.156 HD
ENDBRANCH   3  11
BRANCH   4  14
ATOM     14  N   UNL     1      43.861 131.881  17.076  1.00  0.00    -0.350 N 
ATOM     15  H   UNL     1      43.064 132.409  16.652  1.00  0.00     0.167 HD
BRANCH  14  16
ATOM     16  C   UNL     1      44.842 131.310  16.191  1.00  0.00     0.095 A 
ATOM     17  C   UNL     1      45.945 130.638  16.735  1.00  0.00     0.033 A 
ATOM     18  C   UNL     1      44.753 131.425  14.789  1.00  0.00     0.236 A 
ATOM     19  C   UNL     1      46.910 130.073  15.901  1.00  0.00     0.026 A 
ATOM     20  N   UNL     1      45.709 130.867  13.998  1.00  0.00    -0.223 NA
ATOM     21  C   UNL     1      46.769 130.188  14.514  1.00  0.00     0.041 A 
ATOM     22  F   UNL     1      43.747 132.118  14.202  1.00  0.00    -0.183 F 
ATOM     23  C   UNL     1      47.799 129.608  13.598  1.00  0.00     0.067 C 
ENDBRANCH  14  16
ENDBRANCH   4  14
TORSDOF 4
ENDMDL
MODEL 4
REMARK VINA RESULT:      -8.1      3.013      6.614
REMARK SMILES CC(=O)c1cc(N)c(Nc2ccc(C)nc2F)cc1F
REMARK SMILES IDX 4 1 5 2 6 3 8 4 18 5 19 6 20 7 2 8 1 9 3 10 7 11 9 14 10 16
REMARK SMILES IDX 11 17 16 18 12 19 15 20 13 21 17 22 14 23
REMARK H PARENT 7 12 7 13 9 15
ROOT
ATOM      1  C   UNL     1      46.327 130.536  14.674  1.00  0.00     0.055 A 
ATOM      2  C   UNL     1      45.171 131.176  14.190  1.00  0.00     0.042 A 
ATOM      3  C   UNL     1      44.159 131.605  15.061  1.00  0.00     0.056 A 
ATOM      4  C   UNL     1      44.288 131.369  16.446  1.00  0.00     0.065 A 
ATOM      5  C   UNL     1      45.454 130.770  16.935  1.00  0.00     0.068 A 
ATOM      6  C   UNL     1      46.465 130.351  16.067  1.00  0.00     0.136 A 
ATOM      7  F   UNL     1      47.579 129.796  16.603  1.00  0.00    -0.206 F 
ENDROOT
BRANCH   1   8
ATOM      8  C   UNL     1      47.371 130.096  13.707  1.00  0.00     0.162 C 
ATOM      9  C   UNL     1      47.860 130.975  12.595  1.00  0.00     0.093 C 
ATOM     10  O   UNL     1      47.866 128.941  13.813  1.00  0.00    -0.294 OA
ENDBRANCH   1   8
BRANCH   3  11
ATOM     11  N   UNL     1      43.031 132.310  14.525  1.00  0.00    -0.397 N 
ATOM     12  H   UNL     1      42.986 133.352  14.569  1.00  0.00     0.156 HD
ATOM     13  H   UNL     1      42.197 131.808  14.150  1.00  0.00     0.156 HD
ENDBRANCH   3  11
BRANCH   4  14
ATOM     14  N   UNL     1      43.266 131.751  17.377  1.00  0.00    -0.350 N 
ATOM     15  H   UNL     1      42.379 132.141  16.985  1.00  0.00     0.167 HD
BRANCH  14  16
ATOM     16  C   UNL     1      43.423 131.732  18.808  1.00  0.00     0.095 A 
ATOM     17  C   UNL     1      44.615 131.245  19.360  1.00  0.00     0.033 A 
ATOM     18  C   UNL     1      42.405 132.161  19.686  1.00  0.00     0.236 A 
ATOM     19  C   UNL     1      44.794 131.217  20.743  1.00  0.00     0.026 A 
ATOM     20  N   UNL     1      42.605 132.120  21.031  1.00  0.00    -0.223 NA
ATOM     21  C   UNL     1      43.768 131.676  21.576  1.00  0.00     0.041 A 
ATOM     22  F   UNL     1      41.204 132.581  19.218  1.00  0.00    -0.183 F 
ATOM     23  C   UNL     1      43.927 131.639  23.063  1.00  0.00     0.067 C 
ENDBRANCH  14  16
ENDBRANCH   4  14
TORSDOF 4
ENDMDL
MODEL 5
REMARK VINA RESULT:      -7.9      1.287      1.911
REMARK SMILES CC(=O)c1cc(N)c(Nc2ccc(C)nc2F)cc1F
REMARK SMILES IDX 4 1 5 2 6 3 8 4 18 5 19 6 20 7 2 8 1 9 3 10 7 11 9 14 10 16
REMARK SMILES IDX 11 17 16 18 12 19 15 20 13 21 17 22 14 23
REMARK H PARENT 7 12 7 13 9 15
ROOT
ATOM      1  C   UNL     1      43.965 131.402  20.854  1.00  0.00     0.055 A 
ATOM      2  C   UNL     1      45.072 130.886  20.155  1.00  0.00     0.042 A 
ATOM      3  C   UNL     1      45.135 130.935  18.755  1.00  0.00     0.056 A 
ATOM      4  C   UNL     1      44.058 131.487  18.030  1.00  0.00     0.065 A 
ATOM      5  C   UNL     1      42.974 132.038  18.722  1.00  0.00     0.068 A 
ATOM      6  C   UNL     1      42.917 131.996  20.117  1.00  0.00     0.136 A 
ATOM      7  F   UNL     1      41.851 132.564  20.731  1.00  0.00    -0.206 F 
ENDROOT
BRANCH   1   8
ATOM      8  C   UNL     1      43.944 131.322  22.341  1.00  0.00     0.162 C 
ATOM      9  C   UNL     1      42.972 130.457  23.087  1.00  0.00     0.093 C 
ATOM     10  O   UNL     1      44.765 132.006  23.010  1.00  0.00    -0.294 OA
ENDBRANCH   1   8
BRANCH   3  11
ATOM     11  N   UNL     1      46.313 130.455  18.093  1.00  0.00    -0.397 N 
ATOM     12  H   UNL     1      47.222 130.397  18.602  1.00  0.00     0.156 HD
ATOM     13  H   UNL     1      46.317 130.225  17.075  1.00  0.00     0.156 HD
ENDBRANCH   3  11
BRANCH   4  14
ATOM     14  N   UNL     1      44.052 131.527  16.596  1.00  0.00    -0.350 N 
ATOM     15  H   UNL     1      43.179 131.858  16.127  1.00  0.00     0.167 HD
BRANCH  14  16
ATOM     16  C   UNL     1      45.126 131.043  15.766  1.00  0.00     0.095 A 
ATOM     17  C   UNL     1      45.986 131.964  15.154  1.00  0.00     0.033 A 
ATOM     18  C   UNL     1      45.330 129.669  15.520  1.00  0.00     0.236 A 
ATOM     19  C   UNL     1      47.034 131.522  14.347  1.00  0.00     0.026 A 
ATOM     20  N   UNL     1      46.359 129.266  14.727  1.00  0.00    -0.223 NA
ATOM     21  C   UNL     1      47.217 130.149  14.150  1.00  0.00     0.041 A 
ATOM     22  F   UNL     1      44.494 128.731  16.029  1.00  0.00    -0.183 F 
ATOM     23  C   UNL     1      48.322 129.651  13.274  1.00  0.00     0.067 C 
ENDBRANCH  14  16
ENDBRANCH   4  14
TORSDOF 4
ENDMDL
MODEL 6
REMARK VINA RESULT:      -7.5      1.907      2.511
REMARK SMILES CC(=O)c1cc(N)c(Nc2ccc(C)nc2F)cc1F
REMARK SMILES IDX 4 1 5 2 6 3 8 4 18 5 19 6 20 7 2 8 1 9 3 10 7 11 9 14 10 16
REMARK SMILES IDX 11 17 16 18 12 19 15 20 13 21 17 22 14 23
REMARK H PARENT 7 12 7 13 9 15
ROOT
ATOM      1  C   UNL     1      43.473 131.593  20.676  1.00  0.00     0.055 A 
ATOM      2  C   UNL     1      44.624 131.048  20.078  1.00  0.00     0.042 A 
ATOM      3  C   UNL     1      44.787 131.046  18.684  1.00  0.00     0.056 A 
ATOM      4  C   UNL     1      43.767 131.575  17.865  1.00  0.00     0.065 A 
ATOM      5  C   UNL     1      42.640 132.154  18.458  1.00  0.00     0.068 A 
ATOM      6  C   UNL     1      42.484 132.163  19.846  1.00  0.00     0.136 A 
ATOM      7  F   UNL     1      41.380 132.756  20.361  1.00  0.00    -0.206 F 
ENDROOT
BRANCH   1   8
ATOM      8  C   UNL     1      43.346 131.567  22.160  1.00  0.00     0.162 C 
ATOM      9  C   UNL     1      44.090 130.584  23.014  1.00  0.00     0.093 C 
ATOM     10  O   UNL     1      42.584 132.392  22.731  1.00  0.00    -0.294 OA
ENDBRANCH   1   8
BRANCH   3  11
ATOM     11  N   UNL     1      46.006 130.539  18.126  1.00  0.00    -0.397 N 
ATOM     12  H   UNL     1      46.324 130.844  17.179  1.00  0.00     0.156 HD
ATOM     13  H   UNL     1      46.568 129.803  18.607  1.00  0.00     0.156 HD
ENDBRANCH   3  11
BRANCH   4  14
ATOM     14  N   UNL     1      43.864 131.562  16.434  1.00  0.00    -0.350 N 
ATOM     15  H   UNL     1      43.027 131.876  15.892  1.00  0.00     0.167 HD
BRANCH  14  16
ATOM     16  C   UNL     1      44.993 131.049  15.701  1.00  0.00     0.095 A 
ATOM     17  C   UNL     1      45.046 129.683  15.394  1.00  0.00     0.033 A 
ATOM     18  C   UNL     1      46.069 131.868  15.301  1.00  0.00     0.236 A 
ATOM     19  C   UNL     1      46.126 129.160  14.684  1.00  0.00     0.026 A 
ATOM     20  N   UNL     1      47.112 131.331  14.611  1.00  0.00    -0.223 NA
ATOM     21  C   UNL     1      47.161 130.012  14.284  1.00  0.00     0.041 A 
ATOM     22  F   UNL     1      46.110 133.183  15.623  1.00  0.00    -0.183 F 
ATOM     23  C   UNL     1      48.340 129.473  13.538  1.00  0.00     0.067 C 
ENDBRANCH  14  16
ENDBRANCH   4  14
TORSDOF 4
ENDMDL
MODEL 7
REMARK VINA RESULT:      -7.2      3.182      6.815
REMARK SMILES CC(=O)c1cc(N)c(Nc2ccc(C)nc2F)cc1F
REMARK SMILES IDX 4 1 5 2 6 3 8 4 18 5 19 6 20 7 2 8 1 9 3 10 7 11 9 14 10 16
REMARK SMILES IDX 11 17 16 18 12 19 15 20 13 21 17 22 14 23
REMARK H PARENT 7 12 7 13 9 15
ROOT
ATOM      1  C   UNL     1      44.670 130.973  16.681  1.00  0.00     0.055 A 
ATOM      2  C   UNL     1      43.619 131.648  17.329  1.00  0.00     0.042 A 
ATOM      3  C   UNL     1      43.639 131.864  18.715  1.00  0.00     0.056 A 
ATOM      4  C   UNL     1      44.719 131.373  19.479  1.00  0.00     0.065 A 
ATOM      5  C   UNL     1      45.785 130.738  18.833  1.00  0.00     0.068 A 
ATOM      6  C   UNL     1      45.767 130.532  17.451  1.00  0.00     0.136 A 
ATOM      7  F   UNL     1      46.838 129.928  16.881  1.00  0.00    -0.206 F 
ENDROOT
BRANCH   1   8
ATOM      8  C   UNL     1      44.599 130.766  15.208  1.00  0.00     0.162 C 
ATOM      9  C   UNL     1      43.732 131.606  14.318  1.00  0.00     0.093 C 
ATOM     10  O   UNL     1      45.283 129.850  14.677  1.00  0.00    -0.294 OA
ENDBRANCH   1   8
BRANCH   3  11
ATOM     11  N   UNL     1      42.576 132.614  19.320  1.00  0.00    -0.397 N 
ATOM     12  H   UNL     1      41.586 132.297  19.232  1.00  0.00     0.156 HD
ATOM     13  H   UNL     1      42.749 133.527  19.794  1.00  0.00     0.156 HD
ENDBRANCH   3  11
BRANCH   4  14
ATOM     14  N   UNL     1      44.771 131.531  20.904  1.00  0.00    -0.350 N 
ATOM     15  H   UNL     1      45.305 132.348  21.278  1.00  0.00     0.167 HD
BRANCH  14  16
ATOM     16  C   UNL     1      44.231 130.585  21.846  1.00  0.00     0.095 A 
ATOM     17  C   UNL     1      44.865 129.347  22.014  1.00  0.00     0.033 A 
ATOM     18  C   UNL     1      43.062 130.846  22.592  1.00  0.00     0.236 A 
ATOM     19  C   UNL     1      44.364 128.414  22.921  1.00  0.00     0.026 A 
ATOM     20  N   UNL     1      42.593 129.917  23.468  1.00  0.00    -0.223 NA
ATOM     21  C   UNL     1      43.216 128.724  23.659  1.00  0.00     0.041 A 
ATOM     22  F   UNL     1      42.365 131.997  22.428  1.00  0.00    -0.183 F 
ATOM     23  C   UNL     1      42.647 127.733  24.625  1.00  0.00     0.067 C 
ENDBRANCH  14  16
ENDBRANCH   4  14
TORSDOF 4
ENDMDL
MODEL 8
REMARK VINA RESULT:      -7.0      3.098      6.616
REMARK SMILES CC(=O)c1cc(N)c(Nc2ccc(C)nc2F)cc1F
REMARK SMILES IDX 4 1 5 2 6 3 8 4 18 5 19 6 20 7 2 8 1 9 3 10 7 11 9 14 10 16
REMARK SMILES IDX 11 17 16 18 12 19 15 20 13 21 17 22 14 23
REMARK H PARENT 7 12 7 13 9 15
ROOT
ATOM      1  C   UNL     1      44.361 131.149  16.424  1.00  0.00     0.055 A 
ATOM      2  C   UNL     1      43.193 131.705  16.977  1.00  0.00     0.042 A 
ATOM      3  C   UNL     1      43.097 131.978  18.350  1.00  0.00     0.056 A 
ATOM      4  C   UNL     1      44.181 131.665  19.198  1.00  0.00     0.065 A 
ATOM      5  C   UNL     1      45.358 131.150  18.646  1.00  0.00     0.068 A 
ATOM      6  C   UNL     1      45.455 130.887  17.277  1.00  0.00     0.136 A 
ATOM      7  F   UNL     1      46.629 130.407  16.800  1.00  0.00    -0.206 F 
ENDROOT
BRANCH   1   8
ATOM      8  C   UNL     1      44.411 130.874  14.961  1.00  0.00     0.162 C 
ATOM      9  C   UNL     1      43.492 131.544  13.985  1.00  0.00     0.093 C 
ATOM     10  O   UNL     1      45.248 130.044  14.515  1.00  0.00    -0.294 OA
ENDBRANCH   1   8
BRANCH   3  11
ATOM     11  N   UNL     1      41.910 132.605  18.855  1.00  0.00    -0.397 N 
ATOM     12  H   UNL     1      41.773 132.734  19.882  1.00  0.00     0.156 HD
ATOM     13  H   UNL     1      41.124 132.881  18.227  1.00  0.00     0.156 HD
ENDBRANCH   3  11
BRANCH   4  14
ATOM     14  N   UNL     1      44.122 131.887  20.614  1.00  0.00    -0.350 N 
ATOM     15  H   UNL     1      44.304 132.857  20.957  1.00  0.00     0.167 HD
BRANCH  14  16
ATOM     16  C   UNL     1      43.934 130.846  21.591  1.00  0.00     0.095 A 
ATOM     17  C   UNL     1      42.816 130.892  22.434  1.00  0.00     0.033 A 
ATOM     18  C   UNL     1      44.853 129.789  21.755  1.00  0.00     0.236 A 
ATOM     19  C   UNL     1      42.609 129.897  23.388  1.00  0.00     0.026 A 
ATOM     20  N   UNL     1      44.628 128.832  22.696  1.00  0.00    -0.223 NA
ATOM     21  C   UNL     1      43.532 128.852  23.500  1.00  0.00     0.041 A 
ATOM     22  F   UNL     1      45.988 129.722  21.017  1.00  0.00    -0.183 F 
ATOM     23  C   UNL     1      43.344 127.781  24.528  1.00  0.00     0.067 C 
ENDBRANCH  14  16
ENDBRANCH   4  14
TORSDOF 4
ENDMDL
MODEL 9
REMARK VINA RESULT:      -6.7      2.960      6.736
REMARK SMILES CC(=O)c1cc(N)c(Nc2ccc(C)nc2F)cc1F
REMARK SMILES IDX 4 1 5 2 6 3 8 4 18 5 19 6 20 7 2 8 1 9 3 10 7 11 9 14 10 16
REMARK SMILES IDX 11 17 16 18 12 19 15 20 13 21 17 22 14 23
REMARK H PARENT 7 12 7 13 9 15
ROOT
ATOM      1  C   UNL     1      46.656 130.425  14.587  1.00  0.00     0.055 A 
ATOM      2  C   UNL     1      46.595 131.781  14.959  1.00  0.00     0.042 A 
ATOM      3  C   UNL     1      45.646 132.238  15.885  1.00  0.00     0.056 A 
ATOM      4  C   UNL     1      44.718 131.329  16.435  1.00  0.00     0.065 A 
ATOM      5  C   UNL     1      44.801 129.974  16.099  1.00  0.00     0.068 A 
ATOM      6  C   UNL     1      45.753 129.519  15.183  1.00  0.00     0.136 A 
ATOM      7  F   UNL     1      45.796 128.191  14.912  1.00  0.00    -0.206 F 
ENDROOT
BRANCH   1   8
ATOM      8  C   UNL     1      47.679 129.990  13.595  1.00  0.00     0.162 C 
ATOM      9  C   UNL     1      47.971 130.767  12.347  1.00  0.00     0.093 C 
ATOM     10  O   UNL     1      48.328 128.929  13.799  1.00  0.00    -0.294 OA
ENDBRANCH   1   8
BRANCH   3  11
ATOM     11  N   UNL     1      45.667 133.616  16.281  1.00  0.00    -0.397 N 
ATOM     12  H   UNL     1      44.784 134.172  16.318  1.00  0.00     0.156 HD
ATOM     13  H   UNL     1      46.560 134.121  16.469  1.00  0.00     0.156 HD
ENDBRANCH   3  11
BRANCH   4  14
ATOM     14  N   UNL     1      43.702 131.750  17.356  1.00  0.00    -0.350 N 
ATOM     15  H   UNL     1      42.866 132.238  16.961  1.00  0.00     0.167 HD
BRANCH  14  16
ATOM     16  C   UNL     1      43.808 131.641  18.788  1.00  0.00     0.095 A 
ATOM     17  C   UNL     1      45.025 131.241  19.356  1.00  0.00     0.033 A 
ATOM     18  C   UNL     1      42.720 131.895  19.648  1.00  0.00     0.236 A 
ATOM     19  C   UNL     1      45.156 131.128  20.740  1.00  0.00     0.026 A 
ATOM     20  N   UNL     1      42.874 131.775  20.994  1.00  0.00    -0.223 NA
ATOM     21  C   UNL     1      44.058 131.414  21.558  1.00  0.00     0.041 A 
ATOM     22  F   UNL     1      41.498 132.222  19.160  1.00  0.00    -0.183 F 
ATOM     23  C   UNL     1      44.166 131.283  23.044  1.00  0.00     0.067 C 
ENDBRANCH  14  16
ENDBRANCH   4  14
TORSDOF 4
ENDMDL


