MODEL 1
REMARK VINA RESULT:      -5.4      0.000      0.000
REMARK SMILES Cc1ccc(Nc2ccc3cc[nH]c3c2O/C(O)=N/c2ccc(C#N)c(C#N)c2)cc1
REMARK SMILES IDX 17 1 18 2 19 4 20 5 21 6 29 7 22 8 26 9 23 10 27 11 28 12
REMARK SMILES IDX 24 13 25 14 16 15 15 16 7 17 14 18 8 19 13 20 10 21 9 22
REMARK SMILES IDX 12 23 11 24 6 26 5 28 4 29 30 30 3 31 31 32 2 33 1 34
REMARK H PARENT 18 3 13 25 6 27
ROOT
ATOM      1  C   UNL     1      47.151 132.813  21.066  1.00  0.00     0.392 C 
ENDROOT
BRANCH   1   2
ATOM      2  O   UNL     1      47.985 131.713  20.889  1.00  0.00    -0.466 OA
ATOM      3  H   UNL     1      48.590 131.649  20.080  1.00  0.00     0.298 HD
ENDBRANCH   1   2
BRANCH   1   4
ATOM      4  N   UNL     1      47.325 133.630  22.064  1.00  0.00    -0.179 NA
BRANCH   4   5
ATOM      5  C   UNL     1      48.389 134.584  22.194  1.00  0.00     0.072 A 
ATOM      6  C   UNL     1      49.442 134.304  23.070  1.00  0.00     0.030 A 
ATOM      7  C   UNL     1      48.451 135.736  21.387  1.00  0.00     0.049 A 
ATOM      8  C   UNL     1      50.521 135.183  23.186  1.00  0.00     0.023 A 
ATOM      9  C   UNL     1      49.533 136.620  21.494  1.00  0.00     0.072 A 
ATOM     10  C   UNL     1      50.573 136.346  22.405  1.00  0.00     0.070 A 
BRANCH   9  11
ATOM     11  C   UNL     1      49.563 137.790  20.648  1.00  0.00     0.101 C 
ATOM     12  N   UNL     1      49.587 138.728  19.971  1.00  0.00    -0.192 NA
ENDBRANCH   9  11
BRANCH  10  13
ATOM     13  C   UNL     1      51.703 137.233  22.545  1.00  0.00     0.101 C 
ATOM     14  N   UNL     1      52.609 137.945  22.657  1.00  0.00    -0.192 NA
ENDBRANCH  10  13
ENDBRANCH   4   5
ENDBRANCH   1   4
BRANCH   1  15
ATOM     15  O   UNL     1      46.107 133.020  20.156  1.00  0.00    -0.407 OA
BRANCH  15  16
ATOM     16  C   UNL     1      44.903 132.303  20.174  1.00  0.00     0.180 A 
ATOM     17  C   UNL     1      44.150 132.134  18.985  1.00  0.00     0.084 A 
ATOM     18  C   UNL     1      44.377 131.776  21.361  1.00  0.00     0.091 A 
ATOM     19  C   UNL     1      42.892 131.488  19.032  1.00  0.00     0.031 A 
ATOM     20  N   UNL     1      44.898 131.848  22.599  1.00  0.00    -0.358 N 
ATOM     21  C   UNL     1      43.170 131.131  21.385  1.00  0.00     0.003 A 
ATOM     22  C   UNL     1      42.394 130.972  20.240  1.00  0.00     0.013 A 
ATOM     23  C   UNL     1      44.015 131.225  23.412  1.00  0.00     0.083 A 
ATOM     24  C   UNL     1      42.920 130.763  22.689  1.00  0.00     0.028 A 
ATOM     25  H   UNL     1      45.791 132.304  22.891  1.00  0.00     0.166 HD
BRANCH  17  26
ATOM     26  N   UNL     1      44.647 132.611  17.725  1.00  0.00    -0.352 N 
ATOM     27  H   UNL     1      44.443 133.599  17.452  1.00  0.00     0.167 HD
BRANCH  26  28
ATOM     28  C   UNL     1      45.362 131.774  16.800  1.00  0.00     0.038 A 
ATOM     29  C   UNL     1      45.664 130.451  17.148  1.00  0.00     0.026 A 
ATOM     30  C   UNL     1      45.782 132.268  15.552  1.00  0.00     0.026 A 
ATOM     31  C   UNL     1      46.324 129.614  16.242  1.00  0.00     0.005 A 
ATOM     32  C   UNL     1      46.441 131.434  14.647  1.00  0.00     0.005 A 
ATOM     33  C   UNL     1      46.692 130.095  14.976  1.00  0.00    -0.051 A 
ATOM     34  C   UNL     1      47.413 129.204  14.007  1.00  0.00     0.044 C 
ENDBRANCH  26  28
ENDBRANCH  17  26
ENDBRANCH  15  16
ENDBRANCH   1  15
TORSDOF 9
ENDMDL
MODEL 2
REMARK VINA RESULT:      -3.8      4.829      7.629
REMARK SMILES Cc1ccc(Nc2ccc3cc[nH]c3c2O/C(O)=N/c2ccc(C#N)c(C#N)c2)cc1
REMARK SMILES IDX 17 1 18 2 19 4 20 5 21 6 29 7 22 8 26 9 23 10 27 11 28 12
REMARK SMILES IDX 24 13 25 14 16 15 15 16 7 17 14 18 8 19 13 20 10 21 9 22
REMARK SMILES IDX 12 23 11 24 6 26 5 28 4 29 30 30 3 31 31 32 2 33 1 34
REMARK H PARENT 18 3 13 25 6 27
ROOT
ATOM      1  C   UNL     1      45.483 130.694  19.546  1.00  0.00     0.392 C 
ENDROOT
BRANCH   1   2
ATOM      2  O   UNL     1      46.836 130.936  19.758  1.00  0.00    -0.466 OA
ATOM      3  H   UNL     1      47.516 130.729  19.037  1.00  0.00     0.298 HD
ENDBRANCH   1   2
BRANCH   1   4
ATOM      4  N   UNL     1      44.891 131.108  18.462  1.00  0.00    -0.179 NA
BRANCH   4   5
ATOM      5  C   UNL     1      45.467 131.135  17.148  1.00  0.00     0.072 A 
ATOM      6  C   UNL     1      45.522 132.351  16.461  1.00  0.00     0.030 A 
ATOM      7  C   UNL     1      46.069 129.995  16.583  1.00  0.00     0.049 A 
ATOM      8  C   UNL     1      46.121 132.428  15.202  1.00  0.00     0.023 A 
ATOM      9  C   UNL     1      46.676 130.065  15.322  1.00  0.00     0.072 A 
ATOM     10  C   UNL     1      46.697 131.288  14.622  1.00  0.00     0.070 A 
BRANCH   9  11
ATOM     11  C   UNL     1      47.286 128.876  14.774  1.00  0.00     0.101 C 
ATOM     12  N   UNL     1      47.776 127.924  14.335  1.00  0.00    -0.192 NA
ENDBRANCH   9  11
BRANCH  10  13
ATOM     13  C   UNL     1      47.311 131.400  13.321  1.00  0.00     0.101 C 
ATOM     14  N   UNL     1      47.805 131.489  12.277  1.00  0.00    -0.192 NA
ENDBRANCH  10  13
ENDBRANCH   4   5
ENDBRANCH   1   4
BRANCH   1  15
ATOM     15  O   UNL     1      44.759 130.008  20.529  1.00  0.00    -0.407 OA
BRANCH  15  16
ATOM     16  C   UNL     1      43.932 130.637  21.470  1.00  0.00     0.180 A 
ATOM     17  C   UNL     1      43.956 130.234  22.828  1.00  0.00     0.084 A 
ATOM     18  C   UNL     1      43.024 131.638  21.100  1.00  0.00     0.091 A 
ATOM     19  C   UNL     1      43.052 130.811  23.752  1.00  0.00     0.031 A 
ATOM     20  N   UNL     1      42.807 132.145  19.873  1.00  0.00    -0.358 N 
ATOM     21  C   UNL     1      42.174 132.205  22.011  1.00  0.00     0.003 A 
ATOM     22  C   UNL     1      42.154 131.814  23.347  1.00  0.00     0.013 A 
ATOM     23  C   UNL     1      41.818 133.056  20.017  1.00  0.00     0.083 A 
ATOM     24  C   UNL     1      41.395 133.122  21.340  1.00  0.00     0.028 A 
ATOM     25  H   UNL     1      43.284 131.885  18.982  1.00  0.00     0.166 HD
BRANCH  17  26
ATOM     26  N   UNL     1      44.889 129.244  23.287  1.00  0.00    -0.352 N 
ATOM     27  H   UNL     1      45.786 129.567  23.716  1.00  0.00     0.167 HD
BRANCH  26  28
ATOM     28  C   UNL     1      44.670 127.831  23.129  1.00  0.00     0.038 A 
ATOM     29  C   UNL     1      45.595 127.060  22.413  1.00  0.00     0.026 A 
ATOM     30  C   UNL     1      43.529 127.211  23.667  1.00  0.00     0.026 A 
ATOM     31  C   UNL     1      45.415 125.678  22.286  1.00  0.00     0.005 A 
ATOM     32  C   UNL     1      43.348 125.832  23.540  1.00  0.00     0.005 A 
ATOM     33  C   UNL     1      44.303 125.053  22.872  1.00  0.00    -0.051 A 
ATOM     34  C   UNL     1      44.099 123.574  22.726  1.00  0.00     0.044 C 
ENDBRANCH  26  28
ENDBRANCH  17  26
ENDBRANCH  15  16
ENDBRANCH   1  15
TORSDOF 9
ENDMDL
MODEL 3
REMARK VINA RESULT:      -3.7      0.962      1.256
REMARK SMILES Cc1ccc(Nc2ccc3cc[nH]c3c2O/C(O)=N/c2ccc(C#N)c(C#N)c2)cc1
REMARK SMILES IDX 17 1 18 2 19 4 20 5 21 6 29 7 22 8 26 9 23 10 27 11 28 12
REMARK SMILES IDX 24 13 25 14 16 15 15 16 7 17 14 18 8 19 13 20 10 21 9 22
REMARK SMILES IDX 12 23 11 24 6 26 5 28 4 29 30 30 3 31 31 32 2 33 1 34
REMARK H PARENT 18 3 13 25 6 27
ROOT
ATOM      1  C   UNL     1      47.289 132.024  20.821  1.00  0.00     0.392 C 
ENDROOT
BRANCH   1   2
ATOM      2  O   UNL     1      48.598 131.590  20.641  1.00  0.00    -0.466 OA
ATOM      3  H   UNL     1      49.253 131.592  21.413  1.00  0.00     0.298 HD
ENDBRANCH   1   2
BRANCH   1   4
ATOM      4  N   UNL     1      47.029 133.101  21.505  1.00  0.00    -0.179 NA
BRANCH   4   5
ATOM      5  C   UNL     1      47.951 134.166  21.780  1.00  0.00     0.072 A 
ATOM      6  C   UNL     1      48.885 134.000  22.808  1.00  0.00     0.030 A 
ATOM      7  C   UNL     1      48.007 135.319  20.975  1.00  0.00     0.049 A 
ATOM      8  C   UNL     1      49.832 134.992  23.071  1.00  0.00     0.023 A 
ATOM      9  C   UNL     1      48.958 136.316  21.231  1.00  0.00     0.072 A 
ATOM     10  C   UNL     1      49.873 136.156  22.291  1.00  0.00     0.070 A 
BRANCH   9  11
ATOM     11  C   UNL     1      48.988 137.485  20.383  1.00  0.00     0.101 C 
ATOM     12  N   UNL     1      49.011 138.422  19.705  1.00  0.00    -0.192 NA
ENDBRANCH   9  11
BRANCH  10  13
ATOM     13  C   UNL     1      50.866 137.161  22.586  1.00  0.00     0.101 C 
ATOM     14  N   UNL     1      51.663 137.967  22.823  1.00  0.00    -0.192 NA
ENDBRANCH  10  13
ENDBRANCH   4   5
ENDBRANCH   1   4
BRANCH   1  15
ATOM     15  O   UNL     1      46.247 131.272  20.263  1.00  0.00    -0.407 OA
BRANCH  15  16
ATOM     16  C   UNL     1      44.897 131.444  20.595  1.00  0.00     0.180 A 
ATOM     17  C   UNL     1      44.038 132.186  19.745  1.00  0.00     0.084 A 
ATOM     18  C   UNL     1      44.361 130.941  21.788  1.00  0.00     0.091 A 
ATOM     19  C   UNL     1      42.700 132.431  20.135  1.00  0.00     0.031 A 
ATOM     20  N   UNL     1      44.994 130.247  22.750  1.00  0.00    -0.358 N 
ATOM     21  C   UNL     1      43.057 131.166  22.138  1.00  0.00     0.003 A 
ATOM     22  C   UNL     1      42.195 131.912  21.339  1.00  0.00     0.013 A 
ATOM     23  C   UNL     1      44.072 130.016  23.712  1.00  0.00     0.083 A 
ATOM     24  C   UNL     1      42.848 130.576  23.365  1.00  0.00     0.028 A 
ATOM     25  H   UNL     1      45.997 129.955  22.772  1.00  0.00     0.166 HD
BRANCH  17  26
ATOM     26  N   UNL     1      44.507 132.695  18.487  1.00  0.00    -0.352 N 
ATOM     27  H   UNL     1      44.435 133.723  18.310  1.00  0.00     0.167 HD
BRANCH  26  28
ATOM     28  C   UNL     1      45.017 131.849  17.443  1.00  0.00     0.038 A 
ATOM     29  C   UNL     1      45.886 132.379  16.480  1.00  0.00     0.026 A 
ATOM     30  C   UNL     1      44.642 130.497  17.359  1.00  0.00     0.026 A 
ATOM     31  C   UNL     1      46.421 131.558  15.481  1.00  0.00     0.005 A 
ATOM     32  C   UNL     1      45.174 129.676  16.362  1.00  0.00     0.005 A 
ATOM     33  C   UNL     1      46.087 130.195  15.434  1.00  0.00    -0.051 A 
ATOM     34  C   UNL     1      46.648 129.314  14.356  1.00  0.00     0.044 C 
ENDBRANCH  26  28
ENDBRANCH  17  26
ENDBRANCH  15  16
ENDBRANCH   1  15
TORSDOF 9
ENDMDL
MODEL 4
REMARK VINA RESULT:      -2.8      2.861      8.321
REMARK SMILES Cc1ccc(Nc2ccc3cc[nH]c3c2O/C(O)=N/c2ccc(C#N)c(C#N)c2)cc1
REMARK SMILES IDX 17 1 18 2 19 4 20 5 21 6 29 7 22 8 26 9 23 10 27 11 28 12
REMARK SMILES IDX 24 13 25 14 16 15 15 16 7 17 14 18 8 19 13 20 10 21 9 22
REMARK SMILES IDX 12 23 11 24 6 26 5 28 4 29 30 30 3 31 31 32 2 33 1 34
REMARK H PARENT 18 3 13 25 6 27
ROOT
ATOM      1  C   UNL     1      47.985 134.396  22.395  1.00  0.00     0.392 C 
ENDROOT
BRANCH   1   2
ATOM      2  O   UNL     1      47.576 135.476  21.619  1.00  0.00    -0.466 OA
ATOM      3  H   UNL     1      47.349 135.351  20.640  1.00  0.00     0.298 HD
ENDBRANCH   1   2
BRANCH   1   4
ATOM      4  N   UNL     1      47.626 133.181  22.093  1.00  0.00    -0.179 NA
BRANCH   4   5
ATOM      5  C   UNL     1      46.371 132.795  21.513  1.00  0.00     0.072 A 
ATOM      6  C   UNL     1      46.090 133.180  20.198  1.00  0.00     0.030 A 
ATOM      7  C   UNL     1      45.471 131.955  22.193  1.00  0.00     0.049 A 
ATOM      8  C   UNL     1      44.903 132.780  19.581  1.00  0.00     0.023 A 
ATOM      9  C   UNL     1      44.280 131.546  21.579  1.00  0.00     0.072 A 
ATOM     10  C   UNL     1      43.989 131.967  20.265  1.00  0.00     0.070 A 
BRANCH   9  11
ATOM     11  C   UNL     1      43.380 130.681  22.307  1.00  0.00     0.101 C 
ATOM     12  N   UNL     1      42.660 129.988  22.889  1.00  0.00    -0.192 NA
ENDBRANCH   9  11
BRANCH  10  13
ATOM     13  C   UNL     1      42.773 131.567  19.599  1.00  0.00     0.101 C 
ATOM     14  N   UNL     1      41.797 131.246  19.065  1.00  0.00    -0.192 NA
ENDBRANCH  10  13
ENDBRANCH   4   5
ENDBRANCH   1   4
BRANCH   1  15
ATOM     15  O   UNL     1      48.780 134.639  23.522  1.00  0.00    -0.407 OA
BRANCH  15  16
ATOM     16  C   UNL     1      50.178 134.551  23.523  1.00  0.00     0.180 A 
ATOM     17  C   UNL     1      50.968 135.657  23.122  1.00  0.00     0.084 A 
ATOM     18  C   UNL     1      50.841 133.364  23.865  1.00  0.00     0.091 A 
ATOM     19  C   UNL     1      52.375 135.528  23.039  1.00  0.00     0.031 A 
ATOM     20  N   UNL     1      50.298 132.191  24.236  1.00  0.00    -0.358 N 
ATOM     21  C   UNL     1      52.205 133.263  23.803  1.00  0.00     0.003 A 
ATOM     22  C   UNL     1      53.007 134.323  23.389  1.00  0.00     0.013 A 
ATOM     23  C   UNL     1      51.334 131.344  24.427  1.00  0.00     0.083 A 
ATOM     24  C   UNL     1      52.544 131.978  24.166  1.00  0.00     0.028 A 
ATOM     25  H   UNL     1      49.284 131.962  24.341  1.00  0.00     0.166 HD
BRANCH  17  26
ATOM     26  N   UNL     1      50.360 136.917  22.798  1.00  0.00    -0.352 N 
ATOM     27  H   UNL     1      50.059 137.540  23.582  1.00  0.00     0.167 HD
BRANCH  26  28
ATOM     28  C   UNL     1      50.094 137.332  21.447  1.00  0.00     0.038 A 
ATOM     29  C   UNL     1      50.251 136.419  20.395  1.00  0.00     0.026 A 
ATOM     30  C   UNL     1      49.696 138.649  21.159  1.00  0.00     0.026 A 
ATOM     31  C   UNL     1      49.958 136.798  19.081  1.00  0.00     0.005 A 
ATOM     32  C   UNL     1      49.404 139.029  19.847  1.00  0.00     0.005 A 
ATOM     33  C   UNL     1      49.507 138.098  18.804  1.00  0.00    -0.051 A 
ATOM     34  C   UNL     1      49.205 138.513  17.394  1.00  0.00     0.044 C 
ENDBRANCH  26  28
ENDBRANCH  17  26
ENDBRANCH  15  16
ENDBRANCH   1  15
TORSDOF 9
ENDMDL


