REMARK SMILES CC(=O)c1ccc(-c2cc(N=C=O)c([O-])c(Nc3ccc(C)c(F)c3)c2)c[nH+]1
REMARK SMILES IDX 9 1 10 2 14 3 15 4 16 5 26 6 8 7 11 8 12 9 13 10 7 11 6 12
REMARK SMILES IDX 27 13 5 14 28 15 4 16 2 18 3 19 1 20 17 21 18 23 19 24 25 25
REMARK SMILES IDX 20 26 23 27 21 28 24 29 22 30
REMARK H PARENT 28 17 17 22
ROOT
ATOM      1  C   UNL     1      -0.666   2.643   0.299  1.00  0.00     0.037 A 
ATOM      2  C   UNL     1      -1.045   3.081  -0.976  1.00  0.00     0.071 A 
ATOM      3  C   UNL     1      -0.774   2.259  -2.096  1.00  0.00    -0.057 A 
ATOM      4  O   UNL     1      -1.139   2.656  -3.379  1.00  0.00    -0.870 OA
ATOM      5  C   UNL     1      -0.140   1.016  -1.924  1.00  0.00     0.033 A 
ATOM      6  C   UNL     1       0.253   0.611  -0.638  1.00  0.00     0.034 A 
ATOM      7  C   UNL     1      -0.013   1.413   0.481  1.00  0.00    -0.008 A 
ENDROOT
BRANCH   2   8
ATOM      8  N   UNL     1      -1.694   4.362  -1.071  1.00  0.00    -0.169 NA
BRANCH   8   9
ATOM      9  C   UNL     1      -2.094   4.906  -2.150  1.00  0.00     0.240 C 
ATOM     10  O   UNL     1      -2.483   5.438  -3.197  1.00  0.00    -0.211 OA
ENDBRANCH   8   9
ENDBRANCH   2   8
BRANCH   7  11
ATOM     11  C   UNL     1       0.393   0.970   1.840  1.00  0.00     0.046 A 
ATOM     12  C   UNL     1       1.632   0.350   2.054  1.00  0.00     0.022 A 
ATOM     13  C   UNL     1      -0.455   1.157   2.942  1.00  0.00     0.315 A 
ATOM     14  C   UNL     1       2.001  -0.063   3.333  1.00  0.00     0.084 A 
ATOM     15  N   UNL     1      -0.079   0.747   4.184  1.00  0.00    -0.208 N 
ATOM     16  C   UNL     1       1.125   0.141   4.413  1.00  0.00     0.246 A 
ATOM     17  H   UNL     1      -0.747   0.905   4.971  1.00  0.00     0.454 HD
BRANCH  16  18
ATOM     18  C   UNL     1       1.489  -0.289   5.790  1.00  0.00     0.223 C 
ATOM     19  O   UNL     1       0.683  -0.085   6.738  1.00  0.00    -0.288 OA
ATOM     20  C   UNL     1       2.793  -0.963   6.095  1.00  0.00     0.100 C 
ENDBRANCH  16  18
ENDBRANCH   7  11
BRANCH   5  21
ATOM     21  N   UNL     1       0.153   0.197  -3.070  1.00  0.00    -0.356 N 
ATOM     22  H   UNL     1       0.418   0.676  -3.961  1.00  0.00     0.166 HD
BRANCH  21  23
ATOM     23  C   UNL     1       0.117  -1.241  -3.067  1.00  0.00     0.041 A 
ATOM     24  C   UNL     1       0.925  -1.953  -3.964  1.00  0.00     0.026 A 
ATOM     25  C   UNL     1      -0.758  -1.949  -2.224  1.00  0.00     0.065 A 
ATOM     26  C   UNL     1       0.892  -3.350  -3.995  1.00  0.00     0.008 A 
ATOM     27  C   UNL     1      -0.793  -3.347  -2.252  1.00  0.00     0.128 A 
ATOM     28  C   UNL     1       0.039  -4.057  -3.132  1.00  0.00    -0.015 A 
ATOM     29  F   UNL     1      -1.644  -4.007  -1.427  1.00  0.00    -0.207 F 
ATOM     30  C   UNL     1      -0.009  -5.557  -3.169  1.00  0.00     0.047 C 
ENDBRANCH  21  23
ENDBRANCH   5  21
TORSDOF 6


