MODEL 1
REMARK VINA RESULT:      -2.7      0.000      0.000
REMARK SMILES Cc1ccc(-c2cc(C=O)c(/N=C(\O)N[C@@H](c3ccc(F)cc3)C(C)C)cc2F)cc1
REMARK SMILES IDX 13 1 15 2 14 4 12 6 11 7 27 8 8 9 28 10 7 11 6 12 29 13 9 14
REMARK SMILES IDX 10 15 5 16 4 17 30 18 3 19 31 20 2 21 1 22 16 23 17 24 18 25
REMARK SMILES IDX 23 26 19 27 22 28 20 29 21 30 24 31 25 32 26 33
REMARK H PARENT 15 3 14 5
ROOT
ATOM      1  C   UNL     1      43.330 130.340  23.616  1.00  0.00     0.287 C 
ATOM      2  N   UNL     1      43.076 129.051  24.192  1.00  0.00    -0.333 N 
ATOM      3  H   UNL     1      43.599 128.818  25.065  1.00  0.00     0.165 HD
ENDROOT
BRANCH   1   4
ATOM      4  O   UNL     1      44.196 131.207  24.288  1.00  0.00    -0.481 OA
ATOM      5  H   UNL     1      44.019 131.550  25.223  1.00  0.00     0.296 HD
ENDBRANCH   1   4
BRANCH   1   6
ATOM      6  N   UNL     1      42.791 130.659  22.473  1.00  0.00    -0.197 NA
BRANCH   6   7
ATOM      7  C   UNL     1      43.439 130.682  21.192  1.00  0.00     0.082 A 
ATOM      8  C   UNL     1      44.746 130.187  21.052  1.00  0.00     0.069 A 
ATOM      9  C   UNL     1      42.811 131.305  20.095  1.00  0.00     0.041 A 
ATOM     10  C   UNL     1      45.407 130.255  19.824  1.00  0.00     0.133 A 
ATOM     11  C   UNL     1      43.483 131.369  18.860  1.00  0.00     0.025 A 
ATOM     12  C   UNL     1      44.779 130.846  18.715  1.00  0.00     0.018 A 
ATOM     13  F   UNL     1      46.651 129.720  19.718  1.00  0.00    -0.206 F 
BRANCH   9  14
ATOM     14  C   UNL     1      41.453 131.879  20.230  1.00  0.00     0.262 C 
ATOM     15  O   UNL     1      41.178 133.017  19.766  1.00  0.00    -0.298 OA
ENDBRANCH   9  14
BRANCH  12  16
ATOM     16  C   UNL     1      45.469 130.930  17.404  1.00  0.00    -0.015 A 
ATOM     17  C   UNL     1      45.759 129.766  16.672  1.00  0.00     0.009 A 
ATOM     18  C   UNL     1      45.861 132.178  16.887  1.00  0.00     0.009 A 
ATOM     19  C   UNL     1      46.416 129.849  15.440  1.00  0.00     0.004 A 
ATOM     20  C   UNL     1      46.516 132.259  15.655  1.00  0.00     0.004 A 
ATOM     21  C   UNL     1      46.783 131.098  14.917  1.00  0.00    -0.051 A 
ATOM     22  C   UNL     1      47.522 131.182  13.614  1.00  0.00     0.044 C 
ENDBRANCH  12  16
ENDBRANCH   6   7
ENDBRANCH   1   6
BRANCH   2  23
ATOM     23  C   UNL     1      42.164 128.068  23.584  1.00  0.00     0.116 C 
BRANCH  23  24
ATOM     24  C   UNL     1      42.844 126.715  23.402  1.00  0.00    -0.025 A 
ATOM     25  C   UNL     1      42.057 125.552  23.290  1.00  0.00     0.009 A 
ATOM     26  C   UNL     1      44.248 126.584  23.378  1.00  0.00     0.009 A 
ATOM     27  C   UNL     1      42.656 124.297  23.146  1.00  0.00     0.039 A 
ATOM     28  C   UNL     1      44.842 125.326  23.232  1.00  0.00     0.039 A 
ATOM     29  C   UNL     1      44.047 124.184  23.115  1.00  0.00     0.123 A 
ATOM     30  F   UNL     1      44.626 122.967  22.976  1.00  0.00    -0.207 F 
ENDBRANCH  23  24
BRANCH  23  31
ATOM     31  C   UNL     1      40.824 127.982  24.375  1.00  0.00     0.010 C 
ATOM     32  C   UNL     1      40.341 126.544  24.614  1.00  0.00     0.010 C 
ATOM     33  C   UNL     1      39.718 128.814  23.709  1.00  0.00     0.010 C 
ENDBRANCH  23  31
ENDBRANCH   2  23
TORSDOF 8
ENDMDL
MODEL 2
REMARK VINA RESULT:      -2.5      1.565      2.121
REMARK SMILES Cc1ccc(-c2cc(C=O)c(/N=C(\O)N[C@@H](c3ccc(F)cc3)C(C)C)cc2F)cc1
REMARK SMILES IDX 13 1 15 2 14 4 12 6 11 7 27 8 8 9 28 10 7 11 6 12 29 13 9 14
REMARK SMILES IDX 10 15 5 16 4 17 30 18 3 19 31 20 2 21 1 22 16 23 17 24 18 25
REMARK SMILES IDX 23 26 19 27 22 28 20 29 21 30 24 31 25 32 26 33
REMARK H PARENT 15 3 14 5
ROOT
ATOM      1  C   UNL     1      43.471 130.684  23.186  1.00  0.00     0.287 C 
ATOM      2  N   UNL     1      43.402 129.372  23.761  1.00  0.00    -0.333 N 
ATOM      3  H   UNL     1      43.927 129.222  24.651  1.00  0.00     0.165 HD
ENDROOT
BRANCH   1   4
ATOM      4  O   UNL     1      44.171 131.675  23.880  1.00  0.00    -0.481 OA
ATOM      5  H   UNL     1      44.212 132.639  23.575  1.00  0.00     0.296 HD
ENDBRANCH   1   4
BRANCH   1   6
ATOM      6  N   UNL     1      42.925 130.914  22.026  1.00  0.00    -0.197 NA
BRANCH   6   7
ATOM      7  C   UNL     1      43.597 130.998  20.759  1.00  0.00     0.082 A 
ATOM      8  C   UNL     1      42.964 131.604  19.662  1.00  0.00     0.069 A 
ATOM      9  C   UNL     1      44.848 130.373  20.582  1.00  0.00     0.041 A 
ATOM     10  C   UNL     1      43.585 131.642  18.412  1.00  0.00     0.133 A 
ATOM     11  C   UNL     1      45.467 130.416  19.319  1.00  0.00     0.025 A 
ATOM     12  C   UNL     1      44.845 131.049  18.230  1.00  0.00     0.018 A 
ATOM     13  F   UNL     1      42.961 132.281  17.389  1.00  0.00    -0.206 F 
BRANCH   9  14
ATOM     14  C   UNL     1      45.513 129.685  21.711  1.00  0.00     0.262 C 
ATOM     15  O   UNL     1      45.483 130.166  22.875  1.00  0.00    -0.298 OA
ENDBRANCH   9  14
BRANCH  12  16
ATOM     16  C   UNL     1      45.518 131.077  16.908  1.00  0.00    -0.015 A 
ATOM     17  C   UNL     1      46.101 129.914  16.377  1.00  0.00     0.009 A 
ATOM     18  C   UNL     1      45.601 132.276  16.178  1.00  0.00     0.009 A 
ATOM     19  C   UNL     1      46.741 129.945  15.134  1.00  0.00     0.004 A 
ATOM     20  C   UNL     1      46.240 132.306  14.936  1.00  0.00     0.004 A 
ATOM     21  C   UNL     1      46.799 131.139  14.399  1.00  0.00    -0.051 A 
ATOM     22  C   UNL     1      47.521 131.180  13.084  1.00  0.00     0.044 C 
ENDBRANCH  12  16
ENDBRANCH   6   7
ENDBRANCH   1   6
BRANCH   2  23
ATOM     23  C   UNL     1      42.672 128.259  23.131  1.00  0.00     0.116 C 
BRANCH  23  24
ATOM     24  C   UNL     1      43.411 126.936  23.308  1.00  0.00    -0.025 A 
ATOM     25  C   UNL     1      43.064 126.085  24.376  1.00  0.00     0.009 A 
ATOM     26  C   UNL     1      44.464 126.551  22.453  1.00  0.00     0.009 A 
ATOM     27  C   UNL     1      43.741 124.879  24.574  1.00  0.00     0.039 A 
ATOM     28  C   UNL     1      45.138 125.343  22.656  1.00  0.00     0.039 A 
ATOM     29  C   UNL     1      44.776 124.507  23.715  1.00  0.00     0.123 A 
ATOM     30  F   UNL     1      45.433 123.337  23.909  1.00  0.00    -0.207 F 
ENDBRANCH  23  24
BRANCH  23  31
ATOM     31  C   UNL     1      41.193 128.209  23.621  1.00  0.00     0.010 C 
ATOM     32  C   UNL     1      40.839 129.317  24.624  1.00  0.00     0.010 C 
ATOM     33  C   UNL     1      40.833 126.831  24.196  1.00  0.00     0.010 C 
ENDBRANCH  23  31
ENDBRANCH   2  23
TORSDOF 8
ENDMDL
MODEL 3
REMARK VINA RESULT:      -2.2      1.905      3.101
REMARK SMILES Cc1ccc(-c2cc(C=O)c(/N=C(\O)N[C@@H](c3ccc(F)cc3)C(C)C)cc2F)cc1
REMARK SMILES IDX 13 1 15 2 14 4 12 6 11 7 27 8 8 9 28 10 7 11 6 12 29 13 9 14
REMARK SMILES IDX 10 15 5 16 4 17 30 18 3 19 31 20 2 21 1 22 16 23 17 24 18 25
REMARK SMILES IDX 23 26 19 27 22 28 20 29 21 30 24 31 25 32 26 33
REMARK H PARENT 15 3 14 5
ROOT
ATOM      1  C   UNL     1      42.252 132.024  22.101  1.00  0.00     0.287 C 
ATOM      2  N   UNL     1      42.092 132.185  23.517  1.00  0.00    -0.333 N 
ATOM      3  H   UNL     1      41.576 133.036  23.836  1.00  0.00     0.165 HD
ENDROOT
BRANCH   1   4
ATOM      4  O   UNL     1      41.658 132.965  21.255  1.00  0.00    -0.481 OA
ATOM      5  H   UNL     1      42.189 133.587  20.660  1.00  0.00     0.296 HD
ENDBRANCH   1   4
BRANCH   1   6
ATOM      6  N   UNL     1      42.970 131.041  21.636  1.00  0.00    -0.197 NA
BRANCH   6   7
ATOM      7  C   UNL     1      43.646 130.993  20.369  1.00  0.00     0.082 A 
ATOM      8  C   UNL     1      44.984 130.575  20.297  1.00  0.00     0.069 A 
ATOM      9  C   UNL     1      43.004 131.472  19.209  1.00  0.00     0.041 A 
ATOM     10  C   UNL     1      45.668 130.577  19.080  1.00  0.00     0.133 A 
ATOM     11  C   UNL     1      43.699 131.470  17.986  1.00  0.00     0.025 A 
ATOM     12  C   UNL     1      45.029 131.023  17.911  1.00  0.00     0.018 A 
ATOM     13  F   UNL     1      46.946 130.118  19.045  1.00  0.00    -0.206 F 
BRANCH   9  14
ATOM     14  C   UNL     1      41.609 131.964  19.269  1.00  0.00     0.262 C 
ATOM     15  O   UNL     1      40.780 131.682  18.363  1.00  0.00    -0.298 OA
ENDBRANCH   9  14
BRANCH  12  16
ATOM     16  C   UNL     1      45.742 131.036  16.610  1.00  0.00    -0.015 A 
ATOM     17  C   UNL     1      45.879 132.229  15.881  1.00  0.00     0.009 A 
ATOM     18  C   UNL     1      46.270 129.845  16.078  1.00  0.00     0.009 A 
ATOM     19  C   UNL     1      46.544 132.235  14.650  1.00  0.00     0.004 A 
ATOM     20  C   UNL     1      46.935 129.854  14.849  1.00  0.00     0.004 A 
ATOM     21  C   UNL     1      47.091 131.050  14.136  1.00  0.00    -0.051 A 
ATOM     22  C   UNL     1      47.769 131.051  12.798  1.00  0.00     0.044 C 
ENDBRANCH  12  16
ENDBRANCH   6   7
ENDBRANCH   1   6
BRANCH   2  23
ATOM     23  C   UNL     1      42.652 131.242  24.499  1.00  0.00     0.116 C 
BRANCH  23  24
ATOM     24  C   UNL     1      42.209 129.811  24.213  1.00  0.00    -0.025 A 
ATOM     25  C   UNL     1      40.927 129.388  24.616  1.00  0.00     0.009 A 
ATOM     26  C   UNL     1      43.061 128.878  23.586  1.00  0.00     0.009 A 
ATOM     27  C   UNL     1      40.505 128.075  24.387  1.00  0.00     0.039 A 
ATOM     28  C   UNL     1      42.633 127.566  23.359  1.00  0.00     0.039 A 
ATOM     29  C   UNL     1      41.357 127.165  23.758  1.00  0.00     0.123 A 
ATOM     30  F   UNL     1      40.946 125.892  23.538  1.00  0.00    -0.207 F 
ENDBRANCH  23  24
BRANCH  23  31
ATOM     31  C   UNL     1      44.199 131.398  24.608  1.00  0.00     0.010 C 
ATOM     32  C   UNL     1      44.796 132.350  23.562  1.00  0.00     0.010 C 
ATOM     33  C   UNL     1      44.910 130.037  24.561  1.00  0.00     0.010 C 
ENDBRANCH  23  31
ENDBRANCH   2  23
TORSDOF 8
ENDMDL
MODEL 4
REMARK VINA RESULT:      -1.7      1.928      3.379
REMARK SMILES Cc1ccc(-c2cc(C=O)c(/N=C(\O)N[C@@H](c3ccc(F)cc3)C(C)C)cc2F)cc1
REMARK SMILES IDX 13 1 15 2 14 4 12 6 11 7 27 8 8 9 28 10 7 11 6 12 29 13 9 14
REMARK SMILES IDX 10 15 5 16 4 17 30 18 3 19 31 20 2 21 1 22 16 23 17 24 18 25
REMARK SMILES IDX 23 26 19 27 22 28 20 29 21 30 24 31 25 32 26 33
REMARK H PARENT 15 3 14 5
ROOT
ATOM      1  C   UNL     1      42.269 132.187  21.952  1.00  0.00     0.287 C 
ATOM      2  N   UNL     1      42.500 132.551  23.320  1.00  0.00    -0.333 N 
ATOM      3  H   UNL     1      42.073 133.448  23.644  1.00  0.00     0.165 HD
ENDROOT
BRANCH   1   4
ATOM      4  O   UNL     1      41.446 133.010  21.177  1.00  0.00    -0.481 OA
ATOM      5  H   UNL     1      40.900 132.669  20.397  1.00  0.00     0.296 HD
ENDBRANCH   1   4
BRANCH   1   6
ATOM      6  N   UNL     1      42.852 131.135  21.452  1.00  0.00    -0.197 NA
BRANCH   6   7
ATOM      7  C   UNL     1      43.515 131.042  20.181  1.00  0.00     0.082 A 
ATOM      8  C   UNL     1      44.863 130.653  20.113  1.00  0.00     0.069 A 
ATOM      9  C   UNL     1      42.849 131.448  19.007  1.00  0.00     0.041 A 
ATOM     10  C   UNL     1      45.533 130.613  18.889  1.00  0.00     0.133 A 
ATOM     11  C   UNL     1      43.530 131.403  17.777  1.00  0.00     0.025 A 
ATOM     12  C   UNL     1      44.871 130.985  17.708  1.00  0.00     0.018 A 
ATOM     13  F   UNL     1      46.821 130.184  18.860  1.00  0.00    -0.206 F 
BRANCH   9  14
ATOM     14  C   UNL     1      41.443 131.908  19.059  1.00  0.00     0.262 C 
ATOM     15  O   UNL     1      41.121 133.063  18.674  1.00  0.00    -0.298 OA
ENDBRANCH   9  14
BRANCH  12  16
ATOM     16  C   UNL     1      45.568 130.951  16.399  1.00  0.00    -0.015 A 
ATOM     17  C   UNL     1      45.054 131.653  15.295  1.00  0.00     0.009 A 
ATOM     18  C   UNL     1      46.743 130.195  16.239  1.00  0.00     0.009 A 
ATOM     19  C   UNL     1      45.710 131.613  14.061  1.00  0.00     0.004 A 
ATOM     20  C   UNL     1      47.398 130.156  15.006  1.00  0.00     0.004 A 
ATOM     21  C   UNL     1      46.895 130.877  13.914  1.00  0.00    -0.051 A 
ATOM     22  C   UNL     1      47.576 130.802  12.579  1.00  0.00     0.044 C 
ENDBRANCH  12  16
ENDBRANCH   6   7
ENDBRANCH   1   6
BRANCH   2  23
ATOM     23  C   UNL     1      43.327 131.746  24.234  1.00  0.00     0.116 C 
BRANCH  23  24
ATOM     24  C   UNL     1      43.115 130.252  24.009  1.00  0.00    -0.025 A 
ATOM     25  C   UNL     1      44.231 129.395  23.940  1.00  0.00     0.009 A 
ATOM     26  C   UNL     1      41.829 129.702  23.829  1.00  0.00     0.009 A 
ATOM     27  C   UNL     1      44.065 128.026  23.711  1.00  0.00     0.039 A 
ATOM     28  C   UNL     1      41.669 128.332  23.601  1.00  0.00     0.039 A 
ATOM     29  C   UNL     1      42.785 127.494  23.543  1.00  0.00     0.123 A 
ATOM     30  F   UNL     1      42.626 126.167  23.320  1.00  0.00    -0.207 F 
ENDBRANCH  23  24
BRANCH  23  31
ATOM     31  C   UNL     1      44.824 132.173  24.159  1.00  0.00     0.010 C 
ATOM     32  C   UNL     1      45.076 133.617  24.618  1.00  0.00     0.010 C 
ATOM     33  C   UNL     1      45.408 131.949  22.756  1.00  0.00     0.010 C 
ENDBRANCH  23  31
ENDBRANCH   2  23
TORSDOF 8
ENDMDL
MODEL 5
REMARK VINA RESULT:      -0.3      1.884      2.459
REMARK SMILES Cc1ccc(-c2cc(C=O)c(/N=C(\O)N[C@@H](c3ccc(F)cc3)C(C)C)cc2F)cc1
REMARK SMILES IDX 13 1 15 2 14 4 12 6 11 7 27 8 8 9 28 10 7 11 6 12 29 13 9 14
REMARK SMILES IDX 10 15 5 16 4 17 30 18 3 19 31 20 2 21 1 22 16 23 17 24 18 25
REMARK SMILES IDX 23 26 19 27 22 28 20 29 21 30 24 31 25 32 26 33
REMARK H PARENT 15 3 14 5
ROOT
ATOM      1  C   UNL     1      44.568 131.072  22.514  1.00  0.00     0.287 C 
ATOM      2  N   UNL     1      44.504 129.865  23.287  1.00  0.00    -0.333 N 
ATOM      3  H   UNL     1      45.123 129.813  24.127  1.00  0.00     0.165 HD
ENDROOT
BRANCH   1   4
ATOM      4  O   UNL     1      45.390 132.107  22.969  1.00  0.00    -0.481 OA
ATOM      5  H   UNL     1      45.778 132.136  23.903  1.00  0.00     0.296 HD
ENDBRANCH   1   4
BRANCH   1   6
ATOM      6  N   UNL     1      43.901 131.165  21.399  1.00  0.00    -0.197 NA
BRANCH   6   7
ATOM      7  C   UNL     1      44.441 131.137  20.068  1.00  0.00     0.082 A 
ATOM      8  C   UNL     1      44.211 130.031  19.235  1.00  0.00     0.069 A 
ATOM      9  C   UNL     1      45.299 132.168  19.634  1.00  0.00     0.041 A 
ATOM     10  C   UNL     1      44.778 129.968  17.961  1.00  0.00     0.133 A 
ATOM     11  C   UNL     1      45.865 132.098  18.347  1.00  0.00     0.025 A 
ATOM     12  C   UNL     1      45.609 131.004  17.504  1.00  0.00     0.018 A 
ATOM     13  F   UNL     1      44.490 128.904  17.167  1.00  0.00    -0.206 F 
BRANCH   9  14
ATOM     14  C   UNL     1      45.597 133.322  20.513  1.00  0.00     0.262 C 
ATOM     15  O   UNL     1      46.704 133.420  21.105  1.00  0.00    -0.298 OA
ENDBRANCH   9  14
BRANCH  12  16
ATOM     16  C   UNL     1      46.222 130.951  16.154  1.00  0.00    -0.015 A 
ATOM     17  C   UNL     1      46.111 132.042  15.274  1.00  0.00     0.009 A 
ATOM     18  C   UNL     1      46.904 129.797  15.728  1.00  0.00     0.009 A 
ATOM     19  C   UNL     1      46.683 131.986  14.000  1.00  0.00     0.004 A 
ATOM     20  C   UNL     1      47.476 129.744  14.454  1.00  0.00     0.004 A 
ATOM     21  C   UNL     1      47.384 130.843  13.589  1.00  0.00    -0.051 A 
ATOM     22  C   UNL     1      47.963 130.768  12.206  1.00  0.00     0.044 C 
ENDBRANCH  12  16
ENDBRANCH   6   7
ENDBRANCH   1   6
BRANCH   2  23
ATOM     23  C   UNL     1      43.654 128.721  22.916  1.00  0.00     0.116 C 
BRANCH  23  24
ATOM     24  C   UNL     1      44.439 127.412  22.939  1.00  0.00    -0.025 A 
ATOM     25  C   UNL     1      43.979 126.342  23.731  1.00  0.00     0.009 A 
ATOM     26  C   UNL     1      45.640 127.251  22.217  1.00  0.00     0.009 A 
ATOM     27  C   UNL     1      44.693 125.141  23.788  1.00  0.00     0.039 A 
ATOM     28  C   UNL     1      46.349 126.047  22.278  1.00  0.00     0.039 A 
ATOM     29  C   UNL     1      45.875 124.993  23.061  1.00  0.00     0.123 A 
ATOM     30  F   UNL     1      46.566 123.828  23.119  1.00  0.00    -0.207 F 
ENDBRANCH  23  24
BRANCH  23  31
ATOM     31  C   UNL     1      42.361 128.678  23.784  1.00  0.00     0.010 C 
ATOM     32  C   UNL     1      41.185 127.962  23.102  1.00  0.00     0.010 C 
ATOM     33  C   UNL     1      41.940 130.082  24.242  1.00  0.00     0.010 C 
ENDBRANCH  23  31
ENDBRANCH   2  23
TORSDOF 8
ENDMDL
MODEL 6
REMARK VINA RESULT:       0.3      3.822      5.479
REMARK SMILES Cc1ccc(-c2cc(C=O)c(/N=C(\O)N[C@@H](c3ccc(F)cc3)C(C)C)cc2F)cc1
REMARK SMILES IDX 13 1 15 2 14 4 12 6 11 7 27 8 8 9 28 10 7 11 6 12 29 13 9 14
REMARK SMILES IDX 10 15 5 16 4 17 30 18 3 19 31 20 2 21 1 22 16 23 17 24 18 25
REMARK SMILES IDX 23 26 19 27 22 28 20 29 21 30 24 31 25 32 26 33
REMARK H PARENT 15 3 14 5
ROOT
ATOM      1  C   UNL     1      42.361 132.463  19.767  1.00  0.00     0.287 C 
ATOM      2  N   UNL     1      42.665 132.712  21.146  1.00  0.00    -0.333 N 
ATOM      3  H   UNL     1      42.410 133.654  21.519  1.00  0.00     0.165 HD
ENDROOT
BRANCH   1   4
ATOM      4  O   UNL     1      41.692 133.456  19.045  1.00  0.00    -0.481 OA
ATOM      5  H   UNL     1      41.204 133.277  18.178  1.00  0.00     0.296 HD
ENDBRANCH   1   4
BRANCH   1   6
ATOM      6  N   UNL     1      42.742 131.349  19.208  1.00  0.00    -0.197 NA
BRANCH   6   7
ATOM      7  C   UNL     1      43.705 131.202  18.152  1.00  0.00     0.082 A 
ATOM      8  C   UNL     1      43.351 131.499  16.826  1.00  0.00     0.069 A 
ATOM      9  C   UNL     1      44.973 130.650  18.426  1.00  0.00     0.041 A 
ATOM     10  C   UNL     1      44.261 131.306  15.785  1.00  0.00     0.133 A 
ATOM     11  C   UNL     1      45.885 130.460  17.371  1.00  0.00     0.025 A 
ATOM     12  C   UNL     1      45.539 130.786  16.049  1.00  0.00     0.018 A 
ATOM     13  F   UNL     1      43.896 131.653  14.523  1.00  0.00    -0.206 F 
BRANCH   9  14
ATOM     14  C   UNL     1      45.352 130.283  19.809  1.00  0.00     0.262 C 
ATOM     15  O   UNL     1      45.836 129.150  20.072  1.00  0.00    -0.298 OA
ENDBRANCH   9  14
BRANCH  12  16
ATOM     16  C   UNL     1      46.517 130.572  14.954  1.00  0.00    -0.015 A 
ATOM     17  C   UNL     1      46.744 131.570  13.991  1.00  0.00     0.009 A 
ATOM     18  C   UNL     1      47.214 129.355  14.853  1.00  0.00     0.009 A 
ATOM     19  C   UNL     1      47.660 131.362  12.956  1.00  0.00     0.004 A 
ATOM     20  C   UNL     1      48.131 129.149  13.819  1.00  0.00     0.004 A 
ATOM     21  C   UNL     1      48.372 130.155  12.874  1.00  0.00    -0.051 A 
ATOM     22  C   UNL     1      49.325 129.918  11.740  1.00  0.00     0.044 C 
ENDBRANCH  12  16
ENDBRANCH   6   7
ENDBRANCH   1   6
BRANCH   2  23
ATOM     23  C   UNL     1      43.343 131.729  22.007  1.00  0.00     0.116 C 
BRANCH  23  24
ATOM     24  C   UNL     1      44.615 132.307  22.620  1.00  0.00    -0.025 A 
ATOM     25  C   UNL     1      44.697 132.477  24.016  1.00  0.00     0.009 A 
ATOM     26  C   UNL     1      45.706 132.715  21.825  1.00  0.00     0.009 A 
ATOM     27  C   UNL     1      45.842 133.026  24.601  1.00  0.00     0.039 A 
ATOM     28  C   UNL     1      46.849 133.264  22.416  1.00  0.00     0.039 A 
ATOM     29  C   UNL     1      46.917 133.418  23.802  1.00  0.00     0.123 A 
ATOM     30  F   UNL     1      48.026 133.952  24.371  1.00  0.00    -0.207 F 
ENDBRANCH  23  24
BRANCH  23  31
ATOM     31  C   UNL     1      42.363 131.139  23.065  1.00  0.00     0.010 C 
ATOM     32  C   UNL     1      41.491 132.198  23.755  1.00  0.00     0.010 C 
ATOM     33  C   UNL     1      43.100 130.289  24.110  1.00  0.00     0.010 C 
ENDBRANCH  23  31
ENDBRANCH   2  23
TORSDOF 8
ENDMDL


