REMARK SMILES C=CCC[C@H](O)Cn1cc(F)cc(N)/c1=N\c1c[n-]c2nccc-2c1
REMARK SMILES IDX 5 1 6 2 7 4 8 5 9 6 15 7 10 8 13 9 12 10 11 11 16 12 17 13
REMARK SMILES IDX 18 14 25 15 19 16 24 17 20 18 23 19 21 20 22 21 14 22 4 25
REMARK SMILES IDX 3 26 2 27 1 28
REMARK H PARENT 6 3 14 23 14 24
ROOT
ATOM      1  C   UNL     1       0.107  -2.800  -0.198  1.00  0.00     0.134 C 
ENDROOT
BRANCH   1   2
ATOM      2  O   UNL     1      -0.500  -3.563  -1.210  1.00  0.00    -0.391 OA
ATOM      3  H   UNL     1      -1.343  -3.102  -1.460  1.00  0.00     0.211 HD
ENDBRANCH   1   2
BRANCH   1   4
ATOM      4  C   UNL     1       0.952  -1.678  -0.836  1.00  0.00     0.155 C 
BRANCH   4   5
ATOM      5  N   UNL     1       0.132  -0.844  -1.738  1.00  0.00    -0.326 N 
ATOM      6  C   UNL     1       0.258  -1.040  -3.087  1.00  0.00     0.127 A 
ATOM      7  C   UNL     1      -0.723   0.117  -1.237  1.00  0.00     0.156 A 
ATOM      8  C   UNL     1      -0.469  -0.276  -3.991  1.00  0.00     0.141 A 
ATOM      9  C   UNL     1      -1.558   0.838  -2.143  1.00  0.00     0.078 A 
ATOM     10  C   UNL     1      -1.380   0.657  -3.518  1.00  0.00     0.070 A 
ATOM     11  F   UNL     1      -0.324  -0.473  -5.324  1.00  0.00    -0.205 F 
BRANCH   7  12
ATOM     12  N   UNL     1      -0.722   0.335   0.056  1.00  0.00    -0.229 NA
BRANCH  12  13
ATOM     13  C   UNL     1      -1.296   1.413   0.806  1.00  0.00     0.062 A 
ATOM     14  C   UNL     1      -2.048   1.118   1.974  1.00  0.00     0.006 A 
ATOM     15  C   UNL     1      -1.025   2.756   0.457  1.00  0.00     0.036 A 
ATOM     16  N   UNL     1      -2.567   2.113   2.757  1.00  0.00    -0.440 NA
ATOM     17  C   UNL     1      -1.567   3.742   1.265  1.00  0.00    -0.025 A 
ATOM     18  C   UNL     1      -2.340   3.400   2.410  1.00  0.00    -0.052 A 
ATOM     19  C   UNL     1      -1.522   5.111   1.236  1.00  0.00     0.003 A 
ATOM     20  N   UNL     1      -2.760   4.492   3.068  1.00  0.00    -0.442 NA
ATOM     21  C   UNL     1      -2.260   5.530   2.346  1.00  0.00    -0.022 A 
ENDBRANCH  12  13
ENDBRANCH   7  12
BRANCH   9  22
ATOM     22  N   UNL     1      -2.676   1.627  -1.715  1.00  0.00    -0.396 N 
ATOM     23  H   UNL     1      -3.123   2.307  -2.369  1.00  0.00     0.156 HD
ATOM     24  H   UNL     1      -3.209   1.384  -0.852  1.00  0.00     0.156 HD
ENDBRANCH   9  22
ENDBRANCH   4   5
ENDBRANCH   1   4
BRANCH   1  25
ATOM     25  C   UNL     1       0.963  -3.748   0.669  1.00  0.00     0.038 C 
BRANCH  25  26
ATOM     26  C   UNL     1       1.604  -3.087   1.901  1.00  0.00     0.029 C 
BRANCH  26  27
ATOM     27  C   UNL     1       0.570  -2.539   2.847  1.00  0.00    -0.035 C 
ATOM     28  C   UNL     1       0.454  -1.230   3.085  1.00  0.00     0.004 C 
ENDBRANCH  26  27
ENDBRANCH  25  26
ENDBRANCH   1  25
TORSDOF 9


