MODEL 1
REMARK VINA RESULT:      -4.4      0.000      0.000
REMARK SMILES C=C[C@H]1CC[C@H](c2cccc3ccoc23)N(C(=O)[C@@H](C)c2[nH]cc[nH+]2)C1
REMARK SMILES IDX 17 1 18 2 16 3 3 4 4 5 26 6 5 7 6 8 2 9 1 10 7 11 8 12 15 13
REMARK SMILES IDX 9 14 14 15 11 16 10 17 13 18 12 19 19 20 20 21 21 22 22 23
REMARK SMILES IDX 25 24 23 25 24 26
REMARK H PARENT 22 27 25 28
ROOT
ATOM      1  C   UNL     1      45.418 127.274  22.376  1.00  0.00     0.238 C 
ATOM      2  O   UNL     1      45.928 127.700  21.301  1.00  0.00    -0.274 OA
ENDROOT
BRANCH   1   3
ATOM      3  N   UNL     1      45.662 125.906  22.780  1.00  0.00    -0.334 N 
ATOM      4  C   UNL     1      47.030 123.803  22.467  1.00  0.00     0.031 C 
ATOM      5  C   UNL     1      45.952 123.094  23.289  1.00  0.00     0.012 C 
ATOM      6  C   UNL     1      46.453 125.079  21.842  1.00  0.00     0.127 C 
ATOM      7  C   UNL     1      45.491 123.982  24.437  1.00  0.00     0.031 C 
ATOM      8  C   UNL     1      44.947 125.346  23.958  1.00  0.00     0.119 C 
BRANCH   4   9
ATOM      9  C   UNL     1      48.270 124.105  23.286  1.00  0.00    -0.030 C 
ATOM     10  C   UNL     1      48.230 124.169  24.620  1.00  0.00     0.004 C 
ENDBRANCH   4   9
BRANCH   8  11
ATOM     11  C   UNL     1      43.441 125.276  23.748  1.00  0.00     0.018 A 
ATOM     12  C   UNL     1      42.583 125.986  24.623  1.00  0.00     0.010 A 
ATOM     13  C   UNL     1      42.823 124.501  22.753  1.00  0.00     0.139 A 
ATOM     14  C   UNL     1      41.181 125.937  24.468  1.00  0.00     0.001 A 
ATOM     15  O   UNL     1      43.388 123.743  21.846  1.00  0.00    -0.464 OA
ATOM     16  C   UNL     1      41.461 124.461  22.609  1.00  0.00     0.021 A 
ATOM     17  C   UNL     1      40.605 125.169  23.444  1.00  0.00     0.012 A 
ATOM     18  C   UNL     1      42.434 123.206  21.107  1.00  0.00     0.196 A 
ATOM     19  C   UNL     1      41.187 123.631  21.548  1.00  0.00     0.050 A 
ENDBRANCH   8  11
ENDBRANCH   1   3
BRANCH   1  20
ATOM     20  C   UNL     1      44.548 128.207  23.192  1.00  0.00     0.189 C 
ATOM     21  C   UNL     1      45.075 128.365  24.623  1.00  0.00     0.031 C 
BRANCH  20  22
ATOM     22  C   UNL     1      44.446 129.557  22.535  1.00  0.00     0.264 A 
ATOM     23  N   UNL     1      45.176 129.943  21.467  1.00  0.00    -0.247 N 
ATOM     24  N   UNL     1      43.656 130.549  22.990  1.00  0.00    -0.247 N 
ATOM     25  C   UNL     1      44.817 131.218  21.231  1.00  0.00     0.240 A 
ATOM     26  C   UNL     1      43.882 131.592  22.171  1.00  0.00     0.240 A 
ATOM     27  H   UNL     1      45.872 129.379  20.932  1.00  0.00     0.311 HD
ATOM     28  H   UNL     1      43.005 130.520  23.806  1.00  0.00     0.311 HD
ENDBRANCH  20  22
ENDBRANCH   1  20
TORSDOF 5
ENDMDL
MODEL 2
REMARK VINA RESULT:      -4.3      2.071      5.462
REMARK SMILES C=C[C@H]1CC[C@H](c2cccc3ccoc23)N(C(=O)[C@@H](C)c2[nH]cc[nH+]2)C1
REMARK SMILES IDX 17 1 18 2 16 3 3 4 4 5 26 6 5 7 6 8 2 9 1 10 7 11 8 12 15 13
REMARK SMILES IDX 9 14 14 15 11 16 10 17 13 18 12 19 19 20 20 21 21 22 22 23
REMARK SMILES IDX 25 24 23 25 24 26
REMARK H PARENT 22 27 25 28
ROOT
ATOM      1  C   UNL     1      43.421 125.242  23.576  1.00  0.00     0.238 C 
ATOM      2  O   UNL     1      42.657 125.775  24.430  1.00  0.00    -0.274 OA
ENDROOT
BRANCH   1   3
ATOM      3  N   UNL     1      44.822 125.607  23.559  1.00  0.00    -0.334 N 
ATOM      4  C   UNL     1      47.170 125.084  24.335  1.00  0.00     0.031 C 
ATOM      5  C   UNL     1      47.541 126.487  23.848  1.00  0.00     0.012 C 
ATOM      6  C   UNL     1      45.665 125.013  24.620  1.00  0.00     0.127 C 
ATOM      7  C   UNL     1      46.826 126.800  22.540  1.00  0.00     0.031 C 
ATOM      8  C   UNL     1      45.290 126.694  22.658  1.00  0.00     0.119 C 
BRANCH   4   9
ATOM      9  C   UNL     1      47.597 124.006  23.358  1.00  0.00    -0.030 C 
ATOM     10  C   UNL     1      46.988 123.849  22.179  1.00  0.00     0.004 C 
ENDBRANCH   4   9
BRANCH   8  11
ATOM     11  C   UNL     1      44.688 128.046  23.011  1.00  0.00     0.018 A 
ATOM     12  C   UNL     1      43.936 128.183  24.203  1.00  0.00     0.010 A 
ATOM     13  C   UNL     1      44.787 129.186  22.195  1.00  0.00     0.139 A 
ATOM     14  C   UNL     1      43.353 129.418  24.560  1.00  0.00     0.001 A 
ATOM     15  O   UNL     1      45.399 129.310  21.044  1.00  0.00    -0.464 OA
ATOM     16  C   UNL     1      44.218 130.381  22.550  1.00  0.00     0.021 A 
ATOM     17  C   UNL     1      43.497 130.539  23.727  1.00  0.00     0.012 A 
ATOM     18  C   UNL     1      45.250 130.555  20.632  1.00  0.00     0.196 A 
ATOM     19  C   UNL     1      44.508 131.282  21.554  1.00  0.00     0.050 A 
ENDBRANCH   8  11
ENDBRANCH   1   3
BRANCH   1  20
ATOM     20  C   UNL     1      42.838 124.257  22.585  1.00  0.00     0.189 C 
ATOM     21  C   UNL     1      43.621 122.939  22.570  1.00  0.00     0.031 C 
BRANCH  20  22
ATOM     22  C   UNL     1      41.389 123.986  22.888  1.00  0.00     0.264 A 
ATOM     23  N   UNL     1      40.576 123.237  22.115  1.00  0.00    -0.247 N 
ATOM     24  N   UNL     1      40.735 124.521  23.938  1.00  0.00    -0.247 N 
ATOM     25  C   UNL     1      39.370 123.288  22.710  1.00  0.00     0.240 A 
ATOM     26  C   UNL     1      39.468 124.082  23.832  1.00  0.00     0.240 A 
ATOM     27  H   UNL     1      40.820 122.723  21.240  1.00  0.00     0.311 HD
ATOM     28  H   UNL     1      41.124 125.146  24.678  1.00  0.00     0.311 HD
ENDBRANCH  20  22
ENDBRANCH   1  20
TORSDOF 5
ENDMDL
MODEL 3
REMARK VINA RESULT:      -2.8      2.495      7.217
REMARK SMILES C=C[C@H]1CC[C@H](c2cccc3ccoc23)N(C(=O)[C@@H](C)c2[nH]cc[nH+]2)C1
REMARK SMILES IDX 17 1 18 2 16 3 3 4 4 5 26 6 5 7 6 8 2 9 1 10 7 11 8 12 15 13
REMARK SMILES IDX 9 14 14 15 11 16 10 17 13 18 12 19 19 20 20 21 21 22 22 23
REMARK SMILES IDX 25 24 23 25 24 26
REMARK H PARENT 22 27 25 28
ROOT
ATOM      1  C   UNL     1      45.017 128.571  21.895  1.00  0.00     0.238 C 
ATOM      2  O   UNL     1      45.166 128.092  20.735  1.00  0.00    -0.274 OA
ENDROOT
BRANCH   1   3
ATOM      3  N   UNL     1      44.370 129.856  22.049  1.00  0.00    -0.334 N 
ATOM      4  C   UNL     1      42.564 131.211  23.188  1.00  0.00     0.031 C 
ATOM      5  C   UNL     1      42.831 132.281  22.127  1.00  0.00     0.012 C 
ATOM      6  C   UNL     1      43.029 129.843  22.675  1.00  0.00     0.127 C 
ATOM      7  C   UNL     1      44.326 132.393  21.852  1.00  0.00     0.031 C 
ATOM      8  C   UNL     1      44.951 131.058  21.394  1.00  0.00     0.119 C 
BRANCH   4   9
ATOM      9  C   UNL     1      43.209 131.548  24.518  1.00  0.00    -0.030 C 
ATOM     10  C   UNL     1      44.308 132.306  24.591  1.00  0.00     0.004 C 
ENDBRANCH   4   9
BRANCH   8  11
ATOM     11  C   UNL     1      44.942 130.958  19.875  1.00  0.00     0.018 A 
ATOM     12  C   UNL     1      46.069 130.422  19.206  1.00  0.00     0.010 A 
ATOM     13  C   UNL     1      43.887 131.413  19.066  1.00  0.00     0.139 A 
ATOM     14  C   UNL     1      46.102 130.323  17.798  1.00  0.00     0.001 A 
ATOM     15  O   UNL     1      42.759 131.965  19.436  1.00  0.00    -0.464 OA
ATOM     16  C   UNL     1      43.928 131.311  17.700  1.00  0.00     0.021 A 
ATOM     17  C   UNL     1      45.016 130.768  17.028  1.00  0.00     0.012 A 
ATOM     18  C   UNL     1      42.054 132.227  18.351  1.00  0.00     0.196 A 
ATOM     19  C   UNL     1      42.750 131.829  17.217  1.00  0.00     0.050 A 
ENDBRANCH   8  11
ENDBRANCH   1   3
BRANCH   1  20
ATOM     20  C   UNL     1      45.542 127.791  23.082  1.00  0.00     0.189 C 
ATOM     21  C   UNL     1      44.827 128.186  24.379  1.00  0.00     0.031 C 
BRANCH  20  22
ATOM     22  C   UNL     1      45.403 126.310  22.854  1.00  0.00     0.264 A 
ATOM     23  N   UNL     1      46.442 125.464  22.686  1.00  0.00    -0.247 N 
ATOM     24  N   UNL     1      44.217 125.683  22.729  1.00  0.00    -0.247 N 
ATOM     25  C   UNL     1      45.888 124.258  22.465  1.00  0.00     0.240 A 
ATOM     26  C   UNL     1      44.516 124.394  22.490  1.00  0.00     0.240 A 
ATOM     27  H   UNL     1      47.460 125.688  22.717  1.00  0.00     0.311 HD
ATOM     28  H   UNL     1      43.265 126.104  22.801  1.00  0.00     0.311 HD
ENDBRANCH  20  22
ENDBRANCH   1  20
TORSDOF 5
ENDMDL
MODEL 4
REMARK VINA RESULT:      -2.6      4.817      8.660
REMARK SMILES C=C[C@H]1CC[C@H](c2cccc3ccoc23)N(C(=O)[C@@H](C)c2[nH]cc[nH+]2)C1
REMARK SMILES IDX 17 1 18 2 16 3 3 4 4 5 26 6 5 7 6 8 2 9 1 10 7 11 8 12 15 13
REMARK SMILES IDX 9 14 14 15 11 16 10 17 13 18 12 19 19 20 20 21 21 22 22 23
REMARK SMILES IDX 25 24 23 25 24 26
REMARK H PARENT 22 27 25 28
ROOT
ATOM      1  C   UNL     1      45.578 130.878  19.654  1.00  0.00     0.238 C 
ATOM      2  O   UNL     1      46.351 130.031  19.122  1.00  0.00    -0.274 OA
ENDROOT
BRANCH   1   3
ATOM      3  N   UNL     1      44.388 131.292  18.943  1.00  0.00    -0.334 N 
ATOM      4  C   UNL     1      41.893 131.696  19.016  1.00  0.00     0.031 C 
ATOM      5  C   UNL     1      41.955 131.759  17.488  1.00  0.00     0.012 C 
ATOM      6  C   UNL     1      43.095 130.910  19.554  1.00  0.00     0.127 C 
ATOM      7  C   UNL     1      43.209 132.500  17.038  1.00  0.00     0.031 C 
ATOM      8  C   UNL     1      44.507 131.858  17.573  1.00  0.00     0.119 C 
BRANCH   4   9
ATOM      9  C   UNL     1      41.811 133.073  19.644  1.00  0.00    -0.030 C 
ATOM     10  C   UNL     1      41.590 133.234  20.952  1.00  0.00     0.004 C 
ENDBRANCH   4   9
BRANCH   8  11
ATOM     11  C   UNL     1      45.056 130.852  16.571  1.00  0.00     0.018 A 
ATOM     12  C   UNL     1      44.700 129.487  16.689  1.00  0.00     0.010 A 
ATOM     13  C   UNL     1      45.950 131.182  15.538  1.00  0.00     0.139 A 
ATOM     14  C   UNL     1      45.196 128.523  15.785  1.00  0.00     0.001 A 
ATOM     15  O   UNL     1      46.446 132.356  15.237  1.00  0.00    -0.464 OA
ATOM     16  C   UNL     1      46.426 130.239  14.665  1.00  0.00     0.021 A 
ATOM     17  C   UNL     1      46.069 128.899  14.753  1.00  0.00     0.012 A 
ATOM     18  C   UNL     1      47.234 132.212  14.188  1.00  0.00     0.196 A 
ATOM     19  C   UNL     1      47.257 130.884  13.781  1.00  0.00     0.050 A 
ENDBRANCH   8  11
ENDBRANCH   1   3
BRANCH   1  20
ATOM     20  C   UNL     1      45.940 131.447  21.010  1.00  0.00     0.189 C 
ATOM     21  C   UNL     1      45.867 132.978  21.019  1.00  0.00     0.031 C 
BRANCH  20  22
ATOM     22  C   UNL     1      45.045 130.888  22.083  1.00  0.00     0.264 A 
ATOM     23  N   UNL     1      44.820 129.572  22.278  1.00  0.00    -0.247 N 
ATOM     24  N   UNL     1      44.322 131.654  22.923  1.00  0.00    -0.247 N 
ATOM     25  C   UNL     1      43.936 129.507  23.291  1.00  0.00     0.240 A 
ATOM     26  C   UNL     1      43.627 130.791  23.686  1.00  0.00     0.240 A 
ATOM     27  H   UNL     1      45.236 128.768  21.760  1.00  0.00     0.311 HD
ATOM     28  H   UNL     1      44.300 132.696  22.974  1.00  0.00     0.311 HD
ENDBRANCH  20  22
ENDBRANCH   1  20
TORSDOF 5
ENDMDL
MODEL 5
REMARK VINA RESULT:      -2.4      2.628      7.362
REMARK SMILES C=C[C@H]1CC[C@H](c2cccc3ccoc23)N(C(=O)[C@@H](C)c2[nH]cc[nH+]2)C1
REMARK SMILES IDX 17 1 18 2 16 3 3 4 4 5 26 6 5 7 6 8 2 9 1 10 7 11 8 12 15 13
REMARK SMILES IDX 9 14 14 15 11 16 10 17 13 18 12 19 19 20 20 21 21 22 22 23
REMARK SMILES IDX 25 24 23 25 24 26
REMARK H PARENT 22 27 25 28
ROOT
ATOM      1  C   UNL     1      45.147 128.970  21.890  1.00  0.00     0.238 C 
ATOM      2  O   UNL     1      45.931 128.668  20.946  1.00  0.00    -0.274 OA
ENDROOT
BRANCH   1   3
ATOM      3  N   UNL     1      44.429 130.226  21.836  1.00  0.00    -0.334 N 
ATOM      4  C   UNL     1      42.504 131.619  22.700  1.00  0.00     0.031 C 
ATOM      5  C   UNL     1      42.767 132.547  21.512  1.00  0.00     0.012 C 
ATOM      6  C   UNL     1      43.062 130.222  22.404  1.00  0.00     0.127 C 
ATOM      7  C   UNL     1      44.265 132.705  21.285  1.00  0.00     0.031 C 
ATOM      8  C   UNL     1      44.980 131.357  21.044  1.00  0.00     0.119 C 
BRANCH   4   9
ATOM      9  C   UNL     1      43.066 132.172  23.995  1.00  0.00    -0.030 C 
ATOM     10  C   UNL     1      44.091 131.585  24.621  1.00  0.00     0.004 C 
ENDBRANCH   4   9
BRANCH   8  11
ATOM     11  C   UNL     1      45.048 131.049  19.555  1.00  0.00     0.018 A 
ATOM     12  C   UNL     1      46.185 130.384  19.034  1.00  0.00     0.010 A 
ATOM     13  C   UNL     1      44.061 131.427  18.630  1.00  0.00     0.139 A 
ATOM     14  C   UNL     1      46.290 130.090  17.657  1.00  0.00     0.001 A 
ATOM     15  O   UNL     1      42.941 132.068  18.853  1.00  0.00    -0.464 OA
ATOM     16  C   UNL     1      44.172 131.137  17.295  1.00  0.00     0.021 A 
ATOM     17  C   UNL     1      45.269 130.465  16.770  1.00  0.00     0.012 A 
ATOM     18  C   UNL     1      42.309 132.204  17.702  1.00  0.00     0.196 A 
ATOM     19  C   UNL     1      43.047 131.628  16.676  1.00  0.00     0.050 A 
ENDBRANCH   8  11
ENDBRANCH   1   3
BRANCH   1  20
ATOM     20  C   UNL     1      45.006 128.016  23.057  1.00  0.00     0.189 C 
ATOM     21  C   UNL     1      43.557 127.544  23.230  1.00  0.00     0.031 C 
BRANCH  20  22
ATOM     22  C   UNL     1      45.913 126.827  22.890  1.00  0.00     0.264 A 
ATOM     23  N   UNL     1      45.846 125.954  21.862  1.00  0.00    -0.247 N 
ATOM     24  N   UNL     1      46.851 126.473  23.791  1.00  0.00    -0.247 N 
ATOM     25  C   UNL     1      46.788 125.028  22.117  1.00  0.00     0.240 A 
ATOM     26  C   UNL     1      47.406 125.347  23.308  1.00  0.00     0.240 A 
ATOM     27  H   UNL     1      45.203 125.983  21.041  1.00  0.00     0.311 HD
ATOM     28  H   UNL     1      47.097 126.965  24.678  1.00  0.00     0.311 HD
ENDBRANCH  20  22
ENDBRANCH   1  20
TORSDOF 5
ENDMDL
MODEL 6
REMARK VINA RESULT:      -2.3      2.007      5.599
REMARK SMILES C=C[C@H]1CC[C@H](c2cccc3ccoc23)N(C(=O)[C@@H](C)c2[nH]cc[nH+]2)C1
REMARK SMILES IDX 17 1 18 2 16 3 3 4 4 5 26 6 5 7 6 8 2 9 1 10 7 11 8 12 15 13
REMARK SMILES IDX 9 14 14 15 11 16 10 17 13 18 12 19 19 20 20 21 21 22 22 23
REMARK SMILES IDX 25 24 23 25 24 26
REMARK H PARENT 22 27 25 28
ROOT
ATOM      1  C   UNL     1      42.425 126.661  23.950  1.00  0.00     0.238 C 
ATOM      2  O   UNL     1      42.004 127.644  24.624  1.00  0.00    -0.274 OA
ENDROOT
BRANCH   1   3
ATOM      3  N   UNL     1      43.825 126.602  23.588  1.00  0.00    -0.334 N 
ATOM      4  C   UNL     1      46.114 125.647  24.075  1.00  0.00     0.031 C 
ATOM      5  C   UNL     1      46.659 126.725  23.136  1.00  0.00     0.012 C 
ATOM      6  C   UNL     1      44.745 126.073  24.619  1.00  0.00     0.127 C 
ATOM      7  C   UNL     1      45.737 126.897  21.935  1.00  0.00     0.031 C 
ATOM      8  C   UNL     1      44.291 127.259  22.338  1.00  0.00     0.119 C 
BRANCH   4   9
ATOM      9  C   UNL     1      46.042 124.288  23.406  1.00  0.00    -0.030 C 
ATOM     10  C   UNL     1      45.601 123.208  24.060  1.00  0.00     0.004 C 
ENDBRANCH   4   9
BRANCH   8  11
ATOM     11  C   UNL     1      44.108 128.769  22.368  1.00  0.00     0.018 A 
ATOM     12  C   UNL     1      43.153 129.337  23.246  1.00  0.00     0.010 A 
ATOM     13  C   UNL     1      44.803 129.660  21.533  1.00  0.00     0.139 A 
ATOM     14  C   UNL     1      42.947 130.733  23.295  1.00  0.00     0.001 A 
ATOM     15  O   UNL     1      45.708 129.386  20.627  1.00  0.00    -0.464 OA
ATOM     16  C   UNL     1      44.597 131.014  21.589  1.00  0.00     0.021 A 
ATOM     17  C   UNL     1      43.680 131.590  22.460  1.00  0.00     0.012 A 
ATOM     18  C   UNL     1      46.106 130.523  20.087  1.00  0.00     0.196 A 
ATOM     19  C   UNL     1      45.432 131.592  20.663  1.00  0.00     0.050 A 
ENDBRANCH   8  11
ENDBRANCH   1   3
BRANCH   1  20
ATOM     20  C   UNL     1      41.442 125.590  23.527  1.00  0.00     0.189 C 
ATOM     21  C   UNL     1      40.344 126.156  22.619  1.00  0.00     0.031 C 
BRANCH  20  22
ATOM     22  C   UNL     1      42.148 124.459  22.829  1.00  0.00     0.264 A 
ATOM     23  N   UNL     1      42.045 123.161  23.183  1.00  0.00    -0.247 N 
ATOM     24  N   UNL     1      43.012 124.637  21.810  1.00  0.00    -0.247 N 
ATOM     25  C   UNL     1      42.861 122.496  22.345  1.00  0.00     0.240 A 
ATOM     26  C   UNL     1      43.459 123.407  21.500  1.00  0.00     0.240 A 
ATOM     27  H   UNL     1      41.461 122.751  23.944  1.00  0.00     0.311 HD
ATOM     28  H   UNL     1      43.282 125.537  21.355  1.00  0.00     0.311 HD
ENDBRANCH  20  22
ENDBRANCH   1  20
TORSDOF 5
ENDMDL
MODEL 7
REMARK VINA RESULT:      -1.7      4.379      8.615
REMARK SMILES C=C[C@H]1CC[C@H](c2cccc3ccoc23)N(C(=O)[C@@H](C)c2[nH]cc[nH+]2)C1
REMARK SMILES IDX 17 1 18 2 16 3 3 4 4 5 26 6 5 7 6 8 2 9 1 10 7 11 8 12 15 13
REMARK SMILES IDX 9 14 14 15 11 16 10 17 13 18 12 19 19 20 20 21 21 22 22 23
REMARK SMILES IDX 25 24 23 25 24 26
REMARK H PARENT 22 27 25 28
ROOT
ATOM      1  C   UNL     1      45.440 130.772  19.832  1.00  0.00     0.238 C 
ATOM      2  O   UNL     1      46.416 130.306  19.178  1.00  0.00    -0.274 OA
ENDROOT
BRANCH   1   3
ATOM      3  N   UNL     1      44.285 131.271  19.115  1.00  0.00    -0.334 N 
ATOM      4  C   UNL     1      41.814 131.802  19.161  1.00  0.00     0.031 C 
ATOM      5  C   UNL     1      41.906 131.912  17.638  1.00  0.00     0.012 C 
ATOM      6  C   UNL     1      42.964 130.937  19.692  1.00  0.00     0.127 C 
ATOM      7  C   UNL     1      43.204 132.600  17.233  1.00  0.00     0.031 C 
ATOM      8  C   UNL     1      44.458 131.874  17.767  1.00  0.00     0.119 C 
BRANCH   4   9
ATOM      9  C   UNL     1      41.792 133.161  19.834  1.00  0.00    -0.030 C 
ATOM     10  C   UNL     1      41.175 133.354  21.003  1.00  0.00     0.004 C 
ENDBRANCH   4   9
BRANCH   8  11
ATOM     11  C   UNL     1      44.972 130.874  16.741  1.00  0.00     0.018 A 
ATOM     12  C   UNL     1      44.599 129.512  16.849  1.00  0.00     0.010 A 
ATOM     13  C   UNL     1      45.848 131.205  15.694  1.00  0.00     0.139 A 
ATOM     14  C   UNL     1      45.064 128.553  15.923  1.00  0.00     0.001 A 
ATOM     15  O   UNL     1      46.354 132.376  15.397  1.00  0.00    -0.464 OA
ATOM     16  C   UNL     1      46.293 130.267  14.799  1.00  0.00     0.021 A 
ATOM     17  C   UNL     1      45.920 128.931  14.877  1.00  0.00     0.012 A 
ATOM     18  C   UNL     1      47.117 132.235  14.330  1.00  0.00     0.196 A 
ATOM     19  C   UNL     1      47.113 130.913  13.905  1.00  0.00     0.050 A 
ENDBRANCH   8  11
ENDBRANCH   1   3
BRANCH   1  20
ATOM     20  C   UNL     1      45.524 130.813  21.343  1.00  0.00     0.189 C 
ATOM     21  C   UNL     1      44.614 131.898  21.931  1.00  0.00     0.031 C 
BRANCH  20  22
ATOM     22  C   UNL     1      45.171 129.476  21.936  1.00  0.00     0.264 A 
ATOM     23  N   UNL     1      45.666 128.296  21.506  1.00  0.00    -0.247 N 
ATOM     24  N   UNL     1      44.269 129.313  22.924  1.00  0.00    -0.247 N 
ATOM     25  C   UNL     1      45.066 127.359  22.262  1.00  0.00     0.240 A 
ATOM     26  C   UNL     1      44.203 127.987  23.135  1.00  0.00     0.240 A 
ATOM     27  H   UNL     1      46.365 128.135  20.747  1.00  0.00     0.311 HD
ATOM     28  H   UNL     1      43.731 130.057  23.422  1.00  0.00     0.311 HD
ENDBRANCH  20  22
ENDBRANCH   1  20
TORSDOF 5
ENDMDL


