MODEL 1
REMARK VINA RESULT:      -9.4      0.000      0.000
REMARK SMILES O=C(C(=O)c1cc2cc(-c3nc[nH+]cc3F)[nH]c2cc1F)c1ccccc1
REMARK SMILES IDX 5 1 6 2 7 3 8 4 9 5 17 6 18 7 19 8 20 9 21 10 3 12 4 13 2 14
REMARK SMILES IDX 1 15 22 16 23 17 27 18 24 19 26 20 25 21 10 22 11 23 15 24
REMARK SMILES IDX 12 25 14 26 13 27 16 28
REMARK H PARENT 17 11 13 29
ROOT
ATOM      1  C   UNL     1      43.842 131.357  21.601  1.00  0.00     0.063 A 
ATOM      2  C   UNL     1      44.928 130.779  20.906  1.00  0.00     0.025 A 
ATOM      3  C   UNL     1      44.965 130.909  19.521  1.00  0.00     0.001 A 
ATOM      4  C   UNL     1      45.888 130.455  18.603  1.00  0.00     0.041 A 
ATOM      5  C   UNL     1      45.415 130.894  17.363  1.00  0.00     0.095 A 
ATOM      6  N   UNL     1      44.263 131.594  17.515  1.00  0.00    -0.351 N 
ATOM      7  C   UNL     1      43.999 131.589  18.832  1.00  0.00     0.049 A 
ATOM      8  C   UNL     1      42.925 132.192  19.480  1.00  0.00     0.066 A 
ATOM      9  C   UNL     1      42.849 132.079  20.882  1.00  0.00     0.136 A 
ATOM     10  F   UNL     1      41.841 132.709  21.535  1.00  0.00    -0.206 F 
ATOM     11  H   UNL     1      43.694 132.047  16.766  1.00  0.00     0.167 HD
ENDROOT
BRANCH   1  12
ATOM     12  C   UNL     1      43.786 131.237  23.074  1.00  0.00     0.236 C 
ATOM     13  O   UNL     1      44.442 132.059  23.768  1.00  0.00    -0.285 OA
BRANCH  12  14
ATOM     14  C   UNL     1      42.990 130.174  23.737  1.00  0.00     0.233 C 
ATOM     15  O   UNL     1      41.963 130.490  24.396  1.00  0.00    -0.285 OA
BRANCH  14  16
ATOM     16  C   UNL     1      43.362 128.742  23.653  1.00  0.00     0.026 A 
ATOM     17  C   UNL     1      44.714 128.384  23.503  1.00  0.00     0.012 A 
ATOM     18  C   UNL     1      42.395 127.727  23.769  1.00  0.00     0.012 A 
ATOM     19  C   UNL     1      45.086 127.037  23.439  1.00  0.00     0.001 A 
ATOM     20  C   UNL     1      42.773 126.381  23.706  1.00  0.00     0.001 A 
ATOM     21  C   UNL     1      44.116 126.037  23.537  1.00  0.00     0.000 A 
ENDBRANCH  14  16
ENDBRANCH  12  14
ENDBRANCH   1  12
BRANCH   5  22
ATOM     22  C   UNL     1      46.065 130.696  16.047  1.00  0.00     0.237 A 
ATOM     23  N   UNL     1      46.368 129.427  15.658  1.00  0.00    -0.044 NA
ATOM     24  C   UNL     1      46.392 131.764  15.192  1.00  0.00     0.215 A 
ATOM     25  C   UNL     1      46.963 129.171  14.465  1.00  0.00     0.449 A 
ATOM     26  C   UNL     1      47.002 131.478  13.970  1.00  0.00     0.241 A 
ATOM     27  N   UNL     1      47.273 130.192  13.625  1.00  0.00    -0.247 N 
ATOM     28  F   UNL     1      46.175 133.057  15.536  1.00  0.00    -0.198 F 
ATOM     29  H   UNL     1      47.731 129.988  12.709  1.00  0.00     0.311 HD
ENDBRANCH   5  22
TORSDOF 4
ENDMDL
MODEL 2
REMARK VINA RESULT:      -9.1      0.816      1.055
REMARK SMILES O=C(C(=O)c1cc2cc(-c3nc[nH+]cc3F)[nH]c2cc1F)c1ccccc1
REMARK SMILES IDX 5 1 6 2 7 3 8 4 9 5 17 6 18 7 19 8 20 9 21 10 3 12 4 13 2 14
REMARK SMILES IDX 1 15 22 16 23 17 27 18 24 19 26 20 25 21 10 22 11 23 15 24
REMARK SMILES IDX 12 25 14 26 13 27 16 28
REMARK H PARENT 17 11 13 29
ROOT
ATOM      1  C   UNL     1      43.053 131.841  21.244  1.00  0.00     0.063 A 
ATOM      2  C   UNL     1      44.212 131.232  20.715  1.00  0.00     0.025 A 
ATOM      3  C   UNL     1      44.394 131.251  19.335  1.00  0.00     0.001 A 
ATOM      4  C   UNL     1      45.413 130.744  18.559  1.00  0.00     0.041 A 
ATOM      5  C   UNL     1      45.068 131.072  17.244  1.00  0.00     0.095 A 
ATOM      6  N   UNL     1      43.898 131.758  17.218  1.00  0.00    -0.351 N 
ATOM      7  C   UNL     1      43.497 131.853  18.496  1.00  0.00     0.049 A 
ATOM      8  C   UNL     1      42.353 132.483  18.978  1.00  0.00     0.066 A 
ATOM      9  C   UNL     1      42.132 132.482  20.368  1.00  0.00     0.136 A 
ATOM     10  F   UNL     1      41.053 133.141  20.859  1.00  0.00    -0.206 F 
ATOM     11  H   UNL     1      43.406 132.137  16.379  1.00  0.00     0.167 HD
ENDROOT
BRANCH   1  12
ATOM     12  C   UNL     1      42.843 131.838  22.707  1.00  0.00     0.236 C 
ATOM     13  O   UNL     1      42.003 132.641  23.194  1.00  0.00    -0.285 OA
BRANCH  12  14
ATOM     14  C   UNL     1      43.602 130.926  23.599  1.00  0.00     0.233 C 
ATOM     15  O   UNL     1      44.495 131.399  24.352  1.00  0.00    -0.285 OA
BRANCH  14  16
ATOM     16  C   UNL     1      43.347 129.467  23.636  1.00  0.00     0.026 A 
ATOM     17  C   UNL     1      44.406 128.571  23.399  1.00  0.00     0.012 A 
ATOM     18  C   UNL     1      42.076 128.953  23.951  1.00  0.00     0.012 A 
ATOM     19  C   UNL     1      44.188 127.190  23.445  1.00  0.00     0.001 A 
ATOM     20  C   UNL     1      41.864 127.571  23.997  1.00  0.00     0.001 A 
ATOM     21  C   UNL     1      42.918 126.691  23.741  1.00  0.00     0.000 A 
ENDBRANCH  14  16
ENDBRANCH  12  14
ENDBRANCH   1  12
BRANCH   5  22
ATOM     22  C   UNL     1      45.855 130.783  16.023  1.00  0.00     0.237 A 
ATOM     23  N   UNL     1      46.122 129.484  15.717  1.00  0.00    -0.044 NA
ATOM     24  C   UNL     1      46.348 131.794  15.179  1.00  0.00     0.215 A 
ATOM     25  C   UNL     1      46.837 129.145  14.613  1.00  0.00     0.449 A 
ATOM     26  C   UNL     1      47.079 131.424  14.049  1.00  0.00     0.241 A 
ATOM     27  N   UNL     1      47.308 130.111  13.783  1.00  0.00    -0.247 N 
ATOM     28  F   UNL     1      46.173 133.110  15.450  1.00  0.00    -0.198 F 
ATOM     29  H   UNL     1      47.857 129.843  12.936  1.00  0.00     0.311 HD
ENDBRANCH   5  22
TORSDOF 4
ENDMDL
MODEL 3
REMARK VINA RESULT:      -8.9      1.385      1.797
REMARK SMILES O=C(C(=O)c1cc2cc(-c3nc[nH+]cc3F)[nH]c2cc1F)c1ccccc1
REMARK SMILES IDX 5 1 6 2 7 3 8 4 9 5 17 6 18 7 19 8 20 9 21 10 3 12 4 13 2 14
REMARK SMILES IDX 1 15 22 16 23 17 27 18 24 19 26 20 25 21 10 22 11 23 15 24
REMARK SMILES IDX 12 25 14 26 13 27 16 28
REMARK H PARENT 17 11 13 29
ROOT
ATOM      1  C   UNL     1      43.641 131.322  21.899  1.00  0.00     0.063 A 
ATOM      2  C   UNL     1      44.702 130.769  21.147  1.00  0.00     0.025 A 
ATOM      3  C   UNL     1      44.715 130.984  19.772  1.00  0.00     0.001 A 
ATOM      4  C   UNL     1      45.611 130.572  18.810  1.00  0.00     0.041 A 
ATOM      5  C   UNL     1      45.123 131.094  17.609  1.00  0.00     0.095 A 
ATOM      6  N   UNL     1      43.987 131.802  17.827  1.00  0.00    -0.351 N 
ATOM      7  C   UNL     1      43.748 131.721  19.146  1.00  0.00     0.049 A 
ATOM      8  C   UNL     1      42.698 132.300  19.852  1.00  0.00     0.066 A 
ATOM      9  C   UNL     1      42.647 132.103  21.245  1.00  0.00     0.136 A 
ATOM     10  F   UNL     1      41.663 132.708  21.956  1.00  0.00    -0.206 F 
ATOM     11  H   UNL     1      43.412 132.311  17.119  1.00  0.00     0.167 HD
ENDROOT
BRANCH   1  12
ATOM     12  C   UNL     1      43.611 131.112  23.362  1.00  0.00     0.236 C 
ATOM     13  O   UNL     1      43.375 132.102  24.105  1.00  0.00    -0.285 OA
BRANCH  12  14
ATOM     14  C   UNL     1      43.859 129.776  23.961  1.00  0.00     0.233 C 
ATOM     15  O   UNL     1      44.913 129.583  24.625  1.00  0.00    -0.285 OA
BRANCH  14  16
ATOM     16  C   UNL     1      42.907 128.652  23.804  1.00  0.00     0.026 A 
ATOM     17  C   UNL     1      43.395 127.335  23.716  1.00  0.00     0.012 A 
ATOM     18  C   UNL     1      41.517 128.867  23.788  1.00  0.00     0.012 A 
ATOM     19  C   UNL     1      42.511 126.260  23.584  1.00  0.00     0.001 A 
ATOM     20  C   UNL     1      40.636 127.788  23.657  1.00  0.00     0.001 A 
ATOM     21  C   UNL     1      41.133 126.486  23.551  1.00  0.00     0.000 A 
ENDBRANCH  14  16
ENDBRANCH  12  14
ENDBRANCH   1  12
BRANCH   5  22
ATOM     22  C   UNL     1      45.743 130.967  16.270  1.00  0.00     0.237 A 
ATOM     23  N   UNL     1      46.180 132.096  15.648  1.00  0.00    -0.044 NA
ATOM     24  C   UNL     1      45.886 129.732  15.612  1.00  0.00     0.215 A 
ATOM     25  C   UNL     1      46.759 132.054  14.421  1.00  0.00     0.449 A 
ATOM     26  C   UNL     1      46.486 129.711  14.353  1.00  0.00     0.241 A 
ATOM     27  N   UNL     1      46.914 130.867  13.781  1.00  0.00    -0.247 N 
ATOM     28  F   UNL     1      45.423 128.574  16.143  1.00  0.00    -0.198 F 
ATOM     29  H   UNL     1      47.360 130.843  12.837  1.00  0.00     0.311 HD
ENDBRANCH   5  22
TORSDOF 4
ENDMDL
MODEL 4
REMARK VINA RESULT:      -8.2      1.331      1.798
REMARK SMILES O=C(C(=O)c1cc2cc(-c3nc[nH+]cc3F)[nH]c2cc1F)c1ccccc1
REMARK SMILES IDX 5 1 6 2 7 3 8 4 9 5 17 6 18 7 19 8 20 9 21 10 3 12 4 13 2 14
REMARK SMILES IDX 1 15 22 16 23 17 27 18 24 19 26 20 25 21 10 22 11 23 15 24
REMARK SMILES IDX 12 25 14 26 13 27 16 28
REMARK H PARENT 17 11 13 29
ROOT
ATOM      1  C   UNL     1      43.280 131.670  21.322  1.00  0.00     0.063 A 
ATOM      2  C   UNL     1      44.450 131.161  20.716  1.00  0.00     0.025 A 
ATOM      3  C   UNL     1      44.551 131.217  19.329  1.00  0.00     0.001 A 
ATOM      4  C   UNL     1      45.560 130.803  18.487  1.00  0.00     0.041 A 
ATOM      5  C   UNL     1      45.117 131.125  17.201  1.00  0.00     0.095 A 
ATOM      6  N   UNL     1      43.898 131.718  17.254  1.00  0.00    -0.351 N 
ATOM      7  C   UNL     1      43.564 131.761  18.554  1.00  0.00     0.049 A 
ATOM      8  C   UNL     1      42.405 132.293  19.112  1.00  0.00     0.066 A 
ATOM      9  C   UNL     1      42.264 132.251  20.512  1.00  0.00     0.136 A 
ATOM     10  F   UNL     1      41.168 132.817  21.076  1.00  0.00    -0.206 F 
ATOM     11  H   UNL     1      43.331 132.072  16.452  1.00  0.00     0.167 HD
ENDROOT
BRANCH   1  12
ATOM     12  C   UNL     1      43.155 131.627  22.794  1.00  0.00     0.236 C 
ATOM     13  O   UNL     1      42.313 132.385  23.347  1.00  0.00    -0.285 OA
BRANCH  12  14
ATOM     14  C   UNL     1      43.999 130.727  23.620  1.00  0.00     0.233 C 
ATOM     15  O   UNL     1      44.670 131.210  24.571  1.00  0.00    -0.285 OA
BRANCH  14  16
ATOM     16  C   UNL     1      44.084 129.271  23.363  1.00  0.00     0.026 A 
ATOM     17  C   UNL     1      43.299 128.384  24.123  1.00  0.00     0.012 A 
ATOM     18  C   UNL     1      44.899 128.754  22.339  1.00  0.00     0.012 A 
ATOM     19  C   UNL     1      43.353 127.007  23.884  1.00  0.00     0.001 A 
ATOM     20  C   UNL     1      44.949 127.376  22.103  1.00  0.00     0.001 A 
ATOM     21  C   UNL     1      44.180 126.504  22.877  1.00  0.00     0.000 A 
ENDBRANCH  14  16
ENDBRANCH  12  14
ENDBRANCH   1  12
BRANCH   5  22
ATOM     22  C   UNL     1      45.852 130.917  15.932  1.00  0.00     0.237 A 
ATOM     23  N   UNL     1      46.382 132.003  15.305  1.00  0.00    -0.044 NA
ATOM     24  C   UNL     1      46.013 129.650  15.345  1.00  0.00     0.215 A 
ATOM     25  C   UNL     1      47.070 131.887  14.140  1.00  0.00     0.449 A 
ATOM     26  C   UNL     1      46.724 129.553  14.149  1.00  0.00     0.241 A 
ATOM     27  N   UNL     1      47.243 130.667  13.569  1.00  0.00    -0.247 N 
ATOM     28  F   UNL     1      45.464 128.531  15.880  1.00  0.00    -0.198 F 
ATOM     29  H   UNL     1      47.772 130.586  12.673  1.00  0.00     0.311 HD
ENDBRANCH   5  22
TORSDOF 4
ENDMDL
MODEL 5
REMARK VINA RESULT:      -7.7      1.153      1.291
REMARK SMILES O=C(C(=O)c1cc2cc(-c3nc[nH+]cc3F)[nH]c2cc1F)c1ccccc1
REMARK SMILES IDX 5 1 6 2 7 3 8 4 9 5 17 6 18 7 19 8 20 9 21 10 3 12 4 13 2 14
REMARK SMILES IDX 1 15 22 16 23 17 27 18 24 19 26 20 25 21 10 22 11 23 15 24
REMARK SMILES IDX 12 25 14 26 13 27 16 28
REMARK H PARENT 17 11 13 29
ROOT
ATOM      1  C   UNL     1      43.515 131.757  21.420  1.00  0.00     0.063 A 
ATOM      2  C   UNL     1      44.635 131.229  20.740  1.00  0.00     0.025 A 
ATOM      3  C   UNL     1      44.629 131.252  19.348  1.00  0.00     0.001 A 
ATOM      4  C   UNL     1      45.571 130.814  18.442  1.00  0.00     0.041 A 
ATOM      5  C   UNL     1      45.031 131.108  17.185  1.00  0.00     0.095 A 
ATOM      6  N   UNL     1      43.821 131.707  17.317  1.00  0.00    -0.351 N 
ATOM      7  C   UNL     1      43.588 131.782  18.638  1.00  0.00     0.049 A 
ATOM      8  C   UNL     1      42.477 132.332  19.269  1.00  0.00     0.066 A 
ATOM      9  C   UNL     1      42.443 132.324  20.677  1.00  0.00     0.136 A 
ATOM     10  F   UNL     1      41.394 132.908  21.309  1.00  0.00    -0.206 F 
ATOM     11  H   UNL     1      43.196 132.045  16.553  1.00  0.00     0.167 HD
ENDROOT
BRANCH   1  12
ATOM     12  C   UNL     1      43.503 131.749  22.898  1.00  0.00     0.236 C 
ATOM     13  O   UNL     1      44.107 132.671  23.508  1.00  0.00    -0.285 OA
BRANCH  12  14
ATOM     14  C   UNL     1      42.809 130.683  23.664  1.00  0.00     0.233 C 
ATOM     15  O   UNL     1      41.817 130.983  24.382  1.00  0.00    -0.285 OA
BRANCH  14  16
ATOM     16  C   UNL     1      43.245 129.268  23.617  1.00  0.00     0.026 A 
ATOM     17  C   UNL     1      44.373 128.914  22.856  1.00  0.00     0.012 A 
ATOM     18  C   UNL     1      42.583 128.273  24.359  1.00  0.00     0.012 A 
ATOM     19  C   UNL     1      44.810 127.586  22.812  1.00  0.00     0.001 A 
ATOM     20  C   UNL     1      43.024 126.946  24.314  1.00  0.00     0.001 A 
ATOM     21  C   UNL     1      44.134 126.602  23.538  1.00  0.00     0.000 A 
ENDBRANCH  14  16
ENDBRANCH  12  14
ENDBRANCH   1  12
BRANCH   5  22
ATOM     22  C   UNL     1      45.667 130.867  15.870  1.00  0.00     0.237 A 
ATOM     23  N   UNL     1      45.141 131.479  14.774  1.00  0.00    -0.044 NA
ATOM     24  C   UNL     1      46.782 130.024  15.707  1.00  0.00     0.215 A 
ATOM     25  C   UNL     1      45.674 131.305  13.537  1.00  0.00     0.449 A 
ATOM     26  C   UNL     1      47.314 129.861  14.428  1.00  0.00     0.241 A 
ATOM     27  N   UNL     1      46.757 130.503  13.368  1.00  0.00    -0.247 N 
ATOM     28  F   UNL     1      47.324 129.336  16.741  1.00  0.00    -0.198 F 
ATOM     29  H   UNL     1      47.160 130.374  12.413  1.00  0.00     0.311 HD
ENDBRANCH   5  22
TORSDOF 4
ENDMDL
MODEL 6
REMARK VINA RESULT:      -7.6      1.361      1.949
REMARK SMILES O=C(C(=O)c1cc2cc(-c3nc[nH+]cc3F)[nH]c2cc1F)c1ccccc1
REMARK SMILES IDX 5 1 6 2 7 3 8 4 9 5 17 6 18 7 19 8 20 9 21 10 3 12 4 13 2 14
REMARK SMILES IDX 1 15 22 16 23 17 27 18 24 19 26 20 25 21 10 22 11 23 15 24
REMARK SMILES IDX 12 25 14 26 13 27 16 28
REMARK H PARENT 17 11 13 29
ROOT
ATOM      1  C   UNL     1      43.070 131.817  20.661  1.00  0.00     0.063 A 
ATOM      2  C   UNL     1      44.268 131.271  20.149  1.00  0.00     0.025 A 
ATOM      3  C   UNL     1      44.449 131.261  18.769  1.00  0.00     0.001 A 
ATOM      4  C   UNL     1      45.501 130.800  18.007  1.00  0.00     0.041 A 
ATOM      5  C   UNL     1      45.136 131.064  16.683  1.00  0.00     0.095 A 
ATOM      6  N   UNL     1      43.922 131.668  16.638  1.00  0.00    -0.351 N 
ATOM      7  C   UNL     1      43.514 131.775  17.913  1.00  0.00     0.049 A 
ATOM      8  C   UNL     1      42.331 132.341  18.377  1.00  0.00     0.066 A 
ATOM      9  C   UNL     1      42.109 132.367  19.767  1.00  0.00     0.136 A 
ATOM     10  F   UNL     1      40.987 132.966  20.240  1.00  0.00    -0.206 F 
ATOM     11  H   UNL     1      43.405 131.988  15.789  1.00  0.00     0.167 HD
ENDROOT
BRANCH   1  12
ATOM     12  C   UNL     1      42.860 131.844  22.124  1.00  0.00     0.236 C 
ATOM     13  O   UNL     1      41.923 132.551  22.582  1.00  0.00    -0.285 OA
BRANCH  12  14
ATOM     14  C   UNL     1      43.728 131.073  23.049  1.00  0.00     0.233 C 
ATOM     15  O   UNL     1      44.673 131.659  23.643  1.00  0.00    -0.285 OA
BRANCH  14  16
ATOM     16  C   UNL     1      43.525 129.627  23.298  1.00  0.00     0.026 A 
ATOM     17  C   UNL     1      42.222 129.129  23.476  1.00  0.00     0.012 A 
ATOM     18  C   UNL     1      44.607 128.727  23.314  1.00  0.00     0.012 A 
ATOM     19  C   UNL     1      42.008 127.765  23.697  1.00  0.00     0.001 A 
ATOM     20  C   UNL     1      44.389 127.363  23.533  1.00  0.00     0.001 A 
ATOM     21  C   UNL     1      43.092 126.883  23.728  1.00  0.00     0.000 A 
ENDBRANCH  14  16
ENDBRANCH  12  14
ENDBRANCH   1  12
BRANCH   5  22
ATOM     22  C   UNL     1      45.941 130.792  15.471  1.00  0.00     0.237 A 
ATOM     23  N   UNL     1      45.628 131.452  14.323  1.00  0.00    -0.044 NA
ATOM     24  C   UNL     1      47.004 129.871  15.455  1.00  0.00     0.215 A 
ATOM     25  C   UNL     1      46.324 131.253  13.174  1.00  0.00     0.449 A 
ATOM     26  C   UNL     1      47.707 129.682  14.265  1.00  0.00     0.241 A 
ATOM     27  N   UNL     1      47.360 130.376  13.149  1.00  0.00    -0.247 N 
ATOM     28  F   UNL     1      47.337 129.134  16.543  1.00  0.00    -0.198 F 
ATOM     29  H   UNL     1      47.891 130.227  12.262  1.00  0.00     0.311 HD
ENDBRANCH   5  22
TORSDOF 4
ENDMDL
MODEL 7
REMARK VINA RESULT:      -6.7      1.345      1.866
REMARK SMILES O=C(C(=O)c1cc2cc(-c3nc[nH+]cc3F)[nH]c2cc1F)c1ccccc1
REMARK SMILES IDX 5 1 6 2 7 3 8 4 9 5 17 6 18 7 19 8 20 9 21 10 3 12 4 13 2 14
REMARK SMILES IDX 1 15 22 16 23 17 27 18 24 19 26 20 25 21 10 22 11 23 15 24
REMARK SMILES IDX 12 25 14 26 13 27 16 28
REMARK H PARENT 17 11 13 29
ROOT
ATOM      1  C   UNL     1      44.337 130.187  22.194  1.00  0.00     0.063 A 
ATOM      2  C   UNL     1      45.273 129.654  21.279  1.00  0.00     0.025 A 
ATOM      3  C   UNL     1      45.232 130.103  19.962  1.00  0.00     0.001 A 
ATOM      4  C   UNL     1      46.010 129.763  18.876  1.00  0.00     0.041 A 
ATOM      5  C   UNL     1      45.522 130.541  17.821  1.00  0.00     0.095 A 
ATOM      6  N   UNL     1      44.501 131.327  18.244  1.00  0.00    -0.351 N 
ATOM      7  C   UNL     1      44.332 131.045  19.546  1.00  0.00     0.049 A 
ATOM      8  C   UNL     1      43.409 131.611  20.420  1.00  0.00     0.066 A 
ATOM      9  C   UNL     1      43.415 131.180  21.761  1.00  0.00     0.136 A 
ATOM     10  F   UNL     1      42.561 131.762  22.639  1.00  0.00    -0.206 F 
ATOM     11  H   UNL     1      43.955 132.015  17.679  1.00  0.00     0.167 HD
ENDROOT
BRANCH   1  12
ATOM     12  C   UNL     1      44.367 129.730  23.600  1.00  0.00     0.236 C 
ATOM     13  O   UNL     1      44.445 130.597  24.511  1.00  0.00    -0.285 OA
BRANCH  12  14
ATOM     14  C   UNL     1      44.317 128.288  23.949  1.00  0.00     0.233 C 
ATOM     15  O   UNL     1      45.385 127.684  24.239  1.00  0.00    -0.285 OA
BRANCH  14  16
ATOM     16  C   UNL     1      43.047 127.525  23.969  1.00  0.00     0.026 A 
ATOM     17  C   UNL     1      41.918 128.071  24.607  1.00  0.00     0.012 A 
ATOM     18  C   UNL     1      42.928 126.283  23.319  1.00  0.00     0.012 A 
ATOM     19  C   UNL     1      40.706 127.374  24.622  1.00  0.00     0.001 A 
ATOM     20  C   UNL     1      41.714 125.590  23.335  1.00  0.00     0.001 A 
ATOM     21  C   UNL     1      40.605 126.133  23.989  1.00  0.00     0.000 A 
ENDBRANCH  14  16
ENDBRANCH  12  14
ENDBRANCH   1  12
BRANCH   5  22
ATOM     22  C   UNL     1      46.041 130.578  16.435  1.00  0.00     0.237 A 
ATOM     23  N   UNL     1      46.574 129.440  15.911  1.00  0.00    -0.044 NA
ATOM     24  C   UNL     1      46.018 131.741  15.644  1.00  0.00     0.215 A 
ATOM     25  C   UNL     1      47.068 129.401  14.647  1.00  0.00     0.449 A 
ATOM     26  C   UNL     1      46.529 131.679  14.348  1.00  0.00     0.241 A 
ATOM     27  N   UNL     1      47.040 130.514  13.870  1.00  0.00    -0.247 N 
ATOM     28  F   UNL     1      45.557 132.925  16.117  1.00  0.00    -0.198 F 
ATOM     29  H   UNL     1      47.422 130.476  12.899  1.00  0.00     0.311 HD
ENDBRANCH   5  22
TORSDOF 4
ENDMDL


