REMARK SMILES Cc1ccc(-c2ccc([O-])cc2)c2cn[nH]c12
REMARK SMILES IDX 1 1 2 2 3 3 4 4 5 5 13 6 14 7 15 8 16 9 17 10 6 12 7 13
REMARK SMILES IDX 12 14 8 15 11 16 9 17 10 18
REMARK H PARENT 16 11
ROOT
ATOM      1  C   UNL     1      -2.404  -1.751  -1.756  1.00  0.00     0.046 C 
ATOM      2  C   UNL     1      -1.547  -0.687  -1.137  1.00  0.00    -0.025 A 
ATOM      3  C   UNL     1      -1.113   0.432  -1.880  1.00  0.00     0.006 A 
ATOM      4  C   UNL     1      -0.293   1.417  -1.287  1.00  0.00     0.010 A 
ATOM      5  C   UNL     1       0.110   1.310   0.064  1.00  0.00    -0.007 A 
ATOM      6  C   UNL     1      -0.332   0.182   0.769  1.00  0.00     0.028 A 
ATOM      7  C   UNL     1      -0.095  -0.272   2.053  1.00  0.00     0.144 A 
ATOM      8  N   UNL     1      -0.741  -1.451   2.217  1.00  0.00    -0.183 NA
ATOM      9  N   UNL     1      -1.365  -1.750   1.085  1.00  0.00    -0.278 N 
ATOM     10  C   UNL     1      -1.124  -0.774   0.193  1.00  0.00     0.069 A 
ATOM     11  H   UNL     1      -1.932  -2.614   0.935  1.00  0.00     0.190 HD
ENDROOT
BRANCH   5  12
ATOM     12  C   UNL     1       0.962   2.350   0.685  1.00  0.00    -0.018 A 
ATOM     13  C   UNL     1       0.623   2.903   1.933  1.00  0.00     0.008 A 
ATOM     14  C   UNL     1       2.110   2.816   0.020  1.00  0.00     0.008 A 
ATOM     15  C   UNL     1       1.426   3.891   2.510  1.00  0.00    -0.008 A 
ATOM     16  C   UNL     1       2.911   3.804   0.601  1.00  0.00    -0.008 A 
ATOM     17  C   UNL     1       2.570   4.341   1.846  1.00  0.00    -0.109 A 
ATOM     18  O   UNL     1       3.368   5.323   2.421  1.00  0.00    -0.872 OA
ENDBRANCH   5  12
TORSDOF 1


