REMARK SMILES Cc1cc(-c2c[nH+]c3c(c2)C(=O)[N-]C3)c(N)c2cc[nH]c12
REMARK SMILES IDX 1 1 2 2 3 3 4 4 15 5 17 6 18 7 19 8 20 9 21 10 5 12 6 13
REMARK SMILES IDX 10 14 7 15 9 16 8 17 11 18 14 19 13 20 12 22 16 23
REMARK H PARENT 20 11 7 21 16 24 16 25
ROOT
ATOM      1  C   UNL     1      -1.000   4.617  -1.612  1.00  0.00     0.046 C 
ATOM      2  C   UNL     1      -0.842   3.404  -0.743  1.00  0.00    -0.026 A 
ATOM      3  C   UNL     1       0.177   2.461  -0.984  1.00  0.00     0.016 A 
ATOM      4  C   UNL     1       0.321   1.311  -0.167  1.00  0.00     0.012 A 
ATOM      5  C   UNL     1      -0.562   1.108   0.930  1.00  0.00     0.049 A 
ATOM      6  C   UNL     1      -1.570   2.059   1.134  1.00  0.00     0.023 A 
ATOM      7  C   UNL     1      -2.560   2.137   2.096  1.00  0.00     0.030 A 
ATOM      8  C   UNL     1      -3.259   3.303   1.816  1.00  0.00     0.083 A 
ATOM      9  N   UNL     1      -2.735   3.926   0.738  1.00  0.00    -0.361 N 
ATOM     10  C   UNL     1      -1.705   3.163   0.330  1.00  0.00     0.050 A 
ATOM     11  H   UNL     1      -3.068   4.823   0.319  1.00  0.00     0.166 HD
ENDROOT
BRANCH   4  12
ATOM     12  C   UNL     1       1.381   0.336  -0.503  1.00  0.00     0.048 A 
ATOM     13  C   UNL     1       2.733   0.749  -0.593  1.00  0.00     0.315 A 
ATOM     14  C   UNL     1       1.054  -1.006  -0.785  1.00  0.00     0.031 A 
ATOM     15  N   UNL     1       3.713  -0.143  -0.927  1.00  0.00    -0.215 N 
ATOM     16  C   UNL     1       2.092  -1.869  -1.118  1.00  0.00     0.065 A 
ATOM     17  C   UNL     1       3.388  -1.436  -1.183  1.00  0.00     0.171 A 
ATOM     18  C   UNL     1       2.101  -3.268  -1.454  1.00  0.00     0.089 C 
ATOM     19  C   UNL     1       4.318  -2.548  -1.569  1.00  0.00    -0.006 C 
ATOM     20  N   UNL     1       3.429  -3.705  -1.730  1.00  0.00    -0.641 NA
ATOM     21  H   UNL     1       4.708   0.170  -0.986  1.00  0.00     0.453 HD
ATOM     22  O   UNL     1       1.092  -4.019  -1.504  1.00  0.00    -0.315 OA
ENDBRANCH   4  12
BRANCH   5  23
ATOM     23  N   UNL     1      -0.409   0.001   1.832  1.00  0.00    -0.398 N 
ATOM     24  H   UNL     1       0.430  -0.617   1.805  1.00  0.00     0.156 HD
ATOM     25  H   UNL     1      -1.107  -0.180   2.586  1.00  0.00     0.156 HD
ENDBRANCH   5  23
TORSDOF 2


