REMARK SMILES C=Cc1ccc(O)c(-c2ccc3[nH]ccc3c2)c1
REMARK SMILES IDX 3 1 4 2 5 3 6 4 8 5 18 6 2 7 1 8 9 9 10 10 17 11 11 12 16 13
REMARK SMILES IDX 12 14 15 15 13 16 14 17 7 19
REMARK H PARENT 13 18 7 20
ROOT
ATOM      1  C   UNL     1      -1.206  -2.946   2.330  1.00  0.00    -0.025 A 
ATOM      2  C   UNL     1      -1.833  -3.727   1.348  1.00  0.00     0.012 A 
ATOM      3  C   UNL     1      -1.556  -3.526  -0.005  1.00  0.00     0.047 A 
ATOM      4  C   UNL     1      -0.654  -2.532  -0.404  1.00  0.00     0.123 A 
ATOM      5  C   UNL     1      -0.035  -1.717   0.565  1.00  0.00     0.024 A 
ATOM      6  C   UNL     1      -0.314  -1.933   1.927  1.00  0.00     0.020 A 
ENDROOT
BRANCH   1   7
ATOM      7  C   UNL     1      -1.538  -3.198   3.754  1.00  0.00     0.000 C 
ATOM      8  C   UNL     1      -0.787  -2.796   4.780  1.00  0.00     0.009 C 
ENDBRANCH   1   7
BRANCH   5   9
ATOM      9  C   UNL     1       0.903  -0.638   0.172  1.00  0.00    -0.014 A 
ATOM     10  C   UNL     1       2.166  -0.524   0.813  1.00  0.00     0.011 A 
ATOM     11  C   UNL     1       0.540   0.298  -0.825  1.00  0.00     0.019 A 
ATOM     12  C   UNL     1       3.062   0.500   0.459  1.00  0.00     0.027 A 
ATOM     13  C   UNL     1       1.453   1.298  -1.149  1.00  0.00    -0.000 A 
ATOM     14  C   UNL     1       2.670   1.397  -0.531  1.00  0.00     0.045 A 
ATOM     15  C   UNL     1       1.370   2.327  -2.062  1.00  0.00     0.028 A 
ATOM     16  N   UNL     1       3.366   2.440  -1.011  1.00  0.00    -0.361 N 
ATOM     17  C   UNL     1       2.575   3.013  -1.948  1.00  0.00     0.083 A 
ATOM     18  H   UNL     1       4.320   2.751  -0.722  1.00  0.00     0.166 HD
ENDBRANCH   5   9
BRANCH   4  19
ATOM     19  O   UNL     1      -0.361  -2.366  -1.758  1.00  0.00    -0.507 OA
ATOM     20  H   UNL     1      -0.792  -2.944  -2.470  1.00  0.00     0.293 HD
ENDBRANCH   4  19
TORSDOF 3


