REMARK SMILES Cc1cc(F)[nH+]cc1-c1ccc2cc([NH2+]c3cn4ccccc4n3)[n-]c2c1
REMARK SMILES IDX 9 1 10 2 11 3 12 4 13 5 14 6 25 7 26 8 27 9 8 10 2 11 3 12
REMARK SMILES IDX 4 13 7 14 6 15 1 16 5 17 15 19 16 22 17 23 24 24 18 25 23 26
REMARK SMILES IDX 19 27 22 28 20 29 21 30
REMARK H PARENT 6 18 15 20 15 21
ROOT
ATOM      1  C   UNL     1      -0.668  -2.679   0.239  1.00  0.00    -0.013 A 
ATOM      2  C   UNL     1      -0.227  -2.607   1.585  1.00  0.00     0.009 A 
ATOM      3  C   UNL     1       0.720  -1.645   1.978  1.00  0.00     0.007 A 
ATOM      4  C   UNL     1       1.200  -0.771   1.008  1.00  0.00    -0.036 A 
ATOM      5  C   UNL     1       2.103   0.259   1.104  1.00  0.00     0.050 A 
ATOM      6  C   UNL     1       2.172   0.776  -0.187  1.00  0.00     0.037 A 
ATOM      7  N   UNL     1       1.351   0.127  -1.049  1.00  0.00    -0.610 NA
ATOM      8  C   UNL     1       0.772  -0.823  -0.293  1.00  0.00    -0.124 A 
ATOM      9  C   UNL     1      -0.167  -1.762  -0.713  1.00  0.00    -0.007 A 
ENDROOT
BRANCH   1  10
ATOM     10  C   UNL     1      -1.676  -3.688  -0.155  1.00  0.00     0.049 A 
ATOM     11  C   UNL     1      -1.427  -4.655  -1.159  1.00  0.00    -0.028 A 
ATOM     12  C   UNL     1      -2.448  -5.550  -1.510  1.00  0.00     0.118 A 
ATOM     13  C   UNL     1      -3.673  -5.503  -0.844  1.00  0.00     0.358 A 
ATOM     14  C   UNL     1      -2.922  -3.693   0.492  1.00  0.00     0.317 A 
ATOM     15  N   UNL     1      -3.882  -4.588   0.139  1.00  0.00    -0.186 N 
ATOM     16  C   UNL     1      -0.104  -4.741  -1.875  1.00  0.00     0.045 C 
ATOM     17  F   UNL     1      -4.656  -6.376  -1.177  1.00  0.00    -0.136 F 
ATOM     18  H   UNL     1      -4.804  -4.567   0.631  1.00  0.00     0.456 HD
ENDBRANCH   1  10
BRANCH   6  19
ATOM     19  N   UNL     1       2.948   1.923  -0.561  1.00  0.00    -0.282 N 
ATOM     20  H   UNL     1       3.226   1.843  -1.566  1.00  0.00     0.358 HD
ATOM     21  H   UNL     1       3.813   1.977   0.025  1.00  0.00     0.358 HD
BRANCH  19  22
ATOM     22  C   UNL     1       2.156   3.103  -0.377  1.00  0.00     0.246 A 
ATOM     23  C   UNL     1       2.061   3.826   0.802  1.00  0.00     0.183 A 
ATOM     24  N   UNL     1       1.322   3.601  -1.323  1.00  0.00    -0.177 NA
ATOM     25  N   UNL     1       1.167   4.798   0.578  1.00  0.00    -0.301 N 
ATOM     26  C   UNL     1       0.745   4.643  -0.690  1.00  0.00     0.143 A 
ATOM     27  C   UNL     1       0.713   5.772   1.406  1.00  0.00     0.093 A 
ATOM     28  C   UNL     1      -0.208   5.502  -1.234  1.00  0.00     0.048 A 
ATOM     29  C   UNL     1      -0.247   6.667   0.910  1.00  0.00     0.018 A 
ATOM     30  C   UNL     1      -0.706   6.528  -0.414  1.00  0.00     0.005 A 
ENDBRANCH  19  22
ENDBRANCH   6  19
TORSDOF 3


