REMARK SMILES C=Cc1ccc(-c2cnc3ocnc3c2)c([NH2+]C[C@@H](C)C(C)C)c1F
REMARK SMILES IDX 17 1 16 4 3 5 4 6 24 7 5 8 6 9 25 10 2 11 1 12 7 13 8 14
REMARK SMILES IDX 15 15 9 16 14 17 10 18 13 19 11 20 12 21 18 22 19 23 20 24
REMARK SMILES IDX 21 25 22 26 23 27
REMARK H PARENT 17 2 17 3
ROOT
ATOM      1  N   UNL     1       1.427   0.254  -0.011  1.00  0.00    -0.311 N 
ATOM      2  H   UNL     1       1.458  -0.751  -0.277  1.00  0.00     0.352 HD
ATOM      3  H   UNL     1       2.339   0.667  -0.312  1.00  0.00     0.352 HD
ENDROOT
BRANCH   1   4
ATOM      4  C   UNL     1       1.296   0.387   1.426  1.00  0.00     0.174 A 
ATOM      5  C   UNL     1       1.693   1.683   3.470  1.00  0.00     0.016 A 
ATOM      6  C   UNL     1       1.018   0.703   4.209  1.00  0.00     0.012 A 
ATOM      7  C   UNL     1       1.845   1.514   2.078  1.00  0.00     0.191 A 
ATOM      8  C   UNL     1       0.457  -0.404   3.575  1.00  0.00     0.016 A 
ATOM      9  C   UNL     1       0.578  -0.567   2.190  1.00  0.00     0.047 A 
ATOM     10  F   UNL     1       2.560   2.414   1.355  1.00  0.00    -0.200 F 
BRANCH   5  11
ATOM     11  C   UNL     1       2.257   2.844   4.198  1.00  0.00     0.003 C 
ATOM     12  C   UNL     1       2.298   4.076   3.693  1.00  0.00     0.009 C 
ENDBRANCH   5  11
BRANCH   9  13
ATOM     13  C   UNL     1      -0.050  -1.746   1.567  1.00  0.00     0.009 A 
ATOM     14  C   UNL     1       0.699  -2.937   1.375  1.00  0.00     0.124 A 
ATOM     15  C   UNL     1      -1.401  -1.700   1.163  1.00  0.00     0.044 A 
ATOM     16  N   UNL     1       0.125  -4.031   0.786  1.00  0.00    -0.219 NA
ATOM     17  C   UNL     1      -1.924  -2.841   0.568  1.00  0.00     0.130 A 
ATOM     18  C   UNL     1      -1.170  -3.953   0.396  1.00  0.00     0.246 A 
ATOM     19  N   UNL     1      -3.159  -3.046   0.082  1.00  0.00    -0.215 NA
ATOM     20  O   UNL     1      -1.882  -4.874  -0.189  1.00  0.00    -0.425 OA
ATOM     21  C   UNL     1      -3.074  -4.326  -0.375  1.00  0.00     0.311 A 
ENDBRANCH   9  13
ENDBRANCH   1   4
BRANCH   1  22
ATOM     22  C   UNL     1       0.320   0.958  -0.685  1.00  0.00     0.269 C 
BRANCH  22  23
ATOM     23  C   UNL     1       0.225   0.689  -2.217  1.00  0.00     0.044 C 
ATOM     24  C   UNL     1       1.600   0.655  -2.909  1.00  0.00     0.014 C 
BRANCH  23  25
ATOM     25  C   UNL     1      -0.714  -0.508  -2.595  1.00  0.00    -0.009 C 
ATOM     26  C   UNL     1      -1.294  -0.336  -4.010  1.00  0.00     0.008 C 
ATOM     27  C   UNL     1      -0.065  -1.897  -2.478  1.00  0.00     0.008 C 
ENDBRANCH  23  25
ENDBRANCH  22  23
ENDBRANCH   1  22
TORSDOF 6


