REMARK SMILES CC(=O)c1ccc(-c2cccc([C@H]3CO3)c2)cc1
REMARK SMILES IDX 4 1 5 2 6 3 7 4 17 5 18 6 2 7 1 8 3 9 8 10 9 11 16 12 10 13
REMARK SMILES IDX 12 14 11 15 13 16 14 17 15 18
REMARK H PARENT
ROOT
ATOM      1  C   UNL     1       3.038   0.166   1.552  1.00  0.00     0.017 A 
ATOM      2  C   UNL     1       2.155  -0.884   1.242  1.00  0.00     0.012 A 
ATOM      3  C   UNL     1       0.826  -0.623   0.900  1.00  0.00     0.009 A 
ATOM      4  C   UNL     1       0.345   0.697   0.858  1.00  0.00    -0.018 A 
ATOM      5  C   UNL     1       1.224   1.748   1.167  1.00  0.00     0.009 A 
ATOM      6  C   UNL     1       2.554   1.487   1.510  1.00  0.00     0.012 A 
ENDROOT
BRANCH   1   7
ATOM      7  C   UNL     1       4.450  -0.130   1.916  1.00  0.00     0.159 C 
ATOM      8  C   UNL     1       5.428   0.957   2.250  1.00  0.00     0.093 C 
ATOM      9  O   UNL     1       4.851  -1.326   1.948  1.00  0.00    -0.295 OA
ENDBRANCH   1   7
BRANCH   4  10
ATOM     10  C   UNL     1      -1.068   0.975   0.494  1.00  0.00    -0.018 A 
ATOM     11  C   UNL     1      -1.390   2.061  -0.341  1.00  0.00     0.009 A 
ATOM     12  C   UNL     1      -2.105   0.157   0.980  1.00  0.00     0.015 A 
ATOM     13  C   UNL     1      -2.720   2.325  -0.677  1.00  0.00     0.001 A 
ATOM     14  C   UNL     1      -3.440   0.412   0.628  1.00  0.00    -0.016 A 
ATOM     15  C   UNL     1      -3.743   1.509  -0.190  1.00  0.00     0.006 A 
BRANCH  14  16
ATOM     16  C   UNL     1      -4.545  -0.440   1.181  1.00  0.00     0.174 C 
ATOM     17  C   UNL     1      -5.327  -1.214   0.190  1.00  0.00     0.198 C 
ATOM     18  O   UNL     1      -4.308  -1.811   0.957  1.00  0.00    -0.368 OA
ENDBRANCH  14  16
ENDBRANCH   4  10
TORSDOF 3


