MODEL 1
REMARK VINA RESULT:      -9.0      0.000      0.000
REMARK SMILES Cc1ccc(-c2ccc([NH2+]CC(C)(C)F)c(C=O)c2)cc1
REMARK SMILES IDX 10 1 9 4 6 5 7 6 19 7 8 8 16 9 5 10 2 11 3 12 21 13 4 14
REMARK SMILES IDX 20 15 1 16 17 17 18 18 11 19 12 20 13 21 14 22 15 23
REMARK H PARENT 10 2 10 3
ROOT
ATOM      1  N   UNL     1      43.278 131.567  21.531  1.00  0.00    -0.311 N 
ATOM      2  H   UNL     1      43.058 132.562  21.761  1.00  0.00     0.352 HD
ATOM      3  H   UNL     1      42.359 131.066  21.514  1.00  0.00     0.352 HD
ENDROOT
BRANCH   1   4
ATOM      4  C   UNL     1      43.887 131.464  20.223  1.00  0.00     0.140 A 
ATOM      5  C   UNL     1      45.163 131.158  17.713  1.00  0.00    -0.017 A 
ATOM      6  C   UNL     1      45.841 130.847  18.899  1.00  0.00     0.015 A 
ATOM      7  C   UNL     1      43.847 131.640  17.788  1.00  0.00     0.026 A 
ATOM      8  C   UNL     1      45.212 131.000  20.133  1.00  0.00     0.069 A 
ATOM      9  C   UNL     1      43.200 131.819  19.024  1.00  0.00     0.076 A 
BRANCH   5  10
ATOM     10  C   UNL     1      45.833 130.988  16.398  1.00  0.00    -0.018 A 
ATOM     11  C   UNL     1      47.091 130.668  13.894  1.00  0.00    -0.051 A 
ATOM     12  C   UNL     1      46.744 131.947  14.352  1.00  0.00     0.004 A 
ATOM     13  C   UNL     1      46.828 129.553  14.702  1.00  0.00     0.004 A 
ATOM     14  C   UNL     1      46.113 132.105  15.590  1.00  0.00     0.009 A 
ATOM     15  C   UNL     1      46.199 129.709  15.940  1.00  0.00     0.009 A 
ATOM     16  C   UNL     1      47.802 130.502  12.584  1.00  0.00     0.044 C 
ENDBRANCH   5  10
BRANCH   9  17
ATOM     17  C   UNL     1      41.823 132.370  18.985  1.00  0.00     0.266 C 
ATOM     18  O   UNL     1      41.408 133.212  19.821  1.00  0.00    -0.298 OA
ENDBRANCH   9  17
ENDBRANCH   1   4
BRANCH   1  19
ATOM     19  C   UNL     1      44.144 130.943  22.548  1.00  0.00     0.307 C 
BRANCH  19  20
ATOM     20  C   UNL     1      43.580 129.595  23.063  1.00  0.00     0.154 C 
ATOM     21  C   UNL     1      44.571 128.443  22.837  1.00  0.00     0.054 C 
ATOM     22  C   UNL     1      43.258 129.711  24.560  1.00  0.00     0.054 C 
ATOM     23  F   UNL     1      42.402 129.305  22.393  1.00  0.00    -0.238 F 
ENDBRANCH  19  20
ENDBRANCH   1  19
TORSDOF 5
ENDMDL
MODEL 2
REMARK VINA RESULT:      -8.9      0.881      1.402
REMARK SMILES Cc1ccc(-c2ccc([NH2+]CC(C)(C)F)c(C=O)c2)cc1
REMARK SMILES IDX 10 1 9 4 6 5 7 6 19 7 8 8 16 9 5 10 2 11 3 12 21 13 4 14
REMARK SMILES IDX 20 15 1 16 17 17 18 18 11 19 12 20 13 21 14 22 15 23
REMARK H PARENT 10 2 10 3
ROOT
ATOM      1  N   UNL     1      43.316 131.829  22.384  1.00  0.00    -0.311 N 
ATOM      2  H   UNL     1      43.259 132.832  22.665  1.00  0.00     0.352 HD
ATOM      3  H   UNL     1      42.330 131.475  22.380  1.00  0.00     0.352 HD
ENDROOT
BRANCH   1   4
ATOM      4  C   UNL     1      43.860 131.697  21.050  1.00  0.00     0.140 A 
ATOM      5  C   UNL     1      45.015 131.340  18.488  1.00  0.00    -0.017 A 
ATOM      6  C   UNL     1      45.756 131.073  19.647  1.00  0.00     0.015 A 
ATOM      7  C   UNL     1      43.697 131.805  18.617  1.00  0.00     0.026 A 
ATOM      8  C   UNL     1      45.187 131.251  20.907  1.00  0.00     0.069 A 
ATOM      9  C   UNL     1      43.109 132.008  19.878  1.00  0.00     0.076 A 
BRANCH   5  10
ATOM     10  C   UNL     1      45.621 131.143  17.147  1.00  0.00    -0.018 A 
ATOM     11  C   UNL     1      46.785 130.770  14.605  1.00  0.00    -0.051 A 
ATOM     12  C   UNL     1      46.705 129.702  15.510  1.00  0.00     0.004 A 
ATOM     13  C   UNL     1      46.259 132.018  14.966  1.00  0.00     0.004 A 
ATOM     14  C   UNL     1      46.136 129.889  16.773  1.00  0.00     0.009 A 
ATOM     15  C   UNL     1      45.687 132.207  16.228  1.00  0.00     0.009 A 
ATOM     16  C   UNL     1      47.361 130.560  13.236  1.00  0.00     0.044 C 
ENDBRANCH   5  10
BRANCH   9  17
ATOM     17  C   UNL     1      41.723 132.538  19.893  1.00  0.00     0.266 C 
ATOM     18  O   UNL     1      41.324 133.363  20.753  1.00  0.00    -0.298 OA
ENDBRANCH   9  17
ENDBRANCH   1   4
BRANCH   1  19
ATOM     19  C   UNL     1      44.106 131.031  23.339  1.00  0.00     0.307 C 
BRANCH  19  20
ATOM     20  C   UNL     1      43.457 129.659  23.648  1.00  0.00     0.154 C 
ATOM     21  C   UNL     1      44.309 128.835  24.625  1.00  0.00     0.054 C 
ATOM     22  C   UNL     1      42.058 129.875  24.244  1.00  0.00     0.054 C 
ATOM     23  F   UNL     1      43.315 128.943  22.470  1.00  0.00    -0.238 F 
ENDBRANCH  19  20
ENDBRANCH   1  19
TORSDOF 5
ENDMDL
MODEL 3
REMARK VINA RESULT:      -8.8      1.007      1.099
REMARK SMILES Cc1ccc(-c2ccc([NH2+]CC(C)(C)F)c(C=O)c2)cc1
REMARK SMILES IDX 10 1 9 4 6 5 7 6 19 7 8 8 16 9 5 10 2 11 3 12 21 13 4 14
REMARK SMILES IDX 20 15 1 16 17 17 18 18 11 19 12 20 13 21 14 22 15 23
REMARK H PARENT 10 2 10 3
ROOT
ATOM      1  N   UNL     1      43.948 131.025  22.401  1.00  0.00    -0.311 N 
ATOM      2  H   UNL     1      44.719 130.716  23.035  1.00  0.00     0.352 HD
ATOM      3  H   UNL     1      43.703 131.997  22.701  1.00  0.00     0.352 HD
ENDROOT
BRANCH   1   4
ATOM      4  C   UNL     1      44.396 131.062  21.026  1.00  0.00     0.140 A 
ATOM      5  C   UNL     1      45.338 131.009  18.356  1.00  0.00    -0.017 A 
ATOM      6  C   UNL     1      46.048 130.359  19.375  1.00  0.00     0.015 A 
ATOM      7  C   UNL     1      44.162 131.701  18.682  1.00  0.00     0.026 A 
ATOM      8  C   UNL     1      45.584 130.388  20.688  1.00  0.00     0.069 A 
ATOM      9  C   UNL     1      43.685 131.758  20.004  1.00  0.00     0.076 A 
BRANCH   5  10
ATOM     10  C   UNL     1      45.831 130.972  16.955  1.00  0.00    -0.018 A 
ATOM     11  C   UNL     1      46.752 130.899  14.290  1.00  0.00    -0.051 A 
ATOM     12  C   UNL     1      46.121 132.047  14.789  1.00  0.00     0.004 A 
ATOM     13  C   UNL     1      46.943 129.797  15.135  1.00  0.00     0.004 A 
ATOM     14  C   UNL     1      45.657 132.081  16.108  1.00  0.00     0.009 A 
ATOM     15  C   UNL     1      46.481 129.828  16.454  1.00  0.00     0.009 A 
ATOM     16  C   UNL     1      47.284 130.877  12.888  1.00  0.00     0.044 C 
ENDBRANCH   5  10
BRANCH   9  17
ATOM     17  C   UNL     1      42.452 132.549  20.237  1.00  0.00     0.266 C 
ATOM     18  O   UNL     1      41.586 132.729  19.344  1.00  0.00    -0.298 OA
ENDBRANCH   9  17
ENDBRANCH   1   4
BRANCH   1  19
ATOM     19  C   UNL     1      42.754 130.170  22.528  1.00  0.00     0.307 C 
BRANCH  19  20
ATOM     20  C   UNL     1      42.984 128.962  23.469  1.00  0.00     0.154 C 
ATOM     21  C   UNL     1      44.127 129.225  24.462  1.00  0.00     0.054 C 
ATOM     22  C   UNL     1      41.692 128.659  24.242  1.00  0.00     0.054 C 
ATOM     23  F   UNL     1      43.303 127.845  22.713  1.00  0.00    -0.238 F 
ENDBRANCH  19  20
ENDBRANCH   1  19
TORSDOF 5
ENDMDL
MODEL 4
REMARK VINA RESULT:      -8.3      0.902      1.077
REMARK SMILES Cc1ccc(-c2ccc([NH2+]CC(C)(C)F)c(C=O)c2)cc1
REMARK SMILES IDX 10 1 9 4 6 5 7 6 19 7 8 8 16 9 5 10 2 11 3 12 21 13 4 14
REMARK SMILES IDX 20 15 1 16 17 17 18 18 11 19 12 20 13 21 14 22 15 23
REMARK H PARENT 10 2 10 3
ROOT
ATOM      1  N   UNL     1      43.210 131.362  21.290  1.00  0.00    -0.311 N 
ATOM      2  H   UNL     1      42.762 132.295  21.429  1.00  0.00     0.352 HD
ATOM      3  H   UNL     1      42.432 130.663  21.320  1.00  0.00     0.352 HD
ENDROOT
BRANCH   1   4
ATOM      4  C   UNL     1      43.853 131.287  19.997  1.00  0.00     0.140 A 
ATOM      5  C   UNL     1      45.183 131.024  17.510  1.00  0.00    -0.017 A 
ATOM      6  C   UNL     1      45.774 130.549  18.688  1.00  0.00     0.015 A 
ATOM      7  C   UNL     1      43.928 131.649  17.584  1.00  0.00     0.026 A 
ATOM      8  C   UNL     1      45.120 130.680  19.911  1.00  0.00     0.069 A 
ATOM      9  C   UNL     1      43.258 131.808  18.810  1.00  0.00     0.076 A 
BRANCH   5  10
ATOM     10  C   UNL     1      45.879 130.877  16.207  1.00  0.00    -0.018 A 
ATOM     11  C   UNL     1      47.189 130.591  13.725  1.00  0.00    -0.051 A 
ATOM     12  C   UNL     1      46.270 131.631  13.924  1.00  0.00     0.004 A 
ATOM     13  C   UNL     1      47.468 129.709  14.778  1.00  0.00     0.004 A 
ATOM     14  C   UNL     1      45.615 131.768  15.151  1.00  0.00     0.009 A 
ATOM     15  C   UNL     1      46.815 129.845  16.007  1.00  0.00     0.009 A 
ATOM     16  C   UNL     1      47.921 130.467  12.422  1.00  0.00     0.044 C 
ENDBRANCH   5  10
BRANCH   9  17
ATOM     17  C   UNL     1      41.955 132.517  18.773  1.00  0.00     0.266 C 
ATOM     18  O   UNL     1      41.372 132.914  19.814  1.00  0.00    -0.298 OA
ENDBRANCH   9  17
ENDBRANCH   1   4
BRANCH   1  19
ATOM     19  C   UNL     1      44.174 131.048  22.360  1.00  0.00     0.307 C 
BRANCH  19  20
ATOM     20  C   UNL     1      43.536 131.102  23.771  1.00  0.00     0.154 C 
ATOM     21  C   UNL     1      43.597 129.737  24.474  1.00  0.00     0.054 C 
ATOM     22  C   UNL     1      44.263 132.151  24.624  1.00  0.00     0.054 C 
ATOM     23  F   UNL     1      42.209 131.485  23.660  1.00  0.00    -0.238 F 
ENDBRANCH  19  20
ENDBRANCH   1  19
TORSDOF 5
ENDMDL
MODEL 5
REMARK VINA RESULT:      -8.2      1.009      1.279
REMARK SMILES Cc1ccc(-c2ccc([NH2+]CC(C)(C)F)c(C=O)c2)cc1
REMARK SMILES IDX 10 1 9 4 6 5 7 6 19 7 8 8 16 9 5 10 2 11 3 12 21 13 4 14
REMARK SMILES IDX 20 15 1 16 17 17 18 18 11 19 12 20 13 21 14 22 15 23
REMARK H PARENT 10 2 10 3
ROOT
ATOM      1  N   UNL     1      43.495 131.515  21.897  1.00  0.00    -0.311 N 
ATOM      2  H   UNL     1      44.002 132.221  22.475  1.00  0.00     0.352 HD
ATOM      3  H   UNL     1      42.511 131.862  21.817  1.00  0.00     0.352 HD
ENDROOT
BRANCH   1   4
ATOM      4  C   UNL     1      44.066 131.428  20.570  1.00  0.00     0.140 A 
ATOM      5  C   UNL     1      45.243 131.135  18.011  1.00  0.00    -0.017 A 
ATOM      6  C   UNL     1      45.834 130.550  19.138  1.00  0.00     0.015 A 
ATOM      7  C   UNL     1      44.067 131.885  18.172  1.00  0.00     0.026 A 
ATOM      8  C   UNL     1      45.254 130.696  20.397  1.00  0.00     0.069 A 
ATOM      9  C   UNL     1      43.476 132.060  19.436  1.00  0.00     0.076 A 
BRANCH   5  10
ATOM     10  C   UNL     1      45.858 130.972  16.669  1.00  0.00    -0.018 A 
ATOM     11  C   UNL     1      47.013 130.662  14.115  1.00  0.00    -0.051 A 
ATOM     12  C   UNL     1      46.455 131.891  14.493  1.00  0.00     0.004 A 
ATOM     13  C   UNL     1      47.014 129.596  15.026  1.00  0.00     0.004 A 
ATOM     14  C   UNL     1      45.875 132.043  15.757  1.00  0.00     0.009 A 
ATOM     15  C   UNL     1      46.436 129.747  16.290  1.00  0.00     0.009 A 
ATOM     16  C   UNL     1      47.669 130.510  12.774  1.00  0.00     0.044 C 
ENDBRANCH   5  10
BRANCH   9  17
ATOM     17  C   UNL     1      42.256 132.903  19.492  1.00  0.00     0.266 C 
ATOM     18  O   UNL     1      41.110 132.452  19.236  1.00  0.00    -0.298 OA
ENDBRANCH   9  17
ENDBRANCH   1   4
BRANCH   1  19
ATOM     19  C   UNL     1      43.481 130.186  22.535  1.00  0.00     0.307 C 
BRANCH  19  20
ATOM     20  C   UNL     1      43.379 130.269  24.078  1.00  0.00     0.154 C 
ATOM     21  C   UNL     1      42.574 131.498  24.529  1.00  0.00     0.054 C 
ATOM     22  C   UNL     1      42.713 128.994  24.618  1.00  0.00     0.054 C 
ATOM     23  F   UNL     1      44.652 130.349  24.619  1.00  0.00    -0.238 F 
ENDBRANCH  19  20
ENDBRANCH   1  19
TORSDOF 5
ENDMDL
MODEL 6
REMARK VINA RESULT:      -7.8      1.270      1.820
REMARK SMILES Cc1ccc(-c2ccc([NH2+]CC(C)(C)F)c(C=O)c2)cc1
REMARK SMILES IDX 10 1 9 4 6 5 7 6 19 7 8 8 16 9 5 10 2 11 3 12 21 13 4 14
REMARK SMILES IDX 20 15 1 16 17 17 18 18 11 19 12 20 13 21 14 22 15 23
REMARK H PARENT 10 2 10 3
ROOT
ATOM      1  N   UNL     1      43.332 130.937  21.426  1.00  0.00    -0.311 N 
ATOM      2  H   UNL     1      42.420 131.445  21.411  1.00  0.00     0.352 HD
ATOM      3  H   UNL     1      43.102 129.941  21.653  1.00  0.00     0.352 HD
ENDROOT
BRANCH   1   4
ATOM      4  C   UNL     1      43.968 130.982  20.127  1.00  0.00     0.140 A 
ATOM      5  C   UNL     1      45.271 130.942  17.613  1.00  0.00    -0.017 A 
ATOM      6  C   UNL     1      45.805 130.242  18.703  1.00  0.00     0.015 A 
ATOM      7  C   UNL     1      44.090 131.678  17.791  1.00  0.00     0.026 A 
ATOM      8  C   UNL     1      45.163 130.264  19.940  1.00  0.00     0.069 A 
ATOM      9  C   UNL     1      43.436 131.729  19.035  1.00  0.00     0.076 A 
BRANCH   5  10
ATOM     10  C   UNL     1      45.952 130.911  16.294  1.00  0.00    -0.018 A 
ATOM     11  C   UNL     1      47.259 130.858  13.794  1.00  0.00    -0.051 A 
ATOM     12  C   UNL     1      47.429 129.805  14.704  1.00  0.00     0.004 A 
ATOM     13  C   UNL     1      46.415 131.926  14.129  1.00  0.00     0.004 A 
ATOM     14  C   UNL     1      46.788 129.834  15.946  1.00  0.00     0.009 A 
ATOM     15  C   UNL     1      45.771 131.957  15.370  1.00  0.00     0.009 A 
ATOM     16  C   UNL     1      47.916 130.807  12.447  1.00  0.00     0.044 C 
ENDBRANCH   5  10
BRANCH   9  17
ATOM     17  C   UNL     1      42.215 132.569  19.116  1.00  0.00     0.266 C 
ATOM     18  O   UNL     1      41.675 132.872  20.210  1.00  0.00    -0.298 OA
ENDBRANCH   9  17
ENDBRANCH   1   4
BRANCH   1  19
ATOM     19  C   UNL     1      44.241 131.465  22.459  1.00  0.00     0.307 C 
BRANCH  19  20
ATOM     20  C   UNL     1      43.546 131.632  23.834  1.00  0.00     0.154 C 
ATOM     21  C   UNL     1      42.076 132.052  23.679  1.00  0.00     0.054 C 
ATOM     22  C   UNL     1      43.623 130.311  24.612  1.00  0.00     0.054 C 
ATOM     23  F   UNL     1      44.209 132.602  24.568  1.00  0.00    -0.238 F 
ENDBRANCH  19  20
ENDBRANCH   1  19
TORSDOF 5
ENDMDL
MODEL 7
REMARK VINA RESULT:      -7.8      0.992      1.552
REMARK SMILES Cc1ccc(-c2ccc([NH2+]CC(C)(C)F)c(C=O)c2)cc1
REMARK SMILES IDX 10 1 9 4 6 5 7 6 19 7 8 8 16 9 5 10 2 11 3 12 21 13 4 14
REMARK SMILES IDX 20 15 1 16 17 17 18 18 11 19 12 20 13 21 14 22 15 23
REMARK H PARENT 10 2 10 3
ROOT
ATOM      1  N   UNL     1      43.236 131.624  21.395  1.00  0.00    -0.311 N 
ATOM      2  H   UNL     1      43.088 132.629  21.633  1.00  0.00     0.352 HD
ATOM      3  H   UNL     1      42.281 131.196  21.348  1.00  0.00     0.352 HD
ENDROOT
BRANCH   1   4
ATOM      4  C   UNL     1      43.870 131.489  20.101  1.00  0.00     0.140 A 
ATOM      5  C   UNL     1      45.198 131.127  17.627  1.00  0.00    -0.017 A 
ATOM      6  C   UNL     1      45.867 130.894  18.835  1.00  0.00     0.015 A 
ATOM      7  C   UNL     1      43.863 131.559  17.662  1.00  0.00     0.026 A 
ATOM      8  C   UNL     1      45.213 131.074  20.052  1.00  0.00     0.069 A 
ATOM      9  C   UNL     1      43.189 131.765  18.879  1.00  0.00     0.076 A 
BRANCH   5  10
ATOM     10  C   UNL     1      45.895 130.928  16.330  1.00  0.00    -0.018 A 
ATOM     11  C   UNL     1      47.231 130.552  13.875  1.00  0.00    -0.051 A 
ATOM     12  C   UNL     1      47.233 129.538  14.843  1.00  0.00     0.004 A 
ATOM     13  C   UNL     1      46.540 131.745  14.129  1.00  0.00     0.004 A 
ATOM     14  C   UNL     1      46.577 129.726  16.064  1.00  0.00     0.009 A 
ATOM     15  C   UNL     1      45.882 131.935  15.348  1.00  0.00     0.009 A 
ATOM     16  C   UNL     1      47.902 130.334  12.551  1.00  0.00     0.044 C 
ENDBRANCH   5  10
BRANCH   9  17
ATOM     17  C   UNL     1      41.792 132.258  18.795  1.00  0.00     0.266 C 
ATOM     18  O   UNL     1      41.440 133.155  17.987  1.00  0.00    -0.298 OA
ENDBRANCH   9  17
ENDBRANCH   1   4
BRANCH   1  19
ATOM     19  C   UNL     1      44.023 130.922  22.426  1.00  0.00     0.307 C 
BRANCH  19  20
ATOM     20  C   UNL     1      43.452 131.127  23.851  1.00  0.00     0.154 C 
ATOM     21  C   UNL     1      43.362 129.801  24.623  1.00  0.00     0.054 C 
ATOM     22  C   UNL     1      44.342 132.112  24.624  1.00  0.00     0.054 C 
ATOM     23  F   UNL     1      42.183 131.675  23.763  1.00  0.00    -0.238 F 
ENDBRANCH  19  20
ENDBRANCH   1  19
TORSDOF 5
ENDMDL
MODEL 8
REMARK VINA RESULT:      -7.5      1.706      2.560
REMARK SMILES Cc1ccc(-c2ccc([NH2+]CC(C)(C)F)c(C=O)c2)cc1
REMARK SMILES IDX 10 1 9 4 6 5 7 6 19 7 8 8 16 9 5 10 2 11 3 12 21 13 4 14
REMARK SMILES IDX 20 15 1 16 17 17 18 18 11 19 12 20 13 21 14 22 15 23
REMARK H PARENT 10 2 10 3
ROOT
ATOM      1  N   UNL     1      42.725 131.760  21.286  1.00  0.00    -0.311 N 
ATOM      2  H   UNL     1      43.010 132.666  21.718  1.00  0.00     0.352 HD
ATOM      3  H   UNL     1      41.718 131.871  21.024  1.00  0.00     0.352 HD
ENDROOT
BRANCH   1   4
ATOM      4  C   UNL     1      43.491 131.498  20.086  1.00  0.00     0.140 A 
ATOM      5  C   UNL     1      44.923 131.097  17.676  1.00  0.00    -0.017 A 
ATOM      6  C   UNL     1      43.658 131.699  17.661  1.00  0.00     0.015 A 
ATOM      7  C   UNL     1      45.463 130.680  18.903  1.00  0.00     0.026 A 
ATOM      8  C   UNL     1      42.954 131.894  18.848  1.00  0.00     0.069 A 
ATOM      9  C   UNL     1      44.761 130.851  20.110  1.00  0.00     0.076 A 
BRANCH   5  10
ATOM     10  C   UNL     1      45.676 130.897  16.412  1.00  0.00    -0.018 A 
ATOM     11  C   UNL     1      47.117 130.514  14.017  1.00  0.00    -0.051 A 
ATOM     12  C   UNL     1      46.770 129.416  14.817  1.00  0.00     0.004 A 
ATOM     13  C   UNL     1      46.720 131.801  14.406  1.00  0.00     0.004 A 
ATOM     14  C   UNL     1      46.062 129.606  16.008  1.00  0.00     0.009 A 
ATOM     15  C   UNL     1      46.012 131.993  15.596  1.00  0.00     0.009 A 
ATOM     16  C   UNL     1      47.842 130.306  12.721  1.00  0.00     0.044 C 
ENDBRANCH   5  10
BRANCH   9  17
ATOM     17  C   UNL     1      45.412 130.338  21.341  1.00  0.00     0.266 C 
ATOM     18  O   UNL     1      45.511 129.109  21.591  1.00  0.00    -0.298 OA
ENDBRANCH   9  17
ENDBRANCH   1   4
BRANCH   1  19
ATOM     19  C   UNL     1      42.852 130.634  22.229  1.00  0.00     0.307 C 
BRANCH  19  20
ATOM     20  C   UNL     1      42.702 131.076  23.706  1.00  0.00     0.154 C 
ATOM     21  C   UNL     1      42.368 129.889  24.623  1.00  0.00     0.054 C 
ATOM     22  C   UNL     1      44.004 131.740  24.179  1.00  0.00     0.054 C 
ATOM     23  F   UNL     1      41.684 132.011  23.804  1.00  0.00    -0.238 F 
ENDBRANCH  19  20
ENDBRANCH   1  19
TORSDOF 5
ENDMDL
MODEL 9
REMARK VINA RESULT:      -7.2      1.701      2.313
REMARK SMILES Cc1ccc(-c2ccc([NH2+]CC(C)(C)F)c(C=O)c2)cc1
REMARK SMILES IDX 10 1 9 4 6 5 7 6 19 7 8 8 16 9 5 10 2 11 3 12 21 13 4 14
REMARK SMILES IDX 20 15 1 16 17 17 18 18 11 19 12 20 13 21 14 22 15 23
REMARK H PARENT 10 2 10 3
ROOT
ATOM      1  N   UNL     1      43.009 131.683  21.777  1.00  0.00    -0.311 N 
ATOM      2  H   UNL     1      43.513 132.381  22.368  1.00  0.00     0.352 HD
ATOM      3  H   UNL     1      42.070 132.101  21.578  1.00  0.00     0.352 HD
ENDROOT
BRANCH   1   4
ATOM      4  C   UNL     1      43.700 131.475  20.523  1.00  0.00     0.140 A 
ATOM      5  C   UNL     1      45.000 131.193  18.023  1.00  0.00    -0.017 A 
ATOM      6  C   UNL     1      43.822 131.944  18.133  1.00  0.00     0.015 A 
ATOM      7  C   UNL     1      45.516 130.568  19.169  1.00  0.00     0.026 A 
ATOM      8  C   UNL     1      43.183 132.081  19.364  1.00  0.00     0.069 A 
ATOM      9  C   UNL     1      44.877 130.677  20.417  1.00  0.00     0.076 A 
BRANCH   5  10
ATOM     10  C   UNL     1      45.684 131.054  16.712  1.00  0.00    -0.018 A 
ATOM     11  C   UNL     1      46.970 130.788  14.216  1.00  0.00    -0.051 A 
ATOM     12  C   UNL     1      46.312 131.981  14.549  1.00  0.00     0.004 A 
ATOM     13  C   UNL     1      47.003 129.738  15.144  1.00  0.00     0.004 A 
ATOM     14  C   UNL     1      45.667 132.110  15.783  1.00  0.00     0.009 A 
ATOM     15  C   UNL     1      46.360 129.866  16.379  1.00  0.00     0.009 A 
ATOM     16  C   UNL     1      47.693 130.664  12.908  1.00  0.00     0.044 C 
ENDBRANCH   5  10
BRANCH   9  17
ATOM     17  C   UNL     1      45.493 129.944  21.550  1.00  0.00     0.266 C 
ATOM     18  O   UNL     1      45.466 128.689  21.636  1.00  0.00    -0.298 OA
ENDBRANCH   9  17
ENDBRANCH   1   4
BRANCH   1  19
ATOM     19  C   UNL     1      42.822 130.400  22.477  1.00  0.00     0.307 C 
BRANCH  19  20
ATOM     20  C   UNL     1      42.886 130.548  24.018  1.00  0.00     0.154 C 
ATOM     21  C   UNL     1      44.013 129.696  24.624  1.00  0.00     0.054 C 
ATOM     22  C   UNL     1      43.105 132.023  24.384  1.00  0.00     0.054 C 
ATOM     23  F   UNL     1      41.680 130.144  24.569  1.00  0.00    -0.238 F 
ENDBRANCH  19  20
ENDBRANCH   1  19
TORSDOF 5
ENDMDL


