REMARK SMILES CC1=CCC=C[C@H]1C(=O)Oc1ccc(N(C(=O)Oc2ccccc2)c2ccc3cc[nH]c3c2)c(F)c1
REMARK SMILES IDX 11 1 12 2 13 3 14 4 34 5 35 6 36 7 10 8 8 9 9 10 7 11 2 12
REMARK SMILES IDX 3 13 4 14 6 15 5 16 1 17 15 18 16 19 17 20 18 21 19 22 20 23
REMARK SMILES IDX 24 24 21 25 23 26 22 27 25 28 26 29 33 30 27 31 32 32 28 33
REMARK SMILES IDX 31 34 29 35 30 36
REMARK H PARENT 31 37
ROOT
ATOM      1  C   UNL     1       2.198  -1.001  -0.207  1.00  0.00     0.133 A 
ATOM      2  C   UNL     1       1.468  -2.039   0.381  1.00  0.00     0.049 A 
ATOM      3  C   UNL     1       0.071  -2.021   0.368  1.00  0.00     0.034 A 
ATOM      4  C   UNL     1      -0.620  -0.965  -0.247  1.00  0.00     0.088 A 
ATOM      5  C   UNL     1       0.111   0.071  -0.854  1.00  0.00     0.151 A 
ATOM      6  F   UNL     1      -0.530   1.086  -1.486  1.00  0.00    -0.205 F 
ATOM      7  C   UNL     1       1.509   0.049  -0.842  1.00  0.00     0.088 A 
ENDROOT
BRANCH   1   8
ATOM      8  O   UNL     1       3.599  -1.070  -0.180  1.00  0.00    -0.426 OA
BRANCH   8   9
ATOM      9  C   UNL     1       4.465   0.031  -0.214  1.00  0.00     0.322 C 
ATOM     10  O   UNL     1       4.049   1.191   0.061  1.00  0.00    -0.251 OA
BRANCH   9  11
ATOM     11  C   UNL     1       5.904  -0.185  -0.579  1.00  0.00     0.147 C 
ATOM     12  C   UNL     1       6.145   0.270  -2.008  1.00  0.00    -0.059 C 
ATOM     13  C   UNL     1       6.686   1.477  -2.264  1.00  0.00    -0.023 C 
ATOM     14  C   UNL     1       7.047   2.432  -1.155  1.00  0.00     0.054 C 
ATOM     15  C   UNL     1       6.815   0.515   0.405  1.00  0.00    -0.012 C 
ATOM     16  C   UNL     1       7.351   1.714   0.133  1.00  0.00    -0.026 C 
ATOM     17  C   UNL     1       5.731  -0.614  -3.153  1.00  0.00     0.040 C 
ENDBRANCH   9  11
ENDBRANCH   8   9
ENDBRANCH   1   8
BRANCH   4  18
ATOM     18  N   UNL     1      -2.061  -0.938  -0.243  1.00  0.00    -0.243 N 
BRANCH  18  19
ATOM     19  C   UNL     1      -2.809  -2.086  -0.690  1.00  0.00     0.424 C 
ATOM     20  O   UNL     1      -2.231  -3.001  -1.339  1.00  0.00    -0.223 OA
BRANCH  19  21
ATOM     21  O   UNL     1      -4.165  -2.204  -0.351  1.00  0.00    -0.410 OA
BRANCH  21  22
ATOM     22  C   UNL     1      -5.088  -3.062  -0.967  1.00  0.00     0.132 A 
ATOM     23  C   UNL     1      -4.956  -3.476  -2.307  1.00  0.00     0.047 A 
ATOM     24  C   UNL     1      -6.203  -3.480  -0.230  1.00  0.00     0.047 A 
ATOM     25  C   UNL     1      -5.914  -4.319  -2.880  1.00  0.00     0.004 A 
ATOM     26  C   UNL     1      -7.160  -4.321  -0.806  1.00  0.00     0.004 A 
ATOM     27  C   UNL     1      -7.013  -4.743  -2.130  1.00  0.00     0.000 A 
ENDBRANCH  21  22
ENDBRANCH  19  21
ENDBRANCH  18  19
BRANCH  18  28
ATOM     28  C   UNL     1      -2.752   0.234   0.233  1.00  0.00     0.055 A 
ATOM     29  C   UNL     1      -3.855   0.763  -0.490  1.00  0.00     0.027 A 
ATOM     30  C   UNL     1      -2.322   0.878   1.417  1.00  0.00     0.053 A 
ATOM     31  C   UNL     1      -4.529   1.911  -0.037  1.00  0.00     0.012 A 
ATOM     32  C   UNL     1      -3.013   2.013   1.837  1.00  0.00     0.047 A 
ATOM     33  C   UNL     1      -4.077   2.509   1.135  1.00  0.00    -0.000 A 
ATOM     34  N   UNL     1      -2.771   2.758   2.928  1.00  0.00    -0.361 N 
ATOM     35  C   UNL     1      -4.533   3.621   1.810  1.00  0.00     0.028 A 
ATOM     36  C   UNL     1      -3.698   3.742   2.916  1.00  0.00     0.083 A 
ATOM     37  H   UNL     1      -2.029   2.605   3.646  1.00  0.00     0.166 HD
ENDBRANCH  18  28
ENDBRANCH   4  18
TORSDOF 8


