REMARK SMILES Oc1cc(-c2cccc3ncoc23)cc(F)c1F
REMARK SMILES IDX 2 1 3 2 4 3 14 4 15 5 16 6 17 7 18 8 1 9 5 11 6 12 13 13
REMARK SMILES IDX 7 14 12 15 9 16 8 17 11 18 10 19
REMARK H PARENT 1 10
ROOT
ATOM      1  C   UNL     1       1.700   3.287   0.989  1.00  0.00     0.154 A 
ATOM      2  C   UNL     1       0.945   2.251   0.425  1.00  0.00     0.058 A 
ATOM      3  C   UNL     1       0.662   1.087   1.163  1.00  0.00    -0.008 A 
ATOM      4  C   UNL     1       1.143   0.982   2.480  1.00  0.00     0.051 A 
ATOM      5  C   UNL     1       1.896   2.015   3.044  1.00  0.00     0.163 A 
ATOM      6  F   UNL     1       2.350   1.901   4.317  1.00  0.00    -0.204 F 
ATOM      7  C   UNL     1       2.176   3.166   2.303  1.00  0.00     0.200 A 
ATOM      8  F   UNL     1       2.908   4.163   2.861  1.00  0.00    -0.200 F 
ENDROOT
BRANCH   1   9
ATOM      9  O   UNL     1       1.968   4.425   0.230  1.00  0.00    -0.505 OA
ATOM     10  H   UNL     1       2.511   5.197   0.598  1.00  0.00     0.293 HD
ENDBRANCH   1   9
BRANCH   3  11
ATOM     11  C   UNL     1      -0.140  -0.006   0.561  1.00  0.00     0.027 A 
ATOM     12  C   UNL     1      -1.278   0.266  -0.237  1.00  0.00     0.013 A 
ATOM     13  C   UNL     1       0.190  -1.355   0.746  1.00  0.00     0.162 A 
ATOM     14  C   UNL     1      -2.032  -0.787  -0.802  1.00  0.00     0.003 A 
ATOM     15  O   UNL     1       1.188  -1.879   1.407  1.00  0.00    -0.443 OA
ATOM     16  C   UNL     1      -0.539  -2.368   0.199  1.00  0.00     0.110 A 
ATOM     17  C   UNL     1      -1.663  -2.127  -0.585  1.00  0.00     0.032 A 
ATOM     18  C   UNL     1       1.069  -3.189   1.273  1.00  0.00     0.309 A 
ATOM     19  N   UNL     1      -0.001  -3.556   0.521  1.00  0.00    -0.217 NA
ENDBRANCH   3  11
TORSDOF 2


