MODEL 1
REMARK VINA RESULT:      -3.3      0.000      0.000
REMARK SMILES CO[C@H]1CCC[C@H](c2cc3cc(F)ccc3[nH]2)[N@H+]1[C@@H]1C(=O)c2ccccc21
REMARK SMILES IDX 3 1 4 2 5 3 6 4 7 5 18 6 2 8 1 9 19 10 20 11 27 12 22 13
REMARK SMILES IDX 26 14 23 15 25 16 24 17 21 18 8 19 9 20 17 21 10 22 16 23
REMARK SMILES IDX 11 24 15 25 12 26 14 27 13 29
REMARK H PARENT 18 7 17 28
ROOT
ATOM      1  C   UNL     1      42.865 131.528  22.225  1.00  0.00     0.323 C 
ATOM      2  C   UNL     1      41.471 132.056  21.849  1.00  0.00     0.098 C 
ATOM      3  C   UNL     1      41.592 133.236  20.898  1.00  0.00     0.015 C 
ATOM      4  C   UNL     1      42.375 132.809  19.667  1.00  0.00     0.072 C 
ATOM      5  C   UNL     1      43.750 132.191  20.030  1.00  0.00     0.234 C 
ATOM      6  N   UNL     1      43.623 131.064  21.019  1.00  0.00    -0.290 N 
ATOM      7  H   UNL     1      43.072 130.289  20.577  1.00  0.00     0.351 HD
ENDROOT
BRANCH   1   8
ATOM      8  O   UNL     1      43.591 132.555  22.895  1.00  0.00    -0.332 OA
ATOM      9  C   UNL     1      43.482 132.429  24.296  1.00  0.00     0.202 C 
ENDBRANCH   1   8
BRANCH   6  10
ATOM     10  C   UNL     1      44.950 130.518  21.475  1.00  0.00     0.291 C 
ATOM     11  C   UNL     1      45.594 129.563  20.570  1.00  0.00     0.225 C 
ATOM     12  C   UNL     1      44.810 129.481  22.517  1.00  0.00     0.029 A 
ATOM     13  C   UNL     1      45.335 128.544  21.625  1.00  0.00     0.034 A 
ATOM     14  C   UNL     1      44.433 129.147  23.810  1.00  0.00     0.011 A 
ATOM     15  C   UNL     1      45.508 127.209  21.936  1.00  0.00     0.012 A 
ATOM     16  C   UNL     1      44.588 127.785  24.165  1.00  0.00     0.001 A 
ATOM     17  C   UNL     1      45.112 126.831  23.242  1.00  0.00     0.001 A 
ATOM     18  O   UNL     1      46.227 129.579  19.484  1.00  0.00    -0.287 OA
ENDBRANCH   6  10
BRANCH   5  19
ATOM     19  C   UNL     1      44.356 131.768  18.713  1.00  0.00     0.074 A 
ATOM     20  C   UNL     1      45.236 132.549  17.962  1.00  0.00     0.038 A 
ATOM     21  N   UNL     1      43.997 130.653  18.030  1.00  0.00    -0.354 N 
ATOM     22  C   UNL     1      45.427 131.845  16.793  1.00  0.00     0.003 A 
ATOM     23  C   UNL     1      44.665 130.709  16.866  1.00  0.00     0.046 A 
ATOM     24  C   UNL     1      46.202 132.140  15.675  1.00  0.00     0.049 A 
ATOM     25  C   UNL     1      44.626 129.784  15.824  1.00  0.00     0.030 A 
ATOM     26  C   UNL     1      46.188 131.223  14.606  1.00  0.00     0.123 A 
ATOM     27  C   UNL     1      45.403 130.050  14.681  1.00  0.00     0.041 A 
ATOM     28  H   UNL     1      43.323 129.913  18.330  1.00  0.00     0.166 HD
ATOM     29  F   UNL     1      46.930 131.468  13.498  1.00  0.00    -0.207 F 
ENDBRANCH   5  19
TORSDOF 3
ENDMDL
MODEL 2
REMARK VINA RESULT:      -2.2      1.446      2.145
REMARK SMILES CO[C@H]1CCC[C@H](c2cc3cc(F)ccc3[nH]2)[N@H+]1[C@@H]1C(=O)c2ccccc21
REMARK SMILES IDX 3 1 4 2 5 3 6 4 7 5 18 6 2 8 1 9 19 10 20 11 27 12 22 13
REMARK SMILES IDX 26 14 23 15 25 16 24 17 21 18 8 19 9 20 17 21 10 22 16 23
REMARK SMILES IDX 11 24 15 25 12 26 14 27 13 29
REMARK H PARENT 18 7 17 28
ROOT
ATOM      1  C   UNL     1      42.430 131.602  19.928  1.00  0.00     0.323 C 
ATOM      2  C   UNL     1      41.133 131.580  19.102  1.00  0.00     0.098 C 
ATOM      3  C   UNL     1      41.258 132.502  17.899  1.00  0.00     0.015 C 
ATOM      4  C   UNL     1      42.454 132.077  17.064  1.00  0.00     0.072 C 
ATOM      5  C   UNL     1      43.758 132.006  17.899  1.00  0.00     0.234 C 
ATOM      6  N   UNL     1      43.605 131.140  19.120  1.00  0.00    -0.290 N 
ATOM      7  H   UNL     1      43.412 130.156  18.813  1.00  0.00     0.351 HD
ENDROOT
BRANCH   1   8
ATOM      8  O   UNL     1      42.657 132.922  20.412  1.00  0.00    -0.332 OA
ATOM      9  C   UNL     1      41.498 133.452  21.016  1.00  0.00     0.202 C 
ENDBRANCH   1   8
BRANCH   6  10
ATOM     10  C   UNL     1      44.820 131.142  20.010  1.00  0.00     0.291 C 
ATOM     11  C   UNL     1      45.742 130.017  19.835  1.00  0.00     0.225 C 
ATOM     12  C   UNL     1      44.515 130.715  21.390  1.00  0.00     0.029 A 
ATOM     13  C   UNL     1      45.318 129.589  21.196  1.00  0.00     0.034 A 
ATOM     14  C   UNL     1      43.861 130.965  22.588  1.00  0.00     0.011 A 
ATOM     15  C   UNL     1      45.518 128.620  22.161  1.00  0.00     0.012 A 
ATOM     16  C   UNL     1      44.035 129.991  23.601  1.00  0.00     0.001 A 
ATOM     17  C   UNL     1      44.847 128.835  23.389  1.00  0.00     0.001 A 
ATOM     18  O   UNL     1      46.619 129.641  19.016  1.00  0.00    -0.287 OA
ENDBRANCH   6  10
BRANCH   5  19
ATOM     19  C   UNL     1      44.818 131.512  16.942  1.00  0.00     0.074 A 
ATOM     20  C   UNL     1      45.515 132.325  16.048  1.00  0.00     0.038 A 
ATOM     21  N   UNL     1      45.102 130.203  16.727  1.00  0.00    -0.354 N 
ATOM     22  C   UNL     1      46.269 131.456  15.291  1.00  0.00     0.003 A 
ATOM     23  C   UNL     1      45.995 130.185  15.725  1.00  0.00     0.046 A 
ATOM     24  C   UNL     1      47.157 131.700  14.246  1.00  0.00     0.049 A 
ATOM     25  C   UNL     1      46.592 129.068  15.144  1.00  0.00     0.030 A 
ATOM     26  C   UNL     1      47.780 130.592  13.641  1.00  0.00     0.123 A 
ATOM     27  C   UNL     1      47.499 129.282  14.089  1.00  0.00     0.041 A 
ATOM     28  H   UNL     1      44.696 129.376  17.219  1.00  0.00     0.166 HD
ATOM     29  F   UNL     1      48.654 130.783  12.622  1.00  0.00    -0.207 F 
ENDBRANCH   5  19
TORSDOF 3
ENDMDL
MODEL 3
REMARK VINA RESULT:      -1.2      0.777      1.239
REMARK SMILES CO[C@H]1CCC[C@H](c2cc3cc(F)ccc3[nH]2)[N@H+]1[C@@H]1C(=O)c2ccccc21
REMARK SMILES IDX 3 1 4 2 5 3 6 4 7 5 18 6 2 8 1 9 19 10 20 11 27 12 22 13
REMARK SMILES IDX 26 14 23 15 25 16 24 17 21 18 8 19 9 20 17 21 10 22 16 23
REMARK SMILES IDX 11 24 15 25 12 26 14 27 13 29
REMARK H PARENT 18 7 17 28
ROOT
ATOM      1  C   UNL     1      42.905 131.577  22.131  1.00  0.00     0.323 C 
ATOM      2  C   UNL     1      41.499 132.086  21.773  1.00  0.00     0.098 C 
ATOM      3  C   UNL     1      41.591 133.259  20.810  1.00  0.00     0.015 C 
ATOM      4  C   UNL     1      42.358 132.830  19.571  1.00  0.00     0.072 C 
ATOM      5  C   UNL     1      43.745 132.231  19.915  1.00  0.00     0.234 C 
ATOM      6  N   UNL     1      43.648 131.111  20.916  1.00  0.00    -0.290 N 
ATOM      7  H   UNL     1      43.099 130.326  20.490  1.00  0.00     0.351 HD
ENDROOT
BRANCH   1   8
ATOM      8  O   UNL     1      43.631 132.618  22.779  1.00  0.00    -0.332 OA
ATOM      9  C   UNL     1      43.473 132.557  24.179  1.00  0.00     0.202 C 
ENDBRANCH   1   8
BRANCH   6  10
ATOM     10  C   UNL     1      44.989 130.584  21.354  1.00  0.00     0.291 C 
ATOM     11  C   UNL     1      45.612 129.603  20.463  1.00  0.00     0.225 C 
ATOM     12  C   UNL     1      44.880 129.580  22.431  1.00  0.00     0.029 A 
ATOM     13  C   UNL     1      45.385 128.617  21.555  1.00  0.00     0.034 A 
ATOM     14  C   UNL     1      44.538 129.286  23.743  1.00  0.00     0.011 A 
ATOM     15  C   UNL     1      45.571 127.293  21.904  1.00  0.00     0.012 A 
ATOM     16  C   UNL     1      44.708 127.936  24.137  1.00  0.00     0.001 A 
ATOM     17  C   UNL     1      45.211 126.955  23.230  1.00  0.00     0.001 A 
ATOM     18  O   UNL     1      46.217 129.587  19.360  1.00  0.00    -0.287 OA
ENDBRANCH   6  10
BRANCH   5  19
ATOM     19  C   UNL     1      44.334 131.804  18.591  1.00  0.00     0.074 A 
ATOM     20  C   UNL     1      44.465 130.478  18.176  1.00  0.00     0.038 A 
ATOM     21  N   UNL     1      44.949 132.644  17.723  1.00  0.00    -0.354 N 
ATOM     22  C   UNL     1      45.164 130.543  16.991  1.00  0.00     0.003 A 
ATOM     23  C   UNL     1      45.441 131.863  16.748  1.00  0.00     0.046 A 
ATOM     24  C   UNL     1      45.583 129.532  16.130  1.00  0.00     0.049 A 
ATOM     25  C   UNL     1      46.158 132.265  15.622  1.00  0.00     0.030 A 
ATOM     26  C   UNL     1      46.306 129.907  14.981  1.00  0.00     0.123 A 
ATOM     27  C   UNL     1      46.592 131.268  14.729  1.00  0.00     0.041 A 
ATOM     28  H   UNL     1      45.045 133.681  17.801  1.00  0.00     0.166 HD
ATOM     29  F   UNL     1      46.732 128.957  14.113  1.00  0.00    -0.207 F 
ENDBRANCH   5  19
TORSDOF 3
ENDMDL


