REMARK SMILES Cc1ccc(-c2ccc([N-]C(=O)c3cccc(C)c3)c(C(=O)N[C@@H](C)[C@H](C)O)c2)cc1
REMARK SMILES IDX 6 1 7 2 8 3 9 4 20 5 29 6 5 7 2 8 3 9 31 10 4 11 30 12 1 13
REMARK SMILES IDX 21 14 23 15 22 16 24 18 25 19 26 20 27 21 28 22 10 24 11 25
REMARK SMILES IDX 12 26 13 27 14 28 19 29 15 30 17 31 16 32 18 33
REMARK H PARENT 23 17 28 23
ROOT
ATOM      1  C   UNL     1       2.043  -1.935   1.034  1.00  0.00    -0.018 A 
ATOM      2  C   UNL     1       1.419  -2.172   2.269  1.00  0.00     0.007 A 
ATOM      3  C   UNL     1       0.896  -1.114   3.012  1.00  0.00    -0.015 A 
ATOM      4  C   UNL     1       0.975   0.203   2.533  1.00  0.00    -0.121 A 
ATOM      5  C   UNL     1       1.611   0.458   1.300  1.00  0.00     0.025 A 
ATOM      6  C   UNL     1       2.137  -0.616   0.560  1.00  0.00     0.021 A 
ENDROOT
BRANCH   1   7
ATOM      7  C   UNL     1       2.596  -3.063   0.242  1.00  0.00    -0.018 A 
ATOM      8  C   UNL     1       3.639  -5.199  -1.276  1.00  0.00    -0.051 A 
ATOM      9  C   UNL     1       2.409  -5.335  -0.615  1.00  0.00     0.004 A 
ATOM     10  C   UNL     1       4.356  -4.001  -1.155  1.00  0.00     0.004 A 
ATOM     11  C   UNL     1       1.889  -4.274   0.133  1.00  0.00     0.009 A 
ATOM     12  C   UNL     1       3.837  -2.939  -0.408  1.00  0.00     0.009 A 
ATOM     13  C   UNL     1       4.214  -6.351  -2.045  1.00  0.00     0.044 C 
ENDBRANCH   1   7
BRANCH   5  14
ATOM     14  C   UNL     1       1.689   1.831   0.754  1.00  0.00     0.250 C 
ATOM     15  N   UNL     1       1.452   2.073  -0.643  1.00  0.00    -0.347 N 
ATOM     16  O   UNL     1       1.939   2.795   1.528  1.00  0.00    -0.269 OA
ATOM     17  H   UNL     1       1.205   1.262  -1.255  1.00  0.00     0.164 HD
BRANCH  15  18
ATOM     18  C   UNL     1       1.314   3.423  -1.201  1.00  0.00     0.107 C 
ATOM     19  C   UNL     1       2.023   3.490  -2.557  1.00  0.00     0.033 C 
BRANCH  18  20
ATOM     20  C   UNL     1      -0.176   3.828  -1.329  1.00  0.00     0.133 C 
ATOM     21  C   UNL     1      -0.882   3.901   0.033  1.00  0.00     0.040 C 
BRANCH  20  22
ATOM     22  O   UNL     1      -0.872   2.975  -2.207  1.00  0.00    -0.391 OA
ATOM     23  H   UNL     1      -0.970   2.093  -1.763  1.00  0.00     0.211 HD
ENDBRANCH  20  22
ENDBRANCH  18  20
ENDBRANCH  15  18
ENDBRANCH   5  14
BRANCH   4  24
ATOM     24  N   UNL     1       0.405   1.286   3.286  1.00  0.00    -0.622 NA
BRANCH  24  25
ATOM     25  C   UNL     1      -0.756   1.195   4.122  1.00  0.00     0.085 C 
ATOM     26  O   UNL     1      -0.824   1.927   5.145  1.00  0.00    -0.315 OA
BRANCH  25  27
ATOM     27  C   UNL     1      -1.891   0.303   3.786  1.00  0.00    -0.000 A 
ATOM     28  C   UNL     1      -2.692  -0.235   4.806  1.00  0.00     0.010 A 
ATOM     29  C   UNL     1      -2.194   0.001   2.446  1.00  0.00     0.013 A 
ATOM     30  C   UNL     1      -3.754  -1.087   4.495  1.00  0.00     0.001 A 
ATOM     31  C   UNL     1      -3.269  -0.844   2.130  1.00  0.00    -0.050 A 
ATOM     32  C   UNL     1      -4.037  -1.401   3.163  1.00  0.00     0.003 A 
ATOM     33  C   UNL     1      -3.550  -1.202   0.700  1.00  0.00     0.044 C 
ENDBRANCH  25  27
ENDBRANCH  24  25
ENDBRANCH   4  24
TORSDOF 8


