REMARK SMILES C=Cc1cc(-c2cccc3[nH+]coc23)cc(O/C(S)=[NH+]/[C@H](C)CC)c1F
REMARK SMILES IDX 18 1 19 2 17 4 16 5 15 6 25 7 5 8 3 9 4 10 26 11 6 12 7 13
REMARK SMILES IDX 14 14 8 15 10 16 13 17 9 18 11 19 12 20 2 22 1 23 20 24
REMARK SMILES IDX 21 26 22 27 23 28 24 29
REMARK H PARENT 19 3 11 21 20 25
ROOT
ATOM      1  C   UNL     1      -0.451   0.228  -2.990  1.00  0.00     0.401 C 
ENDROOT
BRANCH   1   2
ATOM      2  S   UNL     1      -0.911  -0.184  -4.679  1.00  0.00    -0.031 SA
ATOM      3  H   UNL     1      -0.026   0.774  -5.208  1.00  0.00     0.118 HD
ENDBRANCH   1   2
BRANCH   1   4
ATOM      4  O   UNL     1      -1.182   1.247  -2.360  1.00  0.00    -0.397 OA
BRANCH   4   5
ATOM      5  C   UNL     1      -1.470   1.307  -0.987  1.00  0.00     0.171 A 
ATOM      6  C   UNL     1      -1.550   0.148  -0.198  1.00  0.00     0.059 A 
ATOM      7  C   UNL     1      -1.722   2.555  -0.406  1.00  0.00     0.173 A 
ATOM      8  C   UNL     1      -1.813   0.234   1.177  1.00  0.00    -0.010 A 
ATOM      9  C   UNL     1      -2.026   2.662   0.964  1.00  0.00     0.014 A 
ATOM     10  C   UNL     1      -2.050   1.494   1.751  1.00  0.00     0.020 A 
ATOM     11  F   UNL     1      -1.672   3.665  -1.186  1.00  0.00    -0.202 F 
BRANCH   8  12
ATOM     12  C   UNL     1      -1.829  -0.990   2.014  1.00  0.00     0.032 A 
ATOM     13  C   UNL     1      -2.811  -1.190   3.014  1.00  0.00     0.013 A 
ATOM     14  C   UNL     1      -0.872  -2.001   1.859  1.00  0.00     0.212 A 
ATOM     15  C   UNL     1      -2.811  -2.364   3.802  1.00  0.00     0.008 A 
ATOM     16  C   UNL     1      -0.878  -3.131   2.622  1.00  0.00     0.249 A 
ATOM     17  O   UNL     1       0.149  -2.057   1.036  1.00  0.00    -0.403 OA
ATOM     18  C   UNL     1      -1.833  -3.356   3.608  1.00  0.00     0.083 A 
ATOM     19  N   UNL     1       0.153  -3.910   2.266  1.00  0.00    -0.176 N 
ATOM     20  C   UNL     1       0.761  -3.205   1.281  1.00  0.00     0.521 A 
ATOM     21  H   UNL     1       0.430  -4.838   2.656  1.00  0.00     0.457 HD
ENDBRANCH   8  12
BRANCH   9  22
ATOM     22  C   UNL     1      -2.268   4.006   1.547  1.00  0.00     0.003 C 
ATOM     23  C   UNL     1      -2.951   4.215   2.673  1.00  0.00     0.009 C 
ENDBRANCH   9  22
ENDBRANCH   4   5
ENDBRANCH   1   4
BRANCH   1  24
ATOM     24  N   UNL     1       0.548  -0.357  -2.380  1.00  0.00    -0.202 N 
ATOM     25  H   UNL     1       0.824  -0.007  -1.435  1.00  0.00     0.450 HD
BRANCH  24  26
ATOM     26  C   UNL     1       1.324  -1.476  -2.939  1.00  0.00     0.259 C 
ATOM     27  C   UNL     1       0.529  -2.781  -2.779  1.00  0.00     0.087 C 
BRANCH  26  28
ATOM     28  C   UNL     1       2.694  -1.562  -2.229  1.00  0.00     0.072 C 
ATOM     29  C   UNL     1       3.653  -2.549  -2.896  1.00  0.00     0.011 C 
ENDBRANCH  26  28
ENDBRANCH  24  26
ENDBRANCH   1  24
TORSDOF 8


