REMARK SMILES Cn1n[nH+]c2cc(/N=C(\O)c3cc(F)c[nH]3)ccc21
REMARK SMILES IDX 9 1 10 2 8 4 7 5 17 6 6 7 18 8 5 9 19 10 4 11 2 12 3 13 1 15
REMARK SMILES IDX 11 16 12 17 16 18 13 19 15 20 14 22
REMARK H PARENT 10 3 4 14 16 21
ROOT
ATOM      1  C   UNL     1       0.816  -1.073   2.498  1.00  0.00     0.235 C 
ENDROOT
BRANCH   1   2
ATOM      2  O   UNL     1      -0.180  -1.066   3.480  1.00  0.00    -0.492 OA
ATOM      3  H   UNL     1      -0.924  -0.381   3.507  1.00  0.00     0.295 HD
ENDBRANCH   1   2
BRANCH   1   4
ATOM      4  N   UNL     1       0.756  -0.306   1.447  1.00  0.00    -0.212 NA
BRANCH   4   5
ATOM      5  C   UNL     1      -0.345   0.526   1.059  1.00  0.00     0.072 A 
ATOM      6  C   UNL     1      -1.676   0.019   1.028  1.00  0.00     0.033 A 
ATOM      7  C   UNL     1      -0.081   1.832   0.594  1.00  0.00     0.086 A 
ATOM      8  C   UNL     1      -2.745   0.826   0.590  1.00  0.00     0.061 A 
ATOM      9  C   UNL     1      -1.164   2.596   0.172  1.00  0.00     0.197 A 
ATOM     10  C   UNL     1      -2.437   2.119   0.174  1.00  0.00     0.197 A 
ATOM     11  N   UNL     1      -1.189   3.850  -0.311  1.00  0.00    -0.143 N 
ATOM     12  N   UNL     1      -3.234   3.090  -0.305  1.00  0.00    -0.133 N 
ATOM     13  N   UNL     1      -2.458   4.130  -0.598  1.00  0.00     0.088 NA
ATOM     14  H   UNL     1      -0.382   4.497  -0.452  1.00  0.00     0.342 HD
ATOM     15  C   UNL     1      -4.672   3.036  -0.530  1.00  0.00     0.327 C 
ENDBRANCH   4   5
ENDBRANCH   1   4
BRANCH   1  16
ATOM     16  C   UNL     1       1.984  -1.949   2.683  1.00  0.00     0.104 A 
ATOM     17  C   UNL     1       2.184  -2.798   3.756  1.00  0.00     0.072 A 
ATOM     18  N   UNL     1       3.016  -2.033   1.817  1.00  0.00    -0.355 N 
ATOM     19  C   UNL     1       3.392  -3.417   3.517  1.00  0.00     0.141 A 
ATOM     20  C   UNL     1       3.881  -2.931   2.324  1.00  0.00     0.122 A 
ATOM     21  H   UNL     1       3.131  -1.508   0.922  1.00  0.00     0.166 HD
ATOM     22  F   UNL     1       3.991  -4.336   4.311  1.00  0.00    -0.205 F 
ENDBRANCH   1  16
TORSDOF 4


