REMARK SMILES O=C=Nc1c(C(=O)NCc2ccc[nH]2)ccc2cc[nH]c12
REMARK SMILES IDX 15 1 5 2 4 3 21 4 17 5 16 6 18 7 19 8 20 9 6 11 8 12 7 13
REMARK SMILES IDX 9 15 10 16 11 17 14 18 12 19 13 20 3 22 2 23 1 24
REMARK H PARENT 20 10 8 14 14 21
ROOT
ATOM      1  C   UNL     1      -2.264   0.005   1.728  1.00  0.00     0.017 A 
ATOM      2  C   UNL     1      -1.162  -0.107   0.843  1.00  0.00     0.068 A 
ATOM      3  C   UNL     1      -0.083   0.816   0.929  1.00  0.00     0.113 A 
ATOM      4  C   UNL     1      -0.201   1.865   1.870  1.00  0.00     0.073 A 
ATOM      5  C   UNL     1      -1.289   1.958   2.702  1.00  0.00     0.002 A 
ATOM      6  C   UNL     1      -2.333   1.043   2.667  1.00  0.00     0.011 A 
ATOM      7  C   UNL     1      -1.133   3.083   3.481  1.00  0.00     0.028 A 
ATOM      8  C   UNL     1       0.065   3.646   3.066  1.00  0.00     0.083 A 
ATOM      9  N   UNL     1       0.628   2.908   2.084  1.00  0.00    -0.359 N 
ATOM     10  H   UNL     1       1.507   3.153   1.582  1.00  0.00     0.166 HD
ENDROOT
BRANCH   2  11
ATOM     11  C   UNL     1      -1.143  -1.222  -0.130  1.00  0.00     0.253 C 
ATOM     12  N   UNL     1      -0.671  -1.016  -1.470  1.00  0.00    -0.346 N 
ATOM     13  O   UNL     1      -1.569  -2.357   0.218  1.00  0.00    -0.269 OA
ATOM     14  H   UNL     1      -0.579  -0.042  -1.837  1.00  0.00     0.164 HD
BRANCH  12  15
ATOM     15  C   UNL     1      -0.284  -2.124  -2.337  1.00  0.00     0.170 C 
BRANCH  15  16
ATOM     16  C   UNL     1       0.996  -2.727  -1.849  1.00  0.00     0.034 A 
ATOM     17  C   UNL     1       1.117  -3.928  -1.177  1.00  0.00     0.025 A 
ATOM     18  N   UNL     1       2.192  -2.116  -1.935  1.00  0.00    -0.364 N 
ATOM     19  C   UNL     1       2.453  -4.053  -0.853  1.00  0.00     0.020 A 
ATOM     20  C   UNL     1       3.085  -2.922  -1.333  1.00  0.00     0.082 A 
ATOM     21  H   UNL     1       2.390  -1.187  -2.370  1.00  0.00     0.166 HD
ENDBRANCH  15  16
ENDBRANCH  12  15
ENDBRANCH   2  11
BRANCH   3  22
ATOM     22  N   UNL     1       1.082   0.619   0.107  1.00  0.00    -0.165 NA
BRANCH  22  23
ATOM     23  C   UNL     1       2.251   1.039   0.382  1.00  0.00     0.240 C 
ATOM     24  O   UNL     1       3.390   1.443   0.646  1.00  0.00    -0.211 OA
ENDBRANCH  22  23
ENDBRANCH   3  22
TORSDOF 5


