MODEL 1
REMARK VINA RESULT:      -7.1      0.000      0.000
REMARK SMILES C[C@@H](CC(=O)[O-])[N-]C(=O)N(N)c1ccc2cc3ccccc3cc2c1
REMARK SMILES IDX 7 1 2 2 1 3 3 4 4 5 5 6 6 7 8 8 9 9 10 10 11 11 12 14 13 15
REMARK SMILES IDX 25 16 14 17 24 18 15 19 23 20 16 21 22 22 17 23 21 24 18 25
REMARK SMILES IDX 20 26 19 27
REMARK H PARENT 11 12 11 13
ROOT
ATOM      1  N   UNL     1      44.950 128.038  23.378  1.00  0.00    -0.426 NA
ENDROOT
BRANCH   1   2
ATOM      2  C   UNL     1      44.942 126.855  22.524  1.00  0.00    -0.004 C 
ATOM      3  C   UNL     1      46.224 126.822  21.679  1.00  0.00     0.007 C 
BRANCH   2   4
ATOM      4  C   UNL     1      44.824 125.606  23.412  1.00  0.00     0.055 C 
BRANCH   4   5
ATOM      5  C   UNL     1      46.051 125.394  24.244  1.00  0.00     0.042 C 
ATOM      6  O   UNL     1      46.367 124.235  24.625  1.00  0.00    -0.550 OA
ATOM      7  O   UNL     1      46.830 126.479  24.625  1.00  0.00    -0.550 OA
ENDBRANCH   4   5
ENDBRANCH   2   4
ENDBRANCH   1   2
BRANCH   1   8
ATOM      8  C   UNL     1      43.989 129.098  23.291  1.00  0.00     0.170 C 
ATOM      9  O   UNL     1      42.795 128.896  23.642  1.00  0.00    -0.297 OA
BRANCH   8  10
ATOM     10  N   UNL     1      44.391 130.406  22.840  1.00  0.00    -0.359 N 
BRANCH  10  11
ATOM     11  N   UNL     1      44.897 131.341  23.762  1.00  0.00    -0.312 NA
ATOM     12  H   UNL     1      45.582 131.949  23.258  1.00  0.00     0.122 HD
ATOM     13  H   UNL     1      44.102 131.944  24.076  1.00  0.00     0.122 HD
ENDBRANCH  10  11
BRANCH  10  14
ATOM     14  C   UNL     1      44.314 130.780  21.452  1.00  0.00    -0.026 A 
ATOM     15  C   UNL     1      43.306 131.653  21.016  1.00  0.00     0.005 A 
ATOM     16  C   UNL     1      45.216 130.249  20.513  1.00  0.00     0.013 A 
ATOM     17  C   UNL     1      43.212 132.019  19.671  1.00  0.00     0.009 A 
ATOM     18  C   UNL     1      45.133 130.612  19.161  1.00  0.00    -0.017 A 
ATOM     19  C   UNL     1      44.123 131.507  18.736  1.00  0.00    -0.018 A 
ATOM     20  C   UNL     1      46.041 130.090  18.227  1.00  0.00     0.017 A 
ATOM     21  C   UNL     1      44.035 131.871  17.384  1.00  0.00     0.017 A 
ATOM     22  C   UNL     1      45.955 130.456  16.875  1.00  0.00    -0.018 A 
ATOM     23  C   UNL     1      44.946 131.353  16.450  1.00  0.00    -0.018 A 
ATOM     24  C   UNL     1      46.864 129.940  15.937  1.00  0.00     0.009 A 
ATOM     25  C   UNL     1      44.863 131.715  15.097  1.00  0.00     0.009 A 
ATOM     26  C   UNL     1      46.770 130.309  14.593  1.00  0.00     0.001 A 
ATOM     27  C   UNL     1      45.774 131.194  14.174  1.00  0.00     0.001 A 
ENDBRANCH  10  14
ENDBRANCH   8  10
ENDBRANCH   1   8
TORSDOF 7
ENDMDL
MODEL 2
REMARK VINA RESULT:      -6.3      3.272      4.614
REMARK SMILES C[C@@H](CC(=O)[O-])[N-]C(=O)N(N)c1ccc2cc3ccccc3cc2c1
REMARK SMILES IDX 7 1 2 2 1 3 3 4 4 5 5 6 6 7 8 8 9 9 10 10 11 11 12 14 13 15
REMARK SMILES IDX 25 16 14 17 24 18 15 19 23 20 16 21 22 22 17 23 21 24 18 25
REMARK SMILES IDX 20 26 19 27
REMARK H PARENT 11 12 11 13
ROOT
ATOM      1  N   UNL     1      45.586 132.516  24.370  1.00  0.00    -0.426 NA
ENDROOT
BRANCH   1   2
ATOM      2  C   UNL     1      46.124 133.785  23.889  1.00  0.00    -0.004 C 
ATOM      3  C   UNL     1      45.437 134.945  24.622  1.00  0.00     0.007 C 
BRANCH   2   4
ATOM      4  C   UNL     1      47.644 133.795  24.120  1.00  0.00     0.055 C 
BRANCH   4   5
ATOM      5  C   UNL     1      48.382 134.380  22.956  1.00  0.00     0.042 C 
ATOM      6  O   UNL     1      47.765 134.678  21.899  1.00  0.00    -0.550 OA
ATOM      7  O   UNL     1      49.756 134.569  23.027  1.00  0.00    -0.550 OA
ENDBRANCH   4   5
ENDBRANCH   2   4
ENDBRANCH   1   2
BRANCH   1   8
ATOM      8  C   UNL     1      44.392 131.905  23.864  1.00  0.00     0.170 C 
ATOM      9  O   UNL     1      43.264 132.307  24.259  1.00  0.00    -0.297 OA
BRANCH   8  10
ATOM     10  N   UNL     1      44.475 130.859  22.876  1.00  0.00    -0.359 N 
BRANCH  10  11
ATOM     11  N   UNL     1      44.706 129.531  23.280  1.00  0.00    -0.312 NA
ATOM     12  H   UNL     1      45.520 129.534  23.937  1.00  0.00     0.122 HD
ATOM     13  H   UNL     1      43.865 129.205  23.809  1.00  0.00     0.122 HD
ENDBRANCH  10  11
BRANCH  10  14
ATOM     14  C   UNL     1      44.300 131.132  21.475  1.00  0.00    -0.026 A 
ATOM     15  C   UNL     1      43.207 131.899  21.041  1.00  0.00     0.005 A 
ATOM     16  C   UNL     1      45.191 130.607  20.523  1.00  0.00     0.013 A 
ATOM     17  C   UNL     1      43.019 132.166  19.683  1.00  0.00     0.009 A 
ATOM     18  C   UNL     1      45.013 130.871  19.157  1.00  0.00    -0.017 A 
ATOM     19  C   UNL     1      43.918 131.660  18.732  1.00  0.00    -0.018 A 
ATOM     20  C   UNL     1      45.911 130.356  18.209  1.00  0.00     0.017 A 
ATOM     21  C   UNL     1      43.736 131.926  17.367  1.00  0.00     0.017 A 
ATOM     22  C   UNL     1      45.730 130.624  16.844  1.00  0.00    -0.018 A 
ATOM     23  C   UNL     1      44.635 131.414  16.420  1.00  0.00    -0.018 A 
ATOM     24  C   UNL     1      46.627 130.113  15.892  1.00  0.00     0.009 A 
ATOM     25  C   UNL     1      44.457 131.678  15.052  1.00  0.00     0.009 A 
ATOM     26  C   UNL     1      46.438 130.384  14.534  1.00  0.00     0.001 A 
ATOM     27  C   UNL     1      45.358 131.164  14.116  1.00  0.00     0.001 A 
ENDBRANCH  10  14
ENDBRANCH   8  10
ENDBRANCH   1   8
TORSDOF 7
ENDMDL
MODEL 3
REMARK VINA RESULT:      -6.2      2.724      4.478
REMARK SMILES C[C@@H](CC(=O)[O-])[N-]C(=O)N(N)c1ccc2cc3ccccc3cc2c1
REMARK SMILES IDX 7 1 2 2 1 3 3 4 4 5 5 6 6 7 8 8 9 9 10 10 11 11 12 14 13 15
REMARK SMILES IDX 25 16 14 17 24 18 15 19 23 20 16 21 22 22 17 23 21 24 18 25
REMARK SMILES IDX 20 26 19 27
REMARK H PARENT 11 12 11 13
ROOT
ATOM      1  N   UNL     1      42.559 131.784  21.199  1.00  0.00    -0.426 NA
ENDROOT
BRANCH   1   2
ATOM      2  C   UNL     1      42.918 132.122  22.573  1.00  0.00    -0.004 C 
ATOM      3  C   UNL     1      41.753 131.771  23.509  1.00  0.00     0.007 C 
BRANCH   2   4
ATOM      4  C   UNL     1      44.194 131.354  22.951  1.00  0.00     0.055 C 
BRANCH   4   5
ATOM      5  C   UNL     1      44.088 129.897  22.618  1.00  0.00     0.042 C 
ATOM      6  O   UNL     1      43.133 129.211  23.070  1.00  0.00    -0.550 OA
ATOM      7  O   UNL     1      45.061 129.289  21.834  1.00  0.00    -0.550 OA
ENDBRANCH   4   5
ENDBRANCH   2   4
ENDBRANCH   1   2
BRANCH   1   8
ATOM      8  C   UNL     1      42.240 132.752  20.190  1.00  0.00     0.170 C 
ATOM      9  O   UNL     1      41.980 133.941  20.519  1.00  0.00    -0.297 OA
BRANCH   8  10
ATOM     10  N   UNL     1      42.253 132.380  18.798  1.00  0.00    -0.359 N 
BRANCH  10  11
ATOM     11  N   UNL     1      41.140 132.665  17.986  1.00  0.00    -0.312 NA
ATOM     12  H   UNL     1      41.076 131.918  17.257  1.00  0.00     0.122 HD
ATOM     13  H   UNL     1      40.283 132.607  18.584  1.00  0.00     0.122 HD
ENDBRANCH  10  11
BRANCH  10  14
ATOM     14  C   UNL     1      43.395 131.740  18.201  1.00  0.00    -0.026 A 
ATOM     15  C   UNL     1      44.212 130.901  18.974  1.00  0.00     0.005 A 
ATOM     16  C   UNL     1      43.729 131.974  16.855  1.00  0.00     0.013 A 
ATOM     17  C   UNL     1      45.329 130.279  18.411  1.00  0.00     0.009 A 
ATOM     18  C   UNL     1      44.847 131.352  16.279  1.00  0.00    -0.017 A 
ATOM     19  C   UNL     1      45.654 130.494  17.064  1.00  0.00    -0.018 A 
ATOM     20  C   UNL     1      45.172 131.577  14.933  1.00  0.00     0.017 A 
ATOM     21  C   UNL     1      46.773 129.871  16.492  1.00  0.00     0.017 A 
ATOM     22  C   UNL     1      46.290 130.953  14.361  1.00  0.00    -0.018 A 
ATOM     23  C   UNL     1      47.096 130.094  15.145  1.00  0.00    -0.018 A 
ATOM     24  C   UNL     1      46.618 131.173  13.013  1.00  0.00     0.009 A 
ATOM     25  C   UNL     1      48.215 129.472  14.568  1.00  0.00     0.009 A 
ATOM     26  C   UNL     1      47.734 130.547  12.451  1.00  0.00     0.001 A 
ATOM     27  C   UNL     1      48.529 129.699  13.225  1.00  0.00     0.001 A 
ENDBRANCH  10  14
ENDBRANCH   8  10
ENDBRANCH   1   8
TORSDOF 7
ENDMDL
MODEL 4
REMARK VINA RESULT:      -6.1      3.054      4.499
REMARK SMILES C[C@@H](CC(=O)[O-])[N-]C(=O)N(N)c1ccc2cc3ccccc3cc2c1
REMARK SMILES IDX 7 1 2 2 1 3 3 4 4 5 5 6 6 7 8 8 9 9 10 10 11 11 12 14 13 15
REMARK SMILES IDX 25 16 14 17 24 18 15 19 23 20 16 21 22 22 17 23 21 24 18 25
REMARK SMILES IDX 20 26 19 27
REMARK H PARENT 11 12 11 13
ROOT
ATOM      1  N   UNL     1      42.858 131.391  21.178  1.00  0.00    -0.426 NA
ENDROOT
BRANCH   1   2
ATOM      2  C   UNL     1      43.002 131.468  22.629  1.00  0.00    -0.004 C 
ATOM      3  C   UNL     1      42.523 130.155  23.264  1.00  0.00     0.007 C 
BRANCH   2   4
ATOM      4  C   UNL     1      44.475 131.749  22.963  1.00  0.00     0.055 C 
BRANCH   4   5
ATOM      5  C   UNL     1      45.391 131.317  21.859  1.00  0.00     0.042 C 
ATOM      6  O   UNL     1      45.580 130.092  21.635  1.00  0.00    -0.550 OA
ATOM      7  O   UNL     1      46.059 132.267  21.098  1.00  0.00    -0.550 OA
ENDBRANCH   4   5
ENDBRANCH   2   4
ENDBRANCH   1   2
BRANCH   1   8
ATOM      8  C   UNL     1      42.259 132.415  20.374  1.00  0.00     0.170 C 
ATOM      9  O   UNL     1      41.634 133.362  20.924  1.00  0.00    -0.297 OA
BRANCH   8  10
ATOM     10  N   UNL     1      42.400 132.387  18.940  1.00  0.00    -0.359 N 
BRANCH  10  11
ATOM     11  N   UNL     1      41.441 133.022  18.129  1.00  0.00    -0.312 NA
ATOM     12  H   UNL     1      40.496 132.705  18.445  1.00  0.00     0.122 HD
ATOM     13  H   UNL     1      41.509 134.052  18.298  1.00  0.00     0.122 HD
ENDBRANCH  10  11
BRANCH  10  14
ATOM     14  C   UNL     1      43.519 131.742  18.307  1.00  0.00    -0.026 A 
ATOM     15  C   UNL     1      44.335 130.870  19.044  1.00  0.00     0.005 A 
ATOM     16  C   UNL     1      43.834 132.004  16.961  1.00  0.00     0.013 A 
ATOM     17  C   UNL     1      45.430 130.242  18.445  1.00  0.00     0.009 A 
ATOM     18  C   UNL     1      44.930 131.378  16.350  1.00  0.00    -0.017 A 
ATOM     19  C   UNL     1      45.735 130.487  17.098  1.00  0.00    -0.018 A 
ATOM     20  C   UNL     1      45.235 131.632  15.004  1.00  0.00     0.017 A 
ATOM     21  C   UNL     1      46.832 129.859  16.491  1.00  0.00     0.017 A 
ATOM     22  C   UNL     1      46.332 131.003  14.396  1.00  0.00    -0.018 A 
ATOM     23  C   UNL     1      47.136 130.110  15.144  1.00  0.00    -0.018 A 
ATOM     24  C   UNL     1      46.640 131.251  13.049  1.00  0.00     0.009 A 
ATOM     25  C   UNL     1      48.233 129.483  14.532  1.00  0.00     0.009 A 
ATOM     26  C   UNL     1      47.734 130.620  12.452  1.00  0.00     0.001 A 
ATOM     27  C   UNL     1      48.528 129.739  13.190  1.00  0.00     0.001 A 
ENDBRANCH  10  14
ENDBRANCH   8  10
ENDBRANCH   1   8
TORSDOF 7
ENDMDL
MODEL 5
REMARK VINA RESULT:      -5.9      1.470      2.273
REMARK SMILES C[C@@H](CC(=O)[O-])[N-]C(=O)N(N)c1ccc2cc3ccccc3cc2c1
REMARK SMILES IDX 7 1 2 2 1 3 3 4 4 5 5 6 6 7 8 8 9 9 10 10 11 11 12 14 13 15
REMARK SMILES IDX 25 16 14 17 24 18 15 19 23 20 16 21 22 22 17 23 21 24 18 25
REMARK SMILES IDX 20 26 19 27
REMARK H PARENT 11 12 11 13
ROOT
ATOM      1  N   UNL     1      44.721 129.945  23.813  1.00  0.00    -0.426 NA
ENDROOT
BRANCH   1   2
ATOM      2  C   UNL     1      44.055 128.673  23.546  1.00  0.00    -0.004 C 
ATOM      3  C   UNL     1      44.429 128.182  22.141  1.00  0.00     0.007 C 
BRANCH   2   4
ATOM      4  C   UNL     1      44.475 127.662  24.625  1.00  0.00     0.055 C 
BRANCH   4   5
ATOM      5  C   UNL     1      45.294 126.544  24.054  1.00  0.00     0.042 C 
ATOM      6  O   UNL     1      44.785 125.747  23.222  1.00  0.00    -0.550 OA
ATOM      7  O   UNL     1      46.609 126.366  24.463  1.00  0.00    -0.550 OA
ENDBRANCH   4   5
ENDBRANCH   2   4
ENDBRANCH   1   2
BRANCH   1   8
ATOM      8  C   UNL     1      44.113 131.228  23.613  1.00  0.00     0.170 C 
ATOM      9  O   UNL     1      44.134 132.084  24.539  1.00  0.00    -0.297 OA
BRANCH   8  10
ATOM     10  N   UNL     1      43.510 131.557  22.346  1.00  0.00    -0.359 N 
BRANCH  10  11
ATOM     11  N   UNL     1      42.227 132.131  22.309  1.00  0.00    -0.312 NA
ATOM     12  H   UNL     1      41.643 131.568  21.649  1.00  0.00     0.122 HD
ATOM     13  H   UNL     1      41.809 132.045  23.264  1.00  0.00     0.122 HD
ENDBRANCH  10  11
BRANCH  10  14
ATOM     14  C   UNL     1      44.202 131.335  21.105  1.00  0.00    -0.026 A 
ATOM     15  C   UNL     1      45.543 130.918  21.113  1.00  0.00     0.005 A 
ATOM     16  C   UNL     1      43.563 131.567  19.874  1.00  0.00     0.013 A 
ATOM     17  C   UNL     1      46.230 130.707  19.916  1.00  0.00     0.009 A 
ATOM     18  C   UNL     1      44.244 131.356  18.666  1.00  0.00    -0.017 A 
ATOM     19  C   UNL     1      45.590 130.919  18.686  1.00  0.00    -0.018 A 
ATOM     20  C   UNL     1      43.601 131.576  17.438  1.00  0.00     0.017 A 
ATOM     21  C   UNL     1      46.275 130.706  17.481  1.00  0.00     0.017 A 
ATOM     22  C   UNL     1      44.285 131.362  16.232  1.00  0.00    -0.018 A 
ATOM     23  C   UNL     1      45.631 130.924  16.253  1.00  0.00    -0.018 A 
ATOM     24  C   UNL     1      43.645 131.579  15.001  1.00  0.00     0.009 A 
ATOM     25  C   UNL     1      46.311 130.712  15.043  1.00  0.00     0.009 A 
ATOM     26  C   UNL     1      44.334 131.364  13.805  1.00  0.00     0.001 A 
ATOM     27  C   UNL     1      45.662 130.932  13.826  1.00  0.00     0.001 A 
ENDBRANCH  10  14
ENDBRANCH   8  10
ENDBRANCH   1   8
TORSDOF 7
ENDMDL
MODEL 6
REMARK VINA RESULT:      -5.2      2.597      3.565
REMARK SMILES C[C@@H](CC(=O)[O-])[N-]C(=O)N(N)c1ccc2cc3ccccc3cc2c1
REMARK SMILES IDX 7 1 2 2 1 3 3 4 4 5 5 6 6 7 8 8 9 9 10 10 11 11 12 14 13 15
REMARK SMILES IDX 25 16 14 17 24 18 15 19 23 20 16 21 22 22 17 23 21 24 18 25
REMARK SMILES IDX 20 26 19 27
REMARK H PARENT 11 12 11 13
ROOT
ATOM      1  N   UNL     1      42.596 130.339  23.487  1.00  0.00    -0.426 NA
ENDROOT
BRANCH   1   2
ATOM      2  C   UNL     1      41.909 129.073  23.255  1.00  0.00    -0.004 C 
ATOM      3  C   UNL     1      42.806 128.146  22.423  1.00  0.00     0.007 C 
BRANCH   2   4
ATOM      4  C   UNL     1      41.560 128.445  24.614  1.00  0.00     0.055 C 
BRANCH   4   5
ATOM      5  C   UNL     1      40.482 127.412  24.491  1.00  0.00     0.042 C 
ATOM      6  O   UNL     1      39.270 127.747  24.575  1.00  0.00    -0.550 OA
ATOM      7  O   UNL     1      40.816 126.076  24.315  1.00  0.00    -0.550 OA
ENDBRANCH   4   5
ENDBRANCH   2   4
ENDBRANCH   1   2
BRANCH   1   8
ATOM      8  C   UNL     1      42.018 131.626  23.233  1.00  0.00     0.170 C 
ATOM      9  O   UNL     1      41.635 132.345  24.196  1.00  0.00    -0.297 OA
BRANCH   8  10
ATOM     10  N   UNL     1      41.907 132.118  21.883  1.00  0.00    -0.359 N 
BRANCH  10  11
ATOM     11  N   UNL     1      40.814 132.926  21.519  1.00  0.00    -0.312 NA
ATOM     12  H   UNL     1      40.117 132.320  21.031  1.00  0.00     0.122 HD
ATOM     13  H   UNL     1      40.373 133.283  22.398  1.00  0.00     0.122 HD
ENDBRANCH  10  11
BRANCH  10  14
ATOM     14  C   UNL     1      42.907 131.824  20.891  1.00  0.00    -0.026 A 
ATOM     15  C   UNL     1      44.214 131.499  21.287  1.00  0.00     0.005 A 
ATOM     16  C   UNL     1      42.603 131.895  19.520  1.00  0.00     0.013 A 
ATOM     17  C   UNL     1      45.198 131.219  20.336  1.00  0.00     0.009 A 
ATOM     18  C   UNL     1      43.583 131.613  18.557  1.00  0.00    -0.017 A 
ATOM     19  C   UNL     1      44.892 131.270  18.968  1.00  0.00    -0.018 A 
ATOM     20  C   UNL     1      43.274 131.673  17.189  1.00  0.00     0.017 A 
ATOM     21  C   UNL     1      45.875 130.988  18.008  1.00  0.00     0.017 A 
ATOM     22  C   UNL     1      44.256 131.389  16.229  1.00  0.00    -0.018 A 
ATOM     23  C   UNL     1      45.566 131.044  16.640  1.00  0.00    -0.018 A 
ATOM     24  C   UNL     1      43.952 131.445  14.859  1.00  0.00     0.009 A 
ATOM     25  C   UNL     1      46.546 130.762  15.675  1.00  0.00     0.009 A 
ATOM     26  C   UNL     1      44.937 131.161  13.909  1.00  0.00     0.001 A 
ATOM     27  C   UNL     1      46.229 130.821  14.316  1.00  0.00     0.001 A 
ENDBRANCH  10  14
ENDBRANCH   8  10
ENDBRANCH   1   8
TORSDOF 7
ENDMDL
MODEL 7
REMARK VINA RESULT:      -5.0      2.007      2.768
REMARK SMILES C[C@@H](CC(=O)[O-])[N-]C(=O)N(N)c1ccc2cc3ccccc3cc2c1
REMARK SMILES IDX 7 1 2 2 1 3 3 4 4 5 5 6 6 7 8 8 9 9 10 10 11 11 12 14 13 15
REMARK SMILES IDX 25 16 14 17 24 18 15 19 23 20 16 21 22 22 17 23 21 24 18 25
REMARK SMILES IDX 20 26 19 27
REMARK H PARENT 11 12 11 13
ROOT
ATOM      1  N   UNL     1      44.267 128.194  22.503  1.00  0.00    -0.426 NA
ENDROOT
BRANCH   1   2
ATOM      2  C   UNL     1      44.445 128.011  23.940  1.00  0.00    -0.004 C 
ATOM      3  C   UNL     1      44.554 129.381  24.624  1.00  0.00     0.007 C 
BRANCH   2   4
ATOM      4  C   UNL     1      43.255 127.204  24.485  1.00  0.00     0.055 C 
BRANCH   4   5
ATOM      5  C   UNL     1      41.958 127.644  23.877  1.00  0.00     0.042 C 
ATOM      6  O   UNL     1      41.171 126.794  23.382  1.00  0.00    -0.550 OA
ATOM      7  O   UNL     1      41.633 128.993  23.831  1.00  0.00    -0.550 OA
ENDBRANCH   4   5
ENDBRANCH   2   4
ENDBRANCH   1   2
BRANCH   1   8
ATOM      8  C   UNL     1      44.987 129.155  21.720  1.00  0.00     0.170 C 
ATOM      9  O   UNL     1      46.217 128.992  21.498  1.00  0.00    -0.297 OA
BRANCH   8  10
ATOM     10  N   UNL     1      44.301 130.289  21.153  1.00  0.00    -0.359 N 
BRANCH  10  11
ATOM     11  N   UNL     1      43.416 131.041  21.948  1.00  0.00    -0.312 NA
ATOM     12  H   UNL     1      43.817 132.001  22.052  1.00  0.00     0.122 HD
ATOM     13  H   UNL     1      42.511 131.123  21.430  1.00  0.00     0.122 HD
ENDBRANCH  10  11
BRANCH  10  14
ATOM     14  C   UNL     1      44.516 130.694  19.790  1.00  0.00    -0.026 A 
ATOM     15  C   UNL     1      43.800 131.779  19.259  1.00  0.00     0.005 A 
ATOM     16  C   UNL     1      45.412 129.992  18.964  1.00  0.00     0.013 A 
ATOM     17  C   UNL     1      43.992 132.179  17.935  1.00  0.00     0.009 A 
ATOM     18  C   UNL     1      45.614 130.388  17.633  1.00  0.00    -0.017 A 
ATOM     19  C   UNL     1      44.899 131.493  17.114  1.00  0.00    -0.018 A 
ATOM     20  C   UNL     1      46.517 129.693  16.814  1.00  0.00     0.017 A 
ATOM     21  C   UNL     1      45.098 131.892  15.784  1.00  0.00     0.017 A 
ATOM     22  C   UNL     1      46.717 130.093  15.484  1.00  0.00    -0.018 A 
ATOM     23  C   UNL     1      46.003 131.200  14.965  1.00  0.00    -0.018 A 
ATOM     24  C   UNL     1      47.621 129.403  14.660  1.00  0.00     0.009 A 
ATOM     25  C   UNL     1      46.207 131.594  13.633  1.00  0.00     0.009 A 
ATOM     26  C   UNL     1      47.814 129.807  13.337  1.00  0.00     0.001 A 
ATOM     27  C   UNL     1      47.110 130.899  12.825  1.00  0.00     0.001 A 
ENDBRANCH  10  14
ENDBRANCH   8  10
ENDBRANCH   1   8
TORSDOF 7
ENDMDL
MODEL 8
REMARK VINA RESULT:      -4.5      1.946      2.999
REMARK SMILES C[C@@H](CC(=O)[O-])[N-]C(=O)N(N)c1ccc2cc3ccccc3cc2c1
REMARK SMILES IDX 7 1 2 2 1 3 3 4 4 5 5 6 6 7 8 8 9 9 10 10 11 11 12 14 13 15
REMARK SMILES IDX 25 16 14 17 24 18 15 19 23 20 16 21 22 22 17 23 21 24 18 25
REMARK SMILES IDX 20 26 19 27
REMARK H PARENT 11 12 11 13
ROOT
ATOM      1  N   UNL     1      43.581 130.383  21.351  1.00  0.00    -0.426 NA
ENDROOT
BRANCH   1   2
ATOM      2  C   UNL     1      44.923 130.025  21.799  1.00  0.00    -0.004 C 
ATOM      3  C   UNL     1      45.865 131.221  21.606  1.00  0.00     0.007 C 
BRANCH   2   4
ATOM      4  C   UNL     1      44.852 129.599  23.274  1.00  0.00     0.055 C 
BRANCH   4   5
ATOM      5  C   UNL     1      44.486 128.153  23.421  1.00  0.00     0.042 C 
ATOM      6  O   UNL     1      44.699 127.347  22.477  1.00  0.00    -0.550 OA
ATOM      7  O   UNL     1      43.881 127.703  24.587  1.00  0.00    -0.550 OA
ENDBRANCH   4   5
ENDBRANCH   2   4
ENDBRANCH   1   2
BRANCH   1   8
ATOM      8  C   UNL     1      42.990 131.676  21.533  1.00  0.00     0.170 C 
ATOM      9  O   UNL     1      43.036 132.235  22.663  1.00  0.00    -0.297 OA
BRANCH   8  10
ATOM     10  N   UNL     1      42.376 132.357  20.421  1.00  0.00    -0.359 N 
BRANCH  10  11
ATOM     11  N   UNL     1      41.317 133.255  20.648  1.00  0.00    -0.312 NA
ATOM     12  H   UNL     1      41.720 134.125  21.066  1.00  0.00     0.122 HD
ATOM     13  H   UNL     1      40.903 133.504  19.721  1.00  0.00     0.122 HD
ENDBRANCH  10  11
BRANCH  10  14
ATOM     14  C   UNL     1      42.837 132.162  19.073  1.00  0.00    -0.026 A 
ATOM     15  C   UNL     1      42.027 132.546  17.992  1.00  0.00     0.005 A 
ATOM     16  C   UNL     1      44.079 131.554  18.818  1.00  0.00     0.013 A 
ATOM     17  C   UNL     1      42.457 132.355  16.677  1.00  0.00     0.009 A 
ATOM     18  C   UNL     1      44.521 131.360  17.501  1.00  0.00    -0.017 A 
ATOM     19  C   UNL     1      43.704 131.767  16.420  1.00  0.00    -0.018 A 
ATOM     20  C   UNL     1      45.766 130.764  17.248  1.00  0.00     0.017 A 
ATOM     21  C   UNL     1      44.142 131.575  15.101  1.00  0.00     0.017 A 
ATOM     22  C   UNL     1      46.206 130.574  15.930  1.00  0.00    -0.018 A 
ATOM     23  C   UNL     1      45.388 130.982  14.848  1.00  0.00    -0.018 A 
ATOM     24  C   UNL     1      47.452 129.980  15.672  1.00  0.00     0.009 A 
ATOM     25  C   UNL     1      45.832 130.788  13.531  1.00  0.00     0.009 A 
ATOM     26  C   UNL     1      47.881 129.793  14.355  1.00  0.00     0.001 A 
ATOM     27  C   UNL     1      47.075 130.196  13.289  1.00  0.00     0.001 A 
ENDBRANCH  10  14
ENDBRANCH   8  10
ENDBRANCH   1   8
TORSDOF 7
ENDMDL
MODEL 9
REMARK VINA RESULT:      -4.3      4.964      8.101
REMARK SMILES C[C@@H](CC(=O)[O-])[N-]C(=O)N(N)c1ccc2cc3ccccc3cc2c1
REMARK SMILES IDX 7 1 2 2 1 3 3 4 4 5 5 6 6 7 8 8 9 9 10 10 11 11 12 14 13 15
REMARK SMILES IDX 25 16 14 17 24 18 15 19 23 20 16 21 22 22 17 23 21 24 18 25
REMARK SMILES IDX 20 26 19 27
REMARK H PARENT 11 12 11 13
ROOT
ATOM      1  N   UNL     1      46.731 131.660  14.359  1.00  0.00    -0.426 NA
ENDROOT
BRANCH   1   2
ATOM      2  C   UNL     1      47.124 131.181  13.038  1.00  0.00    -0.004 C 
ATOM      3  C   UNL     1      48.445 131.844  12.622  1.00  0.00     0.007 C 
BRANCH   2   4
ATOM      4  C   UNL     1      47.255 129.650  13.088  1.00  0.00     0.055 C 
BRANCH   4   5
ATOM      5  C   UNL     1      48.635 129.220  13.482  1.00  0.00     0.042 C 
ATOM      6  O   UNL     1      49.404 128.699  12.631  1.00  0.00    -0.550 OA
ATOM      7  O   UNL     1      49.061 129.368  14.795  1.00  0.00    -0.550 OA
ENDBRANCH   4   5
ENDBRANCH   2   4
ENDBRANCH   1   2
BRANCH   1   8
ATOM      8  C   UNL     1      45.546 131.238  15.047  1.00  0.00     0.170 C 
ATOM      9  O   UNL     1      44.416 131.401  14.513  1.00  0.00    -0.297 OA
BRANCH   8  10
ATOM     10  N   UNL     1      45.644 130.593  16.333  1.00  0.00    -0.359 N 
BRANCH  10  11
ATOM     11  N   UNL     1      46.603 129.583  16.538  1.00  0.00    -0.312 NA
ATOM     12  H   UNL     1      46.093 128.703  16.780  1.00  0.00     0.122 HD
ATOM     13  H   UNL     1      47.104 129.428  15.634  1.00  0.00     0.122 HD
ENDBRANCH  10  11
BRANCH  10  14
ATOM     14  C   UNL     1      44.798 130.974  17.432  1.00  0.00    -0.026 A 
ATOM     15  C   UNL     1      43.538 131.540  17.183  1.00  0.00     0.005 A 
ATOM     16  C   UNL     1      45.232 130.821  18.760  1.00  0.00     0.013 A 
ATOM     17  C   UNL     1      42.708 131.923  18.240  1.00  0.00     0.009 A 
ATOM     18  C   UNL     1      44.405 131.200  19.829  1.00  0.00    -0.017 A 
ATOM     19  C   UNL     1      43.130 131.754  19.566  1.00  0.00    -0.018 A 
ATOM     20  C   UNL     1      44.836 131.036  21.154  1.00  0.00     0.017 A 
ATOM     21  C   UNL     1      42.300 132.134  20.632  1.00  0.00     0.017 A 
ATOM     22  C   UNL     1      44.005 131.414  22.220  1.00  0.00    -0.018 A 
ATOM     23  C   UNL     1      42.729 131.967  21.957  1.00  0.00    -0.018 A 
ATOM     24  C   UNL     1      44.430 131.250  23.548  1.00  0.00     0.009 A 
ATOM     25  C   UNL     1      41.903 132.346  23.027  1.00  0.00     0.009 A 
ATOM     26  C   UNL     1      43.597 131.630  24.603  1.00  0.00     0.001 A 
ATOM     27  C   UNL     1      42.338 132.176  24.344  1.00  0.00     0.001 A 
ENDBRANCH  10  14
ENDBRANCH   8  10
ENDBRANCH   1   8
TORSDOF 7
ENDMDL


