REMARK SMILES CCCCC/C=C(/O)N(N)c1ccc2cc3ccccc3cc2c1
REMARK SMILES IDX 6 1 7 2 8 3 9 5 11 6 12 7 24 8 13 9 23 10 14 11 22 12 15 13
REMARK SMILES IDX 21 14 16 15 20 16 17 17 19 18 18 19 10 20 5 23 4 24 3 25
REMARK SMILES IDX 2 26 1 27
REMARK H PARENT 8 4 10 21 10 22
ROOT
ATOM      1  C   UNL     1      -2.489  -2.130  -1.002  1.00  0.00     0.041 C 
ENDROOT
BRANCH   1   2
ATOM      2  C   UNL     1      -2.575  -2.620   0.245  1.00  0.00     0.201 C 
BRANCH   2   3
ATOM      3  O   UNL     1      -3.794  -3.143   0.668  1.00  0.00    -0.494 OA
ATOM      4  H   UNL     1      -3.914  -3.508   1.605  1.00  0.00     0.295 HD
ENDBRANCH   2   3
BRANCH   2   5
ATOM      5  N   UNL     1      -1.444  -2.651   1.141  1.00  0.00    -0.249 N 
BRANCH   5   6
ATOM      6  C   UNL     1      -0.773  -1.445   1.559  1.00  0.00     0.061 A 
ATOM      7  C   UNL     1       0.588  -1.485   1.900  1.00  0.00     0.028 A 
ATOM      8  C   UNL     1      -1.461  -0.219   1.624  1.00  0.00     0.036 A 
ATOM      9  C   UNL     1       1.264  -0.321   2.272  1.00  0.00     0.011 A 
ATOM     10  C   UNL     1      -0.790   0.956   1.997  1.00  0.00    -0.016 A 
ATOM     11  C   UNL     1       0.586   0.905   2.321  1.00  0.00    -0.018 A 
ATOM     12  C   UNL     1      -1.474   2.180   2.046  1.00  0.00     0.017 A 
ATOM     13  C   UNL     1       1.261   2.078   2.688  1.00  0.00     0.017 A 
ATOM     14  C   UNL     1      -0.799   3.353   2.413  1.00  0.00    -0.018 A 
ATOM     15  C   UNL     1       0.579   3.302   2.736  1.00  0.00    -0.018 A 
ATOM     16  C   UNL     1      -1.478   4.581   2.462  1.00  0.00     0.009 A 
ATOM     17  C   UNL     1       1.250   4.480   3.102  1.00  0.00     0.009 A 
ATOM     18  C   UNL     1      -0.798   5.746   2.828  1.00  0.00     0.001 A 
ATOM     19  C   UNL     1       0.562   5.695   3.147  1.00  0.00     0.001 A 
ENDBRANCH   5   6
BRANCH   5  20
ATOM     20  N   UNL     1      -1.078  -3.869   1.743  1.00  0.00    -0.240 NA
ATOM     21  H   UNL     1      -1.766  -4.066   2.504  1.00  0.00     0.144 HD
ATOM     22  H   UNL     1      -1.162  -4.628   1.028  1.00  0.00     0.144 HD
ENDBRANCH   5  20
ENDBRANCH   2   5
ENDBRANCH   1   2
BRANCH   1  23
ATOM     23  C   UNL     1      -1.233  -1.578  -1.625  1.00  0.00     0.033 C 
BRANCH  23  24
ATOM     24  C   UNL     1      -0.181  -2.673  -1.862  1.00  0.00     0.004 C 
BRANCH  24  25
ATOM     25  C   UNL     1       1.107  -2.117  -2.490  1.00  0.00     0.000 C 
BRANCH  25  26
ATOM     26  C   UNL     1       1.977  -1.364  -1.472  1.00  0.00    -0.003 C 
ATOM     27  C   UNL     1       3.280  -0.889  -2.106  1.00  0.00     0.004 C 
ENDBRANCH  25  26
ENDBRANCH  24  25
ENDBRANCH  23  24
ENDBRANCH   1  23
TORSDOF 9


