REMARK SMILES Cc1ccc(Nc2cccc(N=[N+]=[N-])c2[O-])cc1
REMARK SMILES IDX 9 1 10 2 11 3 15 4 16 5 7 6 8 7 12 8 13 9 14 10 6 11 5 13
REMARK SMILES IDX 4 14 17 15 3 16 18 17 2 18 1 19
REMARK H PARENT 6 12
ROOT
ATOM      1  C   UNL     1       3.560   1.360   1.839  1.00  0.00     0.003 A 
ATOM      2  C   UNL     1       2.490   1.225   2.724  1.00  0.00     0.010 A 
ATOM      3  C   UNL     1       1.392   0.417   2.401  1.00  0.00     0.032 A 
ATOM      4  C   UNL     1       1.378  -0.263   1.158  1.00  0.00    -0.075 A 
ATOM      5  O   UNL     1       0.333  -1.121   0.832  1.00  0.00    -0.871 OA
ATOM      6  C   UNL     1       2.444  -0.093   0.250  1.00  0.00     0.031 A 
ATOM      7  C   UNL     1       3.540   0.700   0.611  1.00  0.00     0.025 A 
ENDROOT
BRANCH   3   8
ATOM      8  N   UNL     1       0.331   0.312   3.364  1.00  0.00    -0.061 NA
BRANCH   8   9
ATOM      9  N   UNL     1      -0.699  -0.335   3.171  1.00  0.00     0.005 N 
ATOM     10  N   UNL     1      -1.731  -0.978   2.984  1.00  0.00    -0.003 NA
ENDBRANCH   8   9
ENDBRANCH   3   8
BRANCH   6  11
ATOM     11  N   UNL     1       2.459  -0.769  -1.018  1.00  0.00    -0.356 N 
ATOM     12  H   UNL     1       3.358  -1.208  -1.322  1.00  0.00     0.166 HD
BRANCH  11  13
ATOM     13  C   UNL     1       1.352  -0.787  -1.936  1.00  0.00     0.038 A 
ATOM     14  C   UNL     1       0.360   0.211  -1.910  1.00  0.00     0.026 A 
ATOM     15  C   UNL     1       1.287  -1.787  -2.917  1.00  0.00     0.026 A 
ATOM     16  C   UNL     1      -0.695   0.183  -2.826  1.00  0.00     0.005 A 
ATOM     17  C   UNL     1       0.231  -1.815  -3.833  1.00  0.00     0.005 A 
ATOM     18  C   UNL     1      -0.776  -0.841  -3.782  1.00  0.00    -0.051 A 
ATOM     19  C   UNL     1      -1.887  -0.848  -4.790  1.00  0.00     0.044 C 
ENDBRANCH  11  13
ENDBRANCH   6  11
TORSDOF 4


