REMARK SMILES C[N-]S(=O)(=O)c1ccc(/N=C(\O)N(N)c2ccccc2-c2nc3ccccc3[n-]2)cc1
REMARK SMILES IDX 10 1 11 2 12 3 13 5 15 6 16 7 20 8 17 9 19 10 18 11 21 12
REMARK SMILES IDX 22 13 29 14 23 15 28 16 24 17 27 18 25 19 26 20 14 21 9 24
REMARK SMILES IDX 8 25 30 26 7 27 31 28 6 29 3 30 4 31 5 32 2 33 1 34
REMARK H PARENT 12 4 14 22 14 23
ROOT
ATOM      1  N   UNL     1       0.097  -0.317  -1.250  1.00  0.00    -0.196 NA
ENDROOT
BRANCH   1   2
ATOM      2  C   UNL     1       1.386  -0.218  -1.421  1.00  0.00     0.309 C 
BRANCH   2   3
ATOM      3  O   UNL     1       2.256  -1.243  -1.037  1.00  0.00    -0.479 OA
ATOM      4  H   UNL     1       1.936  -2.156  -0.739  1.00  0.00     0.297 HD
ENDBRANCH   2   3
BRANCH   2   5
ATOM      5  N   UNL     1       1.935   0.965  -2.037  1.00  0.00    -0.231 N 
BRANCH   5   6
ATOM      6  C   UNL     1       1.120   2.118  -2.320  1.00  0.00     0.069 A 
ATOM      7  C   UNL     1       1.041   2.577  -3.644  1.00  0.00     0.028 A 
ATOM      8  C   UNL     1       0.374   2.778  -1.307  1.00  0.00    -0.001 A 
ATOM      9  C   UNL     1       0.209   3.647  -3.977  1.00  0.00     0.002 A 
ATOM     10  C   UNL     1      -0.474   3.841  -1.665  1.00  0.00     0.010 A 
ATOM     11  C   UNL     1      -0.554   4.272  -2.990  1.00  0.00     0.001 A 
BRANCH   8  12
ATOM     12  C   UNL     1       0.472   2.396   0.119  1.00  0.00    -0.049 A 
ATOM     13  N   UNL     1       1.610   1.905   0.680  1.00  0.00    -0.435 NA
ATOM     14  N   UNL     1      -0.583   2.480   0.973  1.00  0.00    -0.435 NA
ATOM     15  C   UNL     1       1.233   1.663   1.943  1.00  0.00    -0.038 A 
ATOM     16  C   UNL     1      -0.072   2.004   2.117  1.00  0.00    -0.038 A 
ATOM     17  C   UNL     1       1.998   1.118   2.972  1.00  0.00     0.004 A 
ATOM     18  C   UNL     1      -0.724   1.831   3.336  1.00  0.00     0.004 A 
ATOM     19  C   UNL     1       1.374   0.929   4.219  1.00  0.00     0.000 A 
ATOM     20  C   UNL     1       0.017   1.284   4.401  1.00  0.00     0.000 A 
ENDBRANCH   8  12
ENDBRANCH   5   6
BRANCH   5  21
ATOM     21  N   UNL     1       3.281   0.985  -2.441  1.00  0.00    -0.239 NA
ATOM     22  H   UNL     1       3.432   0.181  -3.093  1.00  0.00     0.144 HD
ATOM     23  H   UNL     1       3.872   0.827  -1.592  1.00  0.00     0.144 HD
ENDBRANCH   5  21
ENDBRANCH   2   5
ENDBRANCH   1   2
BRANCH   1  24
ATOM     24  C   UNL     1      -0.590  -1.333  -0.509  1.00  0.00     0.069 A 
ATOM     25  C   UNL     1      -1.778  -1.866  -1.023  1.00  0.00     0.030 A 
ATOM     26  C   UNL     1      -0.171  -1.701   0.781  1.00  0.00     0.030 A 
ATOM     27  C   UNL     1      -2.511  -2.800  -0.283  1.00  0.00     0.021 A 
ATOM     28  C   UNL     1      -0.904  -2.631   1.522  1.00  0.00     0.021 A 
ATOM     29  C   UNL     1      -2.078  -3.186   0.992  1.00  0.00     0.048 A 
BRANCH  29  30
ATOM     30  S   UNL     1      -3.003  -4.371   1.910  1.00  0.00     0.101 S 
ATOM     31  O   UNL     1      -2.589  -4.347   3.356  1.00  0.00    -0.244 OA
ATOM     32  O   UNL     1      -4.462  -4.023   1.827  1.00  0.00    -0.244 OA
BRANCH  30  33
ATOM     33  N   UNL     1      -2.759  -5.962   1.258  1.00  0.00    -0.547 NA
ATOM     34  C   UNL     1      -1.347  -6.317   1.338  1.00  0.00    -0.153 C 
ENDBRANCH  30  33
ENDBRANCH  29  30
ENDBRANCH   1  24
TORSDOF 9


