MODEL 1
REMARK VINA RESULT:     -10.0      0.000      0.000
REMARK SMILES CC(=O)c1ccc([NH2+]c2ccc3[nH]ccc3c2)c2c1CCC2
REMARK SMILES IDX 4 1 5 2 6 3 7 4 18 5 19 6 20 7 21 8 22 9 2 10 1 11 3 12 8 13
REMARK SMILES IDX 9 16 10 17 17 18 11 19 16 20 12 21 15 22 13 23 14 24
REMARK H PARENT 8 14 8 15 13 25
ROOT
ATOM      1  C   UNL     1      44.469 131.038  21.303  1.00  0.00     0.021 A 
ATOM      2  C   UNL     1      45.517 130.761  20.401  1.00  0.00     0.018 A 
ATOM      3  C   UNL     1      45.437 131.156  19.060  1.00  0.00     0.069 A 
ATOM      4  C   UNL     1      44.307 131.839  18.574  1.00  0.00     0.138 A 
ATOM      5  C   UNL     1      43.271 132.128  19.484  1.00  0.00     0.017 A 
ATOM      6  C   UNL     1      43.346 131.735  20.805  1.00  0.00    -0.028 A 
ATOM      7  C   UNL     1      42.143 132.170  21.567  1.00  0.00     0.037 C 
ATOM      8  C   UNL     1      41.326 133.000  20.568  1.00  0.00     0.010 C 
ATOM      9  C   UNL     1      42.021 132.885  19.205  1.00  0.00     0.042 C 
ENDROOT
BRANCH   1  10
ATOM     10  C   UNL     1      44.565 130.608  22.727  1.00  0.00     0.160 C 
ATOM     11  C   UNL     1      44.422 129.169  23.124  1.00  0.00     0.093 C 
ATOM     12  O   UNL     1      44.734 131.462  23.639  1.00  0.00    -0.295 OA
ENDBRANCH   1  10
BRANCH   4  13
ATOM     13  N   UNL     1      44.234 132.222  17.182  1.00  0.00    -0.281 N 
ATOM     14  H   UNL     1      44.497 133.232  17.095  1.00  0.00     0.358 HD
ATOM     15  H   UNL     1      43.262 132.134  16.807  1.00  0.00     0.358 HD
BRANCH  13  16
ATOM     16  C   UNL     1      45.123 131.401  16.395  1.00  0.00     0.135 A 
ATOM     17  C   UNL     1      45.243 130.011  16.666  1.00  0.00     0.070 A 
ATOM     18  C   UNL     1      45.858 131.968  15.328  1.00  0.00     0.078 A 
ATOM     19  C   UNL     1      46.086 129.195  15.888  1.00  0.00     0.033 A 
ATOM     20  C   UNL     1      46.681 131.131  14.579  1.00  0.00     0.005 A 
ATOM     21  C   UNL     1      46.792 129.794  14.848  1.00  0.00     0.046 A 
ATOM     22  C   UNL     1      47.496 131.405  13.503  1.00  0.00     0.028 A 
ATOM     23  N   UNL     1      47.641 129.203  13.992  1.00  0.00    -0.361 N 
ATOM     24  C   UNL     1      48.075 130.184  13.167  1.00  0.00     0.083 A 
ATOM     25  H   UNL     1      47.914 128.196  13.965  1.00  0.00     0.166 HD
ENDBRANCH  13  16
ENDBRANCH   4  13
TORSDOF 3
ENDMDL
MODEL 2
REMARK VINA RESULT:      -9.1      3.190      7.044
REMARK SMILES CC(=O)c1ccc([NH2+]c2ccc3[nH]ccc3c2)c2c1CCC2
REMARK SMILES IDX 4 1 5 2 6 3 7 4 18 5 19 6 20 7 21 8 22 9 2 10 1 11 3 12 8 13
REMARK SMILES IDX 9 16 10 17 17 18 11 19 16 20 12 21 15 22 13 23 14 24
REMARK H PARENT 8 14 8 15 13 25
ROOT
ATOM      1  C   UNL     1      45.162 131.084  18.124  1.00  0.00     0.021 A 
ATOM      2  C   UNL     1      46.163 130.640  19.013  1.00  0.00     0.018 A 
ATOM      3  C   UNL     1      45.986 130.727  20.399  1.00  0.00     0.069 A 
ATOM      4  C   UNL     1      44.805 131.264  20.945  1.00  0.00     0.138 A 
ATOM      5  C   UNL     1      43.802 131.690  20.051  1.00  0.00     0.017 A 
ATOM      6  C   UNL     1      43.977 131.609  18.685  1.00  0.00    -0.028 A 
ATOM      7  C   UNL     1      42.776 132.102  17.956  1.00  0.00     0.037 C 
ATOM      8  C   UNL     1      41.751 132.413  19.056  1.00  0.00     0.010 C 
ATOM      9  C   UNL     1      42.461 132.230  20.404  1.00  0.00     0.042 C 
ENDROOT
BRANCH   1  10
ATOM     10  C   UNL     1      45.365 130.989  16.650  1.00  0.00     0.160 C 
ATOM     11  C   UNL     1      45.205 129.690  15.919  1.00  0.00     0.093 C 
ATOM     12  O   UNL     1      45.716 132.003  15.990  1.00  0.00    -0.295 OA
ENDBRANCH   1  10
BRANCH   4  13
ATOM     13  N   UNL     1      44.648 131.363  22.378  1.00  0.00    -0.281 N 
ATOM     14  H   UNL     1      44.072 132.210  22.598  1.00  0.00     0.358 HD
ATOM     15  H   UNL     1      45.566 131.495  22.860  1.00  0.00     0.358 HD
BRANCH  13  16
ATOM     16  C   UNL     1      44.009 130.176  22.891  1.00  0.00     0.135 A 
ATOM     17  C   UNL     1      42.703 130.247  23.449  1.00  0.00     0.070 A 
ATOM     18  C   UNL     1      44.665 128.924  22.813  1.00  0.00     0.078 A 
ATOM     19  C   UNL     1      42.060 129.091  23.927  1.00  0.00     0.033 A 
ATOM     20  C   UNL     1      43.996 127.802  23.296  1.00  0.00     0.005 A 
ATOM     21  C   UNL     1      42.741 127.881  23.833  1.00  0.00     0.046 A 
ATOM     22  C   UNL     1      44.385 126.481  23.348  1.00  0.00     0.028 A 
ATOM     23  N   UNL     1      42.311 126.670  24.225  1.00  0.00    -0.361 N 
ATOM     24  C   UNL     1      43.313 125.810  23.930  1.00  0.00     0.083 A 
ATOM     25  H   UNL     1      41.395 126.436  24.666  1.00  0.00     0.166 HD
ENDBRANCH  13  16
ENDBRANCH   4  13
TORSDOF 3
ENDMDL
MODEL 3
REMARK VINA RESULT:      -8.6      3.324      7.376
REMARK SMILES CC(=O)c1ccc([NH2+]c2ccc3[nH]ccc3c2)c2c1CCC2
REMARK SMILES IDX 4 1 5 2 6 3 7 4 18 5 19 6 20 7 21 8 22 9 2 10 1 11 3 12 8 13
REMARK SMILES IDX 9 16 10 17 17 18 11 19 16 20 12 21 15 22 13 23 14 24
REMARK H PARENT 8 14 8 15 13 25
ROOT
ATOM      1  C   UNL     1      45.194 131.025  18.499  1.00  0.00     0.021 A 
ATOM      2  C   UNL     1      46.123 130.479  19.409  1.00  0.00     0.018 A 
ATOM      3  C   UNL     1      45.880 130.502  20.788  1.00  0.00     0.069 A 
ATOM      4  C   UNL     1      44.702 131.073  21.305  1.00  0.00     0.138 A 
ATOM      5  C   UNL     1      43.771 131.601  20.390  1.00  0.00     0.017 A 
ATOM      6  C   UNL     1      44.011 131.584  19.031  1.00  0.00    -0.028 A 
ATOM      7  C   UNL     1      42.876 132.180  18.274  1.00  0.00     0.037 C 
ATOM      8  C   UNL     1      41.814 132.488  19.338  1.00  0.00     0.010 C 
ATOM      9  C   UNL     1      42.444 132.195  20.706  1.00  0.00     0.042 C 
ENDROOT
BRANCH   1  10
ATOM     10  C   UNL     1      45.468 130.997  17.034  1.00  0.00     0.160 C 
ATOM     11  C   UNL     1      45.938 129.750  16.347  1.00  0.00     0.093 C 
ATOM     12  O   UNL     1      45.343 132.044  16.344  1.00  0.00    -0.295 OA
ENDBRANCH   1  10
BRANCH   4  13
ATOM     13  N   UNL     1      44.478 131.105  22.733  1.00  0.00    -0.281 N 
ATOM     14  H   UNL     1      43.841 131.906  22.957  1.00  0.00     0.358 HD
ATOM     15  H   UNL     1      45.365 131.273  23.260  1.00  0.00     0.358 HD
BRANCH  13  16
ATOM     16  C   UNL     1      43.893 129.860  23.170  1.00  0.00     0.135 A 
ATOM     17  C   UNL     1      44.706 128.707  23.343  1.00  0.00     0.070 A 
ATOM     18  C   UNL     1      42.510 129.786  23.461  1.00  0.00     0.078 A 
ATOM     19  C   UNL     1      44.152 127.496  23.796  1.00  0.00     0.033 A 
ATOM     20  C   UNL     1      41.997 128.571  23.907  1.00  0.00     0.005 A 
ATOM     21  C   UNL     1      42.787 127.466  24.068  1.00  0.00     0.046 A 
ATOM     22  C   UNL     1      40.714 128.216  24.258  1.00  0.00     0.028 A 
ATOM     23  N   UNL     1      42.065 126.422  24.507  1.00  0.00    -0.361 N 
ATOM     24  C   UNL     1      40.796 126.875  24.625  1.00  0.00     0.083 A 
ATOM     25  H   UNL     1      42.408 125.459  24.715  1.00  0.00     0.166 HD
ENDBRANCH  13  16
ENDBRANCH   4  13
TORSDOF 3
ENDMDL
MODEL 4
REMARK VINA RESULT:      -8.0      1.075      2.271
REMARK SMILES CC(=O)c1ccc([NH2+]c2ccc3[nH]ccc3c2)c2c1CCC2
REMARK SMILES IDX 4 1 5 2 6 3 7 4 18 5 19 6 20 7 21 8 22 9 2 10 1 11 3 12 8 13
REMARK SMILES IDX 9 16 10 17 17 18 11 19 16 20 12 21 15 22 13 23 14 24
REMARK H PARENT 8 14 8 15 13 25
ROOT
ATOM      1  C   UNL     1      43.030 131.403  20.804  1.00  0.00     0.021 A 
ATOM      2  C   UNL     1      41.921 131.734  19.997  1.00  0.00     0.018 A 
ATOM      3  C   UNL     1      42.074 131.974  18.626  1.00  0.00     0.069 A 
ATOM      4  C   UNL     1      43.339 131.894  18.014  1.00  0.00     0.138 A 
ATOM      5  C   UNL     1      44.439 131.545  18.823  1.00  0.00     0.017 A 
ATOM      6  C   UNL     1      44.291 131.313  20.175  1.00  0.00    -0.028 A 
ATOM      7  C   UNL     1      45.589 130.946  20.805  1.00  0.00     0.037 C 
ATOM      8  C   UNL     1      46.583 130.867  19.638  1.00  0.00     0.010 C 
ATOM      9  C   UNL     1      45.846 131.346  18.381  1.00  0.00     0.042 C 
ENDROOT
BRANCH   1  10
ATOM     10  C   UNL     1      42.853 131.153  22.263  1.00  0.00     0.160 C 
ATOM     11  C   UNL     1      42.695 129.766  22.808  1.00  0.00     0.093 C 
ATOM     12  O   UNL     1      42.796 132.119  23.070  1.00  0.00    -0.295 OA
ENDBRANCH   1  10
BRANCH   4  13
ATOM     13  N   UNL     1      43.480 132.163  16.602  1.00  0.00    -0.281 N 
ATOM     14  H   UNL     1      43.755 133.166  16.474  1.00  0.00     0.358 HD
ATOM     15  H   UNL     1      42.577 132.036  16.091  1.00  0.00     0.358 HD
BRANCH  13  16
ATOM     16  C   UNL     1      44.477 131.293  16.028  1.00  0.00     0.135 A 
ATOM     17  C   UNL     1      44.460 129.899  16.309  1.00  0.00     0.070 A 
ATOM     18  C   UNL     1      45.461 131.814  15.154  1.00  0.00     0.078 A 
ATOM     19  C   UNL     1      45.411 129.036  15.734  1.00  0.00     0.033 A 
ATOM     20  C   UNL     1      46.384 130.929  14.603  1.00  0.00     0.005 A 
ATOM     21  C   UNL     1      46.362 129.590  14.882  1.00  0.00     0.046 A 
ATOM     22  C   UNL     1      47.432 131.153  13.738  1.00  0.00     0.028 A 
ATOM     23  N   UNL     1      47.348 128.950  14.233  1.00  0.00    -0.361 N 
ATOM     24  C   UNL     1      48.006 129.902  13.531  1.00  0.00     0.083 A 
ATOM     25  H   UNL     1      47.566 127.930  14.261  1.00  0.00     0.166 HD
ENDBRANCH  13  16
ENDBRANCH   4  13
TORSDOF 3
ENDMDL
MODEL 5
REMARK VINA RESULT:      -7.7      2.086      3.276
REMARK SMILES CC(=O)c1ccc([NH2+]c2ccc3[nH]ccc3c2)c2c1CCC2
REMARK SMILES IDX 4 1 5 2 6 3 7 4 18 5 19 6 20 7 21 8 22 9 2 10 1 11 3 12 8 13
REMARK SMILES IDX 9 16 10 17 17 18 11 19 16 20 12 21 15 22 13 23 14 24
REMARK H PARENT 8 14 8 15 13 25
ROOT
ATOM      1  C   UNL     1      44.877 128.572  22.517  1.00  0.00     0.021 A 
ATOM      2  C   UNL     1      45.747 128.766  21.425  1.00  0.00     0.018 A 
ATOM      3  C   UNL     1      45.745 129.967  20.706  1.00  0.00     0.069 A 
ATOM      4  C   UNL     1      44.872 131.015  21.052  1.00  0.00     0.138 A 
ATOM      5  C   UNL     1      44.018 130.822  22.155  1.00  0.00     0.017 A 
ATOM      6  C   UNL     1      44.014 129.636  22.862  1.00  0.00    -0.028 A 
ATOM      7  C   UNL     1      43.042 129.681  23.988  1.00  0.00     0.037 C 
ATOM      8  C   UNL     1      42.492 131.114  23.974  1.00  0.00     0.010 C 
ATOM      9  C   UNL     1      43.062 131.807  22.730  1.00  0.00     0.042 C 
ENDROOT
BRANCH   1  10
ATOM     10  C   UNL     1      44.886 127.286  23.271  1.00  0.00     0.160 C 
ATOM     11  C   UNL     1      44.319 126.028  22.685  1.00  0.00     0.093 C 
ATOM     12  O   UNL     1      45.344 127.240  24.444  1.00  0.00    -0.295 OA
ENDBRANCH   1  10
BRANCH   4  13
ATOM     13  N   UNL     1      44.871 132.241  20.286  1.00  0.00    -0.281 N 
ATOM     14  H   UNL     1      45.815 132.689  20.364  1.00  0.00     0.358 HD
ATOM     15  H   UNL     1      44.182 132.932  20.662  1.00  0.00     0.358 HD
BRANCH  13  16
ATOM     16  C   UNL     1      44.560 131.963  18.905  1.00  0.00     0.135 A 
ATOM     17  C   UNL     1      43.207 131.922  18.469  1.00  0.00     0.070 A 
ATOM     18  C   UNL     1      45.599 131.758  17.967  1.00  0.00     0.078 A 
ATOM     19  C   UNL     1      42.892 131.679  17.120  1.00  0.00     0.033 A 
ATOM     20  C   UNL     1      45.249 131.521  16.640  1.00  0.00     0.005 A 
ATOM     21  C   UNL     1      43.945 131.482  16.230  1.00  0.00     0.046 A 
ATOM     22  C   UNL     1      46.037 131.292  15.534  1.00  0.00     0.028 A 
ATOM     23  N   UNL     1      43.865 131.239  14.912  1.00  0.00    -0.361 N 
ATOM     24  C   UNL     1      45.142 131.122  14.481  1.00  0.00     0.083 A 
ATOM     25  H   UNL     1      42.999 131.156  14.335  1.00  0.00     0.166 HD
ENDBRANCH  13  16
ENDBRANCH   4  13
TORSDOF 3
ENDMDL
MODEL 6
REMARK VINA RESULT:      -7.3      3.952      6.540
REMARK SMILES CC(=O)c1ccc([NH2+]c2ccc3[nH]ccc3c2)c2c1CCC2
REMARK SMILES IDX 4 1 5 2 6 3 7 4 18 5 19 6 20 7 21 8 22 9 2 10 1 11 3 12 8 13
REMARK SMILES IDX 9 16 10 17 17 18 11 19 16 20 12 21 15 22 13 23 14 24
REMARK H PARENT 8 14 8 15 13 25
ROOT
ATOM      1  C   UNL     1      43.792 125.392  22.847  1.00  0.00     0.021 A 
ATOM      2  C   UNL     1      45.045 125.868  22.410  1.00  0.00     0.018 A 
ATOM      3  C   UNL     1      45.391 127.219  22.548  1.00  0.00     0.069 A 
ATOM      4  C   UNL     1      44.495 128.139  23.123  1.00  0.00     0.138 A 
ATOM      5  C   UNL     1      43.252 127.653  23.573  1.00  0.00     0.017 A 
ATOM      6  C   UNL     1      42.908 126.324  23.434  1.00  0.00    -0.028 A 
ATOM      7  C   UNL     1      41.557 126.053  23.999  1.00  0.00     0.037 C 
ATOM      8  C   UNL     1      41.121 127.385  24.625  1.00  0.00     0.010 C 
ATOM      9  C   UNL     1      42.184 128.429  24.260  1.00  0.00     0.042 C 
ENDROOT
BRANCH   1  10
ATOM     10  C   UNL     1      43.436 123.953  22.691  1.00  0.00     0.160 C 
ATOM     11  C   UNL     1      42.954 123.401  21.383  1.00  0.00     0.093 C 
ATOM     12  O   UNL     1      43.499 123.172  23.678  1.00  0.00    -0.295 OA
ENDBRANCH   1  10
BRANCH   4  13
ATOM     13  N   UNL     1      44.862 129.532  23.239  1.00  0.00    -0.281 N 
ATOM     14  H   UNL     1      45.889 129.597  23.434  1.00  0.00     0.358 HD
ATOM     15  H   UNL     1      44.377 129.995  24.041  1.00  0.00     0.358 HD
BRANCH  13  16
ATOM     16  C   UNL     1      44.537 130.233  22.020  1.00  0.00     0.135 A 
ATOM     17  C   UNL     1      45.422 130.188  20.909  1.00  0.00     0.070 A 
ATOM     18  C   UNL     1      43.319 130.945  21.911  1.00  0.00     0.078 A 
ATOM     19  C   UNL     1      45.104 130.845  19.706  1.00  0.00     0.033 A 
ATOM     20  C   UNL     1      43.038 131.582  20.705  1.00  0.00     0.005 A 
ATOM     21  C   UNL     1      43.897 131.535  19.641  1.00  0.00     0.046 A 
ATOM     22  C   UNL     1      41.948 132.334  20.322  1.00  0.00     0.028 A 
ATOM     23  N   UNL     1      43.404 132.222  18.598  1.00  0.00    -0.361 N 
ATOM     24  C   UNL     1      42.212 132.713  19.009  1.00  0.00     0.083 A 
ATOM     25  H   UNL     1      43.846 132.353  17.662  1.00  0.00     0.166 HD
ENDBRANCH  13  16
ENDBRANCH   4  13
TORSDOF 3
ENDMDL
MODEL 7
REMARK VINA RESULT:      -7.1      4.297      7.563
REMARK SMILES CC(=O)c1ccc([NH2+]c2ccc3[nH]ccc3c2)c2c1CCC2
REMARK SMILES IDX 4 1 5 2 6 3 7 4 18 5 19 6 20 7 21 8 22 9 2 10 1 11 3 12 8 13
REMARK SMILES IDX 9 16 10 17 17 18 11 19 16 20 12 21 15 22 13 23 14 24
REMARK H PARENT 8 14 8 15 13 25
ROOT
ATOM      1  C   UNL     1      41.699 125.061  23.038  1.00  0.00     0.021 A 
ATOM      2  C   UNL     1      40.984 126.204  23.452  1.00  0.00     0.018 A 
ATOM      3  C   UNL     1      41.653 127.367  23.853  1.00  0.00     0.069 A 
ATOM      4  C   UNL     1      43.059 127.428  23.857  1.00  0.00     0.138 A 
ATOM      5  C   UNL     1      43.767 126.289  23.425  1.00  0.00     0.017 A 
ATOM      6  C   UNL     1      43.110 125.140  23.034  1.00  0.00    -0.028 A 
ATOM      7  C   UNL     1      44.071 124.086  22.606  1.00  0.00     0.037 C 
ATOM      8  C   UNL     1      45.447 124.761  22.674  1.00  0.00     0.010 C 
ATOM      9  C   UNL     1      45.243 126.151  23.292  1.00  0.00     0.042 C 
ENDROOT
BRANCH   1  10
ATOM     10  C   UNL     1      40.975 123.829  22.617  1.00  0.00     0.160 C 
ATOM     11  C   UNL     1      39.752 123.352  23.342  1.00  0.00     0.093 C 
ATOM     12  O   UNL     1      41.403 123.136  21.655  1.00  0.00    -0.295 OA
ENDBRANCH   1  10
BRANCH   4  13
ATOM     13  N   UNL     1      43.732 128.630  24.292  1.00  0.00    -0.281 N 
ATOM     14  H   UNL     1      44.701 128.382  24.601  1.00  0.00     0.358 HD
ATOM     15  H   UNL     1      43.258 129.061  25.118  1.00  0.00     0.358 HD
BRANCH  13  16
ATOM     16  C   UNL     1      43.778 129.590  23.216  1.00  0.00     0.135 A 
ATOM     17  C   UNL     1      42.818 130.636  23.146  1.00  0.00     0.070 A 
ATOM     18  C   UNL     1      44.798 129.516  22.239  1.00  0.00     0.078 A 
ATOM     19  C   UNL     1      42.869 131.594  22.117  1.00  0.00     0.033 A 
ATOM     20  C   UNL     1      44.818 130.482  21.235  1.00  0.00     0.005 A 
ATOM     21  C   UNL     1      43.888 131.484  21.175  1.00  0.00     0.046 A 
ATOM     22  C   UNL     1      45.678 130.653  20.174  1.00  0.00     0.028 A 
ATOM     23  N   UNL     1      44.117 132.286  20.123  1.00  0.00    -0.361 N 
ATOM     24  C   UNL     1      45.211 131.782  19.507  1.00  0.00     0.083 A 
ATOM     25  H   UNL     1      43.568 133.125  19.836  1.00  0.00     0.166 HD
ENDBRANCH  13  16
ENDBRANCH   4  13
TORSDOF 3
ENDMDL
MODEL 8
REMARK VINA RESULT:      -7.1      0.748      1.383
REMARK SMILES CC(=O)c1ccc([NH2+]c2ccc3[nH]ccc3c2)c2c1CCC2
REMARK SMILES IDX 4 1 5 2 6 3 7 4 18 5 19 6 20 7 21 8 22 9 2 10 1 11 3 12 8 13
REMARK SMILES IDX 9 16 10 17 17 18 11 19 16 20 12 21 15 22 13 23 14 24
REMARK H PARENT 8 14 8 15 13 25
ROOT
ATOM      1  C   UNL     1      44.387 131.185  21.047  1.00  0.00     0.021 A 
ATOM      2  C   UNL     1      45.262 130.730  20.039  1.00  0.00     0.018 A 
ATOM      3  C   UNL     1      44.962 130.917  18.684  1.00  0.00     0.069 A 
ATOM      4  C   UNL     1      43.776 131.562  18.289  1.00  0.00     0.138 A 
ATOM      5  C   UNL     1      42.914 132.031  19.301  1.00  0.00     0.017 A 
ATOM      6  C   UNL     1      43.206 131.843  20.637  1.00  0.00    -0.028 A 
ATOM      7  C   UNL     1      42.156 132.439  21.508  1.00  0.00     0.037 C 
ATOM      8  C   UNL     1      41.193 133.138  20.539  1.00  0.00     0.010 C 
ATOM      9  C   UNL     1      41.646 132.786  19.116  1.00  0.00     0.042 C 
ENDROOT
BRANCH   1  10
ATOM     10  C   UNL     1      44.717 130.976  22.485  1.00  0.00     0.160 C 
ATOM     11  C   UNL     1      44.577 129.633  23.135  1.00  0.00     0.093 C 
ATOM     12  O   UNL     1      45.090 131.946  23.199  1.00  0.00    -0.295 OA
ENDBRANCH   1  10
BRANCH   4  13
ATOM     13  N   UNL     1      43.474 131.729  16.886  1.00  0.00    -0.281 N 
ATOM     14  H   UNL     1      43.134 132.707  16.727  1.00  0.00     0.358 HD
ATOM     15  H   UNL     1      42.703 131.093  16.578  1.00  0.00     0.358 HD
BRANCH  13  16
ATOM     16  C   UNL     1      44.650 131.470  16.092  1.00  0.00     0.135 A 
ATOM     17  C   UNL     1      45.463 132.546  15.641  1.00  0.00     0.070 A 
ATOM     18  C   UNL     1      45.021 130.140  15.781  1.00  0.00     0.078 A 
ATOM     19  C   UNL     1      46.627 132.304  14.889  1.00  0.00     0.033 A 
ATOM     20  C   UNL     1      46.180 129.939  15.035  1.00  0.00     0.005 A 
ATOM     21  C   UNL     1      46.955 130.981  14.604  1.00  0.00     0.046 A 
ATOM     22  C   UNL     1      46.771 128.776  14.595  1.00  0.00     0.028 A 
ATOM     23  N   UNL     1      48.013 130.534  13.909  1.00  0.00    -0.361 N 
ATOM     24  C   UNL     1      47.906 129.186  13.900  1.00  0.00     0.083 A 
ATOM     25  H   UNL     1      48.765 131.105  13.465  1.00  0.00     0.166 HD
ENDBRANCH  13  16
ENDBRANCH   4  13
TORSDOF 3
ENDMDL
MODEL 9
REMARK VINA RESULT:      -7.0      3.206      7.001
REMARK SMILES CC(=O)c1ccc([NH2+]c2ccc3[nH]ccc3c2)c2c1CCC2
REMARK SMILES IDX 4 1 5 2 6 3 7 4 18 5 19 6 20 7 21 8 22 9 2 10 1 11 3 12 8 13
REMARK SMILES IDX 9 16 10 17 17 18 11 19 16 20 12 21 15 22 13 23 14 24
REMARK H PARENT 8 14 8 15 13 25
ROOT
ATOM      1  C   UNL     1      44.796 131.043  16.993  1.00  0.00     0.021 A 
ATOM      2  C   UNL     1      46.000 130.633  17.602  1.00  0.00     0.018 A 
ATOM      3  C   UNL     1      46.177 130.734  18.987  1.00  0.00     0.069 A 
ATOM      4  C   UNL     1      45.159 131.250  19.811  1.00  0.00     0.138 A 
ATOM      5  C   UNL     1      43.952 131.641  19.198  1.00  0.00     0.017 A 
ATOM      6  C   UNL     1      43.778 131.547  17.832  1.00  0.00    -0.028 A 
ATOM      7  C   UNL     1      42.419 132.004  17.429  1.00  0.00     0.037 C 
ATOM      8  C   UNL     1      41.699 132.304  18.750  1.00  0.00     0.010 C 
ATOM      9  C   UNL     1      42.731 132.155  19.875  1.00  0.00     0.042 C 
ENDROOT
BRANCH   1  10
ATOM     10  C   UNL     1      44.622 130.934  15.516  1.00  0.00     0.160 C 
ATOM     11  C   UNL     1      43.662 131.814  14.772  1.00  0.00     0.093 C 
ATOM     12  O   UNL     1      45.259 130.065  14.863  1.00  0.00    -0.295 OA
ENDBRANCH   1  10
BRANCH   4  13
ATOM     13  N   UNL     1      45.368 131.364  21.236  1.00  0.00    -0.281 N 
ATOM     14  H   UNL     1      44.896 132.234  21.579  1.00  0.00     0.358 HD
ATOM     15  H   UNL     1      46.382 131.462  21.473  1.00  0.00     0.358 HD
BRANCH  13  16
ATOM     16  C   UNL     1      44.834 130.205  21.910  1.00  0.00     0.135 A 
ATOM     17  C   UNL     1      45.459 128.936  21.760  1.00  0.00     0.070 A 
ATOM     18  C   UNL     1      43.703 130.327  22.750  1.00  0.00     0.078 A 
ATOM     19  C   UNL     1      44.964 127.805  22.433  1.00  0.00     0.033 A 
ATOM     20  C   UNL     1      43.241 129.186  23.401  1.00  0.00     0.005 A 
ATOM     21  C   UNL     1      43.848 127.969  23.248  1.00  0.00     0.046 A 
ATOM     22  C   UNL     1      42.181 129.013  24.262  1.00  0.00     0.028 A 
ATOM     23  N   UNL     1      43.222 127.029  23.975  1.00  0.00    -0.361 N 
ATOM     24  C   UNL     1      42.201 127.662  24.597  1.00  0.00     0.083 A 
ATOM     25  H   UNL     1      43.469 126.017  24.047  1.00  0.00     0.166 HD
ENDBRANCH  13  16
ENDBRANCH   4  13
TORSDOF 3
ENDMDL


