REMARK SMILES CC(=O)c1ccc(-c2ccc(OC(=O)C(=O)[C@@H](F)[C@@H](O)C(C)C)cc2)c2cn[nH]c12
REMARK SMILES IDX 13 1 14 2 12 3 11 4 8 5 9 6 25 7 10 8 24 9 7 10 4 11 5 12
REMARK SMILES IDX 30 13 6 14 29 15 26 16 28 17 27 18 2 20 1 21 3 22 15 23
REMARK SMILES IDX 16 24 17 25 18 26 19 27 20 28 21 30 22 31 23 32
REMARK H PARENT 29 19 20 29
ROOT
ATOM      1  C   UNL     1      -0.814   2.644   1.395  1.00  0.00     0.383 C 
ATOM      2  O   UNL     1      -0.559   1.927   2.401  1.00  0.00    -0.242 OA
ENDROOT
BRANCH   1   3
ATOM      3  O   UNL     1      -0.399   2.257   0.114  1.00  0.00    -0.421 OA
BRANCH   3   4
ATOM      4  C   UNL     1       0.573   1.285  -0.165  1.00  0.00     0.131 A 
ATOM      5  C   UNL     1       2.504  -0.660  -0.829  1.00  0.00    -0.017 A 
ATOM      6  C   UNL     1       1.433  -0.391  -1.698  1.00  0.00     0.012 A 
ATOM      7  C   UNL     1       2.600   0.053   0.376  1.00  0.00     0.012 A 
ATOM      8  C   UNL     1       0.484   0.580  -1.371  1.00  0.00     0.048 A 
ATOM      9  C   UNL     1       1.649   1.024   0.703  1.00  0.00     0.048 A 
BRANCH   5  10
ATOM     10  C   UNL     1       3.508  -1.696  -1.165  1.00  0.00    -0.007 A 
ATOM     11  C   UNL     1       5.435  -3.718  -1.811  1.00  0.00     0.043 A 
ATOM     12  C   UNL     1       4.803  -3.687  -0.545  1.00  0.00     0.015 A 
ATOM     13  C   UNL     1       5.068  -2.712  -2.724  1.00  0.00     0.076 A 
ATOM     14  C   UNL     1       3.859  -2.688  -0.226  1.00  0.00     0.010 A 
ATOM     15  N   UNL     1       5.499  -2.511  -3.984  1.00  0.00    -0.277 N 
ATOM     16  C   UNL     1       4.146  -1.747  -2.410  1.00  0.00     0.028 A 
ATOM     17  N   UNL     1       4.895  -1.435  -4.474  1.00  0.00    -0.183 NA
ATOM     18  C   UNL     1       4.064  -0.941  -3.529  1.00  0.00     0.144 A 
ATOM     19  H   UNL     1       6.180  -3.084  -4.527  1.00  0.00     0.190 HD
BRANCH  11  20
ATOM     20  C   UNL     1       6.451  -4.755  -2.126  1.00  0.00     0.161 C 
ATOM     21  C   UNL     1       6.461  -6.076  -1.418  1.00  0.00     0.093 C 
ATOM     22  O   UNL     1       7.363  -4.515  -2.962  1.00  0.00    -0.294 OA
ENDBRANCH  11  20
ENDBRANCH   5  10
ENDBRANCH   3   4
ENDBRANCH   1   3
BRANCH   1  23
ATOM     23  C   UNL     1      -1.609   3.873   1.550  1.00  0.00     0.277 C 
ATOM     24  O   UNL     1      -1.875   4.564   0.530  1.00  0.00    -0.283 OA
BRANCH  23  25
ATOM     25  C   UNL     1      -2.138   4.301   2.895  1.00  0.00     0.274 C 
ATOM     26  F   UNL     1      -2.394   5.663   2.898  1.00  0.00    -0.235 F 
BRANCH  25  27
ATOM     27  C   UNL     1      -3.392   3.505   3.324  1.00  0.00     0.159 C 
BRANCH  27  28
ATOM     28  O   UNL     1      -3.835   4.004   4.562  1.00  0.00    -0.389 OA
ATOM     29  H   UNL     1      -4.198   3.237   5.078  1.00  0.00     0.211 HD
ENDBRANCH  27  28
BRANCH  27  30
ATOM     30  C   UNL     1      -4.554   3.515   2.286  1.00  0.00     0.015 C 
ATOM     31  C   UNL     1      -5.159   4.911   2.069  1.00  0.00     0.010 C 
ATOM     32  C   UNL     1      -5.657   2.529   2.700  1.00  0.00     0.010 C 
ENDBRANCH  27  30
ENDBRANCH  25  27
ENDBRANCH  23  25
ENDBRANCH   1  23
TORSDOF 9


