MODEL 1
REMARK VINA RESULT:     -10.1      0.000      0.000
REMARK SMILES C=Cc1ccc(O)c(-c2ccc3[nH]ccc3c2)c1
REMARK SMILES IDX 3 1 4 2 5 3 6 4 8 5 18 6 2 7 1 8 9 9 10 10 17 11 11 12 16 13
REMARK SMILES IDX 12 14 15 15 13 16 14 17 7 19
REMARK H PARENT 13 18 7 20
ROOT
ATOM      1  C   UNL     1      46.381 130.385  15.043  1.00  0.00    -0.025 A 
ATOM      2  C   UNL     1      45.358 130.897  14.231  1.00  0.00     0.012 A 
ATOM      3  C   UNL     1      44.220 131.472  14.798  1.00  0.00     0.047 A 
ATOM      4  C   UNL     1      44.077 131.538  16.189  1.00  0.00     0.123 A 
ATOM      5  C   UNL     1      45.080 131.004  17.023  1.00  0.00     0.024 A 
ATOM      6  C   UNL     1      46.227 130.434  16.442  1.00  0.00     0.020 A 
ENDROOT
BRANCH   1   7
ATOM      7  C   UNL     1      47.568 129.781  14.390  1.00  0.00     0.000 C 
ATOM      8  C   UNL     1      48.080 130.200  13.232  1.00  0.00     0.009 C 
ENDBRANCH   1   7
BRANCH   5   9
ATOM      9  C   UNL     1      44.944 131.034  18.499  1.00  0.00    -0.014 A 
ATOM     10  C   UNL     1      45.953 130.460  19.319  1.00  0.00     0.011 A 
ATOM     11  C   UNL     1      43.802 131.611  19.101  1.00  0.00     0.019 A 
ATOM     12  C   UNL     1      45.834 130.471  20.719  1.00  0.00     0.027 A 
ATOM     13  C   UNL     1      43.718 131.603  20.491  1.00  0.00    -0.000 A 
ATOM     14  C   UNL     1      44.698 131.054  21.273  1.00  0.00     0.045 A 
ATOM     15  C   UNL     1      42.739 132.084  21.334  1.00  0.00     0.028 A 
ATOM     16  N   UNL     1      44.388 131.165  22.575  1.00  0.00    -0.361 N 
ATOM     17  C   UNL     1      43.190 131.794  22.618  1.00  0.00     0.083 A 
ATOM     18  H   UNL     1      44.950 130.834  23.390  1.00  0.00     0.166 HD
ENDBRANCH   5   9
BRANCH   4  19
ATOM     19  O   UNL     1      42.950 132.148  16.741  1.00  0.00    -0.507 OA
ATOM     20  H   UNL     1      42.823 132.223  17.744  1.00  0.00     0.293 HD
ENDBRANCH   4  19
TORSDOF 3
ENDMDL
MODEL 2
REMARK VINA RESULT:      -9.1      2.544      6.369
REMARK SMILES C=Cc1ccc(O)c(-c2ccc3[nH]ccc3c2)c1
REMARK SMILES IDX 3 1 4 2 5 3 6 4 8 5 18 6 2 7 1 8 9 9 10 10 17 11 11 12 16 13
REMARK SMILES IDX 12 14 15 15 13 16 14 17 7 19
REMARK H PARENT 13 18 7 20
ROOT
ATOM      1  C   UNL     1      44.365 131.132  20.403  1.00  0.00    -0.025 A 
ATOM      2  C   UNL     1      43.046 131.599  20.312  1.00  0.00     0.012 A 
ATOM      3  C   UNL     1      42.495 131.937  19.075  1.00  0.00     0.047 A 
ATOM      4  C   UNL     1      43.256 131.825  17.905  1.00  0.00     0.123 A 
ATOM      5  C   UNL     1      44.593 131.386  17.978  1.00  0.00     0.024 A 
ATOM      6  C   UNL     1      45.137 131.039  19.228  1.00  0.00     0.020 A 
ENDROOT
BRANCH   1   7
ATOM      7  C   UNL     1      44.904 130.790  21.742  1.00  0.00     0.000 C 
ATOM      8  C   UNL     1      44.457 131.311  22.885  1.00  0.00     0.009 C 
ENDBRANCH   1   7
BRANCH   5   9
ATOM      9  C   UNL     1      45.433 131.283  16.760  1.00  0.00    -0.014 A 
ATOM     10  C   UNL     1      45.625 132.420  15.930  1.00  0.00     0.011 A 
ATOM     11  C   UNL     1      46.029 130.051  16.403  1.00  0.00     0.019 A 
ATOM     12  C   UNL     1      46.409 132.337  14.767  1.00  0.00     0.027 A 
ATOM     13  C   UNL     1      46.799 130.006  15.244  1.00  0.00    -0.000 A 
ATOM     14  C   UNL     1      46.984 131.108  14.454  1.00  0.00     0.045 A 
ATOM     15  C   UNL     1      47.484 128.962  14.662  1.00  0.00     0.028 A 
ATOM     16  N   UNL     1      47.758 130.813  13.397  1.00  0.00    -0.361 N 
ATOM     17  C   UNL     1      48.067 129.501  13.519  1.00  0.00     0.083 A 
ATOM     18  H   UNL     1      48.059 131.458  12.634  1.00  0.00     0.166 HD
ENDBRANCH   5   9
BRANCH   4  19
ATOM     19  O   UNL     1      42.680 132.134  16.672  1.00  0.00    -0.507 OA
ATOM     20  H   UNL     1      42.921 131.624  15.830  1.00  0.00     0.293 HD
ENDBRANCH   4  19
TORSDOF 3
ENDMDL
MODEL 3
REMARK VINA RESULT:      -9.0      2.522      6.316
REMARK SMILES C=Cc1ccc(O)c(-c2ccc3[nH]ccc3c2)c1
REMARK SMILES IDX 3 1 4 2 5 3 6 4 8 5 18 6 2 7 1 8 9 9 10 10 17 11 11 12 16 13
REMARK SMILES IDX 12 14 15 15 13 16 14 17 7 19
REMARK H PARENT 13 18 7 20
ROOT
ATOM      1  C   UNL     1      44.321 131.474  20.490  1.00  0.00    -0.025 A 
ATOM      2  C   UNL     1      43.078 132.105  20.341  1.00  0.00     0.012 A 
ATOM      3  C   UNL     1      42.520 132.289  19.075  1.00  0.00     0.047 A 
ATOM      4  C   UNL     1      43.200 131.854  17.931  1.00  0.00     0.123 A 
ATOM      5  C   UNL     1      44.463 131.242  18.056  1.00  0.00     0.024 A 
ATOM      6  C   UNL     1      45.014 131.054  19.337  1.00  0.00     0.020 A 
ENDROOT
BRANCH   1   7
ATOM      7  C   UNL     1      44.872 131.306  21.857  1.00  0.00     0.000 C 
ATOM      8  C   UNL     1      44.154 131.437  22.974  1.00  0.00     0.009 C 
ENDBRANCH   1   7
BRANCH   5   9
ATOM      9  C   UNL     1      45.220 130.796  16.861  1.00  0.00    -0.014 A 
ATOM     10  C   UNL     1      45.336 129.411  16.568  1.00  0.00     0.011 A 
ATOM     11  C   UNL     1      45.850 131.742  16.019  1.00  0.00     0.019 A 
ATOM     12  C   UNL     1      46.059 128.972  15.445  1.00  0.00     0.027 A 
ATOM     13  C   UNL     1      46.557 131.270  14.916  1.00  0.00    -0.000 A 
ATOM     14  C   UNL     1      46.658 129.934  14.638  1.00  0.00     0.045 A 
ATOM     15  C   UNL     1      47.258 131.948  13.943  1.00  0.00     0.028 A 
ATOM     16  N   UNL     1      47.390 129.731  13.530  1.00  0.00    -0.361 N 
ATOM     17  C   UNL     1      47.760 130.960  13.101  1.00  0.00     0.083 A 
ATOM     18  H   UNL     1      47.630 128.816  13.089  1.00  0.00     0.166 HD
ENDBRANCH   5   9
BRANCH   4  19
ATOM     19  O   UNL     1      42.613 132.013  16.675  1.00  0.00    -0.507 OA
ATOM     20  H   UNL     1      43.131 132.394  15.891  1.00  0.00     0.293 HD
ENDBRANCH   4  19
TORSDOF 3
ENDMDL
MODEL 4
REMARK VINA RESULT:      -9.0      2.376      6.327
REMARK SMILES C=Cc1ccc(O)c(-c2ccc3[nH]ccc3c2)c1
REMARK SMILES IDX 3 1 4 2 5 3 6 4 8 5 18 6 2 7 1 8 9 9 10 10 17 11 11 12 16 13
REMARK SMILES IDX 12 14 15 15 13 16 14 17 7 19
REMARK H PARENT 13 18 7 20
ROOT
ATOM      1  C   UNL     1      43.836 131.420  21.114  1.00  0.00    -0.025 A 
ATOM      2  C   UNL     1      42.632 132.127  21.244  1.00  0.00     0.012 A 
ATOM      3  C   UNL     1      41.946 132.578  20.115  1.00  0.00     0.047 A 
ATOM      4  C   UNL     1      42.457 132.340  18.833  1.00  0.00     0.123 A 
ATOM      5  C   UNL     1      43.680 131.656  18.682  1.00  0.00     0.024 A 
ATOM      6  C   UNL     1      44.360 131.198  19.825  1.00  0.00     0.020 A 
ENDROOT
BRANCH   1   7
ATOM      7  C   UNL     1      44.527 130.966  22.346  1.00  0.00     0.000 C 
ATOM      8  C   UNL     1      44.233 129.840  22.998  1.00  0.00     0.009 C 
ENDBRANCH   1   7
BRANCH   5   9
ATOM      9  C   UNL     1      44.260 131.414  17.339  1.00  0.00    -0.014 A 
ATOM     10  C   UNL     1      43.556 131.823  16.174  1.00  0.00     0.011 A 
ATOM     11  C   UNL     1      45.505 130.754  17.205  1.00  0.00     0.019 A 
ATOM     12  C   UNL     1      44.088 131.590  14.894  1.00  0.00     0.027 A 
ATOM     13  C   UNL     1      46.000 130.542  15.922  1.00  0.00    -0.000 A 
ATOM     14  C   UNL     1      45.318 130.944  14.805  1.00  0.00     0.045 A 
ATOM     15  C   UNL     1      47.163 129.935  15.497  1.00  0.00     0.028 A 
ATOM     16  N   UNL     1      45.995 130.624  13.691  1.00  0.00    -0.361 N 
ATOM     17  C   UNL     1      47.125 130.006  14.109  1.00  0.00     0.083 A 
ATOM     18  H   UNL     1      45.712 130.809  12.703  1.00  0.00     0.166 HD
ENDBRANCH   5   9
BRANCH   4  19
ATOM     19  O   UNL     1      41.743 132.766  17.713  1.00  0.00    -0.507 OA
ATOM     20  H   UNL     1      42.200 133.226  16.934  1.00  0.00     0.293 HD
ENDBRANCH   4  19
TORSDOF 3
ENDMDL
MODEL 5
REMARK VINA RESULT:      -8.9      0.896      1.668
REMARK SMILES C=Cc1ccc(O)c(-c2ccc3[nH]ccc3c2)c1
REMARK SMILES IDX 3 1 4 2 5 3 6 4 8 5 18 6 2 7 1 8 9 9 10 10 17 11 11 12 16 13
REMARK SMILES IDX 12 14 15 15 13 16 14 17 7 19
REMARK H PARENT 13 18 7 20
ROOT
ATOM      1  C   UNL     1      46.591 130.208  14.893  1.00  0.00    -0.025 A 
ATOM      2  C   UNL     1      45.843 130.693  13.811  1.00  0.00     0.012 A 
ATOM      3  C   UNL     1      44.648 131.382  14.024  1.00  0.00     0.047 A 
ATOM      4  C   UNL     1      44.171 131.589  15.325  1.00  0.00     0.123 A 
ATOM      5  C   UNL     1      44.893 131.084  16.425  1.00  0.00     0.024 A 
ATOM      6  C   UNL     1      46.101 130.399  16.200  1.00  0.00     0.020 A 
ENDROOT
BRANCH   1   7
ATOM      7  C   UNL     1      47.853 129.480  14.612  1.00  0.00     0.000 C 
ATOM      8  C   UNL     1      48.484 129.502  13.437  1.00  0.00     0.009 C 
ENDBRANCH   1   7
BRANCH   5   9
ATOM      9  C   UNL     1      44.400 131.262  17.811  1.00  0.00    -0.014 A 
ATOM     10  C   UNL     1      43.081 131.737  18.042  1.00  0.00     0.011 A 
ATOM     11  C   UNL     1      45.244 130.985  18.913  1.00  0.00     0.019 A 
ATOM     12  C   UNL     1      42.602 131.922  19.351  1.00  0.00     0.027 A 
ATOM     13  C   UNL     1      44.735 131.179  20.194  1.00  0.00    -0.000 A 
ATOM     14  C   UNL     1      43.461 131.631  20.408  1.00  0.00     0.045 A 
ATOM     15  C   UNL     1      45.319 130.996  21.429  1.00  0.00     0.028 A 
ATOM     16  N   UNL     1      43.207 131.741  21.722  1.00  0.00    -0.361 N 
ATOM     17  C   UNL     1      44.341 131.354  22.351  1.00  0.00     0.083 A 
ATOM     18  H   UNL     1      42.321 132.062  22.170  1.00  0.00     0.166 HD
ENDBRANCH   5   9
BRANCH   4  19
ATOM     19  O   UNL     1      42.993 132.308  15.524  1.00  0.00    -0.507 OA
ATOM     20  H   UNL     1      42.255 131.965  16.128  1.00  0.00     0.293 HD
ENDBRANCH   4  19
TORSDOF 3
ENDMDL
MODEL 6
REMARK VINA RESULT:      -8.4      2.289      6.343
REMARK SMILES C=Cc1ccc(O)c(-c2ccc3[nH]ccc3c2)c1
REMARK SMILES IDX 3 1 4 2 5 3 6 4 8 5 18 6 2 7 1 8 9 9 10 10 17 11 11 12 16 13
REMARK SMILES IDX 12 14 15 15 13 16 14 17 7 19
REMARK H PARENT 13 18 7 20
ROOT
ATOM      1  C   UNL     1      43.264 131.648  21.977  1.00  0.00    -0.025 A 
ATOM      2  C   UNL     1      42.102 132.425  21.868  1.00  0.00     0.012 A 
ATOM      3  C   UNL     1      41.627 132.825  20.618  1.00  0.00     0.047 A 
ATOM      4  C   UNL     1      42.312 132.465  19.451  1.00  0.00     0.123 A 
ATOM      5  C   UNL     1      43.499 131.710  19.540  1.00  0.00     0.024 A 
ATOM      6  C   UNL     1      43.964 131.304  20.804  1.00  0.00     0.020 A 
ENDROOT
BRANCH   1   7
ATOM      7  C   UNL     1      43.728 131.252  23.329  1.00  0.00     0.000 C 
ATOM      8  C   UNL     1      44.132 132.113  24.264  1.00  0.00     0.009 C 
ENDBRANCH   1   7
BRANCH   5   9
ATOM      9  C   UNL     1      44.262 131.337  18.324  1.00  0.00    -0.014 A 
ATOM     10  C   UNL     1      45.494 130.640  18.443  1.00  0.00     0.011 A 
ATOM     11  C   UNL     1      43.782 131.692  17.041  1.00  0.00     0.019 A 
ATOM     12  C   UNL     1      46.235 130.289  17.300  1.00  0.00     0.027 A 
ATOM     13  C   UNL     1      44.542 131.328  15.933  1.00  0.00    -0.000 A 
ATOM     14  C   UNL     1      45.726 130.651  16.056  1.00  0.00     0.045 A 
ATOM     15  C   UNL     1      44.326 131.538  14.589  1.00  0.00     0.028 A 
ATOM     16  N   UNL     1      46.270 130.419  14.851  1.00  0.00    -0.361 N 
ATOM     17  C   UNL     1      45.419 130.960  13.949  1.00  0.00     0.083 A 
ATOM     18  H   UNL     1      47.168 129.926  14.647  1.00  0.00     0.166 HD
ENDBRANCH   5   9
BRANCH   4  19
ATOM     19  O   UNL     1      41.807 132.843  18.207  1.00  0.00    -0.507 OA
ATOM     20  H   UNL     1      42.384 132.836  17.374  1.00  0.00     0.293 HD
ENDBRANCH   4  19
TORSDOF 3
ENDMDL
MODEL 7
REMARK VINA RESULT:      -8.3      2.765      6.638
REMARK SMILES C=Cc1ccc(O)c(-c2ccc3[nH]ccc3c2)c1
REMARK SMILES IDX 3 1 4 2 5 3 6 4 8 5 18 6 2 7 1 8 9 9 10 10 17 11 11 12 16 13
REMARK SMILES IDX 12 14 15 15 13 16 14 17 7 19
REMARK H PARENT 13 18 7 20
ROOT
ATOM      1  C   UNL     1      42.889 132.094  19.750  1.00  0.00    -0.025 A 
ATOM      2  C   UNL     1      43.480 131.552  20.901  1.00  0.00     0.012 A 
ATOM      3  C   UNL     1      44.734 130.943  20.838  1.00  0.00     0.047 A 
ATOM      4  C   UNL     1      45.418 130.853  19.619  1.00  0.00     0.123 A 
ATOM      5  C   UNL     1      44.829 131.365  18.445  1.00  0.00     0.024 A 
ATOM      6  C   UNL     1      43.569 131.985  18.521  1.00  0.00     0.020 A 
ENDROOT
BRANCH   1   7
ATOM      7  C   UNL     1      41.553 132.728  19.870  1.00  0.00     0.000 C 
ATOM      8  C   UNL     1      41.113 133.342  20.969  1.00  0.00     0.009 C 
ENDBRANCH   1   7
BRANCH   5   9
ATOM      9  C   UNL     1      45.516 131.259  17.136  1.00  0.00    -0.014 A 
ATOM     10  C   UNL     1      45.551 132.376  16.258  1.00  0.00     0.011 A 
ATOM     11  C   UNL     1      46.121 130.043  16.741  1.00  0.00     0.019 A 
ATOM     12  C   UNL     1      46.189 132.288  15.008  1.00  0.00     0.027 A 
ATOM     13  C   UNL     1      46.744 129.994  15.496  1.00  0.00    -0.000 A 
ATOM     14  C   UNL     1      46.778 131.076  14.659  1.00  0.00     0.045 A 
ATOM     15  C   UNL     1      47.401 128.962  14.862  1.00  0.00     0.028 A 
ATOM     16  N   UNL     1      47.428 130.780  13.523  1.00  0.00    -0.361 N 
ATOM     17  C   UNL     1      47.812 129.488  13.641  1.00  0.00     0.083 A 
ATOM     18  H   UNL     1      47.603 131.413  12.710  1.00  0.00     0.166 HD
ENDBRANCH   5   9
BRANCH   4  19
ATOM     19  O   UNL     1      46.686 130.272  19.578  1.00  0.00    -0.507 OA
ATOM     20  H   UNL     1      47.008 129.647  20.308  1.00  0.00     0.293 HD
ENDBRANCH   4  19
TORSDOF 3
ENDMDL
MODEL 8
REMARK VINA RESULT:      -8.2      2.801      6.571
REMARK SMILES C=Cc1ccc(O)c(-c2ccc3[nH]ccc3c2)c1
REMARK SMILES IDX 3 1 4 2 5 3 6 4 8 5 18 6 2 7 1 8 9 9 10 10 17 11 11 12 16 13
REMARK SMILES IDX 12 14 15 15 13 16 14 17 7 19
REMARK H PARENT 13 18 7 20
ROOT
ATOM      1  C   UNL     1      42.877 132.216  19.709  1.00  0.00    -0.025 A 
ATOM      2  C   UNL     1      43.549 131.921  20.904  1.00  0.00     0.012 A 
ATOM      3  C   UNL     1      44.792 131.287  20.885  1.00  0.00     0.047 A 
ATOM      4  C   UNL     1      45.384 130.925  19.668  1.00  0.00     0.123 A 
ATOM      5  C   UNL     1      44.713 131.185  18.457  1.00  0.00     0.024 A 
ATOM      6  C   UNL     1      43.464 131.833  18.486  1.00  0.00     0.020 A 
ENDROOT
BRANCH   1   7
ATOM      7  C   UNL     1      41.557 132.888  19.785  1.00  0.00     0.000 C 
ATOM      8  C   UNL     1      41.065 133.447  20.891  1.00  0.00     0.009 C 
ENDBRANCH   1   7
BRANCH   5   9
ATOM      9  C   UNL     1      45.301 130.788  17.155  1.00  0.00    -0.014 A 
ATOM     10  C   UNL     1      45.262 129.430  16.741  1.00  0.00     0.011 A 
ATOM     11  C   UNL     1      45.924 131.752  16.328  1.00  0.00     0.019 A 
ATOM     12  C   UNL     1      45.825 129.036  15.514  1.00  0.00     0.027 A 
ATOM     13  C   UNL     1      46.470 131.325  15.120  1.00  0.00    -0.000 A 
ATOM     14  C   UNL     1      46.423 130.015  14.726  1.00  0.00     0.045 A 
ATOM     15  C   UNL     1      47.128 132.028  14.134  1.00  0.00     0.028 A 
ATOM     16  N   UNL     1      47.018 129.854  13.533  1.00  0.00    -0.361 N 
ATOM     17  C   UNL     1      47.451 131.083  13.166  1.00  0.00     0.083 A 
ATOM     18  H   UNL     1      47.128 128.965  12.996  1.00  0.00     0.166 HD
ENDBRANCH   5   9
BRANCH   4  19
ATOM     19  O   UNL     1      46.643 130.323  19.663  1.00  0.00    -0.507 OA
ATOM     20  H   UNL     1      47.357 130.579  20.335  1.00  0.00     0.293 HD
ENDBRANCH   4  19
TORSDOF 3
ENDMDL
MODEL 9
REMARK VINA RESULT:      -7.4      1.778      2.966
REMARK SMILES C=Cc1ccc(O)c(-c2ccc3[nH]ccc3c2)c1
REMARK SMILES IDX 3 1 4 2 5 3 6 4 8 5 18 6 2 7 1 8 9 9 10 10 17 11 11 12 16 13
REMARK SMILES IDX 12 14 15 15 13 16 14 17 7 19
REMARK H PARENT 13 18 7 20
ROOT
ATOM      1  C   UNL     1      44.743 131.198  15.483  1.00  0.00    -0.025 A 
ATOM      2  C   UNL     1      45.973 130.535  15.608  1.00  0.00     0.012 A 
ATOM      3  C   UNL     1      46.467 130.183  16.865  1.00  0.00     0.047 A 
ATOM      4  C   UNL     1      45.746 130.497  18.024  1.00  0.00     0.123 A 
ATOM      5  C   UNL     1      44.522 131.188  17.922  1.00  0.00     0.024 A 
ATOM      6  C   UNL     1      44.028 131.531  16.650  1.00  0.00     0.020 A 
ENDROOT
BRANCH   1   7
ATOM      7  C   UNL     1      44.264 131.552  14.124  1.00  0.00     0.000 C 
ATOM      8  C   UNL     1      42.979 131.695  13.797  1.00  0.00     0.009 C 
ENDBRANCH   1   7
BRANCH   5   9
ATOM      9  C   UNL     1      43.749 131.559  19.132  1.00  0.00    -0.014 A 
ATOM     10  C   UNL     1      42.560 132.327  19.010  1.00  0.00     0.011 A 
ATOM     11  C   UNL     1      44.201 131.173  20.416  1.00  0.00     0.019 A 
ATOM     12  C   UNL     1      41.822 132.695  20.149  1.00  0.00     0.027 A 
ATOM     13  C   UNL     1      43.444 131.556  21.520  1.00  0.00    -0.000 A 
ATOM     14  C   UNL     1      42.296 132.290  21.393  1.00  0.00     0.045 A 
ATOM     15  C   UNL     1      43.640 131.327  22.865  1.00  0.00     0.028 A 
ATOM     16  N   UNL     1      41.751 132.536  22.595  1.00  0.00    -0.361 N 
ATOM     17  C   UNL     1      42.570 131.950  23.500  1.00  0.00     0.083 A 
ATOM     18  H   UNL     1      40.878 133.072  22.796  1.00  0.00     0.166 HD
ENDBRANCH   5   9
BRANCH   4  19
ATOM     19  O   UNL     1      46.236 130.108  19.271  1.00  0.00    -0.507 OA
ATOM     20  H   UNL     1      47.143 129.668  19.372  1.00  0.00     0.293 HD
ENDBRANCH   4  19
TORSDOF 3
ENDMDL


