MODEL 1
REMARK VINA RESULT:      -4.8      0.000      0.000
REMARK SMILES Cc1c(Br)cccc1N/C(S)=[N+]1\CCC[C@H](c2ccc3cc(F)ccc3n2)[C@@H]1F
REMARK SMILES IDX 12 1 13 2 14 3 15 4 16 5 28 6 29 7 10 8 9 9 11 11 8 13 7 14
REMARK SMILES IDX 2 15 6 16 3 17 5 18 1 19 4 20 17 21 27 22 18 23 26 24 19 25
REMARK SMILES IDX 25 26 20 27 24 28 21 29 22 30 23 31
REMARK H PARENT 9 10 11 12
ROOT
ATOM      1  N   UNL     1      44.280 130.360  22.284  1.00  0.00    -0.224 N 
ATOM      2  C   UNL     1      44.494 131.667  22.950  1.00  0.00     0.240 C 
ATOM      3  C   UNL     1      45.638 132.446  22.292  1.00  0.00     0.047 C 
ATOM      4  C   UNL     1      45.426 132.572  20.785  1.00  0.00     0.021 C 
ATOM      5  C   UNL     1      45.283 131.175  20.160  1.00  0.00     0.116 C 
ATOM      6  C   UNL     1      44.122 130.397  20.811  1.00  0.00     0.363 C 
ATOM      7  F   UNL     1      42.905 130.983  20.507  1.00  0.00    -0.196 F 
ENDROOT
BRANCH   1   8
ATOM      8  C   UNL     1      44.081 129.259  22.985  1.00  0.00     0.310 C 
ATOM      9  N   UNL     1      43.312 128.167  22.452  1.00  0.00    -0.235 N 
ATOM     10  H   UNL     1      43.525 127.842  21.482  1.00  0.00     0.313 HD
BRANCH   8  11
ATOM     11  S   UNL     1      44.808 129.009  24.620  1.00  0.00    -0.056 SA
ATOM     12  H   UNL     1      45.429 130.272  24.593  1.00  0.00     0.116 HD
ENDBRANCH   8  11
BRANCH   9  13
ATOM     13  C   UNL     1      42.338 127.450  23.232  1.00  0.00     0.129 A 
ATOM     14  C   UNL     1      41.171 128.110  23.656  1.00  0.00     0.052 A 
ATOM     15  C   UNL     1      42.510 126.076  23.533  1.00  0.00     0.010 A 
ATOM     16  C   UNL     1      40.180 127.423  24.354  1.00  0.00     0.006 A 
ATOM     17  C   UNL     1      41.477 125.382  24.210  1.00  0.00     0.025 A 
ATOM     18  C   UNL     1      40.329 126.065  24.622  1.00  0.00     0.016 A 
ATOM     19  C   UNL     1      43.766 125.355  23.105  1.00  0.00     0.050 C 
ATOM     20  Br  UNL     1      41.564 123.501  24.585  1.00  0.00    -0.050 Br
ENDBRANCH   9  13
ENDBRANCH   1   8
BRANCH   5  21
ATOM     21  C   UNL     1      45.151 131.234  18.653  1.00  0.00     0.051 A 
ATOM     22  N   UNL     1      46.162 130.736  17.887  1.00  0.00    -0.252 NA
ATOM     23  C   UNL     1      44.007 131.762  18.025  1.00  0.00     0.025 A 
ATOM     24  C   UNL     1      46.111 130.738  16.528  1.00  0.00     0.071 A 
ATOM     25  C   UNL     1      43.928 131.778  16.631  1.00  0.00     0.012 A 
ATOM     26  C   UNL     1      47.176 130.218  15.784  1.00  0.00     0.032 A 
ATOM     27  C   UNL     1      44.981 131.266  15.866  1.00  0.00     0.003 A 
ATOM     28  C   UNL     1      47.121 130.222  14.387  1.00  0.00     0.041 A 
ATOM     29  C   UNL     1      44.933 131.266  14.464  1.00  0.00     0.049 A 
ATOM     30  C   UNL     1      46.003 130.744  13.728  1.00  0.00     0.123 A 
ATOM     31  F   UNL     1      45.955 130.744  12.373  1.00  0.00    -0.207 F 
ENDBRANCH   5  21
TORSDOF 4
ENDMDL
MODEL 2
REMARK VINA RESULT:      -3.2      4.754      7.094
REMARK SMILES Cc1c(Br)cccc1N/C(S)=[N+]1\CCC[C@H](c2ccc3cc(F)ccc3n2)[C@@H]1F
REMARK SMILES IDX 12 1 13 2 14 3 15 4 16 5 28 6 29 7 10 8 9 9 11 11 8 13 7 14
REMARK SMILES IDX 2 15 6 16 3 17 5 18 1 19 4 20 17 21 27 22 18 23 26 24 19 25
REMARK SMILES IDX 25 26 20 27 24 28 21 29 22 30 23 31
REMARK H PARENT 9 10 11 12
ROOT
ATOM      1  N   UNL     1      45.560 132.454  21.966  1.00  0.00    -0.224 N 
ATOM      2  C   UNL     1      44.321 131.885  22.547  1.00  0.00     0.240 C 
ATOM      3  C   UNL     1      43.196 131.824  21.508  1.00  0.00     0.047 C 
ATOM      4  C   UNL     1      43.651 131.098  20.244  1.00  0.00     0.021 C 
ATOM      5  C   UNL     1      44.895 131.788  19.665  1.00  0.00     0.116 C 
ATOM      6  C   UNL     1      46.033 131.836  20.705  1.00  0.00     0.363 C 
ATOM      7  F   UNL     1      46.502 130.562  20.980  1.00  0.00    -0.196 F 
ENDROOT
BRANCH   1   8
ATOM      8  C   UNL     1      46.279 133.344  22.625  1.00  0.00     0.310 C 
ATOM      9  N   UNL     1      47.329 134.080  21.975  1.00  0.00    -0.235 N 
ATOM     10  H   UNL     1      47.122 134.522  21.051  1.00  0.00     0.313 HD
BRANCH   8  11
ATOM     11  S   UNL     1      45.958 133.756  24.356  1.00  0.00    -0.056 SA
ATOM     12  H   UNL     1      46.882 134.817  24.327  1.00  0.00     0.116 HD
ENDBRANCH   8  11
BRANCH   9  13
ATOM     13  C   UNL     1      48.610 134.311  22.590  1.00  0.00     0.129 A 
ATOM     14  C   UNL     1      49.089 133.402  23.551  1.00  0.00     0.052 A 
ATOM     15  C   UNL     1      49.420 135.407  22.202  1.00  0.00     0.010 A 
ATOM     16  C   UNL     1      50.354 133.563  24.111  1.00  0.00     0.006 A 
ATOM     17  C   UNL     1      50.718 135.536  22.754  1.00  0.00     0.025 A 
ATOM     18  C   UNL     1      51.167 134.618  23.709  1.00  0.00     0.016 A 
ATOM     19  C   UNL     1      48.915 136.405  21.188  1.00  0.00     0.050 C 
ATOM     20  Br  UNL     1      51.934 136.926  22.231  1.00  0.00    -0.050 Br
ENDBRANCH   9  13
ENDBRANCH   1   8
BRANCH   5  21
ATOM     21  C   UNL     1      45.345 131.160  18.363  1.00  0.00     0.051 A 
ATOM     22  N   UNL     1      45.656 131.974  17.316  1.00  0.00    -0.252 NA
ATOM     23  C   UNL     1      45.475 129.766  18.214  1.00  0.00     0.025 A 
ATOM     24  C   UNL     1      46.081 131.487  16.119  1.00  0.00     0.071 A 
ATOM     25  C   UNL     1      45.910 129.238  16.996  1.00  0.00     0.012 A 
ATOM     26  C   UNL     1      46.385 132.364  15.072  1.00  0.00     0.032 A 
ATOM     27  C   UNL     1      46.217 130.094  15.934  1.00  0.00     0.003 A 
ATOM     28  C   UNL     1      46.822 131.859  13.843  1.00  0.00     0.041 A 
ATOM     29  C   UNL     1      46.657 129.596  14.699  1.00  0.00     0.049 A 
ATOM     30  C   UNL     1      46.958 130.480  13.656  1.00  0.00     0.123 A 
ATOM     31  F   UNL     1      47.383 129.998  12.462  1.00  0.00    -0.207 F 
ENDBRANCH   5  21
TORSDOF 4
ENDMDL
MODEL 3
REMARK VINA RESULT:      -2.9      5.019      7.681
REMARK SMILES Cc1c(Br)cccc1N/C(S)=[N+]1\CCC[C@H](c2ccc3cc(F)ccc3n2)[C@@H]1F
REMARK SMILES IDX 12 1 13 2 14 3 15 4 16 5 28 6 29 7 10 8 9 9 11 11 8 13 7 14
REMARK SMILES IDX 2 15 6 16 3 17 5 18 1 19 4 20 17 21 27 22 18 23 26 24 19 25
REMARK SMILES IDX 25 26 20 27 24 28 21 29 22 30 23 31
REMARK H PARENT 9 10 11 12
ROOT
ATOM      1  N   UNL     1      46.007 124.989  23.265  1.00  0.00    -0.224 N 
ATOM      2  C   UNL     1      44.794 124.377  23.857  1.00  0.00     0.240 C 
ATOM      3  C   UNL     1      43.961 125.416  24.617  1.00  0.00     0.047 C 
ATOM      4  C   UNL     1      43.652 126.625  23.737  1.00  0.00     0.021 C 
ATOM      5  C   UNL     1      44.960 127.243  23.220  1.00  0.00     0.116 C 
ATOM      6  C   UNL     1      45.790 126.203  22.443  1.00  0.00     0.363 C 
ATOM      7  F   UNL     1      45.151 125.839  21.269  1.00  0.00    -0.196 F 
ENDROOT
BRANCH   1   8
ATOM      8  C   UNL     1      47.181 124.388  23.336  1.00  0.00     0.310 C 
ATOM      9  N   UNL     1      48.405 125.132  23.219  1.00  0.00    -0.235 N 
ATOM     10  H   UNL     1      48.507 126.005  23.785  1.00  0.00     0.313 HD
BRANCH   8  11
ATOM     11  S   UNL     1      47.342 122.616  23.653  1.00  0.00    -0.056 SA
ATOM     12  H   UNL     1      47.253 122.806  25.045  1.00  0.00     0.116 HD
ENDBRANCH   8  11
BRANCH   9  13
ATOM     13  C   UNL     1      49.521 124.672  22.435  1.00  0.00     0.129 A 
ATOM     14  C   UNL     1      49.314 123.696  21.445  1.00  0.00     0.052 A 
ATOM     15  C   UNL     1      50.814 125.227  22.608  1.00  0.00     0.010 A 
ATOM     16  C   UNL     1      50.362 123.281  20.626  1.00  0.00     0.006 A 
ATOM     17  C   UNL     1      51.860 124.822  21.743  1.00  0.00     0.025 A 
ATOM     18  C   UNL     1      51.625 123.847  20.769  1.00  0.00     0.016 A 
ATOM     19  C   UNL     1      51.061 126.261  23.680  1.00  0.00     0.050 C 
ATOM     20  Br  UNL     1      53.624 125.576  21.826  1.00  0.00    -0.050 Br
ENDBRANCH   9  13
ENDBRANCH   1   8
BRANCH   5  21
ATOM     21  C   UNL     1      44.718 128.496  22.406  1.00  0.00     0.051 A 
ATOM     22  N   UNL     1      43.648 129.281  22.713  1.00  0.00    -0.252 NA
ATOM     23  C   UNL     1      45.580 128.886  21.363  1.00  0.00     0.025 A 
ATOM     24  C   UNL     1      43.372 130.429  22.039  1.00  0.00     0.071 A 
ATOM     25  C   UNL     1      45.321 130.060  20.653  1.00  0.00     0.012 A 
ATOM     26  C   UNL     1      42.258 131.200  22.390  1.00  0.00     0.032 A 
ATOM     27  C   UNL     1      44.212 130.846  20.984  1.00  0.00     0.003 A 
ATOM     28  C   UNL     1      41.978 132.381  21.695  1.00  0.00     0.041 A 
ATOM     29  C   UNL     1      43.925 132.031  20.292  1.00  0.00     0.049 A 
ATOM     30  C   UNL     1      42.808 132.796  20.648  1.00  0.00     0.123 A 
ATOM     31  F   UNL     1      42.531 133.942  19.979  1.00  0.00    -0.207 F 
ENDBRANCH   5  21
TORSDOF 4
ENDMDL
MODEL 4
REMARK VINA RESULT:      -2.7      2.226      3.255
REMARK SMILES Cc1c(Br)cccc1N/C(S)=[N+]1\CCC[C@H](c2ccc3cc(F)ccc3n2)[C@@H]1F
REMARK SMILES IDX 12 1 13 2 14 3 15 4 16 5 28 6 29 7 10 8 9 9 11 11 8 13 7 14
REMARK SMILES IDX 2 15 6 16 3 17 5 18 1 19 4 20 17 21 27 22 18 23 26 24 19 25
REMARK SMILES IDX 25 26 20 27 24 28 21 29 22 30 23 31
REMARK H PARENT 9 10 11 12
ROOT
ATOM      1  N   UNL     1      42.341 129.067  23.594  1.00  0.00    -0.224 N 
ATOM      2  C   UNL     1      41.839 130.153  24.470  1.00  0.00     0.240 C 
ATOM      3  C   UNL     1      42.757 131.379  24.418  1.00  0.00     0.047 C 
ATOM      4  C   UNL     1      42.992 131.832  22.979  1.00  0.00     0.021 C 
ATOM      5  C   UNL     1      43.577 130.674  22.156  1.00  0.00     0.116 C 
ATOM      6  C   UNL     1      42.646 129.445  22.195  1.00  0.00     0.363 C 
ATOM      7  F   UNL     1      41.457 129.708  21.534  1.00  0.00    -0.196 F 
ENDROOT
BRANCH   1   8
ATOM      8  C   UNL     1      42.355 127.811  24.002  1.00  0.00     0.310 C 
ATOM      9  N   UNL     1      43.560 127.205  24.502  1.00  0.00    -0.235 N 
ATOM     10  H   UNL     1      44.119 127.732  25.211  1.00  0.00     0.313 HD
BRANCH   8  11
ATOM     11  S   UNL     1      40.866 126.787  24.032  1.00  0.00    -0.056 SA
ATOM     12  H   UNL     1      41.575 125.681  24.537  1.00  0.00     0.116 HD
ENDBRANCH   8  11
BRANCH   9  13
ATOM     13  C   UNL     1      43.966 125.873  24.139  1.00  0.00     0.129 A 
ATOM     14  C   UNL     1      42.998 124.947  23.713  1.00  0.00     0.052 A 
ATOM     15  C   UNL     1      45.333 125.497  24.151  1.00  0.00     0.010 A 
ATOM     16  C   UNL     1      43.371 123.673  23.291  1.00  0.00     0.006 A 
ATOM     17  C   UNL     1      45.700 124.211  23.684  1.00  0.00     0.025 A 
ATOM     18  C   UNL     1      44.714 123.310  23.268  1.00  0.00     0.016 A 
ATOM     19  C   UNL     1      46.385 126.470  24.625  1.00  0.00     0.050 C 
ATOM     20  Br  UNL     1      47.527 123.632  23.567  1.00  0.00    -0.050 Br
ENDBRANCH   9  13
ENDBRANCH   1   8
BRANCH   5  21
ATOM     21  C   UNL     1      43.907 131.089  20.738  1.00  0.00     0.051 A 
ATOM     22  N   UNL     1      44.831 130.368  20.043  1.00  0.00    -0.252 NA
ATOM     23  C   UNL     1      43.271 132.177  20.112  1.00  0.00     0.025 A 
ATOM     24  C   UNL     1      45.171 130.668  18.761  1.00  0.00     0.071 A 
ATOM     25  C   UNL     1      43.600 132.509  18.796  1.00  0.00     0.012 A 
ATOM     26  C   UNL     1      46.129 129.900  18.089  1.00  0.00     0.032 A 
ATOM     27  C   UNL     1      44.556 131.757  18.106  1.00  0.00     0.003 A 
ATOM     28  C   UNL     1      46.475 130.212  16.771  1.00  0.00     0.041 A 
ATOM     29  C   UNL     1      44.909 132.063  16.783  1.00  0.00     0.049 A 
ATOM     30  C   UNL     1      45.868 131.290  16.119  1.00  0.00     0.123 A 
ATOM     31  F   UNL     1      46.209 131.586  14.840  1.00  0.00    -0.207 F 
ENDBRANCH   5  21
TORSDOF 4
ENDMDL
MODEL 5
REMARK VINA RESULT:      -2.6      4.547      5.918
REMARK SMILES Cc1c(Br)cccc1N/C(S)=[N+]1\CCC[C@H](c2ccc3cc(F)ccc3n2)[C@@H]1F
REMARK SMILES IDX 12 1 13 2 14 3 15 4 16 5 28 6 29 7 10 8 9 9 11 11 8 13 7 14
REMARK SMILES IDX 2 15 6 16 3 17 5 18 1 19 4 20 17 21 27 22 18 23 26 24 19 25
REMARK SMILES IDX 25 26 20 27 24 28 21 29 22 30 23 31
REMARK H PARENT 9 10 11 12
ROOT
ATOM      1  N   UNL     1      45.743 126.620  22.789  1.00  0.00    -0.224 N 
ATOM      2  C   UNL     1      44.853 126.853  23.950  1.00  0.00     0.240 C 
ATOM      3  C   UNL     1      44.781 128.342  24.307  1.00  0.00     0.047 C 
ATOM      4  C   UNL     1      44.407 129.183  23.089  1.00  0.00     0.021 C 
ATOM      5  C   UNL     1      45.415 128.939  21.956  1.00  0.00     0.116 C 
ATOM      6  C   UNL     1      45.476 127.443  21.586  1.00  0.00     0.363 C 
ATOM      7  F   UNL     1      44.284 127.028  21.016  1.00  0.00    -0.196 F 
ENDROOT
BRANCH   1   8
ATOM      8  C   UNL     1      46.611 125.624  22.780  1.00  0.00     0.310 C 
ATOM      9  N   UNL     1      47.952 125.803  23.267  1.00  0.00    -0.235 N 
ATOM     10  H   UNL     1      48.083 126.275  24.190  1.00  0.00     0.313 HD
BRANCH   8  11
ATOM     11  S   UNL     1      46.168 123.960  22.231  1.00  0.00    -0.056 SA
ATOM     12  H   UNL     1      46.843 124.129  21.008  1.00  0.00     0.116 HD
ENDBRANCH   8  11
BRANCH   9  13
ATOM     13  C   UNL     1      49.103 125.273  22.583  1.00  0.00     0.129 A 
ATOM     14  C   UNL     1      48.962 124.781  21.273  1.00  0.00     0.052 A 
ATOM     15  C   UNL     1      50.384 125.290  23.188  1.00  0.00     0.010 A 
ATOM     16  C   UNL     1      50.070 124.326  20.562  1.00  0.00     0.006 A 
ATOM     17  C   UNL     1      51.507 124.858  22.438  1.00  0.00     0.025 A 
ATOM     18  C   UNL     1      51.336 124.372  21.139  1.00  0.00     0.016 A 
ATOM     19  C   UNL     1      50.553 125.794  24.600  1.00  0.00     0.050 C 
ATOM     20  Br  UNL     1      53.299 124.927  23.124  1.00  0.00    -0.050 Br
ENDBRANCH   9  13
ENDBRANCH   1   8
BRANCH   5  21
ATOM     21  C   UNL     1      45.141 129.809  20.748  1.00  0.00     0.051 A 
ATOM     22  N   UNL     1      45.744 129.499  19.566  1.00  0.00    -0.252 NA
ATOM     23  C   UNL     1      44.265 130.909  20.805  1.00  0.00     0.025 A 
ATOM     24  C   UNL     1      45.538 130.223  18.434  1.00  0.00     0.071 A 
ATOM     25  C   UNL     1      44.034 131.671  19.657  1.00  0.00     0.012 A 
ATOM     26  C   UNL     1      46.183 129.867  17.244  1.00  0.00     0.032 A 
ATOM     27  C   UNL     1      44.669 131.335  18.458  1.00  0.00     0.003 A 
ATOM     28  C   UNL     1      45.968 130.613  16.081  1.00  0.00     0.041 A 
ATOM     29  C   UNL     1      44.458 132.079  17.287  1.00  0.00     0.049 A 
ATOM     30  C   UNL     1      45.108 131.716  16.102  1.00  0.00     0.123 A 
ATOM     31  F   UNL     1      44.904 132.435  14.971  1.00  0.00    -0.207 F 
ENDBRANCH   5  21
TORSDOF 4
ENDMDL
MODEL 6
REMARK VINA RESULT:      -2.4      1.480      2.118
REMARK SMILES Cc1c(Br)cccc1N/C(S)=[N+]1\CCC[C@H](c2ccc3cc(F)ccc3n2)[C@@H]1F
REMARK SMILES IDX 12 1 13 2 14 3 15 4 16 5 28 6 29 7 10 8 9 9 11 11 8 13 7 14
REMARK SMILES IDX 2 15 6 16 3 17 5 18 1 19 4 20 17 21 27 22 18 23 26 24 19 25
REMARK SMILES IDX 25 26 20 27 24 28 21 29 22 30 23 31
REMARK H PARENT 9 10 11 12
ROOT
ATOM      1  N   UNL     1      44.178 131.155  22.628  1.00  0.00    -0.224 N 
ATOM      2  C   UNL     1      44.706 132.480  23.031  1.00  0.00     0.240 C 
ATOM      3  C   UNL     1      46.028 132.791  22.321  1.00  0.00     0.047 C 
ATOM      4  C   UNL     1      45.891 132.638  20.808  1.00  0.00     0.021 C 
ATOM      5  C   UNL     1      45.408 131.219  20.469  1.00  0.00     0.116 C 
ATOM      6  C   UNL     1      44.070 130.911  21.171  1.00  0.00     0.363 C 
ATOM      7  F   UNL     1      43.053 131.701  20.660  1.00  0.00    -0.196 F 
ENDROOT
BRANCH   1   8
ATOM      8  C   UNL     1      43.684 130.315  23.520  1.00  0.00     0.310 C 
ATOM      9  N   UNL     1      44.386 129.111  23.876  1.00  0.00    -0.235 N 
ATOM     10  H   UNL     1      45.405 129.182  24.097  1.00  0.00     0.313 HD
BRANCH   8  11
ATOM     11  S   UNL     1      42.143 130.641  24.406  1.00  0.00    -0.056 SA
ATOM     12  H   UNL     1      41.539 131.185  23.257  1.00  0.00     0.116 HD
ENDBRANCH   8  11
BRANCH   9  13
ATOM     13  C   UNL     1      43.722 127.843  24.031  1.00  0.00     0.129 A 
ATOM     14  C   UNL     1      42.406 127.809  24.525  1.00  0.00     0.052 A 
ATOM     15  C   UNL     1      44.353 126.635  23.643  1.00  0.00     0.010 A 
ATOM     16  C   UNL     1      41.715 126.603  24.621  1.00  0.00     0.006 A 
ATOM     17  C   UNL     1      43.624 125.422  23.712  1.00  0.00     0.025 A 
ATOM     18  C   UNL     1      42.318 125.418  24.209  1.00  0.00     0.016 A 
ATOM     19  C   UNL     1      45.773 126.649  23.131  1.00  0.00     0.050 C 
ATOM     20  Br  UNL     1      44.347 123.743  23.125  1.00  0.00    -0.050 Br
ENDBRANCH   9  13
ENDBRANCH   1   8
BRANCH   5  21
ATOM     21  C   UNL     1      45.331 130.983  18.976  1.00  0.00     0.051 A 
ATOM     22  N   UNL     1      44.334 131.584  18.267  1.00  0.00    -0.252 NA
ATOM     23  C   UNL     1      46.271 130.183  18.298  1.00  0.00     0.025 A 
ATOM     24  C   UNL     1      44.207 131.432  16.922  1.00  0.00     0.071 A 
ATOM     25  C   UNL     1      46.164 130.010  16.916  1.00  0.00     0.012 A 
ATOM     26  C   UNL     1      43.164 132.068  16.239  1.00  0.00     0.032 A 
ATOM     27  C   UNL     1      45.129 130.633  16.213  1.00  0.00     0.003 A 
ATOM     28  C   UNL     1      43.036 131.910  14.855  1.00  0.00     0.041 A 
ATOM     29  C   UNL     1      44.994 130.480  14.825  1.00  0.00     0.049 A 
ATOM     30  C   UNL     1      43.948 131.119  14.149  1.00  0.00     0.123 A 
ATOM     31  F   UNL     1      43.818 130.971  12.808  1.00  0.00    -0.207 F 
ENDBRANCH   5  21
TORSDOF 4
ENDMDL


