MODEL 1
REMARK VINA RESULT:     -10.3      0.000      0.000
REMARK SMILES Cc1ccc([NH2+]c2ccc([C@@H]3O[C@H]3c3ccccc3)c(N)c2[O-])cc1F
REMARK SMILES IDX 7 1 8 2 9 3 10 4 20 5 22 6 23 7 6 8 5 11 2 12 3 13 25 14
REMARK SMILES IDX 4 15 24 16 1 17 26 18 21 19 11 22 12 23 13 24 14 25 15 26
REMARK SMILES IDX 19 27 16 28 18 29 17 30
REMARK H PARENT 6 9 6 10 21 20 21 21
ROOT
ATOM      1  C   UNL     1      44.412 131.112  21.604  1.00  0.00     0.128 A 
ATOM      2  C   UNL     1      45.609 130.624  21.060  1.00  0.00     0.068 A 
ATOM      3  C   UNL     1      45.857 130.713  19.691  1.00  0.00     0.015 A 
ATOM      4  C   UNL     1      44.924 131.315  18.833  1.00  0.00     0.007 A 
ATOM      5  C   UNL     1      43.700 131.787  19.360  1.00  0.00     0.035 A 
ATOM      6  C   UNL     1      43.456 131.691  20.745  1.00  0.00    -0.021 A 
ATOM      7  O   UNL     1      42.256 132.166  21.268  1.00  0.00    -0.867 OA
ENDROOT
BRANCH   1   8
ATOM      8  N   UNL     1      44.189 131.046  23.029  1.00  0.00    -0.282 N 
ATOM      9  H   UNL     1      43.478 131.756  23.319  1.00  0.00     0.358 HD
ATOM     10  H   UNL     1      45.070 131.285  23.543  1.00  0.00     0.358 HD
BRANCH   8  11
ATOM     11  C   UNL     1      43.724 129.729  23.393  1.00  0.00     0.137 A 
ATOM     12  C   UNL     1      42.804 127.144  24.045  1.00  0.00    -0.015 A 
ATOM     13  C   UNL     1      41.892 128.198  23.870  1.00  0.00     0.012 A 
ATOM     14  C   UNL     1      44.180 127.395  23.911  1.00  0.00     0.132 A 
ATOM     15  C   UNL     1      42.348 129.476  23.538  1.00  0.00     0.068 A 
ATOM     16  C   UNL     1      44.634 128.675  23.584  1.00  0.00     0.107 A 
ATOM     17  C   UNL     1      42.317 125.777  24.429  1.00  0.00     0.047 C 
ATOM     18  F   UNL     1      45.081 126.397  24.098  1.00  0.00    -0.206 F 
ENDBRANCH   8  11
ENDBRANCH   1   8
BRANCH   5  19
ATOM     19  N   UNL     1      42.698 132.353  18.501  1.00  0.00    -0.399 N 
ATOM     20  H   UNL     1      41.693 132.377  18.774  1.00  0.00     0.156 HD
ATOM     21  H   UNL     1      42.953 132.801  17.594  1.00  0.00     0.156 HD
ENDBRANCH   5  19
BRANCH   4  22
ATOM     22  C   UNL     1      45.222 131.415  17.359  1.00  0.00     0.185 C 
ATOM     23  O   UNL     1      44.351 130.628  16.577  1.00  0.00    -0.359 OA
ATOM     24  C   UNL     1      45.671 130.153  16.716  1.00  0.00     0.183 C 
BRANCH  24  25
ATOM     25  C   UNL     1      46.466 130.311  15.451  1.00  0.00    -0.016 A 
ATOM     26  C   UNL     1      46.343 131.463  14.655  1.00  0.00     0.006 A 
ATOM     27  C   UNL     1      47.296 129.263  15.021  1.00  0.00     0.006 A 
ATOM     28  C   UNL     1      47.067 131.575  13.463  1.00  0.00     0.000 A 
ATOM     29  C   UNL     1      48.012 129.377  13.826  1.00  0.00     0.000 A 
ATOM     30  C   UNL     1      47.904 130.535  13.051  1.00  0.00     0.000 A 
ENDBRANCH  24  25
ENDBRANCH   4  22
TORSDOF 5
ENDMDL
MODEL 2
REMARK VINA RESULT:      -9.6      0.605      1.102
REMARK SMILES Cc1ccc([NH2+]c2ccc([C@@H]3O[C@H]3c3ccccc3)c(N)c2[O-])cc1F
REMARK SMILES IDX 7 1 8 2 9 3 10 4 20 5 22 6 23 7 6 8 5 11 2 12 3 13 25 14
REMARK SMILES IDX 4 15 24 16 1 17 26 18 21 19 11 22 12 23 13 24 14 25 15 26
REMARK SMILES IDX 19 27 16 28 18 29 17 30
REMARK H PARENT 6 9 6 10 21 20 21 21
ROOT
ATOM      1  C   UNL     1      44.100 131.367  21.333  1.00  0.00     0.128 A 
ATOM      2  C   UNL     1      45.403 130.994  20.973  1.00  0.00     0.068 A 
ATOM      3  C   UNL     1      45.829 131.090  19.649  1.00  0.00     0.015 A 
ATOM      4  C   UNL     1      44.972 131.584  18.655  1.00  0.00     0.007 A 
ATOM      5  C   UNL     1      43.646 131.939  18.995  1.00  0.00     0.035 A 
ATOM      6  C   UNL     1      43.221 131.836  20.335  1.00  0.00    -0.021 A 
ATOM      7  O   UNL     1      41.919 132.195  20.675  1.00  0.00    -0.867 OA
ENDROOT
BRANCH   1   8
ATOM      8  N   UNL     1      43.687 131.298  22.715  1.00  0.00    -0.282 N 
ATOM      9  H   UNL     1      42.768 131.779  22.845  1.00  0.00     0.358 HD
ATOM     10  H   UNL     1      44.373 131.806  23.322  1.00  0.00     0.358 HD
BRANCH   8  11
ATOM     11  C   UNL     1      43.565 129.918  23.123  1.00  0.00     0.137 A 
ATOM     12  C   UNL     1      43.295 127.211  23.867  1.00  0.00    -0.015 A 
ATOM     13  C   UNL     1      42.264 128.127  24.135  1.00  0.00     0.012 A 
ATOM     14  C   UNL     1      44.471 127.662  23.242  1.00  0.00     0.132 A 
ATOM     15  C   UNL     1      42.394 129.466  23.758  1.00  0.00     0.068 A 
ATOM     16  C   UNL     1      44.601 129.002  22.870  1.00  0.00     0.107 A 
ATOM     17  C   UNL     1      43.167 125.779  24.297  1.00  0.00     0.047 C 
ATOM     18  F   UNL     1      45.489 126.800  22.994  1.00  0.00    -0.206 F 
ENDBRANCH   8  11
ENDBRANCH   1   8
BRANCH   5  19
ATOM     19  N   UNL     1      42.724 132.390  17.991  1.00  0.00    -0.399 N 
ATOM     20  H   UNL     1      41.727 132.596  18.216  1.00  0.00     0.156 HD
ATOM     21  H   UNL     1      43.035 132.571  17.012  1.00  0.00     0.156 HD
ENDBRANCH   5  19
BRANCH   4  22
ATOM     22  C   UNL     1      45.462 131.695  17.233  1.00  0.00     0.185 C 
ATOM     23  O   UNL     1      44.410 131.642  16.295  1.00  0.00    -0.359 OA
ATOM     24  C   UNL     1      45.226 130.496  16.388  1.00  0.00     0.183 C 
BRANCH  24  25
ATOM     25  C   UNL     1      46.132 130.348  15.198  1.00  0.00    -0.016 A 
ATOM     26  C   UNL     1      47.169 129.399  15.188  1.00  0.00     0.006 A 
ATOM     27  C   UNL     1      45.983 131.216  14.104  1.00  0.00     0.006 A 
ATOM     28  C   UNL     1      48.022 129.300  14.083  1.00  0.00     0.000 A 
ATOM     29  C   UNL     1      46.842 131.118  13.005  1.00  0.00     0.000 A 
ATOM     30  C   UNL     1      47.856 130.156  12.991  1.00  0.00     0.000 A 
ENDBRANCH  24  25
ENDBRANCH   4  22
TORSDOF 5
ENDMDL
MODEL 3
REMARK VINA RESULT:      -9.5      1.463      1.804
REMARK SMILES Cc1ccc([NH2+]c2ccc([C@@H]3O[C@H]3c3ccccc3)c(N)c2[O-])cc1F
REMARK SMILES IDX 7 1 8 2 9 3 10 4 20 5 22 6 23 7 6 8 5 11 2 12 3 13 25 14
REMARK SMILES IDX 4 15 24 16 1 17 26 18 21 19 11 22 12 23 13 24 14 25 15 26
REMARK SMILES IDX 19 27 16 28 18 29 17 30
REMARK H PARENT 6 9 6 10 21 20 21 21
ROOT
ATOM      1  C   UNL     1      44.117 130.387  22.239  1.00  0.00     0.128 A 
ATOM      2  C   UNL     1      45.198 129.768  21.596  1.00  0.00     0.068 A 
ATOM      3  C   UNL     1      45.548 130.122  20.294  1.00  0.00     0.015 A 
ATOM      4  C   UNL     1      44.842 131.123  19.610  1.00  0.00     0.007 A 
ATOM      5  C   UNL     1      43.732 131.738  20.233  1.00  0.00     0.035 A 
ATOM      6  C   UNL     1      43.382 131.372  21.548  1.00  0.00    -0.021 A 
ATOM      7  O   UNL     1      42.296 131.986  22.168  1.00  0.00    -0.867 OA
ENDROOT
BRANCH   1   8
ATOM      8  N   UNL     1      43.792 130.036  23.602  1.00  0.00    -0.282 N 
ATOM      9  H   UNL     1      43.223 130.792  24.047  1.00  0.00     0.358 HD
ATOM     10  H   UNL     1      44.667 129.953  24.171  1.00  0.00     0.358 HD
BRANCH   8  11
ATOM     11  C   UNL     1      43.046 128.800  23.626  1.00  0.00     0.137 A 
ATOM     12  C   UNL     1      41.594 126.385  23.734  1.00  0.00    -0.015 A 
ATOM     13  C   UNL     1      42.998 126.369  23.720  1.00  0.00     0.012 A 
ATOM     14  C   UNL     1      40.919 127.617  23.674  1.00  0.00     0.132 A 
ATOM     15  C   UNL     1      43.717 127.566  23.676  1.00  0.00     0.068 A 
ATOM     16  C   UNL     1      41.640 128.812  23.625  1.00  0.00     0.107 A 
ATOM     17  C   UNL     1      40.821 125.099  23.753  1.00  0.00     0.047 C 
ATOM     18  F   UNL     1      39.563 127.656  23.663  1.00  0.00    -0.206 F 
ENDBRANCH   8  11
ENDBRANCH   1   8
BRANCH   5  19
ATOM     19  N   UNL     1      42.949 132.721  19.538  1.00  0.00    -0.399 N 
ATOM     20  H   UNL     1      42.523 132.525  18.607  1.00  0.00     0.156 HD
ATOM     21  H   UNL     1      42.742 133.650  19.967  1.00  0.00     0.156 HD
ENDBRANCH   5  19
BRANCH   4  22
ATOM     22  C   UNL     1      45.251 131.501  18.209  1.00  0.00     0.185 C 
ATOM     23  O   UNL     1      44.157 131.539  17.319  1.00  0.00    -0.359 OA
ATOM     24  C   UNL     1      45.039 130.448  17.182  1.00  0.00     0.183 C 
BRANCH  24  25
ATOM     25  C   UNL     1      45.889 130.559  15.947  1.00  0.00    -0.016 A 
ATOM     26  C   UNL     1      46.123 131.803  15.337  1.00  0.00     0.006 A 
ATOM     27  C   UNL     1      46.405 129.394  15.357  1.00  0.00     0.006 A 
ATOM     28  C   UNL     1      46.890 131.880  14.169  1.00  0.00     0.000 A 
ATOM     29  C   UNL     1      47.165 129.475  14.186  1.00  0.00     0.000 A 
ATOM     30  C   UNL     1      47.414 130.718  13.597  1.00  0.00     0.000 A 
ENDBRANCH  24  25
ENDBRANCH   4  22
TORSDOF 5
ENDMDL
MODEL 4
REMARK VINA RESULT:      -9.2      1.067      1.489
REMARK SMILES Cc1ccc([NH2+]c2ccc([C@@H]3O[C@H]3c3ccccc3)c(N)c2[O-])cc1F
REMARK SMILES IDX 7 1 8 2 9 3 10 4 20 5 22 6 23 7 6 8 5 11 2 12 3 13 25 14
REMARK SMILES IDX 4 15 24 16 1 17 26 18 21 19 11 22 12 23 13 24 14 25 15 26
REMARK SMILES IDX 19 27 16 28 18 29 17 30
REMARK H PARENT 6 9 6 10 21 20 21 21
ROOT
ATOM      1  C   UNL     1      44.245 130.280  22.245  1.00  0.00     0.128 A 
ATOM      2  C   UNL     1      45.321 129.674  21.580  1.00  0.00     0.068 A 
ATOM      3  C   UNL     1      45.651 130.045  20.278  1.00  0.00     0.015 A 
ATOM      4  C   UNL     1      44.930 131.049  19.615  1.00  0.00     0.007 A 
ATOM      5  C   UNL     1      43.826 131.651  20.260  1.00  0.00     0.035 A 
ATOM      6  C   UNL     1      43.496 131.269  21.576  1.00  0.00    -0.021 A 
ATOM      7  O   UNL     1      42.416 131.870  22.218  1.00  0.00    -0.867 OA
ENDROOT
BRANCH   1   8
ATOM      8  N   UNL     1      43.941 129.912  23.608  1.00  0.00    -0.282 N 
ATOM      9  H   UNL     1      43.405 130.675  24.080  1.00  0.00     0.358 HD
ATOM     10  H   UNL     1      44.827 129.793  24.156  1.00  0.00     0.358 HD
BRANCH   8  11
ATOM     11  C   UNL     1      43.160 128.698  23.626  1.00  0.00     0.137 A 
ATOM     12  C   UNL     1      41.625 126.332  23.600  1.00  0.00    -0.015 A 
ATOM     13  C   UNL     1      40.996 127.585  23.675  1.00  0.00     0.012 A 
ATOM     14  C   UNL     1      43.029 126.268  23.557  1.00  0.00     0.132 A 
ATOM     15  C   UNL     1      41.756 128.757  23.679  1.00  0.00     0.068 A 
ATOM     16  C   UNL     1      43.787 127.441  23.565  1.00  0.00     0.107 A 
ATOM     17  C   UNL     1      40.810 125.072  23.624  1.00  0.00     0.047 C 
ATOM     18  F   UNL     1      43.660 125.068  23.506  1.00  0.00    -0.206 F 
ENDBRANCH   8  11
ENDBRANCH   1   8
BRANCH   5  19
ATOM     19  N   UNL     1      43.029 132.638  19.588  1.00  0.00    -0.399 N 
ATOM     20  H   UNL     1      43.399 133.186  18.782  1.00  0.00     0.156 HD
ATOM     21  H   UNL     1      42.034 132.805  19.855  1.00  0.00     0.156 HD
ENDBRANCH   5  19
BRANCH   4  22
ATOM     22  C   UNL     1      45.318 131.445  18.213  1.00  0.00     0.185 C 
ATOM     23  O   UNL     1      44.200 131.583  17.363  1.00  0.00    -0.359 OA
ATOM     24  C   UNL     1      45.003 130.442  17.162  1.00  0.00     0.183 C 
BRANCH  24  25
ATOM     25  C   UNL     1      45.818 130.537  15.903  1.00  0.00    -0.016 A 
ATOM     26  C   UNL     1      46.376 129.391  15.311  1.00  0.00     0.006 A 
ATOM     27  C   UNL     1      46.082 131.798  15.345  1.00  0.00     0.006 A 
ATOM     28  C   UNL     1      47.159 129.506  14.157  1.00  0.00     0.000 A 
ATOM     29  C   UNL     1      46.871 131.909  14.196  1.00  0.00     0.000 A 
ATOM     30  C   UNL     1      47.403 130.763  13.598  1.00  0.00     0.000 A 
ENDBRANCH  24  25
ENDBRANCH   4  22
TORSDOF 5
ENDMDL
MODEL 5
REMARK VINA RESULT:      -8.1      1.002      1.083
REMARK SMILES Cc1ccc([NH2+]c2ccc([C@@H]3O[C@H]3c3ccccc3)c(N)c2[O-])cc1F
REMARK SMILES IDX 7 1 8 2 9 3 10 4 20 5 22 6 23 7 6 8 5 11 2 12 3 13 25 14
REMARK SMILES IDX 4 15 24 16 1 17 26 18 21 19 11 22 12 23 13 24 14 25 15 26
REMARK SMILES IDX 19 27 16 28 18 29 17 30
REMARK H PARENT 6 9 6 10 21 20 21 21
ROOT
ATOM      1  C   UNL     1      43.964 131.446  20.563  1.00  0.00     0.128 A 
ATOM      2  C   UNL     1      45.143 130.772  20.214  1.00  0.00     0.068 A 
ATOM      3  C   UNL     1      45.484 130.583  18.875  1.00  0.00     0.015 A 
ATOM      4  C   UNL     1      44.667 131.084  17.851  1.00  0.00     0.007 A 
ATOM      5  C   UNL     1      43.460 131.742  18.185  1.00  0.00     0.035 A 
ATOM      6  C   UNL     1      43.122 131.927  19.541  1.00  0.00    -0.021 A 
ATOM      7  O   UNL     1      41.940 132.584  19.872  1.00  0.00    -0.867 OA
ENDROOT
BRANCH   1   8
ATOM      8  N   UNL     1      43.647 131.667  21.955  1.00  0.00    -0.282 N 
ATOM      9  H   UNL     1      42.791 132.262  22.042  1.00  0.00     0.358 HD
ATOM     10  H   UNL     1      44.421 132.195  22.422  1.00  0.00     0.358 HD
BRANCH   8  11
ATOM     11  C   UNL     1      43.418 130.403  22.613  1.00  0.00     0.137 A 
ATOM     12  C   UNL     1      42.928 127.919  23.857  1.00  0.00    -0.015 A 
ATOM     13  C   UNL     1      42.129 129.034  24.159  1.00  0.00     0.012 A 
ATOM     14  C   UNL     1      43.988 128.059  22.943  1.00  0.00     0.132 A 
ATOM     15  C   UNL     1      42.366 130.261  23.535  1.00  0.00     0.068 A 
ATOM     16  C   UNL     1      44.226 129.289  22.324  1.00  0.00     0.107 A 
ATOM     17  C   UNL     1      42.692 126.608  24.547  1.00  0.00     0.047 C 
ATOM     18  F   UNL     1      44.787 127.002  22.653  1.00  0.00    -0.206 F 
ENDBRANCH   8  11
ENDBRANCH   1   8
BRANCH   5  19
ATOM     19  N   UNL     1      42.571 132.213  17.161  1.00  0.00    -0.399 N 
ATOM     20  H   UNL     1      41.672 132.686  17.391  1.00  0.00     0.156 HD
ATOM     21  H   UNL     1      42.821 132.138  16.150  1.00  0.00     0.156 HD
ENDBRANCH   5  19
BRANCH   4  22
ATOM     22  C   UNL     1      45.066 130.883  16.411  1.00  0.00     0.185 C 
ATOM     23  O   UNL     1      44.961 129.535  16.006  1.00  0.00    -0.359 OA
ATOM     24  C   UNL     1      46.266 130.033  16.200  1.00  0.00     0.183 C 
BRANCH  24  25
ATOM     25  C   UNL     1      46.992 130.239  14.900  1.00  0.00    -0.016 A 
ATOM     26  C   UNL     1      46.766 131.384  14.116  1.00  0.00     0.006 A 
ATOM     27  C   UNL     1      47.862 129.243  14.429  1.00  0.00     0.006 A 
ATOM     28  C   UNL     1      47.428 131.541  12.894  1.00  0.00     0.000 A 
ATOM     29  C   UNL     1      48.516 129.401  13.204  1.00  0.00     0.000 A 
ATOM     30  C   UNL     1      48.305 130.552  12.440  1.00  0.00     0.000 A 
ENDBRANCH  24  25
ENDBRANCH   4  22
TORSDOF 5
ENDMDL
MODEL 6
REMARK VINA RESULT:      -7.8      1.931      2.928
REMARK SMILES Cc1ccc([NH2+]c2ccc([C@@H]3O[C@H]3c3ccccc3)c(N)c2[O-])cc1F
REMARK SMILES IDX 7 1 8 2 9 3 10 4 20 5 22 6 23 7 6 8 5 11 2 12 3 13 25 14
REMARK SMILES IDX 4 15 24 16 1 17 26 18 21 19 11 22 12 23 13 24 14 25 15 26
REMARK SMILES IDX 19 27 16 28 18 29 17 30
REMARK H PARENT 6 9 6 10 21 20 21 21
ROOT
ATOM      1  C   UNL     1      44.336 128.826  23.218  1.00  0.00     0.128 A 
ATOM      2  C   UNL     1      45.121 128.171  22.258  1.00  0.00     0.068 A 
ATOM      3  C   UNL     1      45.530 128.834  21.102  1.00  0.00     0.015 A 
ATOM      4  C   UNL     1      45.184 130.176  20.886  1.00  0.00     0.007 A 
ATOM      5  C   UNL     1      44.369 130.843  21.830  1.00  0.00     0.035 A 
ATOM      6  C   UNL     1      43.958 130.166  22.996  1.00  0.00    -0.021 A 
ATOM      7  O   UNL     1      43.166 130.824  23.932  1.00  0.00    -0.867 OA
ENDROOT
BRANCH   1   8
ATOM      8  N   UNL     1      43.955 128.136  24.429  1.00  0.00    -0.282 N 
ATOM      9  H   UNL     1      43.659 128.823  25.160  1.00  0.00     0.358 HD
ATOM     10  H   UNL     1      44.776 127.621  24.824  1.00  0.00     0.358 HD
BRANCH   8  11
ATOM     11  C   UNL     1      42.864 127.231  24.155  1.00  0.00     0.137 A 
ATOM     12  C   UNL     1      40.722 125.458  23.682  1.00  0.00    -0.015 A 
ATOM     13  C   UNL     1      41.999 124.962  23.987  1.00  0.00     0.012 A 
ATOM     14  C   UNL     1      40.526 126.848  23.596  1.00  0.00     0.132 A 
ATOM     15  C   UNL     1      43.058 125.840  24.230  1.00  0.00     0.068 A 
ATOM     16  C   UNL     1      41.587 127.725  23.836  1.00  0.00     0.107 A 
ATOM     17  C   UNL     1      39.591 124.515  23.393  1.00  0.00     0.047 C 
ATOM     18  F   UNL     1      39.305 127.350  23.281  1.00  0.00    -0.206 F 
ENDBRANCH   8  11
ENDBRANCH   1   8
BRANCH   5  19
ATOM     19  N   UNL     1      43.946 132.198  21.610  1.00  0.00    -0.399 N 
ATOM     20  H   UNL     1      43.315 132.454  20.822  1.00  0.00     0.156 HD
ATOM     21  H   UNL     1      44.221 132.963  22.264  1.00  0.00     0.156 HD
ENDBRANCH   5  19
BRANCH   4  22
ATOM     22  C   UNL     1      45.652 130.877  19.636  1.00  0.00     0.185 C 
ATOM     23  O   UNL     1      44.699 131.791  19.141  1.00  0.00    -0.359 OA
ATOM     24  C   UNL     1      44.854 130.592  18.415  1.00  0.00     0.183 C 
BRANCH  24  25
ATOM     25  C   UNL     1      45.562 130.810  17.107  1.00  0.00    -0.016 A 
ATOM     26  C   UNL     1      45.502 132.050  16.446  1.00  0.00     0.006 A 
ATOM     27  C   UNL     1      46.240 129.740  16.502  1.00  0.00     0.006 A 
ATOM     28  C   UNL     1      46.140 132.221  15.213  1.00  0.00     0.000 A 
ATOM     29  C   UNL     1      46.871 129.914  15.267  1.00  0.00     0.000 A 
ATOM     30  C   UNL     1      46.828 131.156  14.626  1.00  0.00     0.000 A 
ENDBRANCH  24  25
ENDBRANCH   4  22
TORSDOF 5
ENDMDL


