REMARK SMILES Cc1cc(-c2c[nH+]c3ccnn3c2)ccc1C(=O)[N-][C@H]1CC12CCC2
REMARK SMILES IDX 1 1 2 2 3 3 4 4 14 5 15 6 16 7 17 8 18 9 19 10 20 11 21 12
REMARK SMILES IDX 22 13 23 14 25 15 24 16 5 17 6 18 13 19 7 20 12 21 8 22
REMARK SMILES IDX 11 23 9 24 10 25
REMARK H PARENT 7 26
ROOT
ATOM      1  C   UNL     1       3.148  -1.550   0.601  1.00  0.00     0.045 C 
ATOM      2  C   UNL     1       1.670  -1.475   0.319  1.00  0.00    -0.041 A 
ATOM      3  C   UNL     1       0.900  -2.643   0.468  1.00  0.00     0.013 A 
ATOM      4  C   UNL     1      -0.476  -2.647   0.190  1.00  0.00    -0.011 A 
ATOM      5  C   UNL     1      -1.085  -1.459  -0.236  1.00  0.00     0.010 A 
ATOM      6  C   UNL     1      -0.339  -0.289  -0.375  1.00  0.00     0.011 A 
ATOM      7  C   UNL     1       1.038  -0.270  -0.091  1.00  0.00     0.002 A 
ENDROOT
BRANCH   7   8
ATOM      8  C   UNL     1       1.768   1.016  -0.233  1.00  0.00     0.082 C 
ATOM      9  O   UNL     1       2.796   1.254   0.458  1.00  0.00    -0.315 OA
BRANCH   8  10
ATOM     10  N   UNL     1       1.280   2.014  -1.135  1.00  0.00    -0.646 NA
BRANCH  10  11
ATOM     11  C   UNL     1       1.905   3.322  -1.265  1.00  0.00    -0.100 C 
ATOM     12  C   UNL     1       0.934   4.410  -1.740  1.00  0.00    -0.010 C 
ATOM     13  C   UNL     1       1.370   4.335  -0.283  1.00  0.00    -0.044 C 
ATOM     14  C   UNL     1       2.028   5.547   0.308  1.00  0.00     0.006 C 
ATOM     15  C   UNL     1       0.296   4.235   0.762  1.00  0.00     0.006 C 
ATOM     16  C   UNL     1       0.942   5.482   1.403  1.00  0.00     0.001 C 
ENDBRANCH  10  11
ENDBRANCH   8  10
ENDBRANCH   7   8
BRANCH   4  17
ATOM     17  C   UNL     1      -1.274  -3.891   0.338  1.00  0.00     0.063 A 
ATOM     18  C   UNL     1      -0.749  -5.149  -0.053  1.00  0.00     0.210 A 
ATOM     19  C   UNL     1      -2.580  -3.856   0.868  1.00  0.00     0.245 A 
ATOM     20  N   UNL     1      -1.491  -6.288   0.083  1.00  0.00    -0.245 N 
ATOM     21  N   UNL     1      -3.258  -5.024   0.974  1.00  0.00    -0.104 N 
ATOM     22  C   UNL     1      -2.740  -6.195   0.599  1.00  0.00     0.306 A 
ATOM     23  N   UNL     1      -4.481  -5.195   1.444  1.00  0.00    -0.086 NA
ATOM     24  C   UNL     1      -3.651  -7.200   0.822  1.00  0.00     0.125 A 
ATOM     25  C   UNL     1      -4.742  -6.522   1.360  1.00  0.00     0.167 A 
ATOM     26  H   UNL     1      -1.101  -7.211  -0.211  1.00  0.00     0.312 HD
ENDBRANCH   4  17
TORSDOF 4


