REMARK SMILES Cn1cnc2cc(-c3ccc(CC[NH3+])cc3)cnc21
REMARK SMILES IDX 12 1 11 2 8 3 9 4 16 5 10 6 15 7 7 8 2 9 3 10 19 11 4 12
REMARK SMILES IDX 18 13 5 14 17 15 6 16 1 17 13 18 14 19
REMARK H PARENT 14 20 14 21 14 22
ROOT
ATOM      1  C   UNL     1      -0.901  -2.478   3.310  1.00  0.00     0.096 C 
ENDROOT
BRANCH   1   2
ATOM      2  C   UNL     1      -0.397  -1.753   2.089  1.00  0.00    -0.042 A 
ATOM      3  C   UNL     1       0.522  -0.350  -0.180  1.00  0.00    -0.017 A 
ATOM      4  C   UNL     1       1.212  -0.263   1.043  1.00  0.00     0.009 A 
ATOM      5  C   UNL     1      -0.636  -1.146  -0.251  1.00  0.00     0.009 A 
ATOM      6  C   UNL     1       0.754  -0.955   2.167  1.00  0.00     0.004 A 
ATOM      7  C   UNL     1      -1.091  -1.839   0.873  1.00  0.00     0.004 A 
BRANCH   3   8
ATOM      8  C   UNL     1       1.007   0.388  -1.374  1.00  0.00     0.002 A 
ATOM      9  N   UNL     1       2.486   2.361  -4.615  1.00  0.00    -0.318 N 
ATOM     10  C   UNL     1       3.799   2.096  -4.399  1.00  0.00     0.201 A 
ATOM     11  C   UNL     1       1.864   1.761  -3.595  1.00  0.00     0.159 A 
ATOM     12  N   UNL     1       4.022   1.370  -3.268  1.00  0.00    -0.235 NA
ATOM     13  N   UNL     1       0.530   1.695  -3.364  1.00  0.00    -0.236 NA
ATOM     14  C   UNL     1       2.780   1.178  -2.785  1.00  0.00     0.108 A 
ATOM     15  C   UNL     1       0.088   1.016  -2.263  1.00  0.00     0.122 A 
ATOM     16  C   UNL     1       2.393   0.475  -1.651  1.00  0.00     0.042 A 
ATOM     17  C   UNL     1       1.890   3.021  -5.770  1.00  0.00     0.153 C 
ENDBRANCH   3   8
ENDBRANCH   1   2
BRANCH   1  18
ATOM     18  C   UNL     1      -1.679  -1.544   4.250  1.00  0.00     0.263 C 
BRANCH  18  19
ATOM     19  N   UNL     1      -2.927  -1.075   3.643  1.00  0.00    -0.357 N 
ATOM     20  H   UNL     1      -3.465  -0.528   4.353  1.00  0.00     0.344 HD
ATOM     21  H   UNL     1      -3.507  -1.888   3.333  1.00  0.00     0.344 HD
ATOM     22  H   UNL     1      -2.722  -0.452   2.829  1.00  0.00     0.344 HD
ENDBRANCH  18  19
ENDBRANCH   1  18
TORSDOF 4


