REMARK SMILES O=C1[N-]Cc2ncc(-c3ccc4[nH]ccc4c3)cc21
REMARK SMILES IDX 1 1 2 2 3 3 4 4 5 5 6 6 7 7 8 8 18 9 19 10 9 11 10 12 17 13
REMARK SMILES IDX 11 14 16 15 12 16 15 17 13 18 14 19
REMARK H PARENT 13 20
ROOT
ATOM      1  O   UNL     1      -2.485   0.455  -4.217  1.00  0.00    -0.315 OA
ATOM      2  C   UNL     1      -1.272   0.120  -4.243  1.00  0.00     0.084 C 
ATOM      3  N   UNL     1      -0.560  -0.195  -5.436  1.00  0.00    -0.644 NA
ATOM      4  C   UNL     1       0.817  -0.532  -5.054  1.00  0.00    -0.059 C 
ATOM      5  C   UNL     1       0.818  -0.381  -3.564  1.00  0.00     0.032 A 
ATOM      6  N   UNL     1       1.863  -0.576  -2.722  1.00  0.00    -0.262 NA
ATOM      7  C   UNL     1       1.697  -0.390  -1.379  1.00  0.00     0.120 A 
ATOM      8  C   UNL     1       0.440   0.006  -0.850  1.00  0.00     0.001 A 
ATOM      9  C   UNL     1      -0.638   0.204  -1.742  1.00  0.00     0.022 A 
ATOM     10  C   UNL     1      -0.409  -0.000  -3.097  1.00  0.00     0.020 A 
ENDROOT
BRANCH   8  11
ATOM     11  C   UNL     1       0.260   0.209   0.609  1.00  0.00    -0.016 A 
ATOM     12  C   UNL     1       1.285   0.821   1.383  1.00  0.00     0.011 A 
ATOM     13  C   UNL     1      -0.935  -0.205   1.246  1.00  0.00     0.019 A 
ATOM     14  C   UNL     1       1.125   1.017   2.766  1.00  0.00     0.027 A 
ATOM     15  C   UNL     1      -1.057   0.005   2.617  1.00  0.00    -0.000 A 
ATOM     16  C   UNL     1      -0.065   0.594   3.351  1.00  0.00     0.045 A 
ATOM     17  C   UNL     1      -2.087  -0.295   3.482  1.00  0.00     0.028 A 
ATOM     18  N   UNL     1      -0.416   0.684   4.644  1.00  0.00    -0.361 N 
ATOM     19  C   UNL     1      -1.653   0.142   4.729  1.00  0.00     0.083 A 
ATOM     20  H   UNL     1       0.146   1.088   5.426  1.00  0.00     0.166 HD
ENDBRANCH   8  11
TORSDOF 1


