REMARK SMILES Cc1ccc(-c2ccc(C#N)cc2)c2c[nH][nH+]c12
REMARK SMILES IDX 6 1 7 2 8 3 9 4 12 5 13 6 5 7 2 8 3 9 18 10 4 11 17 12 14 13
REMARK SMILES IDX 16 14 15 15 1 16 10 19 11 20
REMARK H PARENT 17 17 16 18
ROOT
ATOM      1  C   UNL     1       1.506  -0.216  -2.127  1.00  0.00    -0.017 A 
ATOM      2  C   UNL     1       2.647  -0.857  -2.640  1.00  0.00     0.010 A 
ATOM      3  C   UNL     1       3.195  -0.455  -3.862  1.00  0.00     0.020 A 
ATOM      4  C   UNL     1       2.604   0.587  -4.588  1.00  0.00     0.052 A 
ATOM      5  C   UNL     1       1.462   1.222  -4.089  1.00  0.00     0.020 A 
ATOM      6  C   UNL     1       0.913   0.822  -2.867  1.00  0.00     0.010 A 
ENDROOT
BRANCH   1   7
ATOM      7  C   UNL     1       0.922  -0.652  -0.837  1.00  0.00    -0.003 A 
ATOM      8  C   UNL     1      -0.215  -1.498   1.647  1.00  0.00     0.024 A 
ATOM      9  C   UNL     1       0.136  -2.440   0.656  1.00  0.00     0.011 A 
ATOM     10  C   UNL     1       0.026  -0.151   1.363  1.00  0.00     0.239 A 
ATOM     11  C   UNL     1       0.699  -2.022  -0.570  1.00  0.00     0.010 A 
ATOM     12  N   UNL     1      -0.180   0.919   2.152  1.00  0.00    -0.126 N 
ATOM     13  C   UNL     1       0.571   0.257   0.171  1.00  0.00     0.078 A 
ATOM     14  N   UNL     1       0.228   1.994   1.492  1.00  0.00    -0.174 N 
ATOM     15  C   UNL     1       0.699   1.630   0.278  1.00  0.00     0.163 A 
ATOM     16  C   UNL     1      -0.798  -1.928   2.961  1.00  0.00     0.052 C 
ATOM     17  H   UNL     1      -0.573   0.927   3.119  1.00  0.00     0.488 HD
ATOM     18  H   UNL     1       0.198   2.966   1.872  1.00  0.00     0.238 HD
ENDBRANCH   1   7
BRANCH   4  19
ATOM     19  C   UNL     1       3.169   1.000  -5.846  1.00  0.00     0.099 C 
ATOM     20  N   UNL     1       3.622   1.332  -6.858  1.00  0.00    -0.192 NA
ENDBRANCH   4  19
TORSDOF 2


