REMARK SMILES CC(=O)c1ccc(-c2[nH+]ccc(C)c2F)c2cn[nH]c12
REMARK SMILES IDX 4 1 5 2 6 3 7 4 16 5 17 6 18 7 19 8 20 9 2 11 1 12 3 13 8 14
REMARK SMILES IDX 9 15 14 16 10 17 12 18 11 19 15 21 13 22
REMARK H PARENT 19 10 9 20
ROOT
ATOM      1  C   UNL     1       2.172   1.666  -0.825  1.00  0.00     0.043 A 
ATOM      2  C   UNL     1       1.796   0.302  -0.787  1.00  0.00     0.015 A 
ATOM      3  C   UNL     1       0.554  -0.097  -0.249  1.00  0.00     0.017 A 
ATOM      4  C   UNL     1      -0.349   0.854   0.270  1.00  0.00     0.060 A 
ATOM      5  C   UNL     1       0.046   2.194   0.224  1.00  0.00     0.034 A 
ATOM      6  C   UNL     1      -0.549   3.349   0.690  1.00  0.00     0.144 A 
ATOM      7  N   UNL     1       0.285   4.386   0.452  1.00  0.00    -0.183 NA
ATOM      8  N   UNL     1       1.376   3.922  -0.145  1.00  0.00    -0.277 N 
ATOM      9  C   UNL     1       1.252   2.589  -0.295  1.00  0.00     0.077 A 
ATOM     10  H   UNL     1       2.187   4.521  -0.408  1.00  0.00     0.190 HD
ENDROOT
BRANCH   1  11
ATOM     11  C   UNL     1       3.471   2.081  -1.414  1.00  0.00     0.161 C 
ATOM     12  C   UNL     1       4.630   1.134  -1.491  1.00  0.00     0.093 C 
ATOM     13  O   UNL     1       3.600   3.230  -1.915  1.00  0.00    -0.294 OA
ENDBRANCH   1  11
BRANCH   4  14
ATOM     14  C   UNL     1      -1.659   0.443   0.824  1.00  0.00     0.247 A 
ATOM     15  N   UNL     1      -2.802   1.055   0.394  1.00  0.00    -0.209 N 
ATOM     16  C   UNL     1      -1.740  -0.577   1.790  1.00  0.00     0.198 A 
ATOM     17  C   UNL     1      -4.024   0.710   0.881  1.00  0.00     0.307 A 
ATOM     18  C   UNL     1      -2.994  -0.956   2.294  1.00  0.00    -0.002 A 
ATOM     19  C   UNL     1      -4.142  -0.295   1.841  1.00  0.00     0.077 A 
ATOM     20  H   UNL     1      -2.753   1.798  -0.339  1.00  0.00     0.453 HD
ATOM     21  F   UNL     1      -0.612  -1.172   2.259  1.00  0.00    -0.199 F 
ATOM     22  C   UNL     1      -3.096  -2.018   3.350  1.00  0.00     0.048 C 
ENDBRANCH   4  14
TORSDOF 2


