REMARK SMILES CO[C@@H]1CCC[C@@H](c2cc3cc(F)ccc3[nH]2)N1C(=O)C(C)(F)F
REMARK SMILES IDX 3 1 4 2 5 3 6 4 7 5 18 6 2 7 1 8 19 9 20 10 21 11 22 12
REMARK SMILES IDX 23 13 24 14 8 15 9 16 17 17 10 18 16 19 11 20 15 21 12 22
REMARK SMILES IDX 14 23 13 25
REMARK H PARENT 17 24
ROOT
ATOM      1  C   UNL     1      -2.611  -0.784   0.201  1.00  0.00     0.217 C 
ATOM      2  C   UNL     1      -2.904  -1.330  -1.202  1.00  0.00     0.055 C 
ATOM      3  C   UNL     1      -1.880  -2.391  -1.607  1.00  0.00     0.007 C 
ATOM      4  C   UNL     1      -0.470  -1.805  -1.564  1.00  0.00     0.032 C 
ATOM      5  C   UNL     1      -0.144  -1.231  -0.172  1.00  0.00     0.135 C 
ATOM      6  N   UNL     1      -1.214  -0.313   0.284  1.00  0.00    -0.303 N 
ENDROOT
BRANCH   1   7
ATOM      7  O   UNL     1      -2.820  -1.823   1.146  1.00  0.00    -0.362 OA
ATOM      8  C   UNL     1      -3.430  -1.324   2.315  1.00  0.00     0.197 C 
ENDBRANCH   1   7
BRANCH   6   9
ATOM      9  C   UNL     1      -0.912   0.736   1.231  1.00  0.00     0.295 C 
ATOM     10  O   UNL     1      -0.118   0.501   2.183  1.00  0.00    -0.268 OA
BRANCH   9  11
ATOM     11  C   UNL     1      -1.553   2.100   1.136  1.00  0.00     0.322 C 
ATOM     12  C   UNL     1      -1.631   2.590  -0.309  1.00  0.00     0.098 C 
ATOM     13  F   UNL     1      -0.805   3.011   1.863  1.00  0.00    -0.196 F 
ATOM     14  F   UNL     1      -2.824   2.054   1.680  1.00  0.00    -0.196 F 
ENDBRANCH   9  11
ENDBRANCH   6   9
BRANCH   5  15
ATOM     15  C   UNL     1       1.208  -0.555  -0.221  1.00  0.00     0.039 A 
ATOM     16  C   UNL     1       1.544   0.532  -1.030  1.00  0.00     0.034 A 
ATOM     17  N   UNL     1       2.252  -0.917   0.561  1.00  0.00    -0.357 N 
ATOM     18  C   UNL     1       2.851   0.823  -0.708  1.00  0.00     0.003 A 
ATOM     19  C   UNL     1       3.247  -0.069   0.254  1.00  0.00     0.046 A 
ATOM     20  C   UNL     1       3.704   1.812  -1.192  1.00  0.00     0.049 A 
ATOM     21  C   UNL     1       4.529  -0.034   0.801  1.00  0.00     0.029 A 
ATOM     22  C   UNL     1       5.006   1.872  -0.660  1.00  0.00     0.123 A 
ATOM     23  C   UNL     1       5.417   0.953   0.332  1.00  0.00     0.041 A 
ATOM     24  H   UNL     1       2.277  -1.688   1.266  1.00  0.00     0.166 HD
ATOM     25  F   UNL     1       5.871   2.818  -1.102  1.00  0.00    -0.207 F 
ENDBRANCH   5  15
TORSDOF 4


