MODEL 1
REMARK VINA RESULT:      -6.3      0.000      0.000
REMARK SMILES CCCC[C@H](CC)C[N-]C(=O)N1N[C@@H](C)O[C@H]1c1cc2ccc(F)cc2[nH]1
REMARK SMILES IDX 8 1 5 2 4 3 3 4 2 5 1 6 6 7 7 8 9 9 10 10 11 11 12 12 13 13
REMARK SMILES IDX 17 14 14 15 16 16 15 18 18 19 19 20 27 21 20 22 26 23 21 24
REMARK SMILES IDX 25 25 22 26 23 27 24 29
REMARK H PARENT 13 17 27 28
ROOT
ATOM      1  C   UNL     1      45.497 129.674  17.552  1.00  0.00     0.007 C 
ENDROOT
BRANCH   1   2
ATOM      2  C   UNL     1      44.821 129.859  16.171  1.00  0.00    -0.012 C 
BRANCH   2   3
ATOM      3  C   UNL     1      45.792 129.487  15.016  1.00  0.00     0.003 C 
BRANCH   3   4
ATOM      4  C   UNL     1      47.104 130.295  14.960  1.00  0.00    -0.000 C 
BRANCH   4   5
ATOM      5  C   UNL     1      47.121 131.331  13.824  1.00  0.00    -0.003 C 
ATOM      6  C   UNL     1      48.019 130.879  12.676  1.00  0.00     0.004 C 
ENDBRANCH   4   5
ENDBRANCH   3   4
ENDBRANCH   2   3
BRANCH   2   7
ATOM      7  C   UNL     1      44.306 131.315  16.010  1.00  0.00    -0.000 C 
ATOM      8  C   UNL     1      43.821 131.640  14.594  1.00  0.00     0.004 C 
ENDBRANCH   2   7
ENDBRANCH   1   2
BRANCH   1   9
ATOM      9  N   UNL     1      45.717 130.963  18.201  1.00  0.00    -0.430 NA
BRANCH   9  10
ATOM     10  C   UNL     1      45.463 131.228  19.585  1.00  0.00     0.169 C 
ATOM     11  O   UNL     1      46.353 131.001  20.450  1.00  0.00    -0.298 OA
BRANCH  10  12
ATOM     12  N   UNL     1      44.201 131.779  19.985  1.00  0.00    -0.349 N 
ATOM     13  N   UNL     1      43.250 132.215  19.072  1.00  0.00    -0.274 NA
ATOM     14  C   UNL     1      43.780 131.973  21.349  1.00  0.00     0.188 C 
ATOM     15  C   UNL     1      42.243 132.846  19.934  1.00  0.00     0.185 C 
ATOM     16  O   UNL     1      42.489 132.524  21.294  1.00  0.00    -0.353 OA
ATOM     17  H   UNL     1      42.862 131.357  18.615  1.00  0.00     0.128 HD
ATOM     18  C   UNL     1      40.820 132.428  19.555  1.00  0.00     0.056 C 
BRANCH  14  19
ATOM     19  C   UNL     1      43.738 130.661  22.079  1.00  0.00     0.046 A 
ATOM     20  C   UNL     1      44.817 129.792  22.219  1.00  0.00     0.034 A 
ATOM     21  N   UNL     1      42.607 130.119  22.588  1.00  0.00    -0.356 N 
ATOM     22  C   UNL     1      44.298 128.681  22.846  1.00  0.00    -0.000 A 
ATOM     23  C   UNL     1      42.963 128.912  23.055  1.00  0.00     0.049 A 
ATOM     24  C   UNL     1      44.904 127.482  23.211  1.00  0.00     0.013 A 
ATOM     25  C   UNL     1      42.140 127.957  23.651  1.00  0.00     0.065 A 
ATOM     26  C   UNL     1      44.100 126.501  23.822  1.00  0.00     0.040 A 
ATOM     27  C   UNL     1      42.724 126.737  24.041  1.00  0.00     0.125 A 
ATOM     28  H   UNL     1      41.649 130.536  22.586  1.00  0.00     0.166 HD
ATOM     29  F   UNL     1      41.961 125.781  24.624  1.00  0.00    -0.207 F 
ENDBRANCH  14  19
ENDBRANCH  10  12
ENDBRANCH   9  10
ENDBRANCH   1   9
TORSDOF 9
ENDMDL
MODEL 2
REMARK VINA RESULT:      -5.6      1.489      1.925
REMARK SMILES CCCC[C@H](CC)C[N-]C(=O)N1N[C@@H](C)O[C@H]1c1cc2ccc(F)cc2[nH]1
REMARK SMILES IDX 8 1 5 2 4 3 3 4 2 5 1 6 6 7 7 8 9 9 10 10 11 11 12 12 13 13
REMARK SMILES IDX 17 14 14 15 16 16 15 18 18 19 19 20 27 21 20 22 26 23 21 24
REMARK SMILES IDX 25 25 22 26 23 27 24 29
REMARK H PARENT 13 17 27 28
ROOT
ATOM      1  C   UNL     1      46.236 130.351  16.126  1.00  0.00     0.007 C 
ENDROOT
BRANCH   1   2
ATOM      2  C   UNL     1      45.504 130.793  14.835  1.00  0.00    -0.012 C 
BRANCH   2   3
ATOM      3  C   UNL     1      46.364 131.800  14.021  1.00  0.00     0.003 C 
BRANCH   3   4
ATOM      4  C   UNL     1      47.600 131.207  13.315  1.00  0.00    -0.000 C 
BRANCH   4   5
ATOM      5  C   UNL     1      47.750 129.694  13.542  1.00  0.00    -0.003 C 
ATOM      6  C   UNL     1      49.209 129.312  13.772  1.00  0.00     0.004 C 
ENDBRANCH   4   5
ENDBRANCH   3   4
ENDBRANCH   2   3
BRANCH   2   7
ATOM      7  C   UNL     1      44.119 131.404  15.179  1.00  0.00    -0.000 C 
ATOM      8  C   UNL     1      43.209 131.583  13.962  1.00  0.00     0.004 C 
ENDBRANCH   2   7
ENDBRANCH   1   2
BRANCH   1   9
ATOM      9  N   UNL     1      45.859 131.196  17.255  1.00  0.00    -0.430 NA
BRANCH   9  10
ATOM     10  C   UNL     1      45.476 130.704  18.544  1.00  0.00     0.169 C 
ATOM     11  O   UNL     1      45.964 129.627  18.986  1.00  0.00    -0.298 OA
BRANCH  10  12
ATOM     12  N   UNL     1      44.555 131.453  19.348  1.00  0.00    -0.349 N 
ATOM     13  N   UNL     1      43.461 132.119  18.811  1.00  0.00    -0.274 NA
ATOM     14  C   UNL     1      44.659 131.632  20.773  1.00  0.00     0.188 C 
ATOM     15  C   UNL     1      42.944 132.868  19.963  1.00  0.00     0.185 C 
ATOM     16  O   UNL     1      43.560 132.417  21.159  1.00  0.00    -0.353 OA
ATOM     17  H   UNL     1      42.781 131.380  18.514  1.00  0.00     0.128 HD
ATOM     18  C   UNL     1      41.423 132.750  20.090  1.00  0.00     0.056 C 
BRANCH  14  19
ATOM     19  C   UNL     1      44.603 130.306  21.476  1.00  0.00     0.046 A 
ATOM     20  C   UNL     1      43.678 129.961  22.458  1.00  0.00     0.034 A 
ATOM     21  N   UNL     1      45.527 129.329  21.313  1.00  0.00    -0.356 N 
ATOM     22  C   UNL     1      44.073 128.716  22.895  1.00  0.00    -0.000 A 
ATOM     23  C   UNL     1      45.191 128.364  22.183  1.00  0.00     0.049 A 
ATOM     24  C   UNL     1      43.544 127.895  23.887  1.00  0.00     0.013 A 
ATOM     25  C   UNL     1      45.855 127.160  22.412  1.00  0.00     0.065 A 
ATOM     26  C   UNL     1      44.188 126.670  24.136  1.00  0.00     0.040 A 
ATOM     27  C   UNL     1      45.339 126.302  23.402  1.00  0.00     0.125 A 
ATOM     28  H   UNL     1      46.352 129.338  20.670  1.00  0.00     0.166 HD
ATOM     29  F   UNL     1      45.953 125.122  23.657  1.00  0.00    -0.207 F 
ENDBRANCH  14  19
ENDBRANCH  10  12
ENDBRANCH   9  10
ENDBRANCH   1   9
TORSDOF 9
ENDMDL
MODEL 3
REMARK VINA RESULT:      -5.3      4.760      7.699
REMARK SMILES CCCC[C@H](CC)C[N-]C(=O)N1N[C@@H](C)O[C@H]1c1cc2ccc(F)cc2[nH]1
REMARK SMILES IDX 8 1 5 2 4 3 3 4 2 5 1 6 6 7 7 8 9 9 10 10 11 11 12 12 13 13
REMARK SMILES IDX 17 14 14 15 16 16 15 18 18 19 19 20 27 21 20 22 26 23 21 24
REMARK SMILES IDX 25 25 22 26 23 27 24 29
REMARK H PARENT 13 17 27 28
ROOT
ATOM      1  C   UNL     1      48.100 134.470  22.831  1.00  0.00     0.007 C 
ENDROOT
BRANCH   1   2
ATOM      2  C   UNL     1      49.458 134.360  23.566  1.00  0.00    -0.012 C 
BRANCH   2   3
ATOM      3  C   UNL     1      50.580 135.102  22.786  1.00  0.00     0.003 C 
BRANCH   3   4
ATOM      4  C   UNL     1      50.349 136.609  22.556  1.00  0.00    -0.000 C 
BRANCH   4   5
ATOM      5  C   UNL     1      50.381 136.999  21.069  1.00  0.00    -0.003 C 
ATOM      6  C   UNL     1      48.978 137.284  20.543  1.00  0.00     0.004 C 
ENDBRANCH   4   5
ENDBRANCH   3   4
ENDBRANCH   2   3
BRANCH   2   7
ATOM      7  C   UNL     1      49.835 132.871  23.789  1.00  0.00    -0.000 C 
ATOM      8  C   UNL     1      51.300 132.661  24.179  1.00  0.00     0.004 C 
ENDBRANCH   2   7
ENDBRANCH   1   2
BRANCH   1   9
ATOM      9  N   UNL     1      47.828 133.264  22.056  1.00  0.00    -0.430 NA
BRANCH   9  10
ATOM     10  C   UNL     1      46.637 133.043  21.291  1.00  0.00     0.169 C 
ATOM     11  O   UNL     1      46.287 133.868  20.404  1.00  0.00    -0.298 OA
BRANCH  10  12
ATOM     12  N   UNL     1      45.855 131.862  21.518  1.00  0.00    -0.349 N 
ATOM     13  N   UNL     1      44.924 131.765  22.544  1.00  0.00    -0.274 NA
ATOM     14  C   UNL     1      45.951 130.647  20.749  1.00  0.00     0.188 C 
ATOM     15  C   UNL     1      44.528 130.352  22.485  1.00  0.00     0.185 C 
ATOM     16  O   UNL     1      45.013 129.755  21.292  1.00  0.00    -0.353 OA
ATOM     17  H   UNL     1      44.123 132.385  22.278  1.00  0.00     0.128 HD
ATOM     18  C   UNL     1      43.010 130.176  22.570  1.00  0.00     0.056 C 
BRANCH  14  19
ATOM     19  C   UNL     1      45.622 130.910  19.307  1.00  0.00     0.046 A 
ATOM     20  C   UNL     1      44.412 131.419  18.845  1.00  0.00     0.034 A 
ATOM     21  N   UNL     1      46.433 130.569  18.277  1.00  0.00    -0.356 N 
ATOM     22  C   UNL     1      44.513 131.380  17.472  1.00  0.00    -0.000 A 
ATOM     23  C   UNL     1      45.745 130.864  17.163  1.00  0.00     0.049 A 
ATOM     24  C   UNL     1      43.595 131.733  16.486  1.00  0.00     0.013 A 
ATOM     25  C   UNL     1      46.147 130.669  15.842  1.00  0.00     0.065 A 
ATOM     26  C   UNL     1      43.975 131.555  15.143  1.00  0.00     0.040 A 
ATOM     27  C   UNL     1      45.245 131.025  14.821  1.00  0.00     0.125 A 
ATOM     28  H   UNL     1      47.382 130.134  18.335  1.00  0.00     0.166 HD
ATOM     29  F   UNL     1      45.594 130.852  13.524  1.00  0.00    -0.207 F 
ENDBRANCH  14  19
ENDBRANCH  10  12
ENDBRANCH   9  10
ENDBRANCH   1   9
TORSDOF 9
ENDMDL
MODEL 4
REMARK VINA RESULT:      -5.0      3.053      7.721
REMARK SMILES CCCC[C@H](CC)C[N-]C(=O)N1N[C@@H](C)O[C@H]1c1cc2ccc(F)cc2[nH]1
REMARK SMILES IDX 8 1 5 2 4 3 3 4 2 5 1 6 6 7 7 8 9 9 10 10 11 11 12 12 13 13
REMARK SMILES IDX 17 14 14 15 16 16 15 18 18 19 19 20 27 21 20 22 26 23 21 24
REMARK SMILES IDX 25 25 22 26 23 27 24 29
REMARK H PARENT 13 17 27 28
ROOT
ATOM      1  C   UNL     1      44.642 128.981  21.964  1.00  0.00     0.007 C 
ENDROOT
BRANCH   1   2
ATOM      2  C   UNL     1      44.870 128.301  23.336  1.00  0.00    -0.012 C 
BRANCH   2   3
ATOM      3  C   UNL     1      44.488 126.795  23.287  1.00  0.00     0.003 C 
BRANCH   3   4
ATOM      4  C   UNL     1      45.642 125.823  22.970  1.00  0.00    -0.000 C 
BRANCH   4   5
ATOM      5  C   UNL     1      45.151 124.431  22.537  1.00  0.00    -0.003 C 
ATOM      6  C   UNL     1      44.586 123.652  23.721  1.00  0.00     0.004 C 
ENDBRANCH   4   5
ENDBRANCH   3   4
ENDBRANCH   2   3
BRANCH   2   7
ATOM      7  C   UNL     1      44.070 129.035  24.445  1.00  0.00    -0.000 C 
ATOM      8  C   UNL     1      44.203 130.559  24.390  1.00  0.00     0.004 C 
ENDBRANCH   2   7
ENDBRANCH   1   2
BRANCH   1   9
ATOM      9  N   UNL     1      45.798 129.787  21.584  1.00  0.00    -0.430 NA
BRANCH   9  10
ATOM     10  C   UNL     1      45.753 130.888  20.670  1.00  0.00     0.169 C 
ATOM     11  O   UNL     1      46.807 131.514  20.373  1.00  0.00    -0.298 OA
BRANCH  10  12
ATOM     12  N   UNL     1      44.506 131.263  20.067  1.00  0.00    -0.349 N 
ATOM     13  N   UNL     1      43.712 132.289  20.562  1.00  0.00    -0.274 NA
ATOM     14  C   UNL     1      43.919 130.622  18.918  1.00  0.00     0.188 C 
ATOM     15  C   UNL     1      42.495 132.174  19.749  1.00  0.00     0.185 C 
ATOM     16  O   UNL     1      42.716 131.297  18.655  1.00  0.00    -0.353 OA
ATOM     17  H   UNL     1      44.216 133.182  20.350  1.00  0.00     0.128 HD
ATOM     18  C   UNL     1      42.019 133.533  19.232  1.00  0.00     0.056 C 
BRANCH  14  19
ATOM     19  C   UNL     1      44.831 130.732  17.730  1.00  0.00     0.046 A 
ATOM     20  C   UNL     1      44.958 131.860  16.924  1.00  0.00     0.034 A 
ATOM     21  N   UNL     1      45.552 129.697  17.237  1.00  0.00    -0.356 N 
ATOM     22  C   UNL     1      45.800 131.475  15.905  1.00  0.00    -0.000 A 
ATOM     23  C   UNL     1      46.141 130.165  16.124  1.00  0.00     0.049 A 
ATOM     24  C   UNL     1      46.256 132.177  14.792  1.00  0.00     0.013 A 
ATOM     25  C   UNL     1      46.968 129.467  15.246  1.00  0.00     0.065 A 
ATOM     26  C   UNL     1      47.099 131.501  13.891  1.00  0.00     0.040 A 
ATOM     27  C   UNL     1      47.454 130.151  14.116  1.00  0.00     0.125 A 
ATOM     28  H   UNL     1      45.611 128.727  17.621  1.00  0.00     0.166 HD
ATOM     29  F   UNL     1      48.261 129.511  13.236  1.00  0.00    -0.207 F 
ENDBRANCH  14  19
ENDBRANCH  10  12
ENDBRANCH   9  10
ENDBRANCH   1   9
TORSDOF 9
ENDMDL
MODEL 5
REMARK VINA RESULT:      -4.8      4.633      7.591
REMARK SMILES CCCC[C@H](CC)C[N-]C(=O)N1N[C@@H](C)O[C@H]1c1cc2ccc(F)cc2[nH]1
REMARK SMILES IDX 8 1 5 2 4 3 3 4 2 5 1 6 6 7 7 8 9 9 10 10 11 11 12 12 13 13
REMARK SMILES IDX 17 14 14 15 16 16 15 18 18 19 19 20 27 21 20 22 26 23 21 24
REMARK SMILES IDX 25 25 22 26 23 27 24 29
REMARK H PARENT 13 17 27 28
ROOT
ATOM      1  C   UNL     1      47.527 134.825  21.762  1.00  0.00     0.007 C 
ENDROOT
BRANCH   1   2
ATOM      2  C   UNL     1      49.043 135.139  21.712  1.00  0.00    -0.012 C 
BRANCH   2   3
ATOM      3  C   UNL     1      49.684 135.036  23.124  1.00  0.00     0.003 C 
BRANCH   3   4
ATOM      4  C   UNL     1      49.800 133.612  23.704  1.00  0.00    -0.000 C 
BRANCH   4   5
ATOM      5  C   UNL     1      51.041 133.426  24.593  1.00  0.00    -0.003 C 
ATOM      6  C   UNL     1      52.192 132.801  23.810  1.00  0.00     0.004 C 
ENDBRANCH   4   5
ENDBRANCH   3   4
ENDBRANCH   2   3
BRANCH   2   7
ATOM      7  C   UNL     1      49.287 136.543  21.098  1.00  0.00    -0.000 C 
ATOM      8  C   UNL     1      50.494 137.272  21.694  1.00  0.00     0.004 C 
ENDBRANCH   2   7
ENDBRANCH   1   2
BRANCH   1   9
ATOM      9  N   UNL     1      47.263 133.460  21.318  1.00  0.00    -0.430 NA
BRANCH   9  10
ATOM     10  C   UNL     1      46.000 132.998  20.825  1.00  0.00     0.169 C 
ATOM     11  O   UNL     1      45.318 133.718  20.046  1.00  0.00    -0.298 OA
BRANCH  10  12
ATOM     12  N   UNL     1      45.523 131.698  21.199  1.00  0.00    -0.349 N 
ATOM     13  N   UNL     1      44.654 131.495  22.263  1.00  0.00    -0.274 NA
ATOM     14  C   UNL     1      45.894 130.465  20.553  1.00  0.00     0.188 C 
ATOM     15  C   UNL     1      44.605 130.031  22.362  1.00  0.00     0.185 C 
ATOM     16  O   UNL     1      45.201 129.440  21.218  1.00  0.00    -0.353 OA
ATOM     17  H   UNL     1      43.726 131.878  21.966  1.00  0.00     0.128 HD
ATOM     18  C   UNL     1      43.173 129.515  22.521  1.00  0.00     0.056 C 
BRANCH  14  19
ATOM     19  C   UNL     1      45.495 130.487  19.105  1.00  0.00     0.046 A 
ATOM     20  C   UNL     1      46.153 129.804  18.086  1.00  0.00     0.034 A 
ATOM     21  N   UNL     1      44.511 131.274  18.609  1.00  0.00    -0.356 N 
ATOM     22  C   UNL     1      45.524 130.204  16.928  1.00  0.00    -0.000 A 
ATOM     23  C   UNL     1      44.537 131.090  17.279  1.00  0.00     0.049 A 
ATOM     24  C   UNL     1      45.776 129.873  15.599  1.00  0.00     0.013 A 
ATOM     25  C   UNL     1      43.730 131.703  16.322  1.00  0.00     0.065 A 
ATOM     26  C   UNL     1      44.973 130.471  14.611  1.00  0.00     0.040 A 
ATOM     27  C   UNL     1      43.953 131.382  14.970  1.00  0.00     0.125 A 
ATOM     28  H   UNL     1      43.884 131.917  19.143  1.00  0.00     0.166 HD
ATOM     29  F   UNL     1      43.192 131.955  14.007  1.00  0.00    -0.207 F 
ENDBRANCH  14  19
ENDBRANCH  10  12
ENDBRANCH   9  10
ENDBRANCH   1   9
TORSDOF 9
ENDMDL
MODEL 6
REMARK VINA RESULT:      -4.6      4.537      7.706
REMARK SMILES CCCC[C@H](CC)C[N-]C(=O)N1N[C@@H](C)O[C@H]1c1cc2ccc(F)cc2[nH]1
REMARK SMILES IDX 8 1 5 2 4 3 3 4 2 5 1 6 6 7 7 8 9 9 10 10 11 11 12 12 13 13
REMARK SMILES IDX 17 14 14 15 16 16 15 18 18 19 19 20 27 21 20 22 26 23 21 24
REMARK SMILES IDX 25 25 22 26 23 27 24 29
REMARK H PARENT 13 17 27 28
ROOT
ATOM      1  C   UNL     1      47.527 134.654  20.913  1.00  0.00     0.007 C 
ENDROOT
BRANCH   1   2
ATOM      2  C   UNL     1      48.884 134.937  21.603  1.00  0.00    -0.012 C 
BRANCH   2   3
ATOM      3  C   UNL     1      48.819 134.614  23.122  1.00  0.00     0.003 C 
BRANCH   3   4
ATOM      4  C   UNL     1      50.167 134.282  23.793  1.00  0.00    -0.000 C 
BRANCH   4   5
ATOM      5  C   UNL     1      50.361 132.776  24.036  1.00  0.00    -0.003 C 
ATOM      6  C   UNL     1      51.841 132.420  24.140  1.00  0.00     0.004 C 
ENDBRANCH   4   5
ENDBRANCH   3   4
ENDBRANCH   2   3
BRANCH   2   7
ATOM      7  C   UNL     1      49.314 136.410  21.371  1.00  0.00    -0.000 C 
ATOM      8  C   UNL     1      50.388 136.896  22.348  1.00  0.00     0.004 C 
ENDBRANCH   2   7
ENDBRANCH   1   2
BRANCH   1   9
ATOM      9  N   UNL     1      46.834 133.544  21.561  1.00  0.00    -0.430 NA
BRANCH   9  10
ATOM     10  C   UNL     1      46.463 132.327  20.905  1.00  0.00     0.169 C 
ATOM     11  O   UNL     1      47.337 131.461  20.625  1.00  0.00    -0.298 OA
BRANCH  10  12
ATOM     12  N   UNL     1      45.086 132.079  20.590  1.00  0.00    -0.349 N 
ATOM     13  N   UNL     1      44.058 132.908  21.018  1.00  0.00    -0.274 NA
ATOM     14  C   UNL     1      44.601 130.952  19.835  1.00  0.00     0.188 C 
ATOM     15  C   UNL     1      42.857 132.164  20.618  1.00  0.00     0.185 C 
ATOM     16  O   UNL     1      43.207 131.096  19.752  1.00  0.00    -0.353 OA
ATOM     17  H   UNL     1      44.144 133.796  20.468  1.00  0.00     0.128 HD
ATOM     18  C   UNL     1      41.824 133.064  19.937  1.00  0.00     0.056 C 
BRANCH  14  19
ATOM     19  C   UNL     1      45.192 130.951  18.453  1.00  0.00     0.046 A 
ATOM     20  C   UNL     1      44.854 131.845  17.441  1.00  0.00     0.034 A 
ATOM     21  N   UNL     1      46.043 130.000  18.001  1.00  0.00    -0.356 N 
ATOM     22  C   UNL     1      45.543 131.402  16.334  1.00  0.00    -0.000 A 
ATOM     23  C   UNL     1      46.251 130.288  16.706  1.00  0.00     0.049 A 
ATOM     24  C   UNL     1      45.564 131.885  15.028  1.00  0.00     0.013 A 
ATOM     25  C   UNL     1      47.035 129.582  15.796  1.00  0.00     0.065 A 
ATOM     26  C   UNL     1      46.353 131.197  14.088  1.00  0.00     0.040 A 
ATOM     27  C   UNL     1      47.086 130.050  14.469  1.00  0.00     0.125 A 
ATOM     28  H   UNL     1      46.429 129.189  18.535  1.00  0.00     0.166 HD
ATOM     29  F   UNL     1      47.836 129.393  13.551  1.00  0.00    -0.207 F 
ENDBRANCH  14  19
ENDBRANCH  10  12
ENDBRANCH   9  10
ENDBRANCH   1   9
TORSDOF 9
ENDMDL
MODEL 7
REMARK VINA RESULT:      -4.6      1.365      1.861
REMARK SMILES CCCC[C@H](CC)C[N-]C(=O)N1N[C@@H](C)O[C@H]1c1cc2ccc(F)cc2[nH]1
REMARK SMILES IDX 8 1 5 2 4 3 3 4 2 5 1 6 6 7 7 8 9 9 10 10 11 11 12 12 13 13
REMARK SMILES IDX 17 14 14 15 16 16 15 18 18 19 19 20 27 21 20 22 26 23 21 24
REMARK SMILES IDX 25 25 22 26 23 27 24 29
REMARK H PARENT 13 17 27 28
ROOT
ATOM      1  C   UNL     1      44.186 131.334  17.245  1.00  0.00     0.007 C 
ENDROOT
BRANCH   1   2
ATOM      2  C   UNL     1      44.986 131.059  15.948  1.00  0.00    -0.012 C 
BRANCH   2   3
ATOM      3  C   UNL     1      45.653 129.656  15.988  1.00  0.00     0.003 C 
BRANCH   3   4
ATOM      4  C   UNL     1      46.332 129.202  14.680  1.00  0.00    -0.000 C 
BRANCH   4   5
ATOM      5  C   UNL     1      47.867 129.238  14.758  1.00  0.00    -0.003 C 
ATOM      6  C   UNL     1      48.484 129.465  13.381  1.00  0.00     0.004 C 
ENDBRANCH   4   5
ENDBRANCH   3   4
ENDBRANCH   2   3
BRANCH   2   7
ATOM      7  C   UNL     1      46.048 132.168  15.721  1.00  0.00    -0.000 C 
ATOM      8  C   UNL     1      46.538 132.260  14.274  1.00  0.00     0.004 C 
ENDBRANCH   2   7
ENDBRANCH   1   2
BRANCH   1   9
ATOM      9  N   UNL     1      45.084 131.622  18.360  1.00  0.00    -0.430 NA
BRANCH   9  10
ATOM     10  C   UNL     1      44.932 131.090  19.681  1.00  0.00     0.169 C 
ATOM     11  O   UNL     1      45.637 130.115  20.060  1.00  0.00    -0.298 OA
BRANCH  10  12
ATOM     12  N   UNL     1      43.994 131.687  20.586  1.00  0.00    -0.349 N 
ATOM     13  N   UNL     1      42.902 132.428  20.153  1.00  0.00    -0.274 NA
ATOM     14  C   UNL     1      44.075 131.622  22.023  1.00  0.00     0.188 C 
ATOM     15  C   UNL     1      42.363 132.968  21.407  1.00  0.00     0.185 C 
ATOM     16  O   UNL     1      42.965 132.324  22.519  1.00  0.00    -0.353 OA
ATOM     17  H   UNL     1      42.232 131.747  19.724  1.00  0.00     0.128 HD
ATOM     18  C   UNL     1      40.841 132.822  21.488  1.00  0.00     0.056 C 
BRANCH  14  19
ATOM     19  C   UNL     1      44.021 130.195  22.489  1.00  0.00     0.046 A 
ATOM     20  C   UNL     1      42.862 129.526  22.875  1.00  0.00     0.034 A 
ATOM     21  N   UNL     1      45.118 129.429  22.697  1.00  0.00    -0.356 N 
ATOM     22  C   UNL     1      43.296 128.301  23.331  1.00  0.00    -0.000 A 
ATOM     23  C   UNL     1      44.662 128.275  23.209  1.00  0.00     0.049 A 
ATOM     24  C   UNL     1      42.585 127.232  23.871  1.00  0.00     0.013 A 
ATOM     25  C   UNL     1      45.412 127.172  23.614  1.00  0.00     0.065 A 
ATOM     26  C   UNL     1      43.314 126.102  24.284  1.00  0.00     0.040 A 
ATOM     27  C   UNL     1      44.722 126.071  24.156  1.00  0.00     0.125 A 
ATOM     28  H   UNL     1      46.115 129.692  22.528  1.00  0.00     0.166 HD
ATOM     29  F   UNL     1      45.412 124.978  24.563  1.00  0.00    -0.207 F 
ENDBRANCH  14  19
ENDBRANCH  10  12
ENDBRANCH   9  10
ENDBRANCH   1   9
TORSDOF 9
ENDMDL
MODEL 8
REMARK VINA RESULT:      -4.4      4.333      7.524
REMARK SMILES CCCC[C@H](CC)C[N-]C(=O)N1N[C@@H](C)O[C@H]1c1cc2ccc(F)cc2[nH]1
REMARK SMILES IDX 8 1 5 2 4 3 3 4 2 5 1 6 6 7 7 8 9 9 10 10 11 11 12 12 13 13
REMARK SMILES IDX 17 14 14 15 16 16 15 18 18 19 19 20 27 21 20 22 26 23 21 24
REMARK SMILES IDX 25 25 22 26 23 27 24 29
REMARK H PARENT 13 17 27 28
ROOT
ATOM      1  C   UNL     1      46.392 133.815  21.204  1.00  0.00     0.007 C 
ENDROOT
BRANCH   1   2
ATOM      2  C   UNL     1      47.358 134.676  22.054  1.00  0.00    -0.012 C 
BRANCH   2   3
ATOM      3  C   UNL     1      48.578 135.145  21.212  1.00  0.00     0.003 C 
BRANCH   3   4
ATOM      4  C   UNL     1      48.519 136.599  20.702  1.00  0.00    -0.000 C 
BRANCH   4   5
ATOM      5  C   UNL     1      49.911 137.204  20.455  1.00  0.00    -0.003 C 
ATOM      6  C   UNL     1      50.467 137.843  21.724  1.00  0.00     0.004 C 
ENDBRANCH   4   5
ENDBRANCH   3   4
ENDBRANCH   2   3
BRANCH   2   7
ATOM      7  C   UNL     1      47.824 133.891  23.309  1.00  0.00    -0.000 C 
ATOM      8  C   UNL     1      49.344 133.871  23.490  1.00  0.00     0.004 C 
ENDBRANCH   2   7
ENDBRANCH   1   2
BRANCH   1   9
ATOM      9  N   UNL     1      46.872 132.440  21.102  1.00  0.00    -0.430 NA
BRANCH   9  10
ATOM     10  C   UNL     1      46.055 131.319  20.748  1.00  0.00     0.169 C 
ATOM     11  O   UNL     1      46.470 130.143  20.934  1.00  0.00    -0.298 OA
BRANCH  10  12
ATOM     12  N   UNL     1      44.745 131.537  20.204  1.00  0.00    -0.349 N 
ATOM     13  N   UNL     1      43.897 132.534  20.667  1.00  0.00    -0.274 NA
ATOM     14  C   UNL     1      44.146 130.752  19.155  1.00  0.00     0.188 C 
ATOM     15  C   UNL     1      42.647 132.250  19.952  1.00  0.00     0.185 C 
ATOM     16  O   UNL     1      42.875 131.302  18.921  1.00  0.00    -0.353 OA
ATOM     17  H   UNL     1      44.307 133.444  20.349  1.00  0.00     0.128 HD
ATOM     18  C   UNL     1      42.023 133.516  19.360  1.00  0.00     0.056 C 
BRANCH  14  19
ATOM     19  C   UNL     1      44.970 130.832  17.901  1.00  0.00     0.046 A 
ATOM     20  C   UNL     1      44.890 131.854  16.959  1.00  0.00     0.034 A 
ATOM     21  N   UNL     1      45.807 129.852  17.488  1.00  0.00    -0.356 N 
ATOM     22  C   UNL     1      45.725 131.459  15.937  1.00  0.00    -0.000 A 
ATOM     23  C   UNL     1      46.263 130.248  16.289  1.00  0.00     0.049 A 
ATOM     24  C   UNL     1      46.017 132.068  14.719  1.00  0.00     0.013 A 
ATOM     25  C   UNL     1      47.136 129.563  15.445  1.00  0.00     0.065 A 
ATOM     26  C   UNL     1      46.901 131.404  13.850  1.00  0.00     0.040 A 
ATOM     27  C   UNL     1      47.459 130.156  14.210  1.00  0.00     0.125 A 
ATOM     28  H   UNL     1      46.025 128.956  17.980  1.00  0.00     0.166 HD
ATOM     29  F   UNL     1      48.303 129.524  13.359  1.00  0.00    -0.207 F 
ENDBRANCH  14  19
ENDBRANCH  10  12
ENDBRANCH   9  10
ENDBRANCH   1   9
TORSDOF 9
ENDMDL
MODEL 9
REMARK VINA RESULT:      -4.3      4.774      7.263
REMARK SMILES CCCC[C@H](CC)C[N-]C(=O)N1N[C@@H](C)O[C@H]1c1cc2ccc(F)cc2[nH]1
REMARK SMILES IDX 8 1 5 2 4 3 3 4 2 5 1 6 6 7 7 8 9 9 10 10 11 11 12 12 13 13
REMARK SMILES IDX 17 14 14 15 16 16 15 18 18 19 19 20 27 21 20 22 26 23 21 24
REMARK SMILES IDX 25 25 22 26 23 27 24 29
REMARK H PARENT 13 17 27 28
ROOT
ATOM      1  C   UNL     1      47.962 134.933  21.282  1.00  0.00     0.007 C 
ENDROOT
BRANCH   1   2
ATOM      2  C   UNL     1      49.059 135.598  22.150  1.00  0.00    -0.012 C 
BRANCH   2   3
ATOM      3  C   UNL     1      50.241 136.098  21.273  1.00  0.00     0.003 C 
BRANCH   3   4
ATOM      4  C   UNL     1      49.864 137.060  20.128  1.00  0.00    -0.000 C 
BRANCH   4   5
ATOM      5  C   UNL     1      49.231 138.368  20.629  1.00  0.00    -0.003 C 
ATOM      6  C   UNL     1      48.223 138.915  19.622  1.00  0.00     0.004 C 
ENDBRANCH   4   5
ENDBRANCH   3   4
ENDBRANCH   2   3
BRANCH   2   7
ATOM      7  C   UNL     1      49.561 134.613  23.239  1.00  0.00    -0.000 C 
ATOM      8  C   UNL     1      51.050 134.760  23.560  1.00  0.00     0.004 C 
ENDBRANCH   2   7
ENDBRANCH   1   2
BRANCH   1   9
ATOM      9  N   UNL     1      47.307 133.851  22.011  1.00  0.00    -0.430 NA
BRANCH   9  10
ATOM     10  C   UNL     1      46.971 132.579  21.444  1.00  0.00     0.169 C 
ATOM     11  O   UNL     1      47.784 131.986  20.683  1.00  0.00    -0.298 OA
BRANCH  10  12
ATOM     12  N   UNL     1      45.716 131.965  21.767  1.00  0.00    -0.349 N 
ATOM     13  N   UNL     1      44.799 132.544  22.634  1.00  0.00    -0.274 NA
ATOM     14  C   UNL     1      45.269 130.689  21.270  1.00  0.00     0.188 C 
ATOM     15  C   UNL     1      43.790 131.489  22.786  1.00  0.00     0.185 C 
ATOM     16  O   UNL     1      43.996 130.469  21.820  1.00  0.00    -0.353 OA
ATOM     17  H   UNL     1      44.398 133.371  22.132  1.00  0.00     0.128 HD
ATOM     18  C   UNL     1      42.365 132.034  22.664  1.00  0.00     0.056 C 
BRANCH  14  19
ATOM     19  C   UNL     1      45.174 130.712  19.771  1.00  0.00     0.046 A 
ATOM     20  C   UNL     1      46.126 130.183  18.904  1.00  0.00     0.034 A 
ATOM     21  N   UNL     1      44.199 131.358  19.089  1.00  0.00    -0.356 N 
ATOM     22  C   UNL     1      45.690 130.530  17.645  1.00  0.00    -0.000 A 
ATOM     23  C   UNL     1      44.524 131.237  17.792  1.00  0.00     0.049 A 
ATOM     24  C   UNL     1      46.257 130.300  16.394  1.00  0.00     0.013 A 
ATOM     25  C   UNL     1      43.841 131.759  16.695  1.00  0.00     0.065 A 
ATOM     26  C   UNL     1      45.587 130.808  15.266  1.00  0.00     0.040 A 
ATOM     27  C   UNL     1      44.383 131.534  15.415  1.00  0.00     0.125 A 
ATOM     28  H   UNL     1      43.382 131.873  19.488  1.00  0.00     0.166 HD
ATOM     29  F   UNL     1      43.752 132.024  14.321  1.00  0.00    -0.207 F 
ENDBRANCH  14  19
ENDBRANCH  10  12
ENDBRANCH   9  10
ENDBRANCH   1   9
TORSDOF 9
ENDMDL


