REMARK SMILES Cc1ccc(-c2ccc(N=[N+]=[N-])cc2)c2c[nH]nc12
REMARK SMILES IDX 8 1 7 2 6 3 14 4 13 5 9 6 10 7 11 8 12 9 5 10 4 11 15 12
REMARK SMILES IDX 3 13 16 14 19 15 2 16 17 17 18 18 1 19
REMARK H PARENT 17 20
ROOT
ATOM      1  C   UNL     1      -0.825   0.569  -1.596  1.00  0.00     0.011 A 
ATOM      2  C   UNL     1      -0.831  -0.192  -0.424  1.00  0.00     0.009 A 
ATOM      3  C   UNL     1       0.263  -0.153   0.456  1.00  0.00    -0.018 A 
ATOM      4  C   UNL     1       1.357   0.674   0.150  1.00  0.00     0.009 A 
ATOM      5  C   UNL     1       1.363   1.435  -1.023  1.00  0.00     0.011 A 
ATOM      6  C   UNL     1       0.277   1.388  -1.905  1.00  0.00     0.038 A 
ENDROOT
BRANCH   6   7
ATOM      7  N   UNL     1       0.319   2.182  -3.098  1.00  0.00    -0.061 NA
BRANCH   7   8
ATOM      8  N   UNL     1      -0.602   2.189  -3.917  1.00  0.00     0.005 N 
ATOM      9  N   UNL     1      -1.520   2.196  -4.736  1.00  0.00    -0.003 NA
ENDBRANCH   7   8
ENDBRANCH   6   7
BRANCH   3  10
ATOM     10  C   UNL     1       0.257  -0.949   1.705  1.00  0.00    -0.007 A 
ATOM     11  C   UNL     1       0.593  -0.355   2.943  1.00  0.00     0.010 A 
ATOM     12  C   UNL     1      -0.080  -2.310   1.726  1.00  0.00     0.028 A 
ATOM     13  C   UNL     1       0.575  -1.109   4.137  1.00  0.00     0.006 A 
ATOM     14  C   UNL     1      -0.413  -3.205   0.731  1.00  0.00     0.114 A 
ATOM     15  C   UNL     1      -0.091  -3.043   2.884  1.00  0.00     0.096 A 
ATOM     16  C   UNL     1       0.239  -2.480   4.119  1.00  0.00    -0.023 A 
ATOM     17  N   UNL     1      -0.620  -4.406   1.315  1.00  0.00    -0.284 N 
ATOM     18  N   UNL     1      -0.425  -4.321   2.626  1.00  0.00    -0.175 NA
ATOM     19  C   UNL     1       0.194  -3.288   5.382  1.00  0.00     0.047 C 
ATOM     20  H   UNL     1      -0.885  -5.286   0.821  1.00  0.00     0.189 HD
ENDBRANCH   3  10
TORSDOF 3


