MODEL 1
REMARK VINA RESULT:      -8.3      0.000      0.000
REMARK SMILES C=C1CC[C@@H](Nc2cccc(/N=C(O)/C(C)=C/C)c2O)C[C@H]1F
REMARK SMILES IDX 12 1 13 2 14 3 15 5 16 6 17 7 18 8 11 9 10 10 19 11 9 12
REMARK SMILES IDX 7 13 8 14 20 15 6 17 5 19 4 20 21 21 3 22 22 23 2 24 23 25
REMARK SMILES IDX 1 26
REMARK H PARENT 14 4 20 16 6 18
ROOT
ATOM      1  N   UNL     1      45.731 131.210  17.604  1.00  0.00    -0.210 NA
ENDROOT
BRANCH   1   2
ATOM      2  C   UNL     1      45.605 130.471  16.537  1.00  0.00     0.214 C 
BRANCH   2   3
ATOM      3  O   UNL     1      45.644 129.074  16.611  1.00  0.00    -0.493 OA
ATOM      4  H   UNL     1      46.366 128.564  17.103  1.00  0.00     0.295 HD
ENDBRANCH   2   3
BRANCH   2   5
ATOM      5  C   UNL     1      45.457 131.124  15.209  1.00  0.00     0.007 C 
ATOM      6  C   UNL     1      44.093 131.588  14.746  1.00  0.00     0.050 C 
BRANCH   5   7
ATOM      7  C   UNL     1      46.553 131.356  14.457  1.00  0.00    -0.022 C 
ATOM      8  C   UNL     1      47.221 130.306  13.619  1.00  0.00     0.036 C 
ENDBRANCH   5   7
ENDBRANCH   2   5
ENDBRANCH   1   2
BRANCH   1   9
ATOM      9  C   UNL     1      44.793 131.324  18.684  1.00  0.00     0.111 A 
ATOM     10  C   UNL     1      43.483 131.771  18.447  1.00  0.00     0.032 A 
ATOM     11  C   UNL     1      45.223 131.108  20.009  1.00  0.00     0.164 A 
ATOM     12  C   UNL     1      42.596 131.954  19.508  1.00  0.00     0.005 A 
ATOM     13  C   UNL     1      44.314 131.261  21.076  1.00  0.00     0.079 A 
ATOM     14  C   UNL     1      43.008 131.701  20.816  1.00  0.00     0.030 A 
BRANCH  11  15
ATOM     15  O   UNL     1      46.549 130.761  20.279  1.00  0.00    -0.504 OA
ATOM     16  H   UNL     1      46.808 129.876  20.696  1.00  0.00     0.293 HD
ENDBRANCH  11  15
BRANCH  13  17
ATOM     17  N   UNL     1      44.712 131.022  22.434  1.00  0.00    -0.379 N 
ATOM     18  H   UNL     1      45.275 131.761  22.916  1.00  0.00     0.160 HD
BRANCH  17  19
ATOM     19  C   UNL     1      44.069 130.004  23.270  1.00  0.00     0.082 C 
ATOM     20  C   UNL     1      44.924 128.726  23.277  1.00  0.00     0.029 C 
ATOM     21  C   UNL     1      42.664 129.700  22.725  1.00  0.00     0.067 C 
ATOM     22  C   UNL     1      44.285 127.632  24.138  1.00  0.00     0.035 C 
ATOM     23  C   UNL     1      41.954 128.632  23.566  1.00  0.00     0.194 C 
ATOM     24  C   UNL     1      42.839 127.414  23.751  1.00  0.00    -0.043 C 
ATOM     25  F   UNL     1      40.760 128.301  22.944  1.00  0.00    -0.243 F 
ATOM     26  C   UNL     1      42.320 126.175  23.777  1.00  0.00     0.011 C 
ENDBRANCH  17  19
ENDBRANCH  13  17
ENDBRANCH   1   9
TORSDOF 8
ENDMDL
MODEL 2
REMARK VINA RESULT:      -8.2      1.300      1.451
REMARK SMILES C=C1CC[C@@H](Nc2cccc(/N=C(O)/C(C)=C/C)c2O)C[C@H]1F
REMARK SMILES IDX 12 1 13 2 14 3 15 5 16 6 17 7 18 8 11 9 10 10 19 11 9 12
REMARK SMILES IDX 7 13 8 14 20 15 6 17 5 19 4 20 21 21 3 22 22 23 2 24 23 25
REMARK SMILES IDX 1 26
REMARK H PARENT 14 4 20 16 6 18
ROOT
ATOM      1  N   UNL     1      44.376 130.978  16.727  1.00  0.00    -0.210 NA
ENDROOT
BRANCH   1   2
ATOM      2  C   UNL     1      45.372 131.552  16.112  1.00  0.00     0.214 C 
BRANCH   2   3
ATOM      3  O   UNL     1      45.685 132.898  16.332  1.00  0.00    -0.493 OA
ATOM      4  H   UNL     1      45.008 133.645  16.253  1.00  0.00     0.295 HD
ENDBRANCH   2   3
BRANCH   2   5
ATOM      5  C   UNL     1      46.167 130.773  15.124  1.00  0.00     0.007 C 
ATOM      6  C   UNL     1      46.186 129.262  15.198  1.00  0.00     0.050 C 
BRANCH   5   7
ATOM      7  C   UNL     1      46.811 131.420  14.132  1.00  0.00    -0.022 C 
ATOM      8  C   UNL     1      47.610 130.724  13.070  1.00  0.00     0.036 C 
ENDBRANCH   5   7
ENDBRANCH   2   5
ENDBRANCH   1   2
BRANCH   1   9
ATOM      9  C   UNL     1      43.816 131.359  17.992  1.00  0.00     0.111 A 
ATOM     10  C   UNL     1      42.553 131.969  18.059  1.00  0.00     0.032 A 
ATOM     11  C   UNL     1      44.590 131.236  19.165  1.00  0.00     0.164 A 
ATOM     12  C   UNL     1      42.044 132.407  19.283  1.00  0.00     0.005 A 
ATOM     13  C   UNL     1      44.058 131.649  20.404  1.00  0.00     0.079 A 
ATOM     14  C   UNL     1      42.791 132.248  20.449  1.00  0.00     0.030 A 
BRANCH  11  15
ATOM     15  O   UNL     1      45.889 130.726  19.108  1.00  0.00    -0.504 OA
ATOM     16  H   UNL     1      46.174 130.031  18.430  1.00  0.00     0.293 HD
ENDBRANCH  11  15
BRANCH  13  17
ATOM     17  N   UNL     1      44.809 131.512  21.619  1.00  0.00    -0.379 N 
ATOM     18  H   UNL     1      45.366 132.335  21.945  1.00  0.00     0.160 HD
BRANCH  17  19
ATOM     19  C   UNL     1      44.540 130.447  22.589  1.00  0.00     0.082 C 
ATOM     20  C   UNL     1      44.938 129.088  21.988  1.00  0.00     0.029 C 
ATOM     21  C   UNL     1      43.048 130.448  22.957  1.00  0.00     0.067 C 
ATOM     22  C   UNL     1      44.668 127.943  22.970  1.00  0.00     0.035 C 
ATOM     23  C   UNL     1      42.716 129.342  23.967  1.00  0.00     0.194 C 
ATOM     24  C   UNL     1      43.252 128.003  23.495  1.00  0.00    -0.043 C 
ATOM     25  F   UNL     1      41.342 129.303  24.146  1.00  0.00    -0.243 F 
ATOM     26  C   UNL     1      42.576 126.865  23.725  1.00  0.00     0.011 C 
ENDBRANCH  17  19
ENDBRANCH  13  17
ENDBRANCH   1   9
TORSDOF 8
ENDMDL
MODEL 3
REMARK VINA RESULT:      -8.0      1.050      1.287
REMARK SMILES C=C1CC[C@@H](Nc2cccc(/N=C(O)/C(C)=C/C)c2O)C[C@H]1F
REMARK SMILES IDX 12 1 13 2 14 3 15 5 16 6 17 7 18 8 11 9 10 10 19 11 9 12
REMARK SMILES IDX 7 13 8 14 20 15 6 17 5 19 4 20 21 21 3 22 22 23 2 24 23 25
REMARK SMILES IDX 1 26
REMARK H PARENT 14 4 20 16 6 18
ROOT
ATOM      1  N   UNL     1      45.914 130.923  17.106  1.00  0.00    -0.210 NA
ENDROOT
BRANCH   1   2
ATOM      2  C   UNL     1      45.869 129.978  16.208  1.00  0.00     0.214 C 
BRANCH   2   3
ATOM      3  O   UNL     1      45.051 128.854  16.375  1.00  0.00    -0.493 OA
ATOM      4  H   UNL     1      44.853 128.441  17.276  1.00  0.00     0.295 HD
ENDBRANCH   2   3
BRANCH   2   5
ATOM      5  C   UNL     1      46.735 130.073  15.003  1.00  0.00     0.007 C 
ATOM      6  C   UNL     1      47.521 128.863  14.544  1.00  0.00     0.050 C 
BRANCH   5   7
ATOM      7  C   UNL     1      46.761 131.218  14.291  1.00  0.00    -0.022 C 
ATOM      8  C   UNL     1      47.545 131.389  13.024  1.00  0.00     0.036 C 
ENDBRANCH   5   7
ENDBRANCH   2   5
ENDBRANCH   1   2
BRANCH   1   9
ATOM      9  C   UNL     1      44.940 131.182  18.127  1.00  0.00     0.111 A 
ATOM     10  C   UNL     1      43.621 131.524  17.785  1.00  0.00     0.032 A 
ATOM     11  C   UNL     1      45.337 131.220  19.479  1.00  0.00     0.164 A 
ATOM     12  C   UNL     1      42.696 131.850  18.777  1.00  0.00     0.005 A 
ATOM     13  C   UNL     1      44.391 131.517  20.482  1.00  0.00     0.079 A 
ATOM     14  C   UNL     1      43.077 131.847  20.118  1.00  0.00     0.030 A 
BRANCH  11  15
ATOM     15  O   UNL     1      46.667 130.984  19.836  1.00  0.00    -0.504 OA
ATOM     16  H   UNL     1      47.078 131.353  20.684  1.00  0.00     0.293 HD
ENDBRANCH  11  15
BRANCH  13  17
ATOM     17  N   UNL     1      44.756 131.536  21.868  1.00  0.00    -0.379 N 
ATOM     18  H   UNL     1      45.014 132.457  22.294  1.00  0.00     0.160 HD
BRANCH  17  19
ATOM     19  C   UNL     1      44.430 130.435  22.779  1.00  0.00     0.082 C 
ATOM     20  C   UNL     1      44.750 129.092  22.102  1.00  0.00     0.029 C 
ATOM     21  C   UNL     1      42.941 130.499  23.154  1.00  0.00     0.067 C 
ATOM     22  C   UNL     1      44.419 127.911  23.021  1.00  0.00     0.035 C 
ATOM     23  C   UNL     1      42.549 129.358  24.102  1.00  0.00     0.194 C 
ATOM     24  C   UNL     1      43.009 128.020  23.555  1.00  0.00    -0.043 C 
ATOM     25  F   UNL     1      41.175 129.387  24.285  1.00  0.00    -0.243 F 
ATOM     26  C   UNL     1      42.271 126.910  23.724  1.00  0.00     0.011 C 
ENDBRANCH  17  19
ENDBRANCH  13  17
ENDBRANCH   1   9
TORSDOF 8
ENDMDL
MODEL 4
REMARK VINA RESULT:      -8.0      0.724      1.270
REMARK SMILES C=C1CC[C@@H](Nc2cccc(/N=C(O)/C(C)=C/C)c2O)C[C@H]1F
REMARK SMILES IDX 12 1 13 2 14 3 15 5 16 6 17 7 18 8 11 9 10 10 19 11 9 12
REMARK SMILES IDX 7 13 8 14 20 15 6 17 5 19 4 20 21 21 3 22 22 23 2 24 23 25
REMARK SMILES IDX 1 26
REMARK H PARENT 14 4 20 16 6 18
ROOT
ATOM      1  N   UNL     1      45.459 131.522  17.285  1.00  0.00    -0.210 NA
ENDROOT
BRANCH   1   2
ATOM      2  C   UNL     1      45.931 130.469  16.678  1.00  0.00     0.214 C 
BRANCH   2   3
ATOM      3  O   UNL     1      46.176 129.278  17.371  1.00  0.00    -0.493 OA
ATOM      4  H   UNL     1      46.735 128.523  16.997  1.00  0.00     0.295 HD
ENDBRANCH   2   3
BRANCH   2   5
ATOM      5  C   UNL     1      46.257 130.545  15.228  1.00  0.00     0.007 C 
ATOM      6  C   UNL     1      47.310 129.628  14.645  1.00  0.00     0.050 C 
BRANCH   5   7
ATOM      7  C   UNL     1      45.564 131.386  14.434  1.00  0.00    -0.022 C 
ATOM      8  C   UNL     1      44.071 131.528  14.478  1.00  0.00     0.036 C 
ENDBRANCH   5   7
ENDBRANCH   2   5
ENDBRANCH   1   2
BRANCH   1   9
ATOM      9  C   UNL     1      44.571 131.536  18.411  1.00  0.00     0.111 A 
ATOM     10  C   UNL     1      43.198 131.779  18.234  1.00  0.00     0.032 A 
ATOM     11  C   UNL     1      45.094 131.432  19.716  1.00  0.00     0.164 A 
ATOM     12  C   UNL     1      42.349 131.867  19.338  1.00  0.00     0.005 A 
ATOM     13  C   UNL     1      44.227 131.488  20.827  1.00  0.00     0.079 A 
ATOM     14  C   UNL     1      42.860 131.723  20.627  1.00  0.00     0.030 A 
BRANCH  11  15
ATOM     15  O   UNL     1      46.469 131.292  19.922  1.00  0.00    -0.504 OA
ATOM     16  H   UNL     1      47.117 131.101  19.168  1.00  0.00     0.293 HD
ENDBRANCH  11  15
BRANCH  13  17
ATOM     17  N   UNL     1      44.724 131.358  22.167  1.00  0.00    -0.379 N 
ATOM     18  H   UNL     1      45.071 132.221  22.646  1.00  0.00     0.160 HD
BRANCH  17  19
ATOM     19  C   UNL     1      44.428 130.190  23.002  1.00  0.00     0.082 C 
ATOM     20  C   UNL     1      44.894 128.912  22.286  1.00  0.00     0.029 C 
ATOM     21  C   UNL     1      42.917 130.123  23.277  1.00  0.00     0.067 C 
ATOM     22  C   UNL     1      44.598 127.664  23.125  1.00  0.00     0.035 C 
ATOM     23  C   UNL     1      42.556 128.910  24.143  1.00  0.00     0.194 C 
ATOM     24  C   UNL     1      43.152 127.639  23.567  1.00  0.00    -0.043 C 
ATOM     25  F   UNL     1      41.175 128.826  24.234  1.00  0.00    -0.243 F 
ATOM     26  C   UNL     1      42.493 126.470  23.634  1.00  0.00     0.011 C 
ENDBRANCH  17  19
ENDBRANCH  13  17
ENDBRANCH   1   9
TORSDOF 8
ENDMDL
MODEL 5
REMARK VINA RESULT:      -7.8      3.057      7.614
REMARK SMILES C=C1CC[C@@H](Nc2cccc(/N=C(O)/C(C)=C/C)c2O)C[C@H]1F
REMARK SMILES IDX 12 1 13 2 14 3 15 5 16 6 17 7 18 8 11 9 10 10 19 11 9 12
REMARK SMILES IDX 7 13 8 14 20 15 6 17 5 19 4 20 21 21 3 22 22 23 2 24 23 25
REMARK SMILES IDX 1 26
REMARK H PARENT 14 4 20 16 6 18
ROOT
ATOM      1  N   UNL     1      43.609 131.944  22.051  1.00  0.00    -0.210 NA
ENDROOT
BRANCH   1   2
ATOM      2  C   UNL     1      42.933 131.306  22.965  1.00  0.00     0.214 C 
BRANCH   2   3
ATOM      3  O   UNL     1      41.814 131.883  23.579  1.00  0.00    -0.493 OA
ATOM      4  H   UNL     1      40.967 131.371  23.781  1.00  0.00     0.295 HD
ENDBRANCH   2   3
BRANCH   2   5
ATOM      5  C   UNL     1      43.381 129.955  23.397  1.00  0.00     0.007 C 
ATOM      6  C   UNL     1      42.377 128.977  23.969  1.00  0.00     0.050 C 
BRANCH   5   7
ATOM      7  C   UNL     1      44.666 129.590  23.214  1.00  0.00    -0.022 C 
ATOM      8  C   UNL     1      45.087 128.211  22.802  1.00  0.00     0.036 C 
ENDBRANCH   5   7
ENDBRANCH   2   5
ENDBRANCH   1   2
BRANCH   1   9
ATOM      9  C   UNL     1      43.351 131.947  20.640  1.00  0.00     0.111 A 
ATOM     10  C   UNL     1      42.078 131.616  20.146  1.00  0.00     0.032 A 
ATOM     11  C   UNL     1      44.412 132.161  19.735  1.00  0.00     0.164 A 
ATOM     12  C   UNL     1      41.850 131.546  18.771  1.00  0.00     0.005 A 
ATOM     13  C   UNL     1      44.169 132.122  18.347  1.00  0.00     0.079 A 
ATOM     14  C   UNL     1      42.889 131.797  17.876  1.00  0.00     0.030 A 
BRANCH  11  15
ATOM     15  O   UNL     1      45.708 132.391  20.202  1.00  0.00    -0.504 OA
ATOM     16  H   UNL     1      46.376 132.960  19.698  1.00  0.00     0.293 HD
ENDBRANCH  11  15
BRANCH  13  17
ATOM     17  N   UNL     1      45.220 132.362  17.400  1.00  0.00    -0.379 N 
ATOM     18  H   UNL     1      46.001 132.997  17.687  1.00  0.00     0.160 HD
BRANCH  17  19
ATOM     19  C   UNL     1      45.442 131.494  16.240  1.00  0.00     0.082 C 
ATOM     20  C   UNL     1      45.991 130.136  16.707  1.00  0.00     0.029 C 
ATOM     21  C   UNL     1      46.435 132.165  15.277  1.00  0.00     0.067 C 
ATOM     22  C   UNL     1      46.243 129.198  15.522  1.00  0.00     0.035 C 
ATOM     23  C   UNL     1      46.706 131.288  14.047  1.00  0.00     0.194 C 
ATOM     24  C   UNL     1      47.079 129.878  14.462  1.00  0.00    -0.043 C 
ATOM     25  F   UNL     1      47.710 131.879  13.295  1.00  0.00    -0.243 F 
ATOM     26  C   UNL     1      47.989 129.169  13.772  1.00  0.00     0.011 C 
ENDBRANCH  17  19
ENDBRANCH  13  17
ENDBRANCH   1   9
TORSDOF 8
ENDMDL
MODEL 6
REMARK VINA RESULT:      -7.7      2.909      7.817
REMARK SMILES C=C1CC[C@@H](Nc2cccc(/N=C(O)/C(C)=C/C)c2O)C[C@H]1F
REMARK SMILES IDX 12 1 13 2 14 3 15 5 16 6 17 7 18 8 11 9 10 10 19 11 9 12
REMARK SMILES IDX 7 13 8 14 20 15 6 17 5 19 4 20 21 21 3 22 22 23 2 24 23 25
REMARK SMILES IDX 1 26
REMARK H PARENT 14 4 20 16 6 18
ROOT
ATOM      1  N   UNL     1      44.222 130.575  22.117  1.00  0.00    -0.210 NA
ENDROOT
BRANCH   1   2
ATOM      2  C   UNL     1      43.563 130.557  23.243  1.00  0.00     0.214 C 
BRANCH   2   3
ATOM      3  O   UNL     1      43.250 131.741  23.921  1.00  0.00    -0.493 OA
ATOM      4  H   UNL     1      42.321 132.139  23.943  1.00  0.00     0.295 HD
ENDBRANCH   2   3
BRANCH   2   5
ATOM      5  C   UNL     1      43.173 129.253  23.841  1.00  0.00     0.007 C 
ATOM      6  C   UNL     1      44.190 128.449  24.622  1.00  0.00     0.050 C 
BRANCH   5   7
ATOM      7  C   UNL     1      41.897 128.829  23.739  1.00  0.00    -0.022 C 
ATOM      8  C   UNL     1      41.470 127.413  23.986  1.00  0.00     0.036 C 
ENDBRANCH   5   7
ENDBRANCH   2   5
ENDBRANCH   1   2
BRANCH   1   9
ATOM      9  C   UNL     1      43.761 131.096  20.863  1.00  0.00     0.111 A 
ATOM     10  C   UNL     1      42.386 131.192  20.592  1.00  0.00     0.032 A 
ATOM     11  C   UNL     1      44.691 131.396  19.846  1.00  0.00     0.164 A 
ATOM     12  C   UNL     1      41.941 131.628  19.343  1.00  0.00     0.005 A 
ATOM     13  C   UNL     1      44.238 131.868  18.597  1.00  0.00     0.079 A 
ATOM     14  C   UNL     1      42.861 131.964  18.350  1.00  0.00     0.030 A 
BRANCH  11  15
ATOM     15  O   UNL     1      46.059 131.211  20.058  1.00  0.00    -0.504 OA
ATOM     16  H   UNL     1      46.627 130.617  19.467  1.00  0.00     0.293 HD
ENDBRANCH  11  15
BRANCH  13  17
ATOM     17  N   UNL     1      45.159 132.208  17.551  1.00  0.00    -0.379 N 
ATOM     18  H   UNL     1      45.879 132.940  17.752  1.00  0.00     0.160 HD
BRANCH  17  19
ATOM     19  C   UNL     1      45.377 131.343  16.388  1.00  0.00     0.082 C 
ATOM     20  C   UNL     1      46.050 130.035  16.834  1.00  0.00     0.029 C 
ATOM     21  C   UNL     1      46.261 132.071  15.362  1.00  0.00     0.067 C 
ATOM     22  C   UNL     1      46.300 129.102  15.645  1.00  0.00     0.035 C 
ATOM     23  C   UNL     1      46.524 131.200  14.127  1.00  0.00     0.194 C 
ATOM     24  C   UNL     1      47.023 129.826  14.532  1.00  0.00    -0.043 C 
ATOM     25  F   UNL     1      47.437 131.852  13.312  1.00  0.00    -0.243 F 
ATOM     26  C   UNL     1      47.940 129.176  13.797  1.00  0.00     0.011 C 
ENDBRANCH  17  19
ENDBRANCH  13  17
ENDBRANCH   1   9
TORSDOF 8
ENDMDL
MODEL 7
REMARK VINA RESULT:      -7.6      3.083      7.624
REMARK SMILES C=C1CC[C@@H](Nc2cccc(/N=C(O)/C(C)=C/C)c2O)C[C@H]1F
REMARK SMILES IDX 12 1 13 2 14 3 15 5 16 6 17 7 18 8 11 9 10 10 19 11 9 12
REMARK SMILES IDX 7 13 8 14 20 15 6 17 5 19 4 20 21 21 3 22 22 23 2 24 23 25
REMARK SMILES IDX 1 26
REMARK H PARENT 14 4 20 16 6 18
ROOT
ATOM      1  N   UNL     1      42.991 131.953  21.962  1.00  0.00    -0.210 NA
ENDROOT
BRANCH   1   2
ATOM      2  C   UNL     1      43.826 131.306  22.727  1.00  0.00     0.214 C 
BRANCH   2   3
ATOM      3  O   UNL     1      44.814 131.977  23.457  1.00  0.00    -0.493 OA
ATOM      4  H   UNL     1      45.768 132.078  23.136  1.00  0.00     0.295 HD
ENDBRANCH   2   3
BRANCH   2   5
ATOM      5  C   UNL     1      43.755 129.821  22.795  1.00  0.00     0.007 C 
ATOM      6  C   UNL     1      44.828 128.986  22.129  1.00  0.00     0.050 C 
BRANCH   5   7
ATOM      7  C   UNL     1      42.771 129.234  23.506  1.00  0.00    -0.022 C 
ATOM      8  C   UNL     1      42.038 129.912  24.625  1.00  0.00     0.036 C 
ENDBRANCH   5   7
ENDBRANCH   2   5
ENDBRANCH   1   2
BRANCH   1   9
ATOM      9  C   UNL     1      42.977 131.967  20.528  1.00  0.00     0.111 A 
ATOM     10  C   UNL     1      41.764 131.865  19.826  1.00  0.00     0.032 A 
ATOM     11  C   UNL     1      44.194 131.955  19.816  1.00  0.00     0.164 A 
ATOM     12  C   UNL     1      41.759 131.802  18.432  1.00  0.00     0.005 A 
ATOM     13  C   UNL     1      44.183 131.925  18.406  1.00  0.00     0.079 A 
ATOM     14  C   UNL     1      42.960 131.831  17.725  1.00  0.00     0.030 A 
BRANCH  11  15
ATOM     15  O   UNL     1      45.414 131.953  20.495  1.00  0.00    -0.504 OA
ATOM     16  H   UNL     1      45.876 131.100  20.785  1.00  0.00     0.293 HD
ENDBRANCH  11  15
BRANCH  13  17
ATOM     17  N   UNL     1      45.402 131.940  17.651  1.00  0.00    -0.379 N 
ATOM     18  H   UNL     1      46.272 132.266  18.133  1.00  0.00     0.160 HD
BRANCH  17  19
ATOM     19  C   UNL     1      45.560 131.188  16.403  1.00  0.00     0.082 C 
ATOM     20  C   UNL     1      46.182 129.814  16.702  1.00  0.00     0.029 C 
ATOM     21  C   UNL     1      46.456 131.977  15.434  1.00  0.00     0.067 C 
ATOM     22  C   UNL     1      46.369 128.995  15.420  1.00  0.00     0.035 C 
ATOM     23  C   UNL     1      46.657 131.224  14.113  1.00  0.00     0.194 C 
ATOM     24  C   UNL     1      47.102 129.796  14.368  1.00  0.00    -0.043 C 
ATOM     25  F   UNL     1      47.582 131.915  13.346  1.00  0.00    -0.243 F 
ATOM     26  C   UNL     1      47.976 129.185  13.551  1.00  0.00     0.011 C 
ENDBRANCH  17  19
ENDBRANCH  13  17
ENDBRANCH   1   9
TORSDOF 8
ENDMDL
MODEL 8
REMARK VINA RESULT:      -7.5      1.741      2.234
REMARK SMILES C=C1CC[C@@H](Nc2cccc(/N=C(O)/C(C)=C/C)c2O)C[C@H]1F
REMARK SMILES IDX 12 1 13 2 14 3 15 5 16 6 17 7 18 8 11 9 10 10 19 11 9 12
REMARK SMILES IDX 7 13 8 14 20 15 6 17 5 19 4 20 21 21 3 22 22 23 2 24 23 25
REMARK SMILES IDX 1 26
REMARK H PARENT 14 4 20 16 6 18
ROOT
ATOM      1  N   UNL     1      44.868 131.017  15.637  1.00  0.00    -0.210 NA
ENDROOT
BRANCH   1   2
ATOM      2  C   UNL     1      45.383 129.923  15.149  1.00  0.00     0.214 C 
BRANCH   2   3
ATOM      3  O   UNL     1      44.849 128.666  15.460  1.00  0.00    -0.493 OA
ATOM      4  H   UNL     1      45.361 127.802  15.345  1.00  0.00     0.295 HD
ENDBRANCH   2   3
BRANCH   2   5
ATOM      5  C   UNL     1      46.586 130.005  14.278  1.00  0.00     0.007 C 
ATOM      6  C   UNL     1      47.688 128.977  14.420  1.00  0.00     0.050 C 
BRANCH   5   7
ATOM      7  C   UNL     1      46.654 130.956  13.325  1.00  0.00    -0.022 C 
ATOM      8  C   UNL     1      47.902 131.273  12.557  1.00  0.00     0.036 C 
ENDBRANCH   5   7
ENDBRANCH   2   5
ENDBRANCH   1   2
BRANCH   1   9
ATOM      9  C   UNL     1      44.377 131.214  16.970  1.00  0.00     0.111 A 
ATOM     10  C   UNL     1      43.078 131.702  17.188  1.00  0.00     0.032 A 
ATOM     11  C   UNL     1      45.245 131.038  18.068  1.00  0.00     0.164 A 
ATOM     12  C   UNL     1      42.630 131.964  18.483  1.00  0.00     0.005 A 
ATOM     13  C   UNL     1      44.777 131.272  19.377  1.00  0.00     0.079 A 
ATOM     14  C   UNL     1      43.474 131.751  19.572  1.00  0.00     0.030 A 
BRANCH  11  15
ATOM     15  O   UNL     1      46.573 130.652  17.869  1.00  0.00    -0.504 OA
ATOM     16  H   UNL     1      46.844 129.688  17.719  1.00  0.00     0.293 HD
ENDBRANCH  11  15
BRANCH  13  17
ATOM     17  N   UNL     1      45.626 131.076  20.517  1.00  0.00    -0.379 N 
ATOM     18  H   UNL     1      46.606 131.437  20.465  1.00  0.00     0.160 HD
BRANCH  17  19
ATOM     19  C   UNL     1      45.093 130.749  21.843  1.00  0.00     0.082 C 
ATOM     20  C   UNL     1      44.744 129.253  21.905  1.00  0.00     0.029 C 
ATOM     21  C   UNL     1      43.841 131.598  22.120  1.00  0.00     0.067 C 
ATOM     22  C   UNL     1      44.177 128.869  23.276  1.00  0.00     0.035 C 
ATOM     23  C   UNL     1      43.241 131.284  23.496  1.00  0.00     0.194 C 
ATOM     24  C   UNL     1      43.046 129.790  23.672  1.00  0.00    -0.043 C 
ATOM     25  F   UNL     1      42.043 131.971  23.624  1.00  0.00    -0.243 F 
ATOM     26  C   UNL     1      41.992 129.302  24.348  1.00  0.00     0.011 C 
ENDBRANCH  17  19
ENDBRANCH  13  17
ENDBRANCH   1   9
TORSDOF 8
ENDMDL
MODEL 9
REMARK VINA RESULT:      -7.5      3.227      7.720
REMARK SMILES C=C1CC[C@@H](Nc2cccc(/N=C(O)/C(C)=C/C)c2O)C[C@H]1F
REMARK SMILES IDX 12 1 13 2 14 3 15 5 16 6 17 7 18 8 11 9 10 10 19 11 9 12
REMARK SMILES IDX 7 13 8 14 20 15 6 17 5 19 4 20 21 21 3 22 22 23 2 24 23 25
REMARK SMILES IDX 1 26
REMARK H PARENT 14 4 20 16 6 18
ROOT
ATOM      1  N   UNL     1      42.645 132.061  21.667  1.00  0.00    -0.210 NA
ENDROOT
BRANCH   1   2
ATOM      2  C   UNL     1      42.498 131.521  22.844  1.00  0.00     0.214 C 
BRANCH   2   3
ATOM      3  O   UNL     1      41.415 131.853  23.667  1.00  0.00    -0.493 OA
ATOM      4  H   UNL     1      41.480 132.513  24.430  1.00  0.00     0.295 HD
ENDBRANCH   2   3
BRANCH   2   5
ATOM      5  C   UNL     1      43.523 130.565  23.344  1.00  0.00     0.007 C 
ATOM      6  C   UNL     1      44.669 131.068  24.195  1.00  0.00     0.050 C 
BRANCH   5   7
ATOM      7  C   UNL     1      43.384 129.248  23.088  1.00  0.00    -0.022 C 
ATOM      8  C   UNL     1      44.534 128.287  23.040  1.00  0.00     0.036 C 
ENDBRANCH   5   7
ENDBRANCH   2   5
ENDBRANCH   1   2
BRANCH   1   9
ATOM      9  C   UNL     1      43.584 131.669  20.655  1.00  0.00     0.111 A 
ATOM     10  C   UNL     1      44.827 131.119  21.009  1.00  0.00     0.032 A 
ATOM     11  C   UNL     1      43.311 131.953  19.301  1.00  0.00     0.164 A 
ATOM     12  C   UNL     1      45.767 130.810  20.025  1.00  0.00     0.005 A 
ATOM     13  C   UNL     1      44.251 131.608  18.307  1.00  0.00     0.079 A 
ATOM     14  C   UNL     1      45.482 131.052  18.683  1.00  0.00     0.030 A 
BRANCH  11  15
ATOM     15  O   UNL     1      42.125 132.593  18.934  1.00  0.00    -0.504 OA
ATOM     16  H   UNL     1      42.050 133.599  18.850  1.00  0.00     0.293 HD
ENDBRANCH  11  15
BRANCH  13  17
ATOM     17  N   UNL     1      43.992 131.858  16.919  1.00  0.00    -0.379 N 
ATOM     18  H   UNL     1      43.584 132.784  16.656  1.00  0.00     0.160 HD
BRANCH  17  19
ATOM     19  C   UNL     1      44.603 131.059  15.852  1.00  0.00     0.082 C 
ATOM     20  C   UNL     1      45.250 129.801  16.455  1.00  0.00     0.029 C 
ATOM     21  C   UNL     1      45.661 131.900  15.119  1.00  0.00     0.067 C 
ATOM     22  C   UNL     1      45.907 128.938  15.372  1.00  0.00     0.035 C 
ATOM     23  C   UNL     1      46.336 131.102  13.997  1.00  0.00     0.194 C 
ATOM     24  C   UNL     1      46.834 129.764  14.510  1.00  0.00    -0.043 C 
ATOM     25  F   UNL     1      47.371 131.861  13.474  1.00  0.00    -0.243 F 
ATOM     26  C   UNL     1      47.976 129.226  14.052  1.00  0.00     0.011 C 
ENDBRANCH  17  19
ENDBRANCH  13  17
ENDBRANCH   1   9
TORSDOF 8
ENDMDL


