REMARK SMILES C=C[C@@H]1CCC[C@H](c2ccc(C(C)=O)cc2)C1=C
REMARK SMILES IDX 3 1 4 2 5 3 6 4 7 5 17 6 18 7 2 8 1 9 8 10 9 11 16 12 10 13
REMARK SMILES IDX 15 14 11 15 12 16 13 17 14 18
REMARK H PARENT
ROOT
ATOM      1  C   UNL     1       0.933   0.224  -2.741  1.00  0.00     0.037 C 
ATOM      2  C   UNL     1       1.876  -0.974  -2.505  1.00  0.00     0.012 C 
ATOM      3  C   UNL     1       3.170  -0.554  -1.818  1.00  0.00     0.002 C 
ATOM      4  C   UNL     1       2.841  -0.036  -0.423  1.00  0.00     0.013 C 
ATOM      5  C   UNL     1       1.965   1.234  -0.472  1.00  0.00     0.045 C 
ATOM      6  C   UNL     1       0.986   1.292  -1.648  1.00  0.00    -0.063 C 
ATOM      7  C   UNL     1       0.257   2.412  -1.814  1.00  0.00     0.009 C 
ENDROOT
BRANCH   1   8
ATOM      8  C   UNL     1      -0.482  -0.277  -2.929  1.00  0.00    -0.027 C 
ATOM      9  C   UNL     1      -0.867  -0.877  -4.059  1.00  0.00     0.004 C 
ENDBRANCH   1   8
BRANCH   5  10
ATOM     10  C   UNL     1       1.243   1.408   0.851  1.00  0.00    -0.041 A 
ATOM     11  C   UNL     1       1.676   2.372   1.774  1.00  0.00     0.005 A 
ATOM     12  C   UNL     1       0.153   0.586   1.186  1.00  0.00     0.005 A 
ATOM     13  C   UNL     1       1.023   2.525   3.000  1.00  0.00     0.012 A 
ATOM     14  C   UNL     1      -0.502   0.739   2.411  1.00  0.00     0.012 A 
ATOM     15  C   UNL     1      -0.076   1.712   3.335  1.00  0.00     0.017 A 
BRANCH  15  16
ATOM     16  C   UNL     1      -0.761   1.889   4.644  1.00  0.00     0.159 C 
ATOM     17  C   UNL     1      -1.936   1.048   5.044  1.00  0.00     0.093 C 
ATOM     18  O   UNL     1      -0.352   2.768   5.451  1.00  0.00    -0.295 OA
ENDBRANCH  15  16
ENDBRANCH   5  10
TORSDOF 3


