MODEL 1
REMARK VINA RESULT:      -9.2      0.000      0.000
REMARK SMILES O=C(Oc1ccc([NH2+]c2ccc3cc[nH]c3c2)c(F)c1)[C@H](O)CC1CC1
REMARK SMILES IDX 3 1 2 2 1 3 21 4 22 5 23 7 24 8 25 9 26 10 4 11 5 12 20 13
REMARK SMILES IDX 6 14 18 15 7 16 19 17 8 18 9 21 10 22 17 23 11 24 16 25
REMARK SMILES IDX 12 26 15 27 13 28 14 29
REMARK H PARENT 22 6 8 19 8 20 15 30
ROOT
ATOM      1  O   UNL     1      44.616 131.922  17.500  1.00  0.00    -0.425 OA
ENDROOT
BRANCH   1   2
ATOM      2  C   UNL     1      44.691 131.005  16.441  1.00  0.00     0.340 C 
ATOM      3  O   UNL     1      44.545 129.768  16.638  1.00  0.00    -0.249 OA
BRANCH   2   4
ATOM      4  C   UNL     1      44.809 131.518  15.034  1.00  0.00     0.224 C 
BRANCH   4   5
ATOM      5  O   UNL     1      43.535 131.698  14.472  1.00  0.00    -0.381 OA
ATOM      6  H   UNL     1      42.971 130.948  14.795  1.00  0.00     0.211 HD
ENDBRANCH   4   5
BRANCH   4   7
ATOM      7  C   UNL     1      45.630 130.551  14.168  1.00  0.00     0.047 C 
BRANCH   7   8
ATOM      8  C   UNL     1      47.121 130.929  14.120  1.00  0.00    -0.008 C 
ATOM      9  C   UNL     1      48.033 129.834  13.587  1.00  0.00     0.004 C 
ATOM     10  C   UNL     1      47.735 131.055  12.733  1.00  0.00     0.004 C 
ENDBRANCH   7   8
ENDBRANCH   4   7
ENDBRANCH   2   4
ENDBRANCH   1   2
BRANCH   1  11
ATOM     11  C   UNL     1      44.530 131.595  18.860  1.00  0.00     0.134 A 
ATOM     12  C   UNL     1      45.592 130.896  19.441  1.00  0.00     0.053 A 
ATOM     13  C   UNL     1      43.410 131.919  19.646  1.00  0.00     0.093 A 
ATOM     14  C   UNL     1      45.568 130.565  20.798  1.00  0.00     0.075 A 
ATOM     15  C   UNL     1      43.382 131.593  21.007  1.00  0.00     0.187 A 
ATOM     16  C   UNL     1      44.467 130.914  21.598  1.00  0.00     0.170 A 
ATOM     17  F   UNL     1      42.297 131.934  21.744  1.00  0.00    -0.200 F 
BRANCH  16  18
ATOM     18  N   UNL     1      44.473 130.612  23.009  1.00  0.00    -0.279 N 
ATOM     19  H   UNL     1      43.944 131.350  23.532  1.00  0.00     0.358 HD
ATOM     20  H   UNL     1      45.450 130.621  23.387  1.00  0.00     0.358 HD
BRANCH  18  21
ATOM     21  C   UNL     1      43.870 129.322  23.227  1.00  0.00     0.136 A 
ATOM     22  C   UNL     1      42.509 129.226  23.624  1.00  0.00     0.069 A 
ATOM     23  C   UNL     1      44.608 128.140  22.983  1.00  0.00     0.094 A 
ATOM     24  C   UNL     1      41.892 127.973  23.790  1.00  0.00     0.016 A 
ATOM     25  C   UNL     1      43.963 126.915  23.146  1.00  0.00     0.051 A 
ATOM     26  C   UNL     1      42.655 126.836  23.540  1.00  0.00    -0.000 A 
ATOM     27  N   UNL     1      44.473 125.688  22.939  1.00  0.00    -0.361 N 
ATOM     28  C   UNL     1      42.317 125.502  23.587  1.00  0.00     0.028 A 
ATOM     29  C   UNL     1      43.470 124.821  23.208  1.00  0.00     0.083 A 
ATOM     30  H   UNL     1      45.437 125.449  22.616  1.00  0.00     0.166 HD
ENDBRANCH  18  21
ENDBRANCH  16  18
ENDBRANCH   1  11
TORSDOF 8
ENDMDL
MODEL 2
REMARK VINA RESULT:      -8.5      1.682      2.332
REMARK SMILES O=C(Oc1ccc([NH2+]c2ccc3cc[nH]c3c2)c(F)c1)[C@H](O)CC1CC1
REMARK SMILES IDX 3 1 2 2 1 3 21 4 22 5 23 7 24 8 25 9 26 10 4 11 5 12 20 13
REMARK SMILES IDX 6 14 18 15 7 16 19 17 8 18 9 21 10 22 17 23 11 24 16 25
REMARK SMILES IDX 12 26 15 27 13 28 14 29
REMARK H PARENT 22 6 8 19 8 20 15 30
ROOT
ATOM      1  O   UNL     1      43.976 131.633  16.846  1.00  0.00    -0.425 OA
ENDROOT
BRANCH   1   2
ATOM      2  C   UNL     1      44.992 131.809  15.895  1.00  0.00     0.340 C 
ATOM      3  O   UNL     1      45.896 132.672  16.058  1.00  0.00    -0.249 OA
BRANCH   2   4
ATOM      4  C   UNL     1      45.080 130.861  14.733  1.00  0.00     0.224 C 
BRANCH   4   5
ATOM      5  O   UNL     1      43.877 130.151  14.590  1.00  0.00    -0.381 OA
ATOM      6  H   UNL     1      43.825 129.866  13.641  1.00  0.00     0.211 HD
ENDBRANCH   4   5
BRANCH   4   7
ATOM      7  C   UNL     1      46.247 129.879  14.917  1.00  0.00     0.047 C 
BRANCH   7   8
ATOM      8  C   UNL     1      47.049 129.673  13.621  1.00  0.00    -0.008 C 
ATOM      9  C   UNL     1      47.693 130.937  13.068  1.00  0.00     0.004 C 
ATOM     10  C   UNL     1      48.555 129.872  13.727  1.00  0.00     0.004 C 
ENDBRANCH   7   8
ENDBRANCH   4   7
ENDBRANCH   2   4
ENDBRANCH   1   2
BRANCH   1  11
ATOM     11  C   UNL     1      44.160 131.544  18.232  1.00  0.00     0.134 A 
ATOM     12  C   UNL     1      43.121 131.963  19.067  1.00  0.00     0.053 A 
ATOM     13  C   UNL     1      45.355 131.076  18.808  1.00  0.00     0.093 A 
ATOM     14  C   UNL     1      43.243 131.875  20.455  1.00  0.00     0.075 A 
ATOM     15  C   UNL     1      45.482 130.982  20.199  1.00  0.00     0.187 A 
ATOM     16  C   UNL     1      44.421 131.378  21.037  1.00  0.00     0.170 A 
ATOM     17  F   UNL     1      46.639 130.510  20.725  1.00  0.00    -0.200 F 
BRANCH  16  18
ATOM     18  N   UNL     1      44.518 131.244  22.471  1.00  0.00    -0.279 N 
ATOM     19  H   UNL     1      44.052 132.059  22.936  1.00  0.00     0.358 HD
ATOM     20  H   UNL     1      45.519 131.257  22.779  1.00  0.00     0.358 HD
BRANCH  18  21
ATOM     21  C   UNL     1      43.891 130.014  22.883  1.00  0.00     0.136 A 
ATOM     22  C   UNL     1      44.635 128.804  22.909  1.00  0.00     0.069 A 
ATOM     23  C   UNL     1      42.548 130.014  23.328  1.00  0.00     0.094 A 
ATOM     24  C   UNL     1      44.050 127.607  23.360  1.00  0.00     0.016 A 
ATOM     25  C   UNL     1      42.002 128.813  23.778  1.00  0.00     0.051 A 
ATOM     26  C   UNL     1      42.726 127.652  23.788  1.00  0.00    -0.000 A 
ATOM     27  N   UNL     1      40.766 128.606  24.264  1.00  0.00    -0.361 N 
ATOM     28  C   UNL     1      41.916 126.663  24.301  1.00  0.00     0.028 A 
ATOM     29  C   UNL     1      40.709 127.294  24.585  1.00  0.00     0.083 A 
ATOM     30  H   UNL     1      40.009 129.316  24.391  1.00  0.00     0.166 HD
ENDBRANCH  18  21
ENDBRANCH  16  18
ENDBRANCH   1  11
TORSDOF 8
ENDMDL
MODEL 3
REMARK VINA RESULT:      -8.3      3.324      7.934
REMARK SMILES O=C(Oc1ccc([NH2+]c2ccc3cc[nH]c3c2)c(F)c1)[C@H](O)CC1CC1
REMARK SMILES IDX 3 1 2 2 1 3 21 4 22 5 23 7 24 8 25 9 26 10 4 11 5 12 20 13
REMARK SMILES IDX 6 14 18 15 7 16 19 17 8 18 9 21 10 22 17 23 11 24 16 25
REMARK SMILES IDX 12 26 15 27 13 28 14 29
REMARK H PARENT 22 6 8 19 8 20 15 30
ROOT
ATOM      1  O   UNL     1      44.219 131.653  22.615  1.00  0.00    -0.425 OA
ENDROOT
BRANCH   1   2
ATOM      2  C   UNL     1      44.115 130.497  23.404  1.00  0.00     0.340 C 
ATOM      3  O   UNL     1      44.486 130.495  24.609  1.00  0.00    -0.249 OA
BRANCH   2   4
ATOM      4  C   UNL     1      43.426 129.286  22.843  1.00  0.00     0.224 C 
BRANCH   4   5
ATOM      5  O   UNL     1      42.041 129.507  22.761  1.00  0.00    -0.381 OA
ATOM      6  H   UNL     1      41.673 128.797  22.175  1.00  0.00     0.211 HD
ENDBRANCH   4   5
BRANCH   4   7
ATOM      7  C   UNL     1      43.707 128.049  23.708  1.00  0.00     0.047 C 
BRANCH   7   8
ATOM      8  C   UNL     1      45.127 127.496  23.498  1.00  0.00    -0.008 C 
ATOM      9  C   UNL     1      45.191 125.995  23.255  1.00  0.00     0.004 C 
ATOM     10  C   UNL     1      45.437 126.960  22.107  1.00  0.00     0.004 C 
ENDBRANCH   7   8
ENDBRANCH   4   7
ENDBRANCH   2   4
ENDBRANCH   1   2
BRANCH   1  11
ATOM     11  C   UNL     1      43.966 131.729  21.239  1.00  0.00     0.134 A 
ATOM     12  C   UNL     1      45.026 131.495  20.358  1.00  0.00     0.053 A 
ATOM     13  C   UNL     1      42.702 132.055  20.718  1.00  0.00     0.093 A 
ATOM     14  C   UNL     1      44.826 131.537  18.976  1.00  0.00     0.075 A 
ATOM     15  C   UNL     1      42.494 132.095  19.335  1.00  0.00     0.187 A 
ATOM     16  C   UNL     1      43.557 131.830  18.448  1.00  0.00     0.170 A 
ATOM     17  F   UNL     1      41.259 132.395  18.862  1.00  0.00    -0.200 F 
BRANCH  16  18
ATOM     18  N   UNL     1      43.348 131.821  17.020  1.00  0.00    -0.279 N 
ATOM     19  H   UNL     1      43.260 132.804  16.669  1.00  0.00     0.358 HD
ATOM     20  H   UNL     1      42.452 131.337  16.779  1.00  0.00     0.358 HD
BRANCH  18  21
ATOM     21  C   UNL     1      44.456 131.163  16.376  1.00  0.00     0.136 A 
ATOM     22  C   UNL     1      44.712 129.787  16.621  1.00  0.00     0.069 A 
ATOM     23  C   UNL     1      45.256 131.863  15.444  1.00  0.00     0.094 A 
ATOM     24  C   UNL     1      45.757 129.118  15.959  1.00  0.00     0.016 A 
ATOM     25  C   UNL     1      46.277 131.168  14.797  1.00  0.00     0.051 A 
ATOM     26  C   UNL     1      46.520 129.846  15.050  1.00  0.00    -0.000 A 
ATOM     27  N   UNL     1      47.124 131.637  13.865  1.00  0.00    -0.361 N 
ATOM     28  C   UNL     1      47.568 129.456  14.246  1.00  0.00     0.028 A 
ATOM     29  C   UNL     1      47.916 130.595  13.525  1.00  0.00     0.083 A 
ATOM     30  H   UNL     1      47.154 132.603  13.465  1.00  0.00     0.166 HD
ENDBRANCH  18  21
ENDBRANCH  16  18
ENDBRANCH   1  11
TORSDOF 8
ENDMDL
MODEL 4
REMARK VINA RESULT:      -8.3      3.498      8.303
REMARK SMILES O=C(Oc1ccc([NH2+]c2ccc3cc[nH]c3c2)c(F)c1)[C@H](O)CC1CC1
REMARK SMILES IDX 3 1 2 2 1 3 21 4 22 5 23 7 24 8 25 9 26 10 4 11 5 12 20 13
REMARK SMILES IDX 6 14 18 15 7 16 19 17 8 18 9 21 10 22 17 23 11 24 16 25
REMARK SMILES IDX 12 26 15 27 13 28 14 29
REMARK H PARENT 22 6 8 19 8 20 15 30
ROOT
ATOM      1  O   UNL     1      43.889 131.812  22.182  1.00  0.00    -0.425 OA
ENDROOT
BRANCH   1   2
ATOM      2  C   UNL     1      43.022 131.151  23.064  1.00  0.00     0.340 C 
ATOM      3  O   UNL     1      42.245 131.795  23.820  1.00  0.00    -0.249 OA
BRANCH   2   4
ATOM      4  C   UNL     1      42.921 129.653  23.008  1.00  0.00     0.224 C 
BRANCH   4   5
ATOM      5  O   UNL     1      41.793 129.213  23.720  1.00  0.00    -0.381 OA
ATOM      6  H   UNL     1      40.998 129.541  23.226  1.00  0.00     0.211 HD
ENDBRANCH   4   5
BRANCH   4   7
ATOM      7  C   UNL     1      44.188 128.999  23.580  1.00  0.00     0.047 C 
BRANCH   7   8
ATOM      8  C   UNL     1      44.471 127.623  22.953  1.00  0.00    -0.008 C 
ATOM      9  C   UNL     1      45.515 126.796  23.690  1.00  0.00     0.004 C 
ATOM     10  C   UNL     1      44.046 126.413  23.774  1.00  0.00     0.004 C 
ENDBRANCH   7   8
ENDBRANCH   4   7
ENDBRANCH   2   4
ENDBRANCH   1   2
BRANCH   1  11
ATOM     11  C   UNL     1      43.807 131.787  20.783  1.00  0.00     0.134 A 
ATOM     12  C   UNL     1      42.543 131.865  20.192  1.00  0.00     0.053 A 
ATOM     13  C   UNL     1      44.942 131.659  19.961  1.00  0.00     0.093 A 
ATOM     14  C   UNL     1      42.406 131.866  18.802  1.00  0.00     0.075 A 
ATOM     15  C   UNL     1      44.810 131.663  18.568  1.00  0.00     0.187 A 
ATOM     16  C   UNL     1      43.537 131.772  17.974  1.00  0.00     0.170 A 
ATOM     17  F   UNL     1      45.924 131.557  17.801  1.00  0.00    -0.200 F 
BRANCH  16  18
ATOM     18  N   UNL     1      43.389 131.825  16.539  1.00  0.00    -0.279 N 
ATOM     19  H   UNL     1      43.366 132.823  16.222  1.00  0.00     0.358 HD
ATOM     20  H   UNL     1      42.481 131.397  16.243  1.00  0.00     0.358 HD
BRANCH  18  21
ATOM     21  C   UNL     1      44.489 131.134  15.917  1.00  0.00     0.136 A 
ATOM     22  C   UNL     1      44.646 129.732  16.093  1.00  0.00     0.069 A 
ATOM     23  C   UNL     1      45.382 131.832  15.071  1.00  0.00     0.094 A 
ATOM     24  C   UNL     1      45.684 129.036  15.448  1.00  0.00     0.016 A 
ATOM     25  C   UNL     1      46.394 131.109  14.439  1.00  0.00     0.051 A 
ATOM     26  C   UNL     1      46.540 129.762  14.625  1.00  0.00    -0.000 A 
ATOM     27  N   UNL     1      47.319 131.575  13.582  1.00  0.00    -0.361 N 
ATOM     28  C   UNL     1      47.606 129.351  13.856  1.00  0.00     0.028 A 
ATOM     29  C   UNL     1      48.063 130.504  13.223  1.00  0.00     0.083 A 
ATOM     30  H   UNL     1      47.430 132.557  13.242  1.00  0.00     0.166 HD
ENDBRANCH  18  21
ENDBRANCH  16  18
ENDBRANCH   1  11
TORSDOF 8
ENDMDL
MODEL 5
REMARK VINA RESULT:      -7.7      3.388      8.647
REMARK SMILES O=C(Oc1ccc([NH2+]c2ccc3cc[nH]c3c2)c(F)c1)[C@H](O)CC1CC1
REMARK SMILES IDX 3 1 2 2 1 3 21 4 22 5 23 7 24 8 25 9 26 10 4 11 5 12 20 13
REMARK SMILES IDX 6 14 18 15 7 16 19 17 8 18 9 21 10 22 17 23 11 24 16 25
REMARK SMILES IDX 12 26 15 27 13 28 14 29
REMARK H PARENT 22 6 8 19 8 20 15 30
ROOT
ATOM      1  O   UNL     1      44.384 131.227  21.868  1.00  0.00    -0.425 OA
ENDROOT
BRANCH   1   2
ATOM      2  C   UNL     1      44.573 130.003  22.525  1.00  0.00     0.340 C 
ATOM      3  O   UNL     1      45.518 129.231  22.207  1.00  0.00    -0.249 OA
BRANCH   2   4
ATOM      4  C   UNL     1      43.720 129.670  23.715  1.00  0.00     0.224 C 
BRANCH   4   5
ATOM      5  O   UNL     1      44.435 128.868  24.620  1.00  0.00    -0.381 OA
ATOM      6  H   UNL     1      44.399 127.940  24.269  1.00  0.00     0.211 HD
ENDBRANCH   4   5
BRANCH   4   7
ATOM      7  C   UNL     1      42.435 128.950  23.282  1.00  0.00     0.047 C 
BRANCH   7   8
ATOM      8  C   UNL     1      41.908 127.989  24.362  1.00  0.00    -0.008 C 
ATOM      9  C   UNL     1      40.405 128.060  24.592  1.00  0.00     0.004 C 
ATOM     10  C   UNL     1      41.008 126.863  23.874  1.00  0.00     0.004 C 
ENDBRANCH   7   8
ENDBRANCH   4   7
ENDBRANCH   2   4
ENDBRANCH   1   2
BRANCH   1  11
ATOM     11  C   UNL     1      44.197 131.396  20.489  1.00  0.00     0.134 A 
ATOM     12  C   UNL     1      45.301 131.239  19.647  1.00  0.00     0.053 A 
ATOM     13  C   UNL     1      42.952 131.740  19.932  1.00  0.00     0.093 A 
ATOM     14  C   UNL     1      45.166 131.374  18.264  1.00  0.00     0.075 A 
ATOM     15  C   UNL     1      42.810 131.873  18.546  1.00  0.00     0.187 A 
ATOM     16  C   UNL     1      43.919 131.686  17.696  1.00  0.00     0.170 A 
ATOM     17  F   UNL     1      41.594 132.188  18.036  1.00  0.00    -0.200 F 
BRANCH  16  18
ATOM     18  N   UNL     1      43.778 131.773  16.263  1.00  0.00    -0.279 N 
ATOM     19  H   UNL     1      43.787 132.779  15.967  1.00  0.00     0.358 HD
ATOM     20  H   UNL     1      42.859 131.380  15.954  1.00  0.00     0.358 HD
BRANCH  18  21
ATOM     21  C   UNL     1      44.858 131.062  15.629  1.00  0.00     0.136 A 
ATOM     22  C   UNL     1      44.919 129.644  15.698  1.00  0.00     0.069 A 
ATOM     23  C   UNL     1      45.830 131.763  14.877  1.00  0.00     0.094 A 
ATOM     24  C   UNL     1      45.939 128.932  15.039  1.00  0.00     0.016 A 
ATOM     25  C   UNL     1      46.820 131.027  14.228  1.00  0.00     0.051 A 
ATOM     26  C   UNL     1      46.874 129.663  14.311  1.00  0.00    -0.000 A 
ATOM     27  N   UNL     1      47.809 131.495  13.448  1.00  0.00    -0.361 N 
ATOM     28  C   UNL     1      47.944 129.243  13.553  1.00  0.00     0.028 A 
ATOM     29  C   UNL     1      48.499 130.409  13.033  1.00  0.00     0.083 A 
ATOM     30  H   UNL     1      47.996 132.492  13.192  1.00  0.00     0.166 HD
ENDBRANCH  18  21
ENDBRANCH  16  18
ENDBRANCH   1  11
TORSDOF 8
ENDMDL
MODEL 6
REMARK VINA RESULT:      -7.4      1.077      1.265
REMARK SMILES O=C(Oc1ccc([NH2+]c2ccc3cc[nH]c3c2)c(F)c1)[C@H](O)CC1CC1
REMARK SMILES IDX 3 1 2 2 1 3 21 4 22 5 23 7 24 8 25 9 26 10 4 11 5 12 20 13
REMARK SMILES IDX 6 14 18 15 7 16 19 17 8 18 9 21 10 22 17 23 11 24 16 25
REMARK SMILES IDX 12 26 15 27 13 28 14 29
REMARK H PARENT 22 6 8 19 8 20 15 30
ROOT
ATOM      1  O   UNL     1      45.704 131.490  18.615  1.00  0.00    -0.425 OA
ENDROOT
BRANCH   1   2
ATOM      2  C   UNL     1      45.406 130.951  17.355  1.00  0.00     0.340 C 
ATOM      3  O   UNL     1      45.415 129.706  17.161  1.00  0.00    -0.249 OA
BRANCH   2   4
ATOM      4  C   UNL     1      44.936 131.864  16.260  1.00  0.00     0.224 C 
BRANCH   4   5
ATOM      5  O   UNL     1      43.939 131.237  15.495  1.00  0.00    -0.381 OA
ATOM      6  H   UNL     1      44.401 130.761  14.757  1.00  0.00     0.211 HD
ENDBRANCH   4   5
BRANCH   4   7
ATOM      7  C   UNL     1      46.105 132.278  15.354  1.00  0.00     0.047 C 
BRANCH   7   8
ATOM      8  C   UNL     1      46.820 131.068  14.730  1.00  0.00    -0.008 C 
ATOM      9  C   UNL     1      46.230 130.597  13.408  1.00  0.00     0.004 C 
ATOM     10  C   UNL     1      47.562 131.328  13.426  1.00  0.00     0.004 C 
ENDBRANCH   7   8
ENDBRANCH   4   7
ENDBRANCH   2   4
ENDBRANCH   1   2
BRANCH   1  11
ATOM     11  C   UNL     1      44.953 131.303  19.783  1.00  0.00     0.134 A 
ATOM     12  C   UNL     1      45.406 130.369  20.719  1.00  0.00     0.053 A 
ATOM     13  C   UNL     1      43.755 131.997  20.032  1.00  0.00     0.093 A 
ATOM     14  C   UNL     1      44.708 130.159  21.910  1.00  0.00     0.075 A 
ATOM     15  C   UNL     1      43.054 131.794  21.225  1.00  0.00     0.187 A 
ATOM     16  C   UNL     1      43.528 130.873  22.181  1.00  0.00     0.170 A 
ATOM     17  F   UNL     1      41.912 132.491  21.445  1.00  0.00    -0.200 F 
BRANCH  16  18
ATOM     18  N   UNL     1      42.841 130.686  23.436  1.00  0.00    -0.279 N 
ATOM     19  H   UNL     1      41.894 131.131  23.392  1.00  0.00     0.358 HD
ATOM     20  H   UNL     1      43.357 131.158  24.216  1.00  0.00     0.358 HD
BRANCH  18  21
ATOM     21  C   UNL     1      42.713 129.277  23.709  1.00  0.00     0.136 A 
ATOM     22  C   UNL     1      41.457 128.630  23.561  1.00  0.00     0.069 A 
ATOM     23  C   UNL     1      43.851 128.514  24.062  1.00  0.00     0.094 A 
ATOM     24  C   UNL     1      41.329 127.246  23.773  1.00  0.00     0.016 A 
ATOM     25  C   UNL     1      43.691 127.142  24.254  1.00  0.00     0.051 A 
ATOM     26  C   UNL     1      42.473 126.533  24.119  1.00  0.00    -0.000 A 
ATOM     27  N   UNL     1      44.641 126.243  24.563  1.00  0.00    -0.361 N 
ATOM     28  C   UNL     1      42.655 125.188  24.353  1.00  0.00     0.028 A 
ATOM     29  C   UNL     1      44.012 125.047  24.625  1.00  0.00     0.083 A 
ATOM     30  H   UNL     1      45.661 126.422  24.705  1.00  0.00     0.166 HD
ENDBRANCH  18  21
ENDBRANCH  16  18
ENDBRANCH   1  11
TORSDOF 8
ENDMDL
MODEL 7
REMARK VINA RESULT:      -7.2      1.306      1.818
REMARK SMILES O=C(Oc1ccc([NH2+]c2ccc3cc[nH]c3c2)c(F)c1)[C@H](O)CC1CC1
REMARK SMILES IDX 3 1 2 2 1 3 21 4 22 5 23 7 24 8 25 9 26 10 4 11 5 12 20 13
REMARK SMILES IDX 6 14 18 15 7 16 19 17 8 18 9 21 10 22 17 23 11 24 16 25
REMARK SMILES IDX 12 26 15 27 13 28 14 29
REMARK H PARENT 22 6 8 19 8 20 15 30
ROOT
ATOM      1  O   UNL     1      45.370 131.730  17.183  1.00  0.00    -0.425 OA
ENDROOT
BRANCH   1   2
ATOM      2  C   UNL     1      44.627 131.065  16.197  1.00  0.00     0.340 C 
ATOM      3  O   UNL     1      43.493 131.485  15.842  1.00  0.00    -0.249 OA
BRANCH   2   4
ATOM      4  C   UNL     1      45.251 129.916  15.458  1.00  0.00     0.224 C 
BRANCH   4   5
ATOM      5  O   UNL     1      45.167 128.740  16.222  1.00  0.00    -0.381 OA
ATOM      6  H   UNL     1      45.768 128.863  17.002  1.00  0.00     0.211 HD
ENDBRANCH   4   5
BRANCH   4   7
ATOM      7  C   UNL     1      46.720 130.216  15.122  1.00  0.00     0.047 C 
BRANCH   7   8
ATOM      8  C   UNL     1      47.025 130.047  13.624  1.00  0.00    -0.008 C 
ATOM      9  C   UNL     1      47.873 131.158  13.023  1.00  0.00     0.004 C 
ATOM     10  C   UNL     1      48.480 129.785  13.263  1.00  0.00     0.004 C 
ENDBRANCH   7   8
ENDBRANCH   4   7
ENDBRANCH   2   4
ENDBRANCH   1   2
BRANCH   1  11
ATOM     11  C   UNL     1      45.273 131.516  18.564  1.00  0.00     0.134 A 
ATOM     12  C   UNL     1      44.586 132.459  19.333  1.00  0.00     0.053 A 
ATOM     13  C   UNL     1      45.862 130.409  19.202  1.00  0.00     0.093 A 
ATOM     14  C   UNL     1      44.440 132.284  20.711  1.00  0.00     0.075 A 
ATOM     15  C   UNL     1      45.716 130.227  20.581  1.00  0.00     0.187 A 
ATOM     16  C   UNL     1      44.997 131.164  21.350  1.00  0.00     0.170 A 
ATOM     17  F   UNL     1      46.279 129.140  21.166  1.00  0.00    -0.200 F 
BRANCH  16  18
ATOM     18  N   UNL     1      44.798 130.966  22.766  1.00  0.00    -0.279 N 
ATOM     19  H   UNL     1      44.334 131.809  23.180  1.00  0.00     0.358 HD
ATOM     20  H   UNL     1      45.715 130.858  23.259  1.00  0.00     0.358 HD
BRANCH  18  21
ATOM     21  C   UNL     1      43.983 129.797  22.978  1.00  0.00     0.136 A 
ATOM     22  C   UNL     1      42.571 129.874  22.836  1.00  0.00     0.069 A 
ATOM     23  C   UNL     1      44.586 128.550  23.264  1.00  0.00     0.094 A 
ATOM     24  C   UNL     1      41.767 128.730  22.989  1.00  0.00     0.016 A 
ATOM     25  C   UNL     1      43.761 127.434  23.398  1.00  0.00     0.051 A 
ATOM     26  C   UNL     1      42.402 127.523  23.270  1.00  0.00    -0.000 A 
ATOM     27  N   UNL     1      44.133 126.165  23.638  1.00  0.00    -0.361 N 
ATOM     28  C   UNL     1      41.886 126.257  23.437  1.00  0.00     0.028 A 
ATOM     29  C   UNL     1      42.991 125.442  23.664  1.00  0.00     0.083 A 
ATOM     30  H   UNL     1      45.106 125.803  23.759  1.00  0.00     0.166 HD
ENDBRANCH  18  21
ENDBRANCH  16  18
ENDBRANCH   1  11
TORSDOF 8
ENDMDL
MODEL 8
REMARK VINA RESULT:      -6.5      3.374      8.510
REMARK SMILES O=C(Oc1ccc([NH2+]c2ccc3cc[nH]c3c2)c(F)c1)[C@H](O)CC1CC1
REMARK SMILES IDX 3 1 2 2 1 3 21 4 22 5 23 7 24 8 25 9 26 10 4 11 5 12 20 13
REMARK SMILES IDX 6 14 18 15 7 16 19 17 8 18 9 21 10 22 17 23 11 24 16 25
REMARK SMILES IDX 12 26 15 27 13 28 14 29
REMARK H PARENT 22 6 8 19 8 20 15 30
ROOT
ATOM      1  O   UNL     1      42.667 130.929  21.594  1.00  0.00    -0.425 OA
ENDROOT
BRANCH   1   2
ATOM      2  C   UNL     1      43.523 131.028  22.700  1.00  0.00     0.340 C 
ATOM      3  O   UNL     1      43.743 132.138  23.257  1.00  0.00    -0.249 OA
BRANCH   2   4
ATOM      4  C   UNL     1      44.078 129.774  23.312  1.00  0.00     0.224 C 
BRANCH   4   5
ATOM      5  O   UNL     1      44.743 129.009  22.340  1.00  0.00    -0.381 OA
ATOM      6  H   UNL     1      44.042 128.548  21.811  1.00  0.00     0.211 HD
ENDBRANCH   4   5
BRANCH   4   7
ATOM      7  C   UNL     1      42.961 128.941  23.957  1.00  0.00     0.047 C 
BRANCH   7   8
ATOM      8  C   UNL     1      43.127 127.434  23.695  1.00  0.00    -0.008 C 
ATOM      9  C   UNL     1      42.263 126.541  24.574  1.00  0.00     0.004 C 
ATOM     10  C   UNL     1      41.918 126.721  23.105  1.00  0.00     0.004 C 
ENDBRANCH   7   8
ENDBRANCH   4   7
ENDBRANCH   2   4
ENDBRANCH   1   2
BRANCH   1  11
ATOM     11  C   UNL     1      43.006 131.226  20.267  1.00  0.00     0.134 A 
ATOM     12  C   UNL     1      41.974 131.374  19.337  1.00  0.00     0.053 A 
ATOM     13  C   UNL     1      44.340 131.351  19.837  1.00  0.00     0.093 A 
ATOM     14  C   UNL     1      42.255 131.691  18.006  1.00  0.00     0.075 A 
ATOM     15  C   UNL     1      44.627 131.672  18.505  1.00  0.00     0.187 A 
ATOM     16  C   UNL     1      43.583 131.850  17.576  1.00  0.00     0.170 A 
ATOM     17  F   UNL     1      45.921 131.804  18.124  1.00  0.00    -0.200 F 
BRANCH  16  18
ATOM     18  N   UNL     1      43.861 132.227  16.211  1.00  0.00    -0.279 N 
ATOM     19  H   UNL     1      44.150 133.233  16.173  1.00  0.00     0.358 HD
ATOM     20  H   UNL     1      43.001 132.142  15.619  1.00  0.00     0.358 HD
BRANCH  18  21
ATOM     21  C   UNL     1      44.908 131.390  15.684  1.00  0.00     0.136 A 
ATOM     22  C   UNL     1      45.007 130.030  16.083  1.00  0.00     0.069 A 
ATOM     23  C   UNL     1      45.806 131.898  14.716  1.00  0.00     0.094 A 
ATOM     24  C   UNL     1      45.992 129.188  15.537  1.00  0.00     0.016 A 
ATOM     25  C   UNL     1      46.764 131.033  14.187  1.00  0.00     0.051 A 
ATOM     26  C   UNL     1      46.855 129.728  14.588  1.00  0.00    -0.000 A 
ATOM     27  N   UNL     1      47.682 131.307  13.245  1.00  0.00    -0.361 N 
ATOM     28  C   UNL     1      47.877 129.145  13.871  1.00  0.00     0.028 A 
ATOM     29  C   UNL     1      48.366 130.156  13.049  1.00  0.00     0.083 A 
ATOM     30  H   UNL     1      47.827 132.214  12.747  1.00  0.00     0.166 HD
ENDBRANCH  18  21
ENDBRANCH  16  18
ENDBRANCH   1  11
TORSDOF 8
ENDMDL


