REMARK SMILES C=Cc1cc(-c2cccc3ncoc23)cc(C#N)c1F
REMARK SMILES IDX 3 1 4 2 5 3 15 4 16 5 19 6 20 7 2 8 1 9 6 10 7 11 14 12 8 13
REMARK SMILES IDX 13 14 10 15 9 16 12 17 11 18 17 19 18 20
REMARK H PARENT
ROOT
ATOM      1  C   UNL     1      -1.465   1.819   1.032  1.00  0.00     0.012 A 
ATOM      2  C   UNL     1      -0.573   1.039   0.271  1.00  0.00     0.020 A 
ATOM      3  C   UNL     1      -0.443  -0.342   0.502  1.00  0.00    -0.012 A 
ATOM      4  C   UNL     1      -1.204  -0.939   1.520  1.00  0.00     0.031 A 
ATOM      5  C   UNL     1      -2.080  -0.172   2.294  1.00  0.00     0.089 A 
ATOM      6  C   UNL     1      -2.209   1.203   2.055  1.00  0.00     0.148 A 
ATOM      7  F   UNL     1      -3.069   1.936   2.811  1.00  0.00    -0.205 F 
ENDROOT
BRANCH   1   8
ATOM      8  C   UNL     1      -1.613   3.280   0.811  1.00  0.00     0.003 C 
ATOM      9  C   UNL     1      -1.323   3.890  -0.339  1.00  0.00     0.009 C 
ENDBRANCH   1   8
BRANCH   3  10
ATOM     10  C   UNL     1       0.495  -1.157  -0.308  1.00  0.00     0.027 A 
ATOM     11  C   UNL     1       1.308  -2.154   0.283  1.00  0.00     0.013 A 
ATOM     12  C   UNL     1       0.619  -0.985  -1.694  1.00  0.00     0.162 A 
ATOM     13  C   UNL     1       2.198  -2.920  -0.504  1.00  0.00     0.003 A 
ATOM     14  O   UNL     1      -0.019  -0.163  -2.484  1.00  0.00    -0.443 OA
ATOM     15  C   UNL     1       1.477  -1.726  -2.448  1.00  0.00     0.110 A 
ATOM     16  C   UNL     1       2.289  -2.708  -1.891  1.00  0.00     0.032 A 
ATOM     17  C   UNL     1       0.444  -0.392  -3.701  1.00  0.00     0.309 A 
ATOM     18  N   UNL     1       1.389  -1.367  -3.740  1.00  0.00    -0.217 NA
ENDBRANCH   3  10
BRANCH   5  19
ATOM     19  C   UNL     1      -2.851  -0.804   3.334  1.00  0.00     0.102 C 
ATOM     20  N   UNL     1      -3.471  -1.312   4.169  1.00  0.00    -0.192 NA
ENDBRANCH   5  19
TORSDOF 3


