MODEL 1
REMARK VINA RESULT:      -4.2      0.000      0.000
REMARK SMILES C[C@@H]1CC[C@@H](c2ccc3ncccc3c2)[C@H](F)N1c1[nH+]cnc2c1CCC2
REMARK SMILES IDX 19 1 20 2 21 3 22 4 23 5 24 6 25 7 26 8 27 9 18 11 2 12 3 13
REMARK SMILES IDX 4 14 16 15 5 16 1 17 17 18 6 19 7 20 15 21 8 22 14 23 9 24
REMARK SMILES IDX 13 25 10 26 12 27 11 28
REMARK H PARENT 20 10
ROOT
ATOM      1  C   UNL     1      44.127 131.800  21.629  1.00  0.00     0.230 A 
ATOM      2  N   UNL     1      45.110 132.632  22.083  1.00  0.00    -0.250 N 
ATOM      3  C   UNL     1      45.525 132.581  23.384  1.00  0.00     0.367 A 
ATOM      4  N   UNL     1      44.962 131.692  24.252  1.00  0.00    -0.116 NA
ATOM      5  C   UNL     1      43.987 130.859  23.811  1.00  0.00     0.125 A 
ATOM      6  C   UNL     1      43.557 130.890  22.518  1.00  0.00     0.063 A 
ATOM      7  C   UNL     1      42.480 129.905  22.264  1.00  0.00     0.046 C 
ATOM      8  C   UNL     1      42.281 129.216  23.630  1.00  0.00     0.013 C 
ATOM      9  C   UNL     1      43.276 129.851  24.624  1.00  0.00     0.076 C 
ATOM     10  H   UNL     1      45.551 133.320  21.433  1.00  0.00     0.266 HD
ENDROOT
BRANCH   1  11
ATOM     11  N   UNL     1      43.689 131.862  20.263  1.00  0.00    -0.259 N 
ATOM     12  C   UNL     1      42.634 132.821  19.868  1.00  0.00     0.145 C 
ATOM     13  C   UNL     1      41.899 132.313  18.614  1.00  0.00     0.042 C 
ATOM     14  C   UNL     1      42.885 131.960  17.499  1.00  0.00     0.018 C 
ATOM     15  C   UNL     1      44.643 131.421  19.233  1.00  0.00     0.331 C 
ATOM     16  C   UNL     1      43.891 130.908  17.992  1.00  0.00     0.090 C 
ATOM     17  C   UNL     1      41.610 133.059  20.993  1.00  0.00     0.049 C 
ATOM     18  F   UNL     1      45.450 130.404  19.722  1.00  0.00    -0.205 F 
BRANCH  16  19
ATOM     19  C   UNL     1      44.851 130.504  16.886  1.00  0.00    -0.038 A 
ATOM     20  C   UNL     1      45.126 129.142  16.661  1.00  0.00     0.006 A 
ATOM     21  C   UNL     1      45.479 131.471  16.078  1.00  0.00     0.014 A 
ATOM     22  C   UNL     1      46.008 128.750  15.651  1.00  0.00     0.029 A 
ATOM     23  C   UNL     1      46.365 131.082  15.063  1.00  0.00     0.000 A 
ATOM     24  C   UNL     1      46.629 129.712  14.850  1.00  0.00     0.070 A 
ATOM     25  C   UNL     1      47.000 132.028  14.249  1.00  0.00     0.012 A 
ATOM     26  N   UNL     1      47.489 129.330  13.867  1.00  0.00    -0.256 NA
ATOM     27  C   UNL     1      47.877 131.606  13.248  1.00  0.00     0.021 A 
ATOM     28  C   UNL     1      48.112 130.240  13.070  1.00  0.00     0.112 A 
ENDBRANCH  16  19
ENDBRANCH   1  11
TORSDOF 2
ENDMDL
MODEL 2
REMARK VINA RESULT:      -4.2      7.221     10.488
REMARK SMILES C[C@@H]1CC[C@@H](c2ccc3ncccc3c2)[C@H](F)N1c1[nH+]cnc2c1CCC2
REMARK SMILES IDX 19 1 20 2 21 3 22 4 23 5 24 6 25 7 26 8 27 9 18 11 2 12 3 13
REMARK SMILES IDX 4 14 16 15 5 16 1 17 17 18 6 19 7 20 15 21 8 22 14 23 9 24
REMARK SMILES IDX 13 25 10 26 12 27 11 28
REMARK H PARENT 20 10
ROOT
ATOM      1  C   UNL     1      50.028 124.787  22.549  1.00  0.00     0.230 A 
ATOM      2  N   UNL     1      50.602 125.950  22.977  1.00  0.00    -0.250 N 
ATOM      3  C   UNL     1      51.676 126.483  22.322  1.00  0.00     0.367 A 
ATOM      4  N   UNL     1      52.195 125.857  21.226  1.00  0.00    -0.116 NA
ATOM      5  C   UNL     1      51.631 124.703  20.791  1.00  0.00     0.125 A 
ATOM      6  C   UNL     1      50.558 124.153  21.427  1.00  0.00     0.063 A 
ATOM      7  C   UNL     1      50.119 122.890  20.788  1.00  0.00     0.046 C 
ATOM      8  C   UNL     1      51.102 122.710  19.612  1.00  0.00     0.013 C 
ATOM      9  C   UNL     1      52.078 123.905  19.631  1.00  0.00     0.076 C 
ATOM     10  H   UNL     1      50.219 126.442  23.815  1.00  0.00     0.266 HD
ENDROOT
BRANCH   1  11
ATOM     11  N   UNL     1      48.903 124.227  23.243  1.00  0.00    -0.259 N 
ATOM     12  C   UNL     1      49.120 123.331  24.401  1.00  0.00     0.145 C 
ATOM     13  C   UNL     1      47.915 122.388  24.574  1.00  0.00     0.042 C 
ATOM     14  C   UNL     1      46.601 123.169  24.615  1.00  0.00     0.018 C 
ATOM     15  C   UNL     1      47.635 124.969  23.173  1.00  0.00     0.331 C 
ATOM     16  C   UNL     1      46.443 124.010  23.337  1.00  0.00     0.090 C 
ATOM     17  C   UNL     1      50.403 122.492  24.257  1.00  0.00     0.049 C 
ATOM     18  F   UNL     1      47.521 125.623  21.954  1.00  0.00    -0.205 F 
BRANCH  16  19
ATOM     19  C   UNL     1      45.121 124.758  23.331  1.00  0.00    -0.038 A 
ATOM     20  C   UNL     1      44.013 124.216  22.655  1.00  0.00     0.006 A 
ATOM     21  C   UNL     1      44.981 125.995  23.992  1.00  0.00     0.014 A 
ATOM     22  C   UNL     1      42.789 124.889  22.635  1.00  0.00     0.029 A 
ATOM     23  C   UNL     1      43.754 126.674  23.974  1.00  0.00     0.000 A 
ATOM     24  C   UNL     1      42.653 126.115  23.291  1.00  0.00     0.070 A 
ATOM     25  C   UNL     1      43.594 127.905  24.624  1.00  0.00     0.012 A 
ATOM     26  N   UNL     1      41.460 126.772  23.271  1.00  0.00    -0.256 NA
ATOM     27  C   UNL     1      42.359 128.555  24.586  1.00  0.00     0.021 A 
ATOM     28  C   UNL     1      41.293 127.967  23.898  1.00  0.00     0.112 A 
ENDBRANCH  16  19
ENDBRANCH   1  11
TORSDOF 2
ENDMDL
MODEL 3
REMARK VINA RESULT:      -3.8      0.930      1.549
REMARK SMILES C[C@@H]1CC[C@@H](c2ccc3ncccc3c2)[C@H](F)N1c1[nH+]cnc2c1CCC2
REMARK SMILES IDX 19 1 20 2 21 3 22 4 23 5 24 6 25 7 26 8 27 9 18 11 2 12 3 13
REMARK SMILES IDX 4 14 16 15 5 16 1 17 17 18 6 19 7 20 15 21 8 22 14 23 9 24
REMARK SMILES IDX 13 25 10 26 12 27 11 28
REMARK H PARENT 20 10
ROOT
ATOM      1  C   UNL     1      44.137 131.660  22.018  1.00  0.00     0.230 A 
ATOM      2  N   UNL     1      44.766 132.704  22.633  1.00  0.00    -0.250 N 
ATOM      3  C   UNL     1      45.252 132.579  23.904  1.00  0.00     0.367 A 
ATOM      4  N   UNL     1      45.115 131.402  24.581  1.00  0.00    -0.116 NA
ATOM      5  C   UNL     1      44.494 130.358  23.978  1.00  0.00     0.125 A 
ATOM      6  C   UNL     1      44.002 130.458  22.711  1.00  0.00     0.063 A 
ATOM      7  C   UNL     1      43.355 129.203  22.263  1.00  0.00     0.046 C 
ATOM      8  C   UNL     1      43.512 128.255  23.470  1.00  0.00     0.013 C 
ATOM      9  C   UNL     1      44.260 129.028  24.577  1.00  0.00     0.076 C 
ATOM     10  H   UNL     1      44.878 133.613  22.130  1.00  0.00     0.266 HD
ENDROOT
BRANCH   1  11
ATOM     11  N   UNL     1      43.622 131.797  20.684  1.00  0.00    -0.259 N 
ATOM     12  C   UNL     1      42.343 132.506  20.455  1.00  0.00     0.145 C 
ATOM     13  C   UNL     1      41.687 132.009  19.154  1.00  0.00     0.042 C 
ATOM     14  C   UNL     1      42.667 132.072  17.981  1.00  0.00     0.018 C 
ATOM     15  C   UNL     1      44.596 131.757  19.583  1.00  0.00     0.331 C 
ATOM     16  C   UNL     1      43.926 131.248  18.295  1.00  0.00     0.090 C 
ATOM     17  C   UNL     1      41.356 132.321  21.623  1.00  0.00     0.049 C 
ATOM     18  F   UNL     1      45.655 130.918  19.901  1.00  0.00    -0.205 F 
BRANCH  16  19
ATOM     19  C   UNL     1      44.894 131.254  17.123  1.00  0.00    -0.038 A 
ATOM     20  C   UNL     1      45.272 132.475  16.535  1.00  0.00     0.006 A 
ATOM     21  C   UNL     1      45.421 130.054  16.607  1.00  0.00     0.014 A 
ATOM     22  C   UNL     1      46.158 132.503  15.455  1.00  0.00     0.029 A 
ATOM     23  C   UNL     1      46.311 130.077  15.524  1.00  0.00     0.000 A 
ATOM     24  C   UNL     1      46.680 131.311  14.946  1.00  0.00     0.070 A 
ATOM     25  C   UNL     1      46.845 128.895  14.996  1.00  0.00     0.012 A 
ATOM     26  N   UNL     1      47.543 131.337  13.893  1.00  0.00    -0.256 NA
ATOM     27  C   UNL     1      47.729 128.954  13.916  1.00  0.00     0.021 A 
ATOM     28  C   UNL     1      48.069 130.196  13.373  1.00  0.00     0.112 A 
ENDBRANCH  16  19
ENDBRANCH   1  11
TORSDOF 2
ENDMDL
MODEL 4
REMARK VINA RESULT:      -3.7      7.162     10.244
REMARK SMILES C[C@@H]1CC[C@@H](c2ccc3ncccc3c2)[C@H](F)N1c1[nH+]cnc2c1CCC2
REMARK SMILES IDX 19 1 20 2 21 3 22 4 23 5 24 6 25 7 26 8 27 9 18 11 2 12 3 13
REMARK SMILES IDX 4 14 16 15 5 16 1 17 17 18 6 19 7 20 15 21 8 22 14 23 9 24
REMARK SMILES IDX 13 25 10 26 12 27 11 28
REMARK H PARENT 20 10
ROOT
ATOM      1  C   UNL     1      50.666 124.934  22.842  1.00  0.00     0.230 A 
ATOM      2  N   UNL     1      51.367 125.982  23.366  1.00  0.00    -0.250 N 
ATOM      3  C   UNL     1      52.545 126.386  22.804  1.00  0.00     0.367 A 
ATOM      4  N   UNL     1      53.040 125.746  21.706  1.00  0.00    -0.116 NA
ATOM      5  C   UNL     1      52.350 124.706  21.176  1.00  0.00     0.125 A 
ATOM      6  C   UNL     1      51.173 124.284  21.718  1.00  0.00     0.063 A 
ATOM      7  C   UNL     1      50.604 123.129  20.986  1.00  0.00     0.046 C 
ATOM      8  C   UNL     1      51.625 122.866  19.859  1.00  0.00     0.013 C 
ATOM      9  C   UNL     1      52.755 123.908  20.000  1.00  0.00     0.076 C 
ATOM     10  H   UNL     1      51.003 126.483  24.207  1.00  0.00     0.266 HD
ENDROOT
BRANCH   1  11
ATOM     11  N   UNL     1      49.431 124.507  23.439  1.00  0.00    -0.259 N 
ATOM     12  C   UNL     1      49.433 123.425  24.447  1.00  0.00     0.145 C 
ATOM     13  C   UNL     1      48.064 122.720  24.471  1.00  0.00     0.042 C 
ATOM     14  C   UNL     1      46.924 123.728  24.624  1.00  0.00     0.018 C 
ATOM     15  C   UNL     1      48.332 125.486  23.477  1.00  0.00     0.331 C 
ATOM     16  C   UNL     1      46.974 124.764  23.489  1.00  0.00     0.090 C 
ATOM     17  C   UNL     1      50.535 122.382  24.183  1.00  0.00     0.049 C 
ATOM     18  F   UNL     1      48.388 126.322  22.371  1.00  0.00    -0.205 F 
BRANCH  16  19
ATOM     19  C   UNL     1      45.821 125.748  23.592  1.00  0.00    -0.038 A 
ATOM     20  C   UNL     1      44.712 125.445  24.404  1.00  0.00     0.006 A 
ATOM     21  C   UNL     1      45.838 126.966  22.884  1.00  0.00     0.014 A 
ATOM     22  C   UNL     1      43.641 126.336  24.509  1.00  0.00     0.029 A 
ATOM     23  C   UNL     1      44.764 127.863  22.987  1.00  0.00     0.000 A 
ATOM     24  C   UNL     1      43.660 127.543  23.806  1.00  0.00     0.070 A 
ATOM     25  C   UNL     1      44.761 129.078  22.290  1.00  0.00     0.012 A 
ATOM     26  N   UNL     1      42.616 128.410  23.908  1.00  0.00    -0.256 NA
ATOM     27  C   UNL     1      43.676 129.947  22.416  1.00  0.00     0.021 A 
ATOM     28  C   UNL     1      42.602 129.593  23.237  1.00  0.00     0.112 A 
ENDBRANCH  16  19
ENDBRANCH   1  11
TORSDOF 2
ENDMDL
MODEL 5
REMARK VINA RESULT:      -3.7      2.319      3.774
REMARK SMILES C[C@@H]1CC[C@@H](c2ccc3ncccc3c2)[C@H](F)N1c1[nH+]cnc2c1CCC2
REMARK SMILES IDX 19 1 20 2 21 3 22 4 23 5 24 6 25 7 26 8 27 9 18 11 2 12 3 13
REMARK SMILES IDX 4 14 16 15 5 16 1 17 17 18 6 19 7 20 15 21 8 22 14 23 9 24
REMARK SMILES IDX 13 25 10 26 12 27 11 28
REMARK H PARENT 20 10
ROOT
ATOM      1  C   UNL     1      42.792 129.459  23.215  1.00  0.00     0.230 A 
ATOM      2  N   UNL     1      41.565 129.821  23.691  1.00  0.00    -0.250 N 
ATOM      3  C   UNL     1      40.793 128.932  24.386  1.00  0.00     0.367 A 
ATOM      4  N   UNL     1      41.240 127.664  24.615  1.00  0.00    -0.116 NA
ATOM      5  C   UNL     1      42.459 127.295  24.149  1.00  0.00     0.125 A 
ATOM      6  C   UNL     1      43.248 128.164  23.455  1.00  0.00     0.063 A 
ATOM      7  C   UNL     1      44.525 127.543  23.033  1.00  0.00     0.046 C 
ATOM      8  C   UNL     1      44.434 126.103  23.580  1.00  0.00     0.013 C 
ATOM      9  C   UNL     1      43.079 125.963  24.306  1.00  0.00     0.076 C 
ATOM     10  H   UNL     1      41.205 130.787  23.524  1.00  0.00     0.266 HD
ENDROOT
BRANCH   1  11
ATOM     11  N   UNL     1      43.598 130.394  22.481  1.00  0.00    -0.259 N 
ATOM     12  C   UNL     1      44.807 130.976  23.104  1.00  0.00     0.145 C 
ATOM     13  C   UNL     1      45.130 132.338  22.463  1.00  0.00     0.042 C 
ATOM     14  C   UNL     1      45.189 132.233  20.937  1.00  0.00     0.018 C 
ATOM     15  C   UNL     1      43.547 130.313  21.013  1.00  0.00     0.331 C 
ATOM     16  C   UNL     1      43.861 131.685  20.390  1.00  0.00     0.090 C 
ATOM     17  C   UNL     1      44.652 131.156  24.625  1.00  0.00     0.049 C 
ATOM     18  F   UNL     1      42.289 129.906  20.592  1.00  0.00    -0.205 F 
BRANCH  16  19
ATOM     19  C   UNL     1      43.878 131.618  18.873  1.00  0.00    -0.038 A 
ATOM     20  C   UNL     1      42.689 131.828  18.150  1.00  0.00     0.006 A 
ATOM     21  C   UNL     1      45.067 131.343  18.169  1.00  0.00     0.014 A 
ATOM     22  C   UNL     1      42.683 131.768  16.754  1.00  0.00     0.029 A 
ATOM     23  C   UNL     1      45.065 131.281  16.768  1.00  0.00     0.000 A 
ATOM     24  C   UNL     1      43.863 131.496  16.058  1.00  0.00     0.070 A 
ATOM     25  C   UNL     1      46.236 131.009  16.050  1.00  0.00     0.012 A 
ATOM     26  N   UNL     1      43.857 131.436  14.698  1.00  0.00    -0.256 NA
ATOM     27  C   UNL     1      46.198 130.955  14.655  1.00  0.00     0.021 A 
ATOM     28  C   UNL     1      44.988 131.173  13.990  1.00  0.00     0.112 A 
ENDBRANCH  16  19
ENDBRANCH   1  11
TORSDOF 2
ENDMDL
MODEL 6
REMARK VINA RESULT:      -2.8      1.201      1.749
REMARK SMILES C[C@@H]1CC[C@@H](c2ccc3ncccc3c2)[C@H](F)N1c1[nH+]cnc2c1CCC2
REMARK SMILES IDX 19 1 20 2 21 3 22 4 23 5 24 6 25 7 26 8 27 9 18 11 2 12 3 13
REMARK SMILES IDX 4 14 16 15 5 16 1 17 17 18 6 19 7 20 15 21 8 22 14 23 9 24
REMARK SMILES IDX 13 25 10 26 12 27 11 28
REMARK H PARENT 20 10
ROOT
ATOM      1  C   UNL     1      43.711 131.141  22.285  1.00  0.00     0.230 A 
ATOM      2  N   UNL     1      44.806 131.732  22.846  1.00  0.00    -0.250 N 
ATOM      3  C   UNL     1      45.344 131.250  24.006  1.00  0.00     0.367 A 
ATOM      4  N   UNL     1      44.792 130.167  24.624  1.00  0.00    -0.116 NA
ATOM      5  C   UNL     1      43.705 129.570  24.073  1.00  0.00     0.125 A 
ATOM      6  C   UNL     1      43.151 130.032  22.916  1.00  0.00     0.063 A 
ATOM      7  C   UNL     1      41.968 129.238  22.509  1.00  0.00     0.046 C 
ATOM      8  C   UNL     1      41.845 128.166  23.613  1.00  0.00     0.013 C 
ATOM      9  C   UNL     1      42.990 128.400  24.621  1.00  0.00     0.076 C 
ATOM     10  H   UNL     1      45.241 132.564  22.387  1.00  0.00     0.266 HD
ENDROOT
BRANCH   1  11
ATOM     11  N   UNL     1      43.144 131.654  21.069  1.00  0.00    -0.259 N 
ATOM     12  C   UNL     1      42.185 132.779  21.117  1.00  0.00     0.145 C 
ATOM     13  C   UNL     1      41.265 132.745  19.883  1.00  0.00     0.042 C 
ATOM     14  C   UNL     1      42.076 132.659  18.589  1.00  0.00     0.018 C 
ATOM     15  C   UNL     1      43.922 131.462  19.834  1.00  0.00     0.331 C 
ATOM     16  C   UNL     1      42.986 131.420  18.614  1.00  0.00     0.090 C 
ATOM     17  C   UNL     1      41.322 132.757  22.393  1.00  0.00     0.049 C 
ATOM     18  F   UNL     1      44.639 130.275  19.892  1.00  0.00    -0.205 F 
BRANCH  16  19
ATOM     19  C   UNL     1      43.766 131.285  17.318  1.00  0.00    -0.038 A 
ATOM     20  C   UNL     1      43.260 131.852  16.134  1.00  0.00     0.006 A 
ATOM     21  C   UNL     1      44.994 130.595  17.275  1.00  0.00     0.014 A 
ATOM     22  C   UNL     1      43.961 131.736  14.931  1.00  0.00     0.029 A 
ATOM     23  C   UNL     1      45.701 130.476  16.070  1.00  0.00     0.000 A 
ATOM     24  C   UNL     1      45.179 131.052  14.891  1.00  0.00     0.070 A 
ATOM     25  C   UNL     1      46.923 129.794  16.007  1.00  0.00     0.012 A 
ATOM     26  N   UNL     1      45.862 130.939  13.719  1.00  0.00    -0.256 NA
ATOM     27  C   UNL     1      47.600 129.695  14.790  1.00  0.00     0.021 A 
ATOM     28  C   UNL     1      47.049 130.279  13.646  1.00  0.00     0.112 A 
ENDBRANCH  16  19
ENDBRANCH   1  11
TORSDOF 2
ENDMDL
MODEL 7
REMARK VINA RESULT:      -2.7      2.199      3.048
REMARK SMILES C[C@@H]1CC[C@@H](c2ccc3ncccc3c2)[C@H](F)N1c1[nH+]cnc2c1CCC2
REMARK SMILES IDX 19 1 20 2 21 3 22 4 23 5 24 6 25 7 26 8 27 9 18 11 2 12 3 13
REMARK SMILES IDX 4 14 16 15 5 16 1 17 17 18 6 19 7 20 15 21 8 22 14 23 9 24
REMARK SMILES IDX 13 25 10 26 12 27 11 28
REMARK H PARENT 20 10
ROOT
ATOM      1  C   UNL     1      45.004 128.731  22.085  1.00  0.00     0.230 A 
ATOM      2  N   UNL     1      46.129 127.961  22.008  1.00  0.00    -0.250 N 
ATOM      3  C   UNL     1      46.217 126.781  22.691  1.00  0.00     0.367 A 
ATOM      4  N   UNL     1      45.177 126.352  23.464  1.00  0.00    -0.116 NA
ATOM      5  C   UNL     1      44.054 127.108  23.545  1.00  0.00     0.125 A 
ATOM      6  C   UNL     1      43.942 128.288  22.872  1.00  0.00     0.063 A 
ATOM      7  C   UNL     1      42.638 128.949  23.117  1.00  0.00     0.046 C 
ATOM      8  C   UNL     1      41.911 127.983  24.077  1.00  0.00     0.013 C 
ATOM      9  C   UNL     1      42.851 126.788  24.340  1.00  0.00     0.076 C 
ATOM     10  H   UNL     1      46.935 128.274  21.423  1.00  0.00     0.266 HD
ENDROOT
BRANCH   1  11
ATOM     11  N   UNL     1      44.917 129.974  21.370  1.00  0.00    -0.259 N 
ATOM     12  C   UNL     1      44.832 131.250  22.114  1.00  0.00     0.145 C 
ATOM     13  C   UNL     1      44.134 132.319  21.255  1.00  0.00     0.042 C 
ATOM     14  C   UNL     1      44.784 132.432  19.874  1.00  0.00     0.018 C 
ATOM     15  C   UNL     1      45.473 130.003  20.008  1.00  0.00     0.331 C 
ATOM     16  C   UNL     1      44.757 131.070  19.161  1.00  0.00     0.090 C 
ATOM     17  C   UNL     1      44.077 131.099  23.448  1.00  0.00     0.049 C 
ATOM     18  F   UNL     1      45.323 128.768  19.395  1.00  0.00    -0.205 F 
BRANCH  16  19
ATOM     19  C   UNL     1      45.353 131.167  17.767  1.00  0.00    -0.038 A 
ATOM     20  C   UNL     1      45.231 132.363  17.036  1.00  0.00     0.006 A 
ATOM     21  C   UNL     1      46.027 130.075  17.186  1.00  0.00     0.014 A 
ATOM     22  C   UNL     1      45.769 132.471  15.751  1.00  0.00     0.029 A 
ATOM     23  C   UNL     1      46.569 130.180  15.897  1.00  0.00     0.000 A 
ATOM     24  C   UNL     1      46.438 131.387  15.177  1.00  0.00     0.070 A 
ATOM     25  C   UNL     1      47.242 129.106  15.301  1.00  0.00     0.012 A 
ATOM     26  N   UNL     1      46.962 131.492  13.925  1.00  0.00    -0.256 NA
ATOM     27  C   UNL     1      47.769 129.244  14.015  1.00  0.00     0.021 A 
ATOM     28  C   UNL     1      47.618 130.456  13.337  1.00  0.00     0.112 A 
ENDBRANCH  16  19
ENDBRANCH   1  11
TORSDOF 2
ENDMDL
MODEL 8
REMARK VINA RESULT:      -1.8      1.011      1.949
REMARK SMILES C[C@@H]1CC[C@@H](c2ccc3ncccc3c2)[C@H](F)N1c1[nH+]cnc2c1CCC2
REMARK SMILES IDX 19 1 20 2 21 3 22 4 23 5 24 6 25 7 26 8 27 9 18 11 2 12 3 13
REMARK SMILES IDX 4 14 16 15 5 16 1 17 17 18 6 19 7 20 15 21 8 22 14 23 9 24
REMARK SMILES IDX 13 25 10 26 12 27 11 28
REMARK H PARENT 20 10
ROOT
ATOM      1  C   UNL     1      43.454 131.315  21.797  1.00  0.00     0.230 A 
ATOM      2  N   UNL     1      42.689 130.341  22.372  1.00  0.00    -0.250 N 
ATOM      3  C   UNL     1      42.842 130.018  23.691  1.00  0.00     0.367 A 
ATOM      4  N   UNL     1      43.765 130.667  24.457  1.00  0.00    -0.116 NA
ATOM      5  C   UNL     1      44.528 131.639  23.897  1.00  0.00     0.125 A 
ATOM      6  C   UNL     1      44.394 131.979  22.584  1.00  0.00     0.063 A 
ATOM      7  C   UNL     1      45.336 133.052  22.186  1.00  0.00     0.046 C 
ATOM      8  C   UNL     1      46.117 133.356  23.483  1.00  0.00     0.013 C 
ATOM      9  C   UNL     1      45.572 132.424  24.586  1.00  0.00     0.076 C 
ATOM     10  H   UNL     1      41.978 129.832  21.800  1.00  0.00     0.266 HD
ENDROOT
BRANCH   1  11
ATOM     11  N   UNL     1      43.295 131.648  20.409  1.00  0.00    -0.259 N 
ATOM     12  C   UNL     1      42.448 132.795  20.017  1.00  0.00     0.145 C 
ATOM     13  C   UNL     1      41.915 132.596  18.586  1.00  0.00     0.042 C 
ATOM     14  C   UNL     1      43.051 132.283  17.610  1.00  0.00     0.018 C 
ATOM     15  C   UNL     1      44.374 131.241  19.495  1.00  0.00     0.331 C 
ATOM     16  C   UNL     1      43.822 131.036  18.074  1.00  0.00     0.090 C 
ATOM     17  C   UNL     1      41.260 132.999  20.976  1.00  0.00     0.049 C 
ATOM     18  F   UNL     1      44.956 130.057  19.926  1.00  0.00    -0.205 F 
BRANCH  16  19
ATOM     19  C   UNL     1      44.925 130.676  17.094  1.00  0.00    -0.038 A 
ATOM     20  C   UNL     1      45.926 129.763  17.472  1.00  0.00     0.006 A 
ATOM     21  C   UNL     1      44.969 131.245  15.805  1.00  0.00     0.014 A 
ATOM     22  C   UNL     1      46.951 129.421  16.586  1.00  0.00     0.029 A 
ATOM     23  C   UNL     1      45.996 130.904  14.913  1.00  0.00     0.000 A 
ATOM     24  C   UNL     1      46.992 129.986  15.309  1.00  0.00     0.070 A 
ATOM     25  C   UNL     1      46.058 131.459  13.628  1.00  0.00     0.012 A 
ATOM     26  N   UNL     1      47.991 129.653  14.446  1.00  0.00    -0.256 NA
ATOM     27  C   UNL     1      47.095 131.097  12.766  1.00  0.00     0.021 A 
ATOM     28  C   UNL     1      48.061 130.185  13.196  1.00  0.00     0.112 A 
ENDBRANCH  16  19
ENDBRANCH   1  11
TORSDOF 2
ENDMDL
MODEL 9
REMARK VINA RESULT:      -1.7      1.334      1.349
REMARK SMILES C[C@@H]1CC[C@@H](c2ccc3ncccc3c2)[C@H](F)N1c1[nH+]cnc2c1CCC2
REMARK SMILES IDX 19 1 20 2 21 3 22 4 23 5 24 6 25 7 26 8 27 9 18 11 2 12 3 13
REMARK SMILES IDX 4 14 16 15 5 16 1 17 17 18 6 19 7 20 15 21 8 22 14 23 9 24
REMARK SMILES IDX 13 25 10 26 12 27 11 28
REMARK H PARENT 20 10
ROOT
ATOM      1  C   UNL     1      44.255 131.000  22.003  1.00  0.00     0.230 A 
ATOM      2  N   UNL     1      44.302 131.983  22.950  1.00  0.00    -0.250 N 
ATOM      3  C   UNL     1      44.606 131.689  24.249  1.00  0.00     0.367 A 
ATOM      4  N   UNL     1      44.868 130.403  24.622  1.00  0.00    -0.116 NA
ATOM      5  C   UNL     1      44.826 129.419  23.688  1.00  0.00     0.125 A 
ATOM      6  C   UNL     1      44.527 129.688  22.386  1.00  0.00     0.063 A 
ATOM      7  C   UNL     1      44.526 128.464  21.550  1.00  0.00     0.046 C 
ATOM      8  C   UNL     1      44.882 127.338  22.544  1.00  0.00     0.013 C 
ATOM      9  C   UNL     1      45.076 127.984  23.933  1.00  0.00     0.076 C 
ATOM     10  H   UNL     1      44.103 132.973  22.683  1.00  0.00     0.266 HD
ENDROOT
BRANCH   1  11
ATOM     11  N   UNL     1      43.930 131.312  20.639  1.00  0.00    -0.259 N 
ATOM     12  C   UNL     1      42.943 132.373  20.339  1.00  0.00     0.145 C 
ATOM     13  C   UNL     1      42.293 132.120  18.967  1.00  0.00     0.042 C 
ATOM     14  C   UNL     1      43.352 131.913  17.882  1.00  0.00     0.018 C 
ATOM     15  C   UNL     1      44.946 131.005  19.621  1.00  0.00     0.331 C 
ATOM     16  C   UNL     1      44.278 130.745  18.259  1.00  0.00     0.090 C 
ATOM     17  C   UNL     1      41.842 132.467  21.411  1.00  0.00     0.049 C 
ATOM     18  F   UNL     1      45.676 129.883  19.985  1.00  0.00    -0.205 F 
BRANCH  16  19
ATOM     19  C   UNL     1      45.309 130.487  17.173  1.00  0.00    -0.038 A 
ATOM     20  C   UNL     1      46.329 129.543  17.387  1.00  0.00     0.006 A 
ATOM     21  C   UNL     1      45.265 131.182  15.948  1.00  0.00     0.014 A 
ATOM     22  C   UNL     1      47.289 129.294  16.402  1.00  0.00     0.029 A 
ATOM     23  C   UNL     1      46.226 130.935  14.957  1.00  0.00     0.000 A 
ATOM     24  C   UNL     1      47.243 129.984  15.188  1.00  0.00     0.070 A 
ATOM     25  C   UNL     1      46.200 131.616  13.733  1.00  0.00     0.012 A 
ATOM     26  N   UNL     1      48.178 129.741  14.229  1.00  0.00    -0.256 NA
ATOM     27  C   UNL     1      47.173 131.345  12.768  1.00  0.00     0.021 A 
ATOM     28  C   UNL     1      48.163 130.396  13.036  1.00  0.00     0.112 A 
ENDBRANCH  16  19
ENDBRANCH   1  11
TORSDOF 2
ENDMDL


