MODEL 1
REMARK VINA RESULT:     -10.1      0.000      0.000
REMARK SMILES CC(=O)c1ccc(-c2cc3ccccc3[nH]2)c[nH+]1
REMARK SMILES IDX 4 1 5 2 6 3 7 4 17 5 18 6 2 8 1 9 3 10 8 11 9 12 16 13 10 14
REMARK SMILES IDX 15 15 11 16 14 17 12 18 13 19
REMARK H PARENT 18 7 16 20
ROOT
ATOM      1  C   UNL     1      43.067 132.144  19.948  1.00  0.00     0.246 A 
ATOM      2  C   UNL     1      44.424 131.847  20.156  1.00  0.00     0.084 A 
ATOM      3  C   UNL     1      45.235 131.511  19.073  1.00  0.00     0.023 A 
ATOM      4  C   UNL     1      44.703 131.469  17.776  1.00  0.00     0.062 A 
ATOM      5  C   UNL     1      43.343 131.774  17.607  1.00  0.00     0.317 A 
ATOM      6  N   UNL     1      42.566 132.099  18.678  1.00  0.00    -0.208 N 
ATOM      7  H   UNL     1      41.561 132.312  18.492  1.00  0.00     0.454 HD
ENDROOT
BRANCH   1   8
ATOM      8  C   UNL     1      42.201 132.503  21.104  1.00  0.00     0.223 C 
ATOM      9  C   UNL     1      42.468 131.977  22.481  1.00  0.00     0.100 C 
ATOM     10  O   UNL     1      41.215 133.269  20.934  1.00  0.00    -0.288 OA
ENDBRANCH   1   8
BRANCH   4  11
ATOM     11  C   UNL     1      45.557 131.114  16.614  1.00  0.00     0.052 A 
ATOM     12  C   UNL     1      46.171 129.875  16.407  1.00  0.00     0.037 A 
ATOM     13  N   UNL     1      45.850 131.965  15.598  1.00  0.00    -0.354 N 
ATOM     14  C   UNL     1      46.852 130.005  15.218  1.00  0.00     0.000 A 
ATOM     15  C   UNL     1      46.639 131.277  14.758  1.00  0.00     0.046 A 
ATOM     16  C   UNL     1      47.638 129.090  14.519  1.00  0.00     0.010 A 
ATOM     17  C   UNL     1      47.202 131.727  13.564  1.00  0.00     0.026 A 
ATOM     18  C   UNL     1      48.220 129.516  13.311  1.00  0.00     0.001 A 
ATOM     19  C   UNL     1      48.003 130.829  12.835  1.00  0.00     0.002 A 
ATOM     20  H   UNL     1      45.553 132.959  15.489  1.00  0.00     0.167 HD
ENDBRANCH   4  11
TORSDOF 2
ENDMDL
MODEL 2
REMARK VINA RESULT:     -10.1      0.631      1.382
REMARK SMILES CC(=O)c1ccc(-c2cc3ccccc3[nH]2)c[nH+]1
REMARK SMILES IDX 4 1 5 2 6 3 7 4 17 5 18 6 2 8 1 9 3 10 8 11 9 12 16 13 10 14
REMARK SMILES IDX 15 15 11 16 14 17 12 18 13 19
REMARK H PARENT 18 7 16 20
ROOT
ATOM      1  C   UNL     1      43.186 132.051  19.968  1.00  0.00     0.246 A 
ATOM      2  C   UNL     1      44.542 131.735  20.150  1.00  0.00     0.084 A 
ATOM      3  C   UNL     1      45.338 131.429  19.047  1.00  0.00     0.023 A 
ATOM      4  C   UNL     1      44.792 131.436  17.756  1.00  0.00     0.062 A 
ATOM      5  C   UNL     1      43.433 131.758  17.613  1.00  0.00     0.317 A 
ATOM      6  N   UNL     1      42.670 132.053  18.702  1.00  0.00    -0.208 N 
ATOM      7  H   UNL     1      41.665 132.281  18.535  1.00  0.00     0.454 HD
ENDROOT
BRANCH   1   8
ATOM      8  C   UNL     1      42.336 132.377  21.144  1.00  0.00     0.223 C 
ATOM      9  C   UNL     1      42.629 131.823  22.506  1.00  0.00     0.100 C 
ATOM     10  O   UNL     1      41.341 133.139  21.008  1.00  0.00    -0.288 OA
ENDBRANCH   1   8
BRANCH   4  11
ATOM     11  C   UNL     1      45.630 131.113  16.573  1.00  0.00     0.052 A 
ATOM     12  C   UNL     1      45.888 131.975  15.502  1.00  0.00     0.037 A 
ATOM     13  N   UNL     1      46.253 129.922  16.384  1.00  0.00    -0.354 N 
ATOM     14  C   UNL     1      46.699 131.259  14.652  1.00  0.00     0.000 A 
ATOM     15  C   UNL     1      46.899 130.026  15.212  1.00  0.00     0.046 A 
ATOM     16  C   UNL     1      47.269 131.614  13.430  1.00  0.00     0.010 A 
ATOM     17  C   UNL     1      47.681 129.055  14.587  1.00  0.00     0.026 A 
ATOM     18  C   UNL     1      48.065 130.656  12.775  1.00  0.00     0.001 A 
ATOM     19  C   UNL     1      48.270 129.381  13.351  1.00  0.00     0.002 A 
ATOM     20  H   UNL     1      46.227 129.081  17.001  1.00  0.00     0.167 HD
ENDBRANCH   4  11
TORSDOF 2
ENDMDL
MODEL 3
REMARK VINA RESULT:     -10.1      2.728      7.274
REMARK SMILES CC(=O)c1ccc(-c2cc3ccccc3[nH]2)c[nH+]1
REMARK SMILES IDX 4 1 5 2 6 3 7 4 17 5 18 6 2 8 1 9 3 10 8 11 9 12 16 13 10 14
REMARK SMILES IDX 15 15 11 16 14 17 12 18 13 19
REMARK H PARENT 18 7 16 20
ROOT
ATOM      1  C   UNL     1      46.902 130.636  14.797  1.00  0.00     0.246 A 
ATOM      2  C   UNL     1      46.186 131.819  15.040  1.00  0.00     0.084 A 
ATOM      3  C   UNL     1      45.554 132.008  16.269  1.00  0.00     0.023 A 
ATOM      4  C   UNL     1      45.631 131.022  17.263  1.00  0.00     0.062 A 
ATOM      5  C   UNL     1      46.357 129.854  16.984  1.00  0.00     0.317 A 
ATOM      6  N   UNL     1      46.967 129.686  15.778  1.00  0.00    -0.208 N 
ATOM      7  H   UNL     1      47.490 128.795  15.626  1.00  0.00     0.454 HD
ENDROOT
BRANCH   1   8
ATOM      8  C   UNL     1      47.577 130.433  13.486  1.00  0.00     0.223 C 
ATOM      9  C   UNL     1      48.602 129.359  13.286  1.00  0.00     0.100 C 
ATOM     10  O   UNL     1      47.288 131.177  12.510  1.00  0.00    -0.288 OA
ENDBRANCH   1   8
BRANCH   4  11
ATOM     11  C   UNL     1      44.964 131.213  18.576  1.00  0.00     0.052 A 
ATOM     12  C   UNL     1      45.474 130.805  19.812  1.00  0.00     0.037 A 
ATOM     13  N   UNL     1      43.756 131.812  18.736  1.00  0.00    -0.354 N 
ATOM     14  C   UNL     1      44.527 131.184  20.736  1.00  0.00     0.000 A 
ATOM     15  C   UNL     1      43.504 131.787  20.054  1.00  0.00     0.046 A 
ATOM     16  C   UNL     1      44.502 131.038  22.122  1.00  0.00     0.010 A 
ATOM     17  C   UNL     1      42.378 132.283  20.711  1.00  0.00     0.026 A 
ATOM     18  C   UNL     1      43.380 131.529  22.813  1.00  0.00     0.001 A 
ATOM     19  C   UNL     1      42.322 132.150  22.111  1.00  0.00     0.002 A 
ATOM     20  H   UNL     1      43.129 132.198  17.996  1.00  0.00     0.167 HD
ENDBRANCH   4  11
TORSDOF 2
ENDMDL
MODEL 4
REMARK VINA RESULT:     -10.0      1.379      2.063
REMARK SMILES CC(=O)c1ccc(-c2cc3ccccc3[nH]2)c[nH+]1
REMARK SMILES IDX 4 1 5 2 6 3 7 4 17 5 18 6 2 8 1 9 3 10 8 11 9 12 16 13 10 14
REMARK SMILES IDX 15 15 11 16 14 17 12 18 13 19
REMARK H PARENT 18 7 16 20
ROOT
ATOM      1  C   UNL     1      44.018 131.383  20.816  1.00  0.00     0.246 A 
ATOM      2  C   UNL     1      43.379 131.874  19.667  1.00  0.00     0.084 A 
ATOM      3  C   UNL     1      43.981 131.721  18.419  1.00  0.00     0.023 A 
ATOM      4  C   UNL     1      45.222 131.078  18.305  1.00  0.00     0.062 A 
ATOM      5  C   UNL     1      45.829 130.598  19.475  1.00  0.00     0.317 A 
ATOM      6  N   UNL     1      45.227 130.758  20.687  1.00  0.00    -0.208 N 
ATOM      7  H   UNL     1      45.728 130.384  21.523  1.00  0.00     0.454 HD
ENDROOT
BRANCH   1   8
ATOM      8  C   UNL     1      43.377 131.546  22.149  1.00  0.00     0.223 C 
ATOM      9  C   UNL     1      43.958 130.926  23.384  1.00  0.00     0.100 C 
ATOM     10  O   UNL     1      42.317 132.220  22.257  1.00  0.00    -0.288 OA
ENDBRANCH   1   8
BRANCH   4  11
ATOM     11  C   UNL     1      45.872 130.908  16.981  1.00  0.00     0.052 A 
ATOM     12  C   UNL     1      45.899 131.864  15.961  1.00  0.00     0.037 A 
ATOM     13  N   UNL     1      46.527 129.783  16.594  1.00  0.00    -0.354 N 
ATOM     14  C   UNL     1      46.602 131.276  14.934  1.00  0.00     0.000 A 
ATOM     15  C   UNL     1      46.964 130.022  15.348  1.00  0.00     0.046 A 
ATOM     16  C   UNL     1      46.942 131.762  13.672  1.00  0.00     0.010 A 
ATOM     17  C   UNL     1      47.690 129.161  14.525  1.00  0.00     0.026 A 
ATOM     18  C   UNL     1      47.675 130.916  12.820  1.00  0.00     0.001 A 
ATOM     19  C   UNL     1      48.048 129.621  13.244  1.00  0.00     0.002 A 
ATOM     20  H   UNL     1      46.653 128.898  17.133  1.00  0.00     0.167 HD
ENDBRANCH   4  11
TORSDOF 2
ENDMDL
MODEL 5
REMARK VINA RESULT:      -9.9      2.811      7.361
REMARK SMILES CC(=O)c1ccc(-c2cc3ccccc3[nH]2)c[nH+]1
REMARK SMILES IDX 4 1 5 2 6 3 7 4 17 5 18 6 2 8 1 9 3 10 8 11 9 12 16 13 10 14
REMARK SMILES IDX 15 15 11 16 14 17 12 18 13 19
REMARK H PARENT 18 7 16 20
ROOT
ATOM      1  C   UNL     1      46.883 130.653  14.824  1.00  0.00     0.246 A 
ATOM      2  C   UNL     1      46.182 131.844  15.069  1.00  0.00     0.084 A 
ATOM      3  C   UNL     1      45.543 132.034  16.294  1.00  0.00     0.023 A 
ATOM      4  C   UNL     1      45.599 131.042  17.283  1.00  0.00     0.062 A 
ATOM      5  C   UNL     1      46.311 129.866  17.002  1.00  0.00     0.317 A 
ATOM      6  N   UNL     1      46.927 129.697  15.799  1.00  0.00    -0.208 N 
ATOM      7  H   UNL     1      47.439 128.799  15.645  1.00  0.00     0.454 HD
ENDROOT
BRANCH   1   8
ATOM      8  C   UNL     1      47.564 130.449  13.517  1.00  0.00     0.223 C 
ATOM      9  C   UNL     1      48.591 129.375  13.323  1.00  0.00     0.100 C 
ATOM     10  O   UNL     1      47.280 131.192  12.538  1.00  0.00    -0.288 OA
ENDBRANCH   1   8
BRANCH   4  11
ATOM     11  C   UNL     1      44.925 131.233  18.592  1.00  0.00     0.052 A 
ATOM     12  C   UNL     1      43.682 131.845  18.783  1.00  0.00     0.037 A 
ATOM     13  N   UNL     1      45.444 130.833  19.781  1.00  0.00    -0.354 N 
ATOM     14  C   UNL     1      43.463 131.799  20.141  1.00  0.00     0.000 A 
ATOM     15  C   UNL     1      44.544 131.184  20.713  1.00  0.00     0.046 A 
ATOM     16  C   UNL     1      42.388 132.256  20.903  1.00  0.00     0.010 A 
ATOM     17  C   UNL     1      44.630 130.986  22.091  1.00  0.00     0.026 A 
ATOM     18  C   UNL     1      42.446 132.070  22.296  1.00  0.00     0.001 A 
ATOM     19  C   UNL     1      43.562 131.438  22.888  1.00  0.00     0.002 A 
ATOM     20  H   UNL     1      46.362 130.368  19.955  1.00  0.00     0.167 HD
ENDBRANCH   4  11
TORSDOF 2
ENDMDL
MODEL 6
REMARK VINA RESULT:      -9.8      0.653      1.132
REMARK SMILES CC(=O)c1ccc(-c2cc3ccccc3[nH]2)c[nH+]1
REMARK SMILES IDX 4 1 5 2 6 3 7 4 17 5 18 6 2 8 1 9 3 10 8 11 9 12 16 13 10 14
REMARK SMILES IDX 15 15 11 16 14 17 12 18 13 19
REMARK H PARENT 18 7 16 20
ROOT
ATOM      1  C   UNL     1      43.106 132.127  20.020  1.00  0.00     0.246 A 
ATOM      2  C   UNL     1      42.533 132.067  18.739  1.00  0.00     0.084 A 
ATOM      3  C   UNL     1      43.325 131.738  17.639  1.00  0.00     0.023 A 
ATOM      4  C   UNL     1      44.690 131.467  17.806  1.00  0.00     0.062 A 
ATOM      5  C   UNL     1      45.226 131.534  19.101  1.00  0.00     0.317 A 
ATOM      6  N   UNL     1      44.438 131.859  20.163  1.00  0.00    -0.208 N 
ATOM      7  H   UNL     1      44.893 131.897  21.103  1.00  0.00     0.454 HD
ENDROOT
BRANCH   1   8
ATOM      8  C   UNL     1      42.262 132.478  21.194  1.00  0.00     0.223 C 
ATOM      9  C   UNL     1      42.557 131.945  22.563  1.00  0.00     0.100 C 
ATOM     10  O   UNL     1      41.270 133.242  21.048  1.00  0.00    -0.288 OA
ENDBRANCH   1   8
BRANCH   4  11
ATOM     11  C   UNL     1      45.543 131.114  16.642  1.00  0.00     0.052 A 
ATOM     12  C   UNL     1      46.170 129.881  16.441  1.00  0.00     0.037 A 
ATOM     13  N   UNL     1      45.823 131.962  15.620  1.00  0.00    -0.354 N 
ATOM     14  C   UNL     1      46.845 130.010  15.248  1.00  0.00     0.000 A 
ATOM     15  C   UNL     1      46.616 131.277  14.780  1.00  0.00     0.046 A 
ATOM     16  C   UNL     1      47.639 129.100  14.551  1.00  0.00     0.010 A 
ATOM     17  C   UNL     1      47.170 131.726  13.582  1.00  0.00     0.026 A 
ATOM     18  C   UNL     1      48.210 129.524  13.338  1.00  0.00     0.001 A 
ATOM     19  C   UNL     1      47.977 130.832  12.855  1.00  0.00     0.002 A 
ATOM     20  H   UNL     1      45.514 132.952  15.506  1.00  0.00     0.167 HD
ENDBRANCH   4  11
TORSDOF 2
ENDMDL
MODEL 7
REMARK VINA RESULT:      -9.7      1.840      2.683
REMARK SMILES CC(=O)c1ccc(-c2cc3ccccc3[nH]2)c[nH+]1
REMARK SMILES IDX 4 1 5 2 6 3 7 4 17 5 18 6 2 8 1 9 3 10 8 11 9 12 16 13 10 14
REMARK SMILES IDX 15 15 11 16 14 17 12 18 13 19
REMARK H PARENT 18 7 16 20
ROOT
ATOM      1  C   UNL     1      43.858 131.509  22.129  1.00  0.00     0.246 A 
ATOM      2  C   UNL     1      43.003 131.802  21.055  1.00  0.00     0.084 A 
ATOM      3  C   UNL     1      43.458 131.658  19.745  1.00  0.00     0.023 A 
ATOM      4  C   UNL     1      44.767 131.221  19.494  1.00  0.00     0.062 A 
ATOM      5  C   UNL     1      45.592 130.935  20.593  1.00  0.00     0.317 A 
ATOM      6  N   UNL     1      45.130 131.083  21.866  1.00  0.00    -0.208 N 
ATOM      7  H   UNL     1      45.790 130.859  22.644  1.00  0.00     0.454 HD
ENDROOT
BRANCH   1   8
ATOM      8  C   UNL     1      43.372 131.662  23.527  1.00  0.00     0.223 C 
ATOM      9  C   UNL     1      44.265 132.167  24.619  1.00  0.00     0.100 C 
ATOM     10  O   UNL     1      42.182 131.364  23.814  1.00  0.00    -0.288 OA
ENDBRANCH   1   8
BRANCH   4  11
ATOM     11  C   UNL     1      45.263 131.062  18.104  1.00  0.00     0.052 A 
ATOM     12  C   UNL     1      44.983 131.923  17.039  1.00  0.00     0.037 A 
ATOM     13  N   UNL     1      46.060 130.043  17.693  1.00  0.00    -0.354 N 
ATOM     14  C   UNL     1      45.645 131.387  15.958  1.00  0.00     0.000 A 
ATOM     15  C   UNL     1      46.283 130.254  16.386  1.00  0.00     0.046 A 
ATOM     16  C   UNL     1      45.725 131.822  14.636  1.00  0.00     0.010 A 
ATOM     17  C   UNL     1      47.045 129.471  15.519  1.00  0.00     0.026 A 
ATOM     18  C   UNL     1      46.488 131.054  13.738  1.00  0.00     0.001 A 
ATOM     19  C   UNL     1      47.145 129.882  14.177  1.00  0.00     0.002 A 
ATOM     20  H   UNL     1      46.416 129.240  18.257  1.00  0.00     0.167 HD
ENDBRANCH   4  11
TORSDOF 2
ENDMDL
MODEL 8
REMARK VINA RESULT:      -9.7      1.537      2.130
REMARK SMILES CC(=O)c1ccc(-c2cc3ccccc3[nH]2)c[nH+]1
REMARK SMILES IDX 4 1 5 2 6 3 7 4 17 5 18 6 2 8 1 9 3 10 8 11 9 12 16 13 10 14
REMARK SMILES IDX 15 15 11 16 14 17 12 18 13 19
REMARK H PARENT 18 7 16 20
ROOT
ATOM      1  C   UNL     1      43.945 131.352  21.631  1.00  0.00     0.246 A 
ATOM      2  C   UNL     1      45.142 130.647  21.431  1.00  0.00     0.084 A 
ATOM      3  C   UNL     1      45.664 130.515  20.145  1.00  0.00     0.023 A 
ATOM      4  C   UNL     1      44.999 131.083  19.049  1.00  0.00     0.062 A 
ATOM      5  C   UNL     1      43.806 131.782  19.288  1.00  0.00     0.317 A 
ATOM      6  N   UNL     1      43.310 131.900  20.551  1.00  0.00    -0.208 N 
ATOM      7  H   UNL     1      42.417 132.428  20.668  1.00  0.00     0.454 HD
ENDROOT
BRANCH   1   8
ATOM      8  C   UNL     1      43.387 131.494  23.003  1.00  0.00     0.223 C 
ATOM      9  C   UNL     1      44.162 131.075  24.215  1.00  0.00     0.100 C 
ATOM     10  O   UNL     1      42.235 131.978  23.165  1.00  0.00    -0.288 OA
ENDBRANCH   1   8
BRANCH   4  11
ATOM     11  C   UNL     1      45.546 130.951  17.675  1.00  0.00     0.052 A 
ATOM     12  C   UNL     1      45.398 131.889  16.649  1.00  0.00     0.037 A 
ATOM     13  N   UNL     1      46.264 129.883  17.242  1.00  0.00    -0.354 N 
ATOM     14  C   UNL     1      46.059 131.350  15.569  1.00  0.00     0.000 A 
ATOM     15  C   UNL     1      46.569 130.140  15.960  1.00  0.00     0.046 A 
ATOM     16  C   UNL     1      46.244 131.844  14.279  1.00  0.00     0.010 A 
ATOM     17  C   UNL     1      47.296 129.334  15.084  1.00  0.00     0.026 A 
ATOM     18  C   UNL     1      46.974 131.054  13.373  1.00  0.00     0.001 A 
ATOM     19  C   UNL     1      47.498 129.804  13.773  1.00  0.00     0.002 A 
ATOM     20  H   UNL     1      46.516 129.021  17.774  1.00  0.00     0.167 HD
ENDBRANCH   4  11
TORSDOF 2
ENDMDL
MODEL 9
REMARK VINA RESULT:      -9.4      2.751      7.306
REMARK SMILES CC(=O)c1ccc(-c2cc3ccccc3[nH]2)c[nH+]1
REMARK SMILES IDX 4 1 5 2 6 3 7 4 17 5 18 6 2 8 1 9 3 10 8 11 9 12 16 13 10 14
REMARK SMILES IDX 15 15 11 16 14 17 12 18 13 19
REMARK H PARENT 18 7 16 20
ROOT
ATOM      1  C   UNL     1      46.920 130.726  14.618  1.00  0.00     0.246 A 
ATOM      2  C   UNL     1      46.802 129.659  15.523  1.00  0.00     0.084 A 
ATOM      3  C   UNL     1      46.146 129.849  16.739  1.00  0.00     0.023 A 
ATOM      4  C   UNL     1      45.603 131.100  17.062  1.00  0.00     0.062 A 
ATOM      5  C   UNL     1      45.740 132.143  16.132  1.00  0.00     0.317 A 
ATOM      6  N   UNL     1      46.385 131.939  14.950  1.00  0.00    -0.208 N 
ATOM      7  H   UNL     1      46.459 132.752  14.299  1.00  0.00     0.454 HD
ENDROOT
BRANCH   1   8
ATOM      8  C   UNL     1      47.620 130.524  13.321  1.00  0.00     0.223 C 
ATOM      9  C   UNL     1      48.666 129.465  13.147  1.00  0.00     0.100 C 
ATOM     10  O   UNL     1      47.335 131.254  12.334  1.00  0.00    -0.288 OA
ENDBRANCH   1   8
BRANCH   4  11
ATOM     11  C   UNL     1      44.901 131.315  18.353  1.00  0.00     0.052 A 
ATOM     12  C   UNL     1      43.632 131.882  18.502  1.00  0.00     0.037 A 
ATOM     13  N   UNL     1      45.417 130.983  19.564  1.00  0.00    -0.354 N 
ATOM     14  C   UNL     1      43.393 131.881  19.857  1.00  0.00     0.000 A 
ATOM     15  C   UNL     1      44.489 131.334  20.468  1.00  0.00     0.046 A 
ATOM     16  C   UNL     1      42.288 132.322  20.584  1.00  0.00     0.010 A 
ATOM     17  C   UNL     1      44.561 131.194  21.854  1.00  0.00     0.026 A 
ATOM     18  C   UNL     1      42.331 132.194  21.984  1.00  0.00     0.001 A 
ATOM     19  C   UNL     1      43.463 131.632  22.617  1.00  0.00     0.002 A 
ATOM     20  H   UNL     1      46.351 130.564  19.770  1.00  0.00     0.167 HD
ENDBRANCH   4  11
TORSDOF 2
ENDMDL


