REMARK SMILES CC(C)C[C@H](C)OC(=O)n1[nH]c(-c2ccc3[nH]ccc3c2)c/c(=N\N)c1=O
REMARK SMILES IDX 8 1 9 2 10 3 12 4 22 5 11 6 23 7 26 8 27 10 13 11 14 12
REMARK SMILES IDX 15 13 21 14 16 15 20 16 17 17 19 18 18 19 24 21 25 22 7 25
REMARK SMILES IDX 5 26 6 27 4 28 2 29 1 30 3 31
REMARK H PARENT 11 9 17 20 25 23 25 24
ROOT
ATOM      1  C   UNL     1       0.245  -0.154  -1.039  1.00  0.00     0.436 C 
ATOM      2  O   UNL     1       1.246   0.615  -1.085  1.00  0.00    -0.222 OA
ENDROOT
BRANCH   1   3
ATOM      3  N   UNL     1      -0.228  -0.648   0.237  1.00  0.00    -0.148 N 
ATOM      4  C   UNL     1      -0.217  -0.443   2.598  1.00  0.00     0.065 A 
ATOM      5  C   UNL     1      -1.104  -1.516   2.709  1.00  0.00     0.064 A 
ATOM      6  N   UNL     1       0.196  -0.047   1.360  1.00  0.00    -0.285 N 
ATOM      7  C   UNL     1      -1.547  -2.175   1.554  1.00  0.00     0.152 A 
ATOM      8  C   UNL     1      -1.093  -1.714   0.308  1.00  0.00     0.302 A 
ATOM      9  H   UNL     1       0.868   0.751   1.298  1.00  0.00     0.189 HD
ATOM     10  O   UNL     1      -1.478  -2.304  -0.740  1.00  0.00    -0.265 OA
BRANCH   4  11
ATOM     11  C   UNL     1       0.257   0.270   3.811  1.00  0.00     0.000 A 
ATOM     12  C   UNL     1       0.619  -0.455   4.979  1.00  0.00     0.012 A 
ATOM     13  C   UNL     1       1.071   0.213   6.131  1.00  0.00     0.027 A 
ATOM     14  C   UNL     1       0.355   1.681   3.811  1.00  0.00     0.020 A 
ATOM     15  C   UNL     1       1.150   1.602   6.089  1.00  0.00     0.045 A 
ATOM     16  C   UNL     1       0.805   2.309   4.970  1.00  0.00     0.000 A 
ATOM     17  N   UNL     1       1.550   2.428   7.070  1.00  0.00    -0.361 N 
ATOM     18  C   UNL     1       0.991   3.645   5.252  1.00  0.00     0.028 A 
ATOM     19  C   UNL     1       1.454   3.678   6.563  1.00  0.00     0.083 A 
ATOM     20  H   UNL     1       1.868   2.163   8.029  1.00  0.00     0.166 HD
ENDBRANCH   4  11
BRANCH   7  21
ATOM     21  N   UNL     1      -2.373  -3.187   1.587  1.00  0.00    -0.177 NA
BRANCH  21  22
ATOM     22  N   UNL     1      -2.885  -3.801   2.744  1.00  0.00    -0.323 N 
ATOM     23  H   UNL     1      -3.608  -4.545   2.640  1.00  0.00     0.179 HD
ATOM     24  H   UNL     1      -2.493  -3.640   3.696  1.00  0.00     0.179 HD
ENDBRANCH  21  22
ENDBRANCH   7  21
ENDBRANCH   1   3
BRANCH   1  25
ATOM     25  O   UNL     1      -0.418  -0.498  -2.225  1.00  0.00    -0.445 OA
BRANCH  25  26
ATOM     26  C   UNL     1      -0.026  -0.040  -3.519  1.00  0.00     0.175 C 
ATOM     27  C   UNL     1       1.190  -0.841  -3.996  1.00  0.00     0.053 C 
BRANCH  26  28
ATOM     28  C   UNL     1      -1.198  -0.220  -4.508  1.00  0.00     0.048 C 
BRANCH  28  29
ATOM     29  C   UNL     1      -2.424   0.699  -4.268  1.00  0.00    -0.014 C 
ATOM     30  C   UNL     1      -2.083   2.188  -4.408  1.00  0.00     0.007 C 
ATOM     31  C   UNL     1      -3.133   0.423  -2.935  1.00  0.00     0.007 C 
ENDBRANCH  28  29
ENDBRANCH  26  28
ENDBRANCH  25  26
ENDBRANCH   1  25
TORSDOF 8


