MODEL 1
REMARK VINA RESULT:     -10.6      0.000      0.000
REMARK SMILES Cn1c[nH+]c2cc(-c3ccc4cc[nH]c4c3)cnc21
REMARK SMILES IDX 1 1 2 2 3 3 4 4 5 5 6 6 7 7 17 8 18 9 19 10 8 12 9 13 16 14
REMARK SMILES IDX 10 15 15 16 11 17 14 18 12 19 13 20
REMARK H PARENT 4 11 14 21
ROOT
ATOM      1  C   UNL     1      44.193 130.935  23.792  1.00  0.00     0.298 C 
ATOM      2  N   UNL     1      43.635 131.305  22.498  1.00  0.00    -0.217 N 
ATOM      3  C   UNL     1      42.501 132.015  22.259  1.00  0.00     0.404 A 
ATOM      4  N   UNL     1      42.326 132.280  20.939  1.00  0.00    -0.242 N 
ATOM      5  C   UNL     1      43.398 131.727  20.344  1.00  0.00     0.192 A 
ATOM      6  C   UNL     1      43.754 131.727  19.002  1.00  0.00     0.068 A 
ATOM      7  C   UNL     1      44.972 131.099  18.650  1.00  0.00     0.005 A 
ATOM      8  C   UNL     1      45.765 130.510  19.677  1.00  0.00     0.124 A 
ATOM      9  N   UNL     1      45.362 130.546  20.983  1.00  0.00    -0.213 NA
ATOM     10  C   UNL     1      44.187 131.150  21.285  1.00  0.00     0.268 A 
ATOM     11  H   UNL     1      41.547 132.813  20.492  1.00  0.00     0.312 HD
ENDROOT
BRANCH   7  12
ATOM     12  C   UNL     1      45.417 131.058  17.234  1.00  0.00    -0.015 A 
ATOM     13  C   UNL     1      44.833 131.925  16.270  1.00  0.00     0.009 A 
ATOM     14  C   UNL     1      46.427 130.151  16.829  1.00  0.00     0.035 A 
ATOM     15  C   UNL     1      45.247 131.893  14.926  1.00  0.00     0.011 A 
ATOM     16  C   UNL     1      46.812 130.147  15.490  1.00  0.00     0.046 A 
ATOM     17  C   UNL     1      46.242 130.989  14.573  1.00  0.00    -0.001 A 
ATOM     18  N   UNL     1      47.746 129.375  14.911  1.00  0.00    -0.361 N 
ATOM     19  C   UNL     1      46.838 130.740  13.357  1.00  0.00     0.028 A 
ATOM     20  C   UNL     1      47.765 129.733  13.607  1.00  0.00     0.083 A 
ATOM     21  H   UNL     1      48.337 128.647  15.371  1.00  0.00     0.166 HD
ENDBRANCH   7  12
TORSDOF 1
ENDMDL
MODEL 2
REMARK VINA RESULT:      -9.8      0.602      1.642
REMARK SMILES Cn1c[nH+]c2cc(-c3ccc4cc[nH]c4c3)cnc21
REMARK SMILES IDX 1 1 2 2 3 3 4 4 5 5 6 6 7 7 17 8 18 9 19 10 8 12 9 13 16 14
REMARK SMILES IDX 10 15 15 16 11 17 14 18 12 19 13 20
REMARK H PARENT 4 11 14 21
ROOT
ATOM      1  C   UNL     1      42.110 131.916  23.179  1.00  0.00     0.298 C 
ATOM      2  N   UNL     1      43.297 131.384  22.522  1.00  0.00    -0.217 N 
ATOM      3  C   UNL     1      44.269 130.611  23.072  1.00  0.00     0.404 A 
ATOM      4  N   UNL     1      45.180 130.195  22.154  1.00  0.00    -0.242 N 
ATOM      5  C   UNL     1      44.744 130.717  20.994  1.00  0.00     0.192 A 
ATOM      6  C   UNL     1      45.273 130.582  19.717  1.00  0.00     0.068 A 
ATOM      7  C   UNL     1      44.582 131.211  18.654  1.00  0.00     0.005 A 
ATOM      8  C   UNL     1      43.392 131.939  18.942  1.00  0.00     0.124 A 
ATOM      9  N   UNL     1      42.918 132.033  20.222  1.00  0.00    -0.213 NA
ATOM     10  C   UNL     1      43.608 131.424  21.217  1.00  0.00     0.268 A 
ATOM     11  H   UNL     1      46.014 129.587  22.312  1.00  0.00     0.312 HD
ENDROOT
BRANCH   7  12
ATOM     12  C   UNL     1      45.089 131.111  17.262  1.00  0.00    -0.015 A 
ATOM     13  C   UNL     1      44.462 131.838  16.214  1.00  0.00     0.009 A 
ATOM     14  C   UNL     1      46.201 130.286  16.966  1.00  0.00     0.035 A 
ATOM     15  C   UNL     1      44.935 131.749  14.892  1.00  0.00     0.011 A 
ATOM     16  C   UNL     1      46.642 130.222  15.645  1.00  0.00     0.046 A 
ATOM     17  C   UNL     1      46.030 130.929  14.646  1.00  0.00    -0.001 A 
ATOM     18  N   UNL     1      47.673 129.509  15.162  1.00  0.00    -0.361 N 
ATOM     19  C   UNL     1      46.700 130.653  13.474  1.00  0.00     0.028 A 
ATOM     20  C   UNL     1      47.712 129.769  13.835  1.00  0.00     0.083 A 
ATOM     21  H   UNL     1      48.314 128.883  15.698  1.00  0.00     0.166 HD
ENDBRANCH   7  12
TORSDOF 1
ENDMDL
MODEL 3
REMARK VINA RESULT:      -9.6      1.121      7.086
REMARK SMILES Cn1c[nH+]c2cc(-c3ccc4cc[nH]c4c3)cnc21
REMARK SMILES IDX 1 1 2 2 3 3 4 4 5 5 6 6 7 7 17 8 18 9 19 10 8 12 9 13 16 14
REMARK SMILES IDX 10 15 15 16 11 17 14 18 12 19 13 20
REMARK H PARENT 4 11 14 21
ROOT
ATOM      1  C   UNL     1      47.937 131.443  12.596  1.00  0.00     0.298 C 
ATOM      2  N   UNL     1      47.462 130.578  13.668  1.00  0.00    -0.217 N 
ATOM      3  C   UNL     1      47.759 129.268  13.867  1.00  0.00     0.404 A 
ATOM      4  N   UNL     1      47.236 128.789  15.025  1.00  0.00    -0.242 N 
ATOM      5  C   UNL     1      46.607 129.846  15.567  1.00  0.00     0.192 A 
ATOM      6  C   UNL     1      45.927 129.939  16.774  1.00  0.00     0.068 A 
ATOM      7  C   UNL     1      45.388 131.200  17.125  1.00  0.00     0.005 A 
ATOM      8  C   UNL     1      45.571 132.298  16.236  1.00  0.00     0.124 A 
ATOM      9  N   UNL     1      46.254 132.145  15.062  1.00  0.00    -0.213 NA
ATOM     10  C   UNL     1      46.752 130.922  14.753  1.00  0.00     0.268 A 
ATOM     11  H   UNL     1      47.325 127.825  15.415  1.00  0.00     0.312 HD
ENDROOT
BRANCH   7  12
ATOM     12  C   UNL     1      44.647 131.374  18.400  1.00  0.00    -0.015 A 
ATOM     13  C   UNL     1      43.295 131.814  18.393  1.00  0.00     0.009 A 
ATOM     14  C   UNL     1      45.282 131.105  19.637  1.00  0.00     0.035 A 
ATOM     15  C   UNL     1      42.585 131.983  19.596  1.00  0.00     0.011 A 
ATOM     16  C   UNL     1      44.548 131.283  20.808  1.00  0.00     0.046 A 
ATOM     17  C   UNL     1      43.247 131.706  20.786  1.00  0.00    -0.001 A 
ATOM     18  N   UNL     1      44.962 131.079  22.070  1.00  0.00    -0.361 N 
ATOM     19  C   UNL     1      42.814 131.777  22.092  1.00  0.00     0.028 A 
ATOM     20  C   UNL     1      43.905 131.380  22.858  1.00  0.00     0.083 A 
ATOM     21  H   UNL     1      45.905 130.755  22.381  1.00  0.00     0.166 HD
ENDBRANCH   7  12
TORSDOF 1
ENDMDL
MODEL 4
REMARK VINA RESULT:      -9.1      1.305      1.871
REMARK SMILES Cn1c[nH+]c2cc(-c3ccc4cc[nH]c4c3)cnc21
REMARK SMILES IDX 1 1 2 2 3 3 4 4 5 5 6 6 7 7 17 8 18 9 19 10 8 12 9 13 16 14
REMARK SMILES IDX 10 15 15 16 11 17 14 18 12 19 13 20
REMARK H PARENT 4 11 14 21
ROOT
ATOM      1  C   UNL     1      42.835 132.103  22.495  1.00  0.00     0.298 C 
ATOM      2  N   UNL     1      42.639 132.181  21.053  1.00  0.00    -0.217 N 
ATOM      3  C   UNL     1      41.662 132.850  20.386  1.00  0.00     0.404 A 
ATOM      4  N   UNL     1      41.834 132.808  19.040  1.00  0.00    -0.242 N 
ATOM      5  C   UNL     1      42.966 132.102  18.871  1.00  0.00     0.192 A 
ATOM      6  C   UNL     1      43.633 131.782  17.696  1.00  0.00     0.068 A 
ATOM      7  C   UNL     1      44.842 131.054  17.810  1.00  0.00     0.005 A 
ATOM      8  C   UNL     1      45.310 130.694  19.107  1.00  0.00     0.124 A 
ATOM      9  N   UNL     1      44.608 131.043  20.228  1.00  0.00    -0.213 NA
ATOM     10  C   UNL     1      43.452 131.734  20.083  1.00  0.00     0.268 A 
ATOM     11  H   UNL     1      41.235 133.247  18.306  1.00  0.00     0.312 HD
ENDROOT
BRANCH   7  12
ATOM     12  C   UNL     1      45.610 130.674  16.596  1.00  0.00    -0.015 A 
ATOM     13  C   UNL     1      45.814 129.305  16.273  1.00  0.00     0.009 A 
ATOM     14  C   UNL     1      46.149 131.675  15.752  1.00  0.00     0.035 A 
ATOM     15  C   UNL     1      46.540 128.936  15.126  1.00  0.00     0.011 A 
ATOM     16  C   UNL     1      46.863 131.272  14.625  1.00  0.00     0.046 A 
ATOM     17  C   UNL     1      47.050 129.950  14.325  1.00  0.00    -0.001 A 
ATOM     18  N   UNL     1      47.444 132.058  13.703  1.00  0.00    -0.361 N 
ATOM     19  C   UNL     1      47.786 129.891  13.161  1.00  0.00     0.028 A 
ATOM     20  C   UNL     1      48.010 131.218  12.807  1.00  0.00     0.083 A 
ATOM     21  H   UNL     1      47.458 133.101  13.681  1.00  0.00     0.166 HD
ENDBRANCH   7  12
TORSDOF 1
ENDMDL
MODEL 5
REMARK VINA RESULT:      -9.1      1.401      6.951
REMARK SMILES Cn1c[nH+]c2cc(-c3ccc4cc[nH]c4c3)cnc21
REMARK SMILES IDX 1 1 2 2 3 3 4 4 5 5 6 6 7 7 17 8 18 9 19 10 8 12 9 13 16 14
REMARK SMILES IDX 10 15 15 16 11 17 14 18 12 19 13 20
REMARK H PARENT 4 11 14 21
ROOT
ATOM      1  C   UNL     1      47.532 129.470  14.131  1.00  0.00     0.298 C 
ATOM      2  N   UNL     1      46.549 130.417  14.639  1.00  0.00    -0.217 N 
ATOM      3  C   UNL     1      45.773 131.269  13.920  1.00  0.00     0.404 A 
ATOM      4  N   UNL     1      44.883 131.938  14.696  1.00  0.00    -0.242 N 
ATOM      5  C   UNL     1      45.107 131.471  15.937  1.00  0.00     0.192 A 
ATOM      6  C   UNL     1      44.455 131.782  17.123  1.00  0.00     0.068 A 
ATOM      7  C   UNL     1      44.871 131.103  18.294  1.00  0.00     0.005 A 
ATOM      8  C   UNL     1      45.920 130.144  18.197  1.00  0.00     0.124 A 
ATOM      9  N   UNL     1      46.521 129.878  16.998  1.00  0.00    -0.213 NA
ATOM     10  C   UNL     1      46.103 130.551  15.898  1.00  0.00     0.268 A 
ATOM     11  H   UNL     1      44.170 132.639  14.393  1.00  0.00     0.312 HD
ENDROOT
BRANCH   7  12
ATOM     12  C   UNL     1      44.221 131.385  19.599  1.00  0.00    -0.015 A 
ATOM     13  C   UNL     1      42.944 132.007  19.648  1.00  0.00     0.009 A 
ATOM     14  C   UNL     1      44.871 131.040  20.808  1.00  0.00     0.035 A 
ATOM     15  C   UNL     1      42.320 132.279  20.879  1.00  0.00     0.011 A 
ATOM     16  C   UNL     1      44.224 131.324  22.009  1.00  0.00     0.046 A 
ATOM     17  C   UNL     1      42.993 131.921  22.041  1.00  0.00    -0.001 A 
ATOM     18  N   UNL     1      44.665 131.073  23.253  1.00  0.00    -0.361 N 
ATOM     19  C   UNL     1      42.635 132.059  23.365  1.00  0.00     0.028 A 
ATOM     20  C   UNL     1      43.697 131.521  24.085  1.00  0.00     0.083 A 
ATOM     21  H   UNL     1      45.568 130.625  23.525  1.00  0.00     0.166 HD
ENDBRANCH   7  12
TORSDOF 1
ENDMDL
MODEL 6
REMARK VINA RESULT:      -8.9      0.942      1.843
REMARK SMILES Cn1c[nH+]c2cc(-c3ccc4cc[nH]c4c3)cnc21
REMARK SMILES IDX 1 1 2 2 3 3 4 4 5 5 6 6 7 7 17 8 18 9 19 10 8 12 9 13 16 14
REMARK SMILES IDX 10 15 15 16 11 17 14 18 12 19 13 20
REMARK H PARENT 4 11 14 21
ROOT
ATOM      1  C   UNL     1      41.602 132.326  21.811  1.00  0.00     0.298 C 
ATOM      2  N   UNL     1      42.953 132.017  21.362  1.00  0.00    -0.217 N 
ATOM      3  C   UNL     1      44.023 131.683  22.129  1.00  0.00     0.404 A 
ATOM      4  N   UNL     1      45.109 131.349  21.384  1.00  0.00    -0.242 N 
ATOM      5  C   UNL     1      44.688 131.467  20.113  1.00  0.00     0.192 A 
ATOM      6  C   UNL     1      45.377 131.213  18.934  1.00  0.00     0.068 A 
ATOM      7  C   UNL     1      44.672 131.380  17.717  1.00  0.00     0.005 A 
ATOM      8  C   UNL     1      43.309 131.792  17.762  1.00  0.00     0.124 A 
ATOM      9  N   UNL     1      42.684 132.024  18.957  1.00  0.00    -0.213 NA
ATOM     10  C   UNL     1      43.390 131.860  20.102  1.00  0.00     0.268 A 
ATOM     11  H   UNL     1      46.048 131.047  21.725  1.00  0.00     0.312 HD
ENDROOT
BRANCH   7  12
ATOM     12  C   UNL     1      45.343 131.128  16.417  1.00  0.00    -0.015 A 
ATOM     13  C   UNL     1      44.832 131.700  15.220  1.00  0.00     0.009 A 
ATOM     14  C   UNL     1      46.497 130.310  16.357  1.00  0.00     0.035 A 
ATOM     15  C   UNL     1      45.461 131.467  13.983  1.00  0.00     0.011 A 
ATOM     16  C   UNL     1      47.094 130.101  15.115  1.00  0.00     0.046 A 
ATOM     17  C   UNL     1      46.592 130.660  13.971  1.00  0.00    -0.001 A 
ATOM     18  N   UNL     1      48.188 129.369  14.848  1.00  0.00    -0.361 N 
ATOM     19  C   UNL     1      47.402 130.265  12.929  1.00  0.00     0.028 A 
ATOM     20  C   UNL     1      48.380 129.466  13.513  1.00  0.00     0.083 A 
ATOM     21  H   UNL     1      48.772 128.834  15.529  1.00  0.00     0.166 HD
ENDBRANCH   7  12
TORSDOF 1
ENDMDL
MODEL 7
REMARK VINA RESULT:      -8.6      1.310      7.087
REMARK SMILES Cn1c[nH+]c2cc(-c3ccc4cc[nH]c4c3)cnc21
REMARK SMILES IDX 1 1 2 2 3 3 4 4 5 5 6 6 7 7 17 8 18 9 19 10 8 12 9 13 16 14
REMARK SMILES IDX 10 15 15 16 11 17 14 18 12 19 13 20
REMARK H PARENT 4 11 14 21
ROOT
ATOM      1  C   UNL     1      46.207 131.057  12.936  1.00  0.00     0.298 C 
ATOM      2  N   UNL     1      46.441 130.533  14.275  1.00  0.00    -0.217 N 
ATOM      3  C   UNL     1      47.474 129.753  14.688  1.00  0.00     0.404 A 
ATOM      4  N   UNL     1      47.450 129.531  16.028  1.00  0.00    -0.242 N 
ATOM      5  C   UNL     1      46.373 130.211  16.458  1.00  0.00     0.192 A 
ATOM      6  C   UNL     1      45.890 130.364  17.751  1.00  0.00     0.068 A 
ATOM      7  C   UNL     1      44.746 131.178  17.929  1.00  0.00     0.005 A 
ATOM      8  C   UNL     1      44.157 131.796  16.788  1.00  0.00     0.124 A 
ATOM      9  N   UNL     1      44.682 131.610  15.539  1.00  0.00    -0.213 NA
ATOM     10  C   UNL     1      45.774 130.819  15.403  1.00  0.00     0.268 A 
ATOM     11  H   UNL     1      48.129 128.977  16.595  1.00  0.00     0.312 HD
ENDROOT
BRANCH   7  12
ATOM     12  C   UNL     1      44.173 131.387  19.283  1.00  0.00    -0.015 A 
ATOM     13  C   UNL     1      42.909 132.019  19.440  1.00  0.00     0.009 A 
ATOM     14  C   UNL     1      44.882 130.960  20.431  1.00  0.00     0.035 A 
ATOM     15  C   UNL     1      42.358 132.222  20.718  1.00  0.00     0.011 A 
ATOM     16  C   UNL     1      44.306 131.177  21.681  1.00  0.00     0.046 A 
ATOM     17  C   UNL     1      43.088 131.785  21.818  1.00  0.00    -0.001 A 
ATOM     18  N   UNL     1      44.810 130.845  22.881  1.00  0.00    -0.361 N 
ATOM     19  C   UNL     1      42.805 131.846  23.165  1.00  0.00     0.028 A 
ATOM     20  C   UNL     1      43.896 131.252  23.791  1.00  0.00     0.083 A 
ATOM     21  H   UNL     1      45.720 130.370  23.075  1.00  0.00     0.166 HD
ENDBRANCH   7  12
TORSDOF 1
ENDMDL
MODEL 8
REMARK VINA RESULT:      -8.5      1.396      7.237
REMARK SMILES Cn1c[nH+]c2cc(-c3ccc4cc[nH]c4c3)cnc21
REMARK SMILES IDX 1 1 2 2 3 3 4 4 5 5 6 6 7 7 17 8 18 9 19 10 8 12 9 13 16 14
REMARK SMILES IDX 10 15 15 16 11 17 14 18 12 19 13 20
REMARK H PARENT 4 11 14 21
ROOT
ATOM      1  C   UNL     1      47.728 131.454  12.525  1.00  0.00     0.298 C 
ATOM      2  N   UNL     1      47.384 130.565  13.627  1.00  0.00    -0.217 N 
ATOM      3  C   UNL     1      47.746 129.266  13.785  1.00  0.00     0.404 A 
ATOM      4  N   UNL     1      47.348 128.760  14.981  1.00  0.00    -0.242 N 
ATOM      5  C   UNL     1      46.733 129.789  15.588  1.00  0.00     0.192 A 
ATOM      6  C   UNL     1      46.162 129.847  16.853  1.00  0.00     0.068 A 
ATOM      7  C   UNL     1      45.611 131.085  17.264  1.00  0.00     0.005 A 
ATOM      8  C   UNL     1      45.672 132.195  16.374  1.00  0.00     0.124 A 
ATOM      9  N   UNL     1      46.251 132.076  15.141  1.00  0.00    -0.213 NA
ATOM     10  C   UNL     1      46.763 130.875  14.776  1.00  0.00     0.268 A 
ATOM     11  H   UNL     1      47.507 127.796  15.351  1.00  0.00     0.312 HD
ENDROOT
BRANCH   7  12
ATOM     12  C   UNL     1      44.983 131.222  18.603  1.00  0.00    -0.015 A 
ATOM     13  C   UNL     1      45.632 130.707  19.759  1.00  0.00     0.009 A 
ATOM     14  C   UNL     1      43.730 131.865  18.740  1.00  0.00     0.035 A 
ATOM     15  C   UNL     1      45.045 130.832  21.031  1.00  0.00     0.011 A 
ATOM     16  C   UNL     1      43.178 131.970  20.016  1.00  0.00     0.046 A 
ATOM     17  C   UNL     1      43.814 131.472  21.120  1.00  0.00    -0.001 A 
ATOM     18  N   UNL     1      42.011 132.543  20.356  1.00  0.00    -0.361 N 
ATOM     19  C   UNL     1      43.017 131.737  22.211  1.00  0.00     0.028 A 
ATOM     20  C   UNL     1      41.908 132.402  21.697  1.00  0.00     0.083 A 
ATOM     21  H   UNL     1      41.324 133.003  19.719  1.00  0.00     0.166 HD
ENDBRANCH   7  12
TORSDOF 1
ENDMDL
MODEL 9
REMARK VINA RESULT:      -8.3      1.269      2.273
REMARK SMILES Cn1c[nH+]c2cc(-c3ccc4cc[nH]c4c3)cnc21
REMARK SMILES IDX 1 1 2 2 3 3 4 4 5 5 6 6 7 7 17 8 18 9 19 10 8 12 9 13 16 14
REMARK SMILES IDX 10 15 15 16 11 17 14 18 12 19 13 20
REMARK H PARENT 4 11 14 21
ROOT
ATOM      1  C   UNL     1      41.230 132.868  21.552  1.00  0.00     0.298 C 
ATOM      2  N   UNL     1      42.563 132.343  21.285  1.00  0.00    -0.217 N 
ATOM      3  C   UNL     1      43.478 131.911  22.190  1.00  0.00     0.404 A 
ATOM      4  N   UNL     1      44.579 131.380  21.599  1.00  0.00    -0.242 N 
ATOM      5  C   UNL     1      44.327 131.473  20.282  1.00  0.00     0.192 A 
ATOM      6  C   UNL     1      45.098 131.048  19.208  1.00  0.00     0.068 A 
ATOM      7  C   UNL     1      44.568 131.235  17.909  1.00  0.00     0.005 A 
ATOM      8  C   UNL     1      43.284 131.838  17.769  1.00  0.00     0.124 A 
ATOM      9  N   UNL     1      42.570 132.232  18.867  1.00  0.00    -0.213 NA
ATOM     10  C   UNL     1      43.110 132.045  20.096  1.00  0.00     0.268 A 
ATOM     11  H   UNL     1      45.419 130.970  22.065  1.00  0.00     0.312 HD
ENDROOT
BRANCH   7  12
ATOM     12  C   UNL     1      45.336 130.807  16.713  1.00  0.00    -0.015 A 
ATOM     13  C   UNL     1      45.467 129.427  16.397  1.00  0.00     0.009 A 
ATOM     14  C   UNL     1      45.949 131.771  15.876  1.00  0.00     0.035 A 
ATOM     15  C   UNL     1      46.194 129.011  15.267  1.00  0.00     0.011 A 
ATOM     16  C   UNL     1      46.661 131.323  14.765  1.00  0.00     0.046 A 
ATOM     17  C   UNL     1      46.778 129.991  14.473  1.00  0.00    -0.001 A 
ATOM     18  N   UNL     1      47.305 132.070  13.853  1.00  0.00    -0.361 N 
ATOM     19  C   UNL     1      47.531 129.885  13.324  1.00  0.00     0.028 A 
ATOM     20  C   UNL     1      47.839 131.195  12.970  1.00  0.00     0.083 A 
ATOM     21  H   UNL     1      47.380 133.111  13.828  1.00  0.00     0.166 HD
ENDBRANCH   7  12
TORSDOF 1
ENDMDL


