REMARK SMILES Cc1cc(F)ncc1-c1ccc2cc(Nc3cn4ccccc4n3)[nH]c2c1
REMARK SMILES IDX 9 1 10 2 11 3 12 4 13 5 14 6 25 7 26 8 27 9 8 11 2 12 3 13
REMARK SMILES IDX 4 14 7 15 6 16 1 17 5 18 15 19 16 21 17 22 24 23 18 24 23 25
REMARK SMILES IDX 19 26 22 27 20 28 21 29
REMARK H PARENT 25 10 15 20
ROOT
ATOM      1  C   UNL     1       1.804   1.835   0.849  1.00  0.00    -0.014 A 
ATOM      2  C   UNL     1       2.381   1.154   1.952  1.00  0.00     0.009 A 
ATOM      3  C   UNL     1       1.977  -0.153   2.279  1.00  0.00     0.011 A 
ATOM      4  C   UNL     1       1.001  -0.750   1.486  1.00  0.00     0.002 A 
ATOM      5  C   UNL     1       0.436  -2.004   1.556  1.00  0.00     0.055 A 
ATOM      6  C   UNL     1      -0.467  -2.043   0.497  1.00  0.00     0.109 A 
ATOM      7  N   UNL     1      -0.454  -0.886  -0.208  1.00  0.00    -0.341 N 
ATOM      8  C   UNL     1       0.444  -0.103   0.413  1.00  0.00     0.048 A 
ATOM      9  C   UNL     1       0.827   1.189   0.058  1.00  0.00     0.035 A 
ATOM     10  H   UNL     1      -0.983  -0.652  -1.076  1.00  0.00     0.168 HD
ENDROOT
BRANCH   1  11
ATOM     11  C   UNL     1       2.251   3.205   0.510  1.00  0.00     0.003 A 
ATOM     12  C   UNL     1       1.359   4.303   0.462  1.00  0.00    -0.037 A 
ATOM     13  C   UNL     1       1.850   5.564   0.090  1.00  0.00     0.064 A 
ATOM     14  C   UNL     1       3.208   5.726  -0.190  1.00  0.00     0.213 A 
ATOM     15  C   UNL     1       3.610   3.426   0.232  1.00  0.00     0.123 A 
ATOM     16  N   UNL     1       4.050   4.665  -0.110  1.00  0.00    -0.228 NA
ATOM     17  C   UNL     1      -0.105   4.158   0.785  1.00  0.00     0.045 C 
ATOM     18  F   UNL     1       3.689   6.943  -0.539  1.00  0.00    -0.185 F 
ENDBRANCH   1  11
BRANCH   6  19
ATOM     19  N   UNL     1      -1.251  -3.195   0.158  1.00  0.00    -0.325 N 
ATOM     20  H   UNL     1      -0.965  -4.118   0.556  1.00  0.00     0.170 HD
BRANCH  19  21
ATOM     21  C   UNL     1      -2.444  -3.147  -0.635  1.00  0.00     0.150 A 
ATOM     22  C   UNL     1      -3.118  -4.261  -1.105  1.00  0.00     0.139 A 
ATOM     23  N   UNL     1      -3.101  -2.008  -0.963  1.00  0.00    -0.211 NA
ATOM     24  N   UNL     1      -4.201  -3.806  -1.749  1.00  0.00    -0.305 N 
ATOM     25  C   UNL     1      -4.167  -2.465  -1.650  1.00  0.00     0.139 A 
ATOM     26  C   UNL     1      -5.185  -4.486  -2.390  1.00  0.00     0.093 A 
ATOM     27  C   UNL     1      -5.170  -1.682  -2.218  1.00  0.00     0.048 A 
ATOM     28  C   UNL     1      -6.221  -3.749  -2.982  1.00  0.00     0.018 A 
ATOM     29  C   UNL     1      -6.209  -2.342  -2.894  1.00  0.00     0.005 A 
ENDBRANCH  19  21
ENDBRANCH   6  19
TORSDOF 3


