MODEL 1
REMARK VINA RESULT:      -8.7      0.000      0.000
REMARK SMILES Fc1cnc(Nc2c[n-]c3nccc-3c2)c(N=C=S)c1
REMARK SMILES IDX 5 1 4 2 3 3 2 4 1 5 20 6 16 7 6 8 7 10 12 11 11 12 13 13
REMARK SMILES IDX 10 14 14 15 9 16 15 17 8 18 17 19 18 20 19 21
REMARK H PARENT 6 9
ROOT
ATOM      1  C   UNL     1      44.099 131.284  19.026  1.00  0.00     0.157 A 
ATOM      2  N   UNL     1      43.159 131.806  18.189  1.00  0.00    -0.234 NA
ATOM      3  C   UNL     1      42.083 132.498  18.646  1.00  0.00     0.152 A 
ATOM      4  C   UNL     1      41.917 132.703  20.013  1.00  0.00     0.143 A 
ATOM      5  F   UNL     1      40.845 133.394  20.476  1.00  0.00    -0.205 F 
ATOM      6  C   UNL     1      42.863 132.194  20.902  1.00  0.00     0.074 A 
ATOM      7  C   UNL     1      43.975 131.477  20.418  1.00  0.00     0.119 A 
ENDROOT
BRANCH   1   8
ATOM      8  N   UNL     1      45.235 130.586  18.484  1.00  0.00    -0.339 N 
ATOM      9  H   UNL     1      45.782 129.959  19.115  1.00  0.00     0.168 HD
BRANCH   8  10
ATOM     10  C   UNL     1      45.735 130.787  17.151  1.00  0.00     0.036 A 
ATOM     11  C   UNL     1      47.810 130.190  13.197  1.00  0.00    -0.022 A 
ATOM     12  N   UNL     1      47.244 131.411  13.394  1.00  0.00    -0.442 NA
ATOM     13  C   UNL     1      47.633 129.331  14.285  1.00  0.00     0.003 A 
ATOM     14  C   UNL     1      46.698 131.328  14.617  1.00  0.00    -0.052 A 
ATOM     15  C   UNL     1      46.917 130.051  15.205  1.00  0.00    -0.025 A 
ATOM     16  N   UNL     1      46.037 132.308  15.272  1.00  0.00    -0.440 NA
ATOM     17  C   UNL     1      46.448 129.767  16.477  1.00  0.00     0.033 A 
ATOM     18  C   UNL     1      45.558 132.055  16.529  1.00  0.00     0.004 A 
ENDBRANCH   8  10
ENDBRANCH   1   8
BRANCH   7  19
ATOM     19  N   UNL     1      44.968 130.930  21.302  1.00  0.00    -0.191 NA
BRANCH  19  20
ATOM     20  C   UNL     1      44.757 129.954  22.093  1.00  0.00     0.064 C 
ATOM     21  S   UNL     1      44.489 128.721  23.095  1.00  0.00    -0.006 S 
ENDBRANCH  19  20
ENDBRANCH   7  19
TORSDOF 4
ENDMDL
MODEL 2
REMARK VINA RESULT:      -7.5      1.433      1.458
REMARK SMILES Fc1cnc(Nc2c[n-]c3nccc-3c2)c(N=C=S)c1
REMARK SMILES IDX 5 1 4 2 3 3 2 4 1 5 20 6 16 7 6 8 7 10 12 11 11 12 13 13
REMARK SMILES IDX 10 14 14 15 9 16 15 17 8 18 17 19 18 20 19 21
REMARK H PARENT 6 9
ROOT
ATOM      1  C   UNL     1      44.236 131.274  18.940  1.00  0.00     0.157 A 
ATOM      2  N   UNL     1      43.141 131.540  18.173  1.00  0.00    -0.234 NA
ATOM      3  C   UNL     1      42.071 132.227  18.650  1.00  0.00     0.152 A 
ATOM      4  C   UNL     1      42.071 132.694  19.962  1.00  0.00     0.143 A 
ATOM      5  F   UNL     1      41.006 133.382  20.444  1.00  0.00    -0.205 F 
ATOM      6  C   UNL     1      43.178 132.452  20.775  1.00  0.00     0.074 A 
ATOM      7  C   UNL     1      44.283 131.737  20.271  1.00  0.00     0.119 A 
ENDROOT
BRANCH   1   8
ATOM      8  N   UNL     1      45.354 130.568  18.372  1.00  0.00    -0.339 N 
ATOM      9  H   UNL     1      45.913 129.938  18.992  1.00  0.00     0.168 HD
BRANCH   8  10
ATOM     10  C   UNL     1      45.824 130.764  17.027  1.00  0.00     0.036 A 
ATOM     11  C   UNL     1      47.858 130.177  13.051  1.00  0.00    -0.022 A 
ATOM     12  N   UNL     1      47.245 131.377  13.235  1.00  0.00    -0.442 NA
ATOM     13  C   UNL     1      47.735 129.332  14.157  1.00  0.00     0.003 A 
ATOM     14  C   UNL     1      46.723 131.294  14.468  1.00  0.00    -0.052 A 
ATOM     15  C   UNL     1      47.004 130.040  15.076  1.00  0.00    -0.025 A 
ATOM     16  N   UNL     1      46.033 132.259  15.116  1.00  0.00    -0.440 NA
ATOM     17  C   UNL     1      46.568 129.761  16.360  1.00  0.00     0.033 A 
ATOM     18  C   UNL     1      45.585 132.011  16.385  1.00  0.00     0.004 A 
ENDBRANCH   8  10
ENDBRANCH   1   8
BRANCH   7  19
ATOM     19  N   UNL     1      45.440 131.460  21.079  1.00  0.00    -0.191 NA
BRANCH  19  20
ATOM     20  C   UNL     1      46.317 132.330  21.387  1.00  0.00     0.064 C 
ATOM     21  S   UNL     1      47.429 133.430  21.778  1.00  0.00    -0.006 S 
ENDBRANCH  19  20
ENDBRANCH   7  19
TORSDOF 4
ENDMDL
MODEL 3
REMARK VINA RESULT:      -6.5      3.288      6.785
REMARK SMILES Fc1cnc(Nc2c[n-]c3nccc-3c2)c(N=C=S)c1
REMARK SMILES IDX 5 1 4 2 3 3 2 4 1 5 20 6 16 7 6 8 7 10 12 11 11 12 13 13
REMARK SMILES IDX 10 14 14 15 9 16 15 17 8 18 17 19 18 20 19 21
REMARK H PARENT 6 9
ROOT
ATOM      1  C   UNL     1      45.162 131.010  17.022  1.00  0.00     0.157 A 
ATOM      2  N   UNL     1      43.959 131.649  17.055  1.00  0.00    -0.234 NA
ATOM      3  C   UNL     1      43.222 131.869  15.935  1.00  0.00     0.152 A 
ATOM      4  C   UNL     1      43.685 131.425  14.699  1.00  0.00     0.143 A 
ATOM      5  F   UNL     1      42.954 131.640  13.577  1.00  0.00    -0.205 F 
ATOM      6  C   UNL     1      44.906 130.756  14.625  1.00  0.00     0.074 A 
ATOM      7  C   UNL     1      45.664 130.535  15.792  1.00  0.00     0.119 A 
ENDROOT
BRANCH   1   8
ATOM      8  N   UNL     1      45.885 130.778  18.244  1.00  0.00    -0.339 N 
ATOM      9  H   UNL     1      46.906 130.562  18.186  1.00  0.00     0.168 HD
BRANCH   8  10
ATOM     10  C   UNL     1      45.265 130.712  19.540  1.00  0.00     0.036 A 
ATOM     11  C   UNL     1      42.668 131.579  23.117  1.00  0.00    -0.022 A 
ATOM     12  N   UNL     1      43.578 130.581  23.271  1.00  0.00    -0.442 NA
ATOM     13  C   UNL     1      42.709 132.158  21.846  1.00  0.00     0.003 A 
ATOM     14  C   UNL     1      44.204 130.521  22.086  1.00  0.00    -0.052 A 
ATOM     15  C   UNL     1      43.694 131.484  21.171  1.00  0.00    -0.025 A 
ATOM     16  N   UNL     1      45.218 129.693  21.751  1.00  0.00    -0.440 NA
ATOM     17  C   UNL     1      44.220 131.598  19.895  1.00  0.00     0.033 A 
ATOM     18  C   UNL     1      45.755 129.779  20.496  1.00  0.00     0.004 A 
ENDBRANCH   8  10
ENDBRANCH   1   8
BRANCH   7  19
ATOM     19  N   UNL     1      46.931 129.856  15.758  1.00  0.00    -0.191 NA
BRANCH  19  20
ATOM     20  C   UNL     1      47.625 129.699  14.701  1.00  0.00     0.064 C 
ATOM     21  S   UNL     1      48.502 129.500  13.364  1.00  0.00    -0.006 S 
ENDBRANCH  19  20
ENDBRANCH   7  19
TORSDOF 4
ENDMDL
MODEL 4
REMARK VINA RESULT:      -6.4      1.841      2.461
REMARK SMILES Fc1cnc(Nc2c[n-]c3nccc-3c2)c(N=C=S)c1
REMARK SMILES IDX 5 1 4 2 3 3 2 4 1 5 20 6 16 7 6 8 7 10 12 11 11 12 13 13
REMARK SMILES IDX 10 14 14 15 9 16 15 17 8 18 17 19 18 20 19 21
REMARK H PARENT 6 9
ROOT
ATOM      1  C   UNL     1      44.869 130.597  20.846  1.00  0.00     0.157 A 
ATOM      2  N   UNL     1      44.112 131.730  20.827  1.00  0.00    -0.234 NA
ATOM      3  C   UNL     1      43.194 132.006  21.790  1.00  0.00     0.152 A 
ATOM      4  C   UNL     1      43.010 131.122  22.850  1.00  0.00     0.143 A 
ATOM      5  F   UNL     1      42.096 131.393  23.816  1.00  0.00    -0.205 F 
ATOM      6  C   UNL     1      43.774 129.958  22.911  1.00  0.00     0.074 A 
ATOM      7  C   UNL     1      44.722 129.679  21.907  1.00  0.00     0.119 A 
ENDROOT
BRANCH   1   8
ATOM      8  N   UNL     1      45.847 130.371  19.815  1.00  0.00    -0.339 N 
ATOM      9  H   UNL     1      46.816 130.100  20.098  1.00  0.00     0.168 HD
BRANCH   8  10
ATOM     10  C   UNL     1      45.605 130.607  18.418  1.00  0.00     0.036 A 
ATOM     11  C   UNL     1      46.014 130.684  13.932  1.00  0.00    -0.022 A 
ATOM     12  N   UNL     1      44.962 131.375  14.446  1.00  0.00    -0.442 NA
ATOM     13  C   UNL     1      46.786 130.063  14.918  1.00  0.00     0.003 A 
ATOM     14  C   UNL     1      45.062 131.190  15.771  1.00  0.00    -0.052 A 
ATOM     15  C   UNL     1      46.182 130.380  16.106  1.00  0.00    -0.025 A 
ATOM     16  N   UNL     1      44.249 131.707  16.720  1.00  0.00    -0.440 NA
ATOM     17  C   UNL     1      46.473 130.086  17.428  1.00  0.00     0.033 A 
ATOM     18  C   UNL     1      44.509 131.429  18.034  1.00  0.00     0.004 A 
ENDBRANCH   8  10
ENDBRANCH   1   8
BRANCH   7  19
ATOM     19  N   UNL     1      45.524 128.486  21.930  1.00  0.00    -0.191 NA
BRANCH  19  20
ATOM     20  C   UNL     1      45.108 127.357  22.347  1.00  0.00     0.064 C 
ATOM     21  S   UNL     1      44.583 125.928  22.875  1.00  0.00    -0.006 S 
ENDBRANCH  19  20
ENDBRANCH   7  19
TORSDOF 4
ENDMDL
MODEL 5
REMARK VINA RESULT:      -6.4      2.300      2.726
REMARK SMILES Fc1cnc(Nc2c[n-]c3nccc-3c2)c(N=C=S)c1
REMARK SMILES IDX 5 1 4 2 3 3 2 4 1 5 20 6 16 7 6 8 7 10 12 11 11 12 13 13
REMARK SMILES IDX 10 14 14 15 9 16 15 17 8 18 17 19 18 20 19 21
REMARK H PARENT 6 9
ROOT
ATOM      1  C   UNL     1      44.264 131.918  19.689  1.00  0.00     0.157 A 
ATOM      2  N   UNL     1      42.936 131.645  19.828  1.00  0.00    -0.234 NA
ATOM      3  C   UNL     1      42.409 131.176  20.989  1.00  0.00     0.152 A 
ATOM      4  C   UNL     1      43.232 130.967  22.093  1.00  0.00     0.143 A 
ATOM      5  F   UNL     1      42.712 130.500  23.256  1.00  0.00    -0.205 F 
ATOM      6  C   UNL     1      44.594 131.245  21.994  1.00  0.00     0.074 A 
ATOM      7  C   UNL     1      45.132 131.731  20.785  1.00  0.00     0.119 A 
ENDROOT
BRANCH   1   8
ATOM      8  N   UNL     1      44.762 132.442  18.444  1.00  0.00    -0.339 N 
ATOM      9  H   UNL     1      44.591 133.449  18.224  1.00  0.00     0.168 HD
BRANCH   8  10
ATOM     10  C   UNL     1      45.382 131.636  17.428  1.00  0.00     0.036 A 
ATOM     11  C   UNL     1      47.223 130.260  13.554  1.00  0.00    -0.022 A 
ATOM     12  N   UNL     1      47.052 129.303  14.504  1.00  0.00    -0.442 NA
ATOM     13  C   UNL     1      46.786 131.520  13.971  1.00  0.00     0.003 A 
ATOM     14  C   UNL     1      46.506 129.960  15.539  1.00  0.00    -0.052 A 
ATOM     15  C   UNL     1      46.324 131.341  15.249  1.00  0.00    -0.025 A 
ATOM     16  N   UNL     1      46.127 129.427  16.722  1.00  0.00    -0.440 NA
ATOM     17  C   UNL     1      45.755 132.192  16.181  1.00  0.00     0.033 A 
ATOM     18  C   UNL     1      45.566 130.244  17.664  1.00  0.00     0.004 A 
ENDBRANCH   8  10
ENDBRANCH   1   8
BRANCH   7  19
ATOM     19  N   UNL     1      46.532 132.022  20.640  1.00  0.00    -0.191 NA
BRANCH  19  20
ATOM     20  C   UNL     1      47.151 132.900  21.324  1.00  0.00     0.064 C 
ATOM     21  S   UNL     1      47.933 134.012  22.191  1.00  0.00    -0.006 S 
ENDBRANCH  19  20
ENDBRANCH   7  19
TORSDOF 4
ENDMDL
MODEL 6
REMARK VINA RESULT:      -6.3      2.325      3.183
REMARK SMILES Fc1cnc(Nc2c[n-]c3nccc-3c2)c(N=C=S)c1
REMARK SMILES IDX 5 1 4 2 3 3 2 4 1 5 20 6 16 7 6 8 7 10 12 11 11 12 13 13
REMARK SMILES IDX 10 14 14 15 9 16 15 17 8 18 17 19 18 20 19 21
REMARK H PARENT 6 9
ROOT
ATOM      1  C   UNL     1      44.730 131.261  19.027  1.00  0.00     0.157 A 
ATOM      2  N   UNL     1      45.746 130.451  19.434  1.00  0.00    -0.234 NA
ATOM      3  C   UNL     1      45.852 130.007  20.713  1.00  0.00     0.152 A 
ATOM      4  C   UNL     1      44.896 130.369  21.658  1.00  0.00     0.143 A 
ATOM      5  F   UNL     1      44.995 129.927  22.937  1.00  0.00    -0.205 F 
ATOM      6  C   UNL     1      43.834 131.188  21.278  1.00  0.00     0.074 A 
ATOM      7  C   UNL     1      43.733 131.645  19.948  1.00  0.00     0.119 A 
ENDROOT
BRANCH   1   8
ATOM      8  N   UNL     1      44.651 131.677  17.651  1.00  0.00    -0.339 N 
ATOM      9  H   UNL     1      43.934 132.390  17.386  1.00  0.00     0.168 HD
BRANCH   8  10
ATOM     10  C   UNL     1      45.424 131.087  16.592  1.00  0.00     0.036 A 
ATOM     11  C   UNL     1      47.979 130.532  12.924  1.00  0.00    -0.022 A 
ATOM     12  N   UNL     1      47.537 129.392  13.519  1.00  0.00    -0.442 NA
ATOM     13  C   UNL     1      47.548 131.687  13.581  1.00  0.00     0.003 A 
ATOM     14  C   UNL     1      46.821 129.825  14.568  1.00  0.00    -0.052 A 
ATOM     15  C   UNL     1      46.803 131.245  14.643  1.00  0.00    -0.025 A 
ATOM     16  N   UNL     1      46.154 129.058  15.459  1.00  0.00    -0.440 NA
ATOM     17  C   UNL     1      46.101 131.893  15.646  1.00  0.00     0.033 A 
ATOM     18  C   UNL     1      45.455 129.670  16.464  1.00  0.00     0.004 A 
ENDBRANCH   8  10
ENDBRANCH   1   8
BRANCH   7  19
ATOM     19  N   UNL     1      42.658 132.497  19.518  1.00  0.00    -0.191 NA
BRANCH  19  20
ATOM     20  C   UNL     1      41.780 132.986  20.301  1.00  0.00     0.064 C 
ATOM     21  S   UNL     1      40.669 133.602  21.292  1.00  0.00    -0.006 S 
ENDBRANCH  19  20
ENDBRANCH   7  19
TORSDOF 4
ENDMDL
MODEL 7
REMARK VINA RESULT:      -6.3      3.302      6.663
REMARK SMILES Fc1cnc(Nc2c[n-]c3nccc-3c2)c(N=C=S)c1
REMARK SMILES IDX 5 1 4 2 3 3 2 4 1 5 20 6 16 7 6 8 7 10 12 11 11 12 13 13
REMARK SMILES IDX 10 14 14 15 9 16 15 17 8 18 17 19 18 20 19 21
REMARK H PARENT 6 9
ROOT
ATOM      1  C   UNL     1      45.275 130.878  17.266  1.00  0.00     0.157 A 
ATOM      2  N   UNL     1      44.086 131.532  17.391  1.00  0.00    -0.234 NA
ATOM      3  C   UNL     1      43.314 131.845  16.318  1.00  0.00     0.152 A 
ATOM      4  C   UNL     1      43.723 131.487  15.036  1.00  0.00     0.143 A 
ATOM      5  F   UNL     1      42.955 131.796  13.961  1.00  0.00    -0.205 F 
ATOM      6  C   UNL     1      44.928 130.807  14.868  1.00  0.00     0.074 A 
ATOM      7  C   UNL     1      45.723 130.487  15.987  1.00  0.00     0.119 A 
ENDROOT
BRANCH   1   8
ATOM      8  N   UNL     1      46.037 130.545  18.440  1.00  0.00    -0.339 N 
ATOM      9  H   UNL     1      46.991 130.137  18.316  1.00  0.00     0.168 HD
BRANCH   8  10
ATOM     10  C   UNL     1      45.522 130.633  19.780  1.00  0.00     0.036 A 
ATOM     11  C   UNL     1      44.109 129.578  23.925  1.00  0.00    -0.022 A 
ATOM     12  N   UNL     1      43.955 130.877  23.556  1.00  0.00    -0.442 NA
ATOM     13  C   UNL     1      44.694 128.798  22.924  1.00  0.00     0.003 A 
ATOM     14  C   UNL     1      44.449 130.927  22.310  1.00  0.00    -0.052 A 
ATOM     15  C   UNL     1      44.920 129.656  21.879  1.00  0.00    -0.025 A 
ATOM     16  N   UNL     1      44.495 132.012  21.505  1.00  0.00    -0.440 NA
ATOM     17  C   UNL     1      45.452 129.490  20.612  1.00  0.00     0.033 A 
ATOM     18  C   UNL     1      45.020 131.879  20.248  1.00  0.00     0.004 A 
ENDBRANCH   8  10
ENDBRANCH   1   8
BRANCH   7  19
ATOM     19  N   UNL     1      46.976 129.793  15.855  1.00  0.00    -0.191 NA
BRANCH  19  20
ATOM     20  C   UNL     1      47.621 129.692  14.762  1.00  0.00     0.064 C 
ATOM     21  S   UNL     1      48.439 129.564  13.379  1.00  0.00    -0.006 S 
ENDBRANCH  19  20
ENDBRANCH   7  19
TORSDOF 4
ENDMDL
MODEL 8
REMARK VINA RESULT:      -6.0      1.138      1.544
REMARK SMILES Fc1cnc(Nc2c[n-]c3nccc-3c2)c(N=C=S)c1
REMARK SMILES IDX 5 1 4 2 3 3 2 4 1 5 20 6 16 7 6 8 7 10 12 11 11 12 13 13
REMARK SMILES IDX 10 14 14 15 9 16 15 17 8 18 17 19 18 20 19 21
REMARK H PARENT 6 9
ROOT
ATOM      1  C   UNL     1      44.102 131.407  19.534  1.00  0.00     0.157 A 
ATOM      2  N   UNL     1      43.261 131.971  18.622  1.00  0.00    -0.234 NA
ATOM      3  C   UNL     1      42.134 132.637  18.988  1.00  0.00     0.152 A 
ATOM      4  C   UNL     1      41.811 132.771  20.336  1.00  0.00     0.143 A 
ATOM      5  F   UNL     1      40.689 133.436  20.708  1.00  0.00    -0.205 F 
ATOM      6  C   UNL     1      42.653 132.217  21.300  1.00  0.00     0.074 A 
ATOM      7  C   UNL     1      43.818 131.527  20.911  1.00  0.00     0.119 A 
ENDROOT
BRANCH   1   8
ATOM      8  N   UNL     1      45.297 130.739  19.091  1.00  0.00    -0.339 N 
ATOM      9  H   UNL     1      46.008 130.463  19.805  1.00  0.00     0.168 HD
BRANCH   8  10
ATOM     10  C   UNL     1      45.629 130.530  17.708  1.00  0.00     0.036 A 
ATOM     11  C   UNL     1      46.791 131.212  13.409  1.00  0.00    -0.022 A 
ATOM     12  N   UNL     1      46.471 129.934  13.743  1.00  0.00    -0.442 NA
ATOM     13  C   UNL     1      46.698 132.092  14.490  1.00  0.00     0.003 A 
ATOM     14  C   UNL     1      46.176 129.999  15.050  1.00  0.00    -0.052 A 
ATOM     15  C   UNL     1      46.305 131.323  15.554  1.00  0.00    -0.025 A 
ATOM     16  N   UNL     1      45.773 128.976  15.837  1.00  0.00    -0.440 NA
ATOM     17  C   UNL     1      46.027 131.607  16.880  1.00  0.00     0.033 A 
ATOM     18  C   UNL     1      45.495 129.226  17.153  1.00  0.00     0.004 A 
ENDBRANCH   8  10
ENDBRANCH   1   8
BRANCH   7  19
ATOM     19  N   UNL     1      44.707 130.936  21.873  1.00  0.00    -0.191 NA
BRANCH  19  20
ATOM     20  C   UNL     1      44.319 130.350  22.935  1.00  0.00     0.064 C 
ATOM     21  S   UNL     1      43.827 129.609  24.279  1.00  0.00    -0.006 S 
ENDBRANCH  19  20
ENDBRANCH   7  19
TORSDOF 4
ENDMDL
MODEL 9
REMARK VINA RESULT:      -5.9      3.438      7.011
REMARK SMILES Fc1cnc(Nc2c[n-]c3nccc-3c2)c(N=C=S)c1
REMARK SMILES IDX 5 1 4 2 3 3 2 4 1 5 20 6 16 7 6 8 7 10 12 11 11 12 13 13
REMARK SMILES IDX 10 14 14 15 9 16 15 17 8 18 17 19 18 20 19 21
REMARK H PARENT 6 9
ROOT
ATOM      1  C   UNL     1      44.157 130.883  21.683  1.00  0.00     0.157 A 
ATOM      2  N   UNL     1      43.050 131.434  22.257  1.00  0.00    -0.234 NA
ATOM      3  C   UNL     1      42.224 132.274  21.581  1.00  0.00     0.152 A 
ATOM      4  C   UNL     1      42.488 132.590  20.251  1.00  0.00     0.143 A 
ATOM      5  F   UNL     1      41.666 133.427  19.570  1.00  0.00    -0.205 F 
ATOM      6  C   UNL     1      43.605 132.037  19.625  1.00  0.00     0.074 A 
ATOM      7  C   UNL     1      44.457 131.169  20.335  1.00  0.00     0.119 A 
ENDROOT
BRANCH   1   8
ATOM      8  N   UNL     1      44.980 129.976  22.439  1.00  0.00    -0.339 N 
ATOM      9  H   UNL     1      45.972 130.244  22.628  1.00  0.00     0.168 HD
BRANCH   8  10
ATOM     10  C   UNL     1      44.555 128.667  22.854  1.00  0.00     0.036 A 
ATOM     11  C   UNL     1      44.187 124.199  23.292  1.00  0.00    -0.022 A 
ATOM     12  N   UNL     1      43.266 124.940  23.964  1.00  0.00    -0.442 NA
ATOM     13  C   UNL     1      45.096 124.984  22.579  1.00  0.00     0.003 A 
ATOM     14  C   UNL     1      43.594 126.210  23.679  1.00  0.00    -0.052 A 
ATOM     15  C   UNL     1      44.726 126.281  22.821  1.00  0.00    -0.025 A 
ATOM     16  N   UNL     1      42.951 127.322  24.099  1.00  0.00    -0.440 NA
ATOM     17  C   UNL     1      45.215 127.504  22.392  1.00  0.00     0.033 A 
ATOM     18  C   UNL     1      43.413 128.544  23.696  1.00  0.00     0.004 A 
ENDBRANCH   8  10
ENDBRANCH   1   8
BRANCH   7  19
ATOM     19  N   UNL     1      45.622 130.584  19.728  1.00  0.00    -0.191 NA
BRANCH  19  20
ATOM     20  C   UNL     1      45.751 130.392  18.476  1.00  0.00     0.064 C 
ATOM     21  S   UNL     1      45.913 130.148  16.891  1.00  0.00    -0.006 S 
ENDBRANCH  19  20
ENDBRANCH   7  19
TORSDOF 4
ENDMDL


