REMARK SMILES CC(=O)c1ccc(/C(O)=N/[C@@H]2C=CCC2)c(F)c1OC(=O)C(C)(C)C
REMARK SMILES IDX 7 1 6 2 5 3 4 4 18 5 16 6 17 7 8 8 9 9 10 11 11 12 12 13
REMARK SMILES IDX 15 14 13 15 14 16 19 17 20 18 21 19 22 20 23 21 24 22 25 23
REMARK SMILES IDX 2 24 3 25 1 26
REMARK H PARENT 9 10
ROOT
ATOM      1  C   UNL     1       0.980   1.894   0.467  1.00  0.00     0.076 A 
ATOM      2  C   UNL     1       2.135   2.542   0.010  1.00  0.00     0.018 A 
ATOM      3  C   UNL     1       3.263   1.811  -0.360  1.00  0.00     0.017 A 
ATOM      4  C   UNL     1       3.265   0.405  -0.301  1.00  0.00     0.063 A 
ATOM      5  C   UNL     1       2.091  -0.260   0.123  1.00  0.00     0.178 A 
ATOM      6  C   UNL     1       0.967   0.487   0.527  1.00  0.00     0.179 A 
ATOM      7  F   UNL     1      -0.110  -0.156   1.049  1.00  0.00    -0.202 F 
ENDROOT
BRANCH   1   8
ATOM      8  C   UNL     1      -0.207   2.687   0.870  1.00  0.00     0.217 C 
BRANCH   8   9
ATOM      9  O   UNL     1      -0.058   3.957   1.434  1.00  0.00    -0.493 OA
ATOM     10  H   UNL     1       0.849   4.341   1.667  1.00  0.00     0.295 HD
ENDBRANCH   8   9
BRANCH   8  11
ATOM     11  N   UNL     1      -1.397   2.193   0.696  1.00  0.00    -0.244 NA
BRANCH  11  12
ATOM     12  C   UNL     1      -2.636   2.876   1.067  1.00  0.00     0.132 C 
ATOM     13  C   UNL     1      -2.817   2.856   2.546  1.00  0.00    -0.005 C 
ATOM     14  C   UNL     1      -3.850   2.100   0.534  1.00  0.00     0.036 C 
ATOM     15  C   UNL     1      -3.845   2.115   2.918  1.00  0.00    -0.029 C 
ATOM     16  C   UNL     1      -4.548   1.504   1.760  1.00  0.00     0.029 C 
ENDBRANCH  11  12
ENDBRANCH   8  11
ENDBRANCH   1   8
BRANCH   5  17
ATOM     17  O   UNL     1       2.066  -1.662   0.166  1.00  0.00    -0.422 OA
BRANCH  17  18
ATOM     18  C   UNL     1       0.999  -2.452  -0.287  1.00  0.00     0.316 C 
ATOM     19  O   UNL     1       0.096  -1.943  -1.008  1.00  0.00    -0.251 OA
BRANCH  18  20
ATOM     20  C   UNL     1       0.932  -3.924   0.069  1.00  0.00     0.060 C 
ATOM     21  C   UNL     1       2.216  -4.367   0.802  1.00  0.00     0.023 C 
ATOM     22  C   UNL     1      -0.281  -4.160   0.988  1.00  0.00     0.023 C 
ATOM     23  C   UNL     1       0.778  -4.758  -1.218  1.00  0.00     0.023 C 
ENDBRANCH  18  20
ENDBRANCH  17  18
ENDBRANCH   5  17
BRANCH   4  24
ATOM     24  C   UNL     1       4.485  -0.358  -0.693  1.00  0.00     0.163 C 
ATOM     25  O   UNL     1       4.640  -1.548  -0.307  1.00  0.00    -0.294 OA
ATOM     26  C   UNL     1       5.575   0.266  -1.513  1.00  0.00     0.093 C 
ENDBRANCH   4  24
TORSDOF 8


