REMARK SMILES Cc1cc(N)c([NH2+]c2ccc3cc[nH]c3c2[O-])cc1F
REMARK SMILES IDX 1 1 2 2 3 3 4 4 6 5 18 6 19 7 20 8 5 9 7 12 8 15 9 16 16 17
REMARK SMILES IDX 10 18 15 19 11 20 14 21 12 22 13 23 17 24
REMARK H PARENT 5 10 5 11 7 13 7 14 14 25
ROOT
ATOM      1  C   UNL     1       4.551   1.024   2.805  1.00  0.00     0.047 C 
ATOM      2  C   UNL     1       3.150   0.964   2.267  1.00  0.00    -0.013 A 
ATOM      3  C   UNL     1       2.437  -0.243   2.281  1.00  0.00     0.038 A 
ATOM      4  C   UNL     1       1.137  -0.321   1.758  1.00  0.00     0.094 A 
ATOM      5  C   UNL     1       0.538   0.837   1.194  1.00  0.00     0.160 A 
ATOM      6  C   UNL     1       1.272   2.039   1.175  1.00  0.00     0.110 A 
ATOM      7  C   UNL     1       2.563   2.102   1.701  1.00  0.00     0.132 A 
ATOM      8  F   UNL     1       3.243   3.276   1.652  1.00  0.00    -0.206 F 
ENDROOT
BRANCH   4   9
ATOM      9  N   UNL     1       0.450  -1.578   1.810  1.00  0.00    -0.394 N 
ATOM     10  H   UNL     1      -0.530  -1.697   1.481  1.00  0.00     0.156 HD
ATOM     11  H   UNL     1       0.921  -2.422   2.208  1.00  0.00     0.156 HD
ENDBRANCH   4   9
BRANCH   5  12
ATOM     12  N   UNL     1      -0.790   0.809   0.617  1.00  0.00    -0.280 N 
ATOM     13  H   UNL     1      -1.151   1.782   0.476  1.00  0.00     0.358 HD
ATOM     14  H   UNL     1      -1.443   0.356   1.296  1.00  0.00     0.358 HD
BRANCH  12  15
ATOM     15  C   UNL     1      -0.795   0.147  -0.671  1.00  0.00     0.128 A 
ATOM     16  C   UNL     1       0.083   0.585  -1.704  1.00  0.00     0.068 A 
ATOM     17  C   UNL     1      -1.732  -0.882  -0.956  1.00  0.00    -0.020 A 
ATOM     18  C   UNL     1       0.073  -0.024  -2.970  1.00  0.00     0.016 A 
ATOM     19  C   UNL     1      -1.711  -1.464  -2.224  1.00  0.00     0.043 A 
ATOM     20  C   UNL     1      -0.837  -1.051  -3.191  1.00  0.00    -0.001 A 
ATOM     21  N   UNL     1      -2.498  -2.450  -2.685  1.00  0.00    -0.361 N 
ATOM     22  C   UNL     1      -1.076  -1.808  -4.317  1.00  0.00     0.028 A 
ATOM     23  C   UNL     1      -2.113  -2.665  -3.964  1.00  0.00     0.083 A 
ATOM     24  O   UNL     1      -2.662  -1.304  -0.011  1.00  0.00    -0.867 OA
ATOM     25  H   UNL     1      -3.255  -2.951  -2.168  1.00  0.00     0.166 HD
ENDBRANCH  12  15
ENDBRANCH   5  12
TORSDOF 3


