REMARK SMILES C=Cc1cccc(-c2ccc3c(c2)[C@@H](N)CC3)c1
REMARK SMILES IDX 8 1 9 2 10 3 11 4 12 5 13 6 14 7 16 8 17 9 7 10 3 11 4 12
REMARK SMILES IDX 18 13 5 14 6 15 2 16 1 17 15 18
REMARK H PARENT 15 19 15 20
ROOT
ATOM      1  C   UNL     1       0.060   1.002  -0.656  1.00  0.00    -0.018 A 
ATOM      2  C   UNL     1      -0.698   1.909  -1.434  1.00  0.00     0.009 A 
ATOM      3  C   UNL     1      -1.349   2.995  -0.831  1.00  0.00     0.005 A 
ATOM      4  C   UNL     1      -1.240   3.165   0.549  1.00  0.00    -0.043 A 
ATOM      5  C   UNL     1      -0.505   2.296   1.313  1.00  0.00    -0.027 A 
ATOM      6  C   UNL     1       0.153   1.206   0.738  1.00  0.00     0.014 A 
ATOM      7  C   UNL     1      -0.511   2.675   2.749  1.00  0.00     0.081 C 
ATOM      8  C   UNL     1      -1.486   3.879   2.809  1.00  0.00     0.028 C 
ATOM      9  C   UNL     1      -1.846   4.248   1.357  1.00  0.00     0.038 C 
ENDROOT
BRANCH   1  10
ATOM     10  C   UNL     1       0.750  -0.147  -1.295  1.00  0.00    -0.018 A 
ATOM     11  C   UNL     1       1.414  -2.506  -1.274  1.00  0.00    -0.026 A 
ATOM     12  C   UNL     1       2.043  -2.323  -2.515  1.00  0.00     0.008 A 
ATOM     13  C   UNL     1       0.756  -1.411  -0.675  1.00  0.00     0.016 A 
ATOM     14  C   UNL     1       2.040  -1.073  -3.135  1.00  0.00     0.001 A 
ATOM     15  C   UNL     1       1.401   0.010  -2.530  1.00  0.00     0.009 A 
BRANCH  11  16
ATOM     16  C   UNL     1       1.438  -3.856  -0.660  1.00  0.00     0.000 C 
ATOM     17  C   UNL     1       1.206  -4.096   0.631  1.00  0.00     0.009 C 
ENDBRANCH  11  16
ENDBRANCH   1  10
BRANCH   7  18
ATOM     18  N   UNL     1       0.838   3.039   3.183  1.00  0.00    -0.324 NA
ATOM     19  H   UNL     1       0.798   3.299   4.196  1.00  0.00     0.119 HD
ATOM     20  H   UNL     1       1.159   3.886   2.657  1.00  0.00     0.119 HD
ENDBRANCH   7  18
TORSDOF 3


