REMARK SMILES Cn1nnc2cc(Nc3cccnc3N)ccc21
REMARK SMILES IDX 9 1 10 2 11 3 12 4 13 5 14 6 8 7 7 9 2 10 3 11 18 12 4 13
REMARK SMILES IDX 17 14 5 15 16 16 6 17 1 18 15 19
REMARK H PARENT 8 8 15 20 15 21
ROOT
ATOM      1  C   UNL     1       0.153   2.853   1.500  1.00  0.00     0.081 A 
ATOM      2  C   UNL     1       1.010   3.176   2.559  1.00  0.00     0.031 A 
ATOM      3  C   UNL     1       0.486   3.557   3.795  1.00  0.00     0.022 A 
ATOM      4  C   UNL     1      -0.897   3.625   3.957  1.00  0.00     0.113 A 
ATOM      5  N   UNL     1      -1.720   3.340   2.913  1.00  0.00    -0.238 NA
ATOM      6  C   UNL     1      -1.241   2.967   1.694  1.00  0.00     0.147 A 
ENDROOT
BRANCH   1   7
ATOM      7  N   UNL     1       0.715   2.442   0.245  1.00  0.00    -0.352 N 
ATOM      8  H   UNL     1       1.460   3.047  -0.169  1.00  0.00     0.167 HD
BRANCH   7   9
ATOM      9  C   UNL     1       0.451   1.168  -0.371  1.00  0.00     0.041 A 
ATOM     10  N   UNL     1      -0.352  -2.523  -1.948  1.00  0.00    -0.248 N 
ATOM     11  N   UNL     1      -0.936  -3.069  -0.886  1.00  0.00    -0.066 NA
ATOM     12  C   UNL     1      -0.010  -1.271  -1.611  1.00  0.00     0.089 A 
ATOM     13  N   UNL     1      -0.986  -2.205   0.127  1.00  0.00    -0.130 NA
ATOM     14  C   UNL     1       0.639  -0.286  -2.349  1.00  0.00     0.032 A 
ATOM     15  C   UNL     1      -0.406  -1.078  -0.327  1.00  0.00     0.115 A 
ATOM     16  C   UNL     1       0.871   0.948  -1.711  1.00  0.00     0.028 A 
ATOM     17  C   UNL     1      -0.196   0.124   0.340  1.00  0.00     0.058 A 
ATOM     18  C   UNL     1      -0.118  -3.204  -3.215  1.00  0.00     0.176 C 
ENDBRANCH   7   9
ENDBRANCH   1   7
BRANCH   6  19
ATOM     19  N   UNL     1      -2.166   2.740   0.627  1.00  0.00    -0.382 N 
ATOM     20  H   UNL     1      -1.850   2.583  -0.354  1.00  0.00     0.158 HD
ATOM     21  H   UNL     1      -3.193   2.792   0.809  1.00  0.00     0.158 HD
ENDBRANCH   6  19
TORSDOF 3


