MODEL 1
REMARK VINA RESULT:     -10.2      0.000      0.000
REMARK SMILES Cc1ccc([C@H]2O[C@@H]2C(=O)c2ccc(F)cc2)cc1F
REMARK SMILES IDX 6 1 7 2 8 3 5 4 2 5 3 6 19 7 4 8 18 9 1 10 20 11 9 12 10 13
REMARK SMILES IDX 11 14 12 15 17 16 13 17 16 18 14 19 15 20
REMARK H PARENT
ROOT
ATOM      1  C   UNL     1      44.946 131.759  18.032  1.00  0.00     0.186 C 
ATOM      2  O   UNL     1      45.541 130.521  17.714  1.00  0.00    -0.356 OA
ATOM      3  C   UNL     1      44.330 130.821  17.058  1.00  0.00     0.224 C 
ENDROOT
BRANCH   1   4
ATOM      4  C   UNL     1      44.353 131.748  19.410  1.00  0.00    -0.013 A 
ATOM      5  C   UNL     1      43.209 131.654  21.977  1.00  0.00    -0.015 A 
ATOM      6  C   UNL     1      44.437 131.022  21.725  1.00  0.00     0.007 A 
ATOM      7  C   UNL     1      42.557 132.335  20.936  1.00  0.00     0.126 A 
ATOM      8  C   UNL     1      45.001 131.061  20.446  1.00  0.00     0.007 A 
ATOM      9  C   UNL     1      43.123 132.373  19.657  1.00  0.00     0.046 A 
ATOM     10  C   UNL     1      42.611 131.631  23.354  1.00  0.00     0.047 C 
ATOM     11  F   UNL     1      41.373 132.962  21.157  1.00  0.00    -0.207 F 
ENDBRANCH   1   4
BRANCH   3  12
ATOM     12  C   UNL     1      44.560 131.140  15.611  1.00  0.00     0.194 C 
ATOM     13  O   UNL     1      43.686 131.811  14.997  1.00  0.00    -0.291 OA
BRANCH  12  14
ATOM     14  C   UNL     1      45.764 130.655  14.886  1.00  0.00     0.021 A 
ATOM     15  C   UNL     1      46.291 129.370  15.121  1.00  0.00     0.015 A 
ATOM     16  C   UNL     1      46.396 131.482  13.937  1.00  0.00     0.015 A 
ATOM     17  C   UNL     1      47.424 128.930  14.429  1.00  0.00     0.040 A 
ATOM     18  C   UNL     1      47.530 131.037  13.249  1.00  0.00     0.040 A 
ATOM     19  C   UNL     1      48.043 129.762  13.495  1.00  0.00     0.123 A 
ATOM     20  F   UNL     1      49.141 129.333  12.826  1.00  0.00    -0.207 F 
ENDBRANCH  12  14
ENDBRANCH   3  12
TORSDOF 3
ENDMDL
MODEL 2
REMARK VINA RESULT:     -10.1      0.125      1.089
REMARK SMILES Cc1ccc([C@H]2O[C@@H]2C(=O)c2ccc(F)cc2)cc1F
REMARK SMILES IDX 6 1 7 2 8 3 5 4 2 5 3 6 19 7 4 8 18 9 1 10 20 11 9 12 10 13
REMARK SMILES IDX 11 14 12 15 17 16 13 17 16 18 14 19 15 20
REMARK H PARENT
ROOT
ATOM      1  C   UNL     1      44.885 131.837  18.127  1.00  0.00     0.186 C 
ATOM      2  O   UNL     1      45.634 130.681  17.825  1.00  0.00    -0.356 OA
ATOM      3  C   UNL     1      44.387 130.807  17.179  1.00  0.00     0.224 C 
ENDROOT
BRANCH   1   4
ATOM      4  C   UNL     1      44.313 131.777  19.512  1.00  0.00    -0.013 A 
ATOM      5  C   UNL     1      43.208 131.591  22.091  1.00  0.00    -0.015 A 
ATOM      6  C   UNL     1      44.432 130.970  21.799  1.00  0.00     0.007 A 
ATOM      7  C   UNL     1      42.540 132.308  21.085  1.00  0.00     0.126 A 
ATOM      8  C   UNL     1      44.977 131.055  20.514  1.00  0.00     0.007 A 
ATOM      9  C   UNL     1      43.087 132.391  19.800  1.00  0.00     0.046 A 
ATOM     10  C   UNL     1      42.630 131.519  23.476  1.00  0.00     0.047 C 
ATOM     11  F   UNL     1      41.359 132.924  21.345  1.00  0.00    -0.207 F 
ENDBRANCH   1   4
BRANCH   3  12
ATOM     12  C   UNL     1      44.558 131.123  15.723  1.00  0.00     0.194 C 
ATOM     13  O   UNL     1      43.646 131.769  15.137  1.00  0.00    -0.291 OA
BRANCH  12  14
ATOM     14  C   UNL     1      45.748 130.666  14.959  1.00  0.00     0.021 A 
ATOM     15  C   UNL     1      46.406 131.519  14.049  1.00  0.00     0.015 A 
ATOM     16  C   UNL     1      46.245 129.360  15.142  1.00  0.00     0.015 A 
ATOM     17  C   UNL     1      47.525 131.071  13.341  1.00  0.00     0.040 A 
ATOM     18  C   UNL     1      47.364 128.919  14.429  1.00  0.00     0.040 A 
ATOM     19  C   UNL     1      48.004 129.774  13.528  1.00  0.00     0.123 A 
ATOM     20  F   UNL     1      49.089 129.343  12.840  1.00  0.00    -0.207 F 
ENDBRANCH  12  14
ENDBRANCH   3  12
TORSDOF 3
ENDMDL
MODEL 3
REMARK VINA RESULT:      -9.9      1.059      1.862
REMARK SMILES Cc1ccc([C@H]2O[C@@H]2C(=O)c2ccc(F)cc2)cc1F
REMARK SMILES IDX 6 1 7 2 8 3 5 4 2 5 3 6 19 7 4 8 18 9 1 10 20 11 9 12 10 13
REMARK SMILES IDX 11 14 12 15 17 16 13 17 16 18 14 19 15 20
REMARK H PARENT
ROOT
ATOM      1  C   UNL     1      44.872 131.756  17.985  1.00  0.00     0.186 C 
ATOM      2  O   UNL     1      45.575 130.575  17.676  1.00  0.00    -0.356 OA
ATOM      3  C   UNL     1      44.361 130.780  16.989  1.00  0.00     0.224 C 
ENDROOT
BRANCH   1   4
ATOM      4  C   UNL     1      44.247 131.685  19.347  1.00  0.00    -0.013 A 
ATOM      5  C   UNL     1      43.108 131.623  21.917  1.00  0.00    -0.015 A 
ATOM      6  C   UNL     1      42.471 132.317  20.877  1.00  0.00     0.007 A 
ATOM      7  C   UNL     1      44.319 130.958  21.663  1.00  0.00     0.126 A 
ATOM      8  C   UNL     1      43.043 132.355  19.601  1.00  0.00     0.007 A 
ATOM      9  C   UNL     1      44.889 130.997  20.386  1.00  0.00     0.046 A 
ATOM     10  C   UNL     1      42.487 131.563  23.283  1.00  0.00     0.047 C 
ATOM     11  F   UNL     1      44.950 130.273  22.651  1.00  0.00    -0.207 F 
ENDBRANCH   1   4
BRANCH   3  12
ATOM     12  C   UNL     1      44.602 131.129  15.550  1.00  0.00     0.194 C 
ATOM     13  O   UNL     1      43.731 131.811  14.944  1.00  0.00    -0.291 OA
BRANCH  12  14
ATOM     14  C   UNL     1      45.812 130.662  14.825  1.00  0.00     0.021 A 
ATOM     15  C   UNL     1      46.473 131.490  13.895  1.00  0.00     0.015 A 
ATOM     16  C   UNL     1      46.325 129.372  15.066  1.00  0.00     0.015 A 
ATOM     17  C   UNL     1      47.611 131.034  13.224  1.00  0.00     0.040 A 
ATOM     18  C   UNL     1      47.463 128.922  14.390  1.00  0.00     0.040 A 
ATOM     19  C   UNL     1      48.106 129.752  13.469  1.00  0.00     0.123 A 
ATOM     20  F   UNL     1      49.210 129.313  12.816  1.00  0.00    -0.207 F 
ENDBRANCH  12  14
ENDBRANCH   3  12
TORSDOF 3
ENDMDL
MODEL 4
REMARK VINA RESULT:      -9.8      1.096      1.540
REMARK SMILES Cc1ccc([C@H]2O[C@@H]2C(=O)c2ccc(F)cc2)cc1F
REMARK SMILES IDX 6 1 7 2 8 3 5 4 2 5 3 6 19 7 4 8 18 9 1 10 20 11 9 12 10 13
REMARK SMILES IDX 11 14 12 15 17 16 13 17 16 18 14 19 15 20
REMARK H PARENT
ROOT
ATOM      1  C   UNL     1      44.742 131.831  18.197  1.00  0.00     0.186 C 
ATOM      2  O   UNL     1      45.607 130.757  17.906  1.00  0.00    -0.356 OA
ATOM      3  C   UNL     1      44.372 130.770  17.226  1.00  0.00     0.224 C 
ENDROOT
BRANCH   1   4
ATOM      4  C   UNL     1      44.142 131.699  19.565  1.00  0.00    -0.013 A 
ATOM      5  C   UNL     1      43.052 131.524  22.152  1.00  0.00    -0.015 A 
ATOM      6  C   UNL     1      42.412 132.289  21.164  1.00  0.00     0.007 A 
ATOM      7  C   UNL     1      44.240 130.844  21.836  1.00  0.00     0.126 A 
ATOM      8  C   UNL     1      42.960 132.384  19.881  1.00  0.00     0.007 A 
ATOM      9  C   UNL     1      44.786 130.940  20.552  1.00  0.00     0.046 A 
ATOM     10  C   UNL     1      42.456 131.403  23.525  1.00  0.00     0.047 C 
ATOM     11  F   UNL     1      44.872 130.091  22.772  1.00  0.00    -0.207 F 
ENDBRANCH   1   4
BRANCH   3  12
ATOM     12  C   UNL     1      44.551 131.118  15.778  1.00  0.00     0.194 C 
ATOM     13  O   UNL     1      43.656 131.800  15.209  1.00  0.00    -0.291 OA
BRANCH  12  14
ATOM     14  C   UNL     1      45.729 130.650  15.002  1.00  0.00     0.021 A 
ATOM     15  C   UNL     1      46.267 129.361  15.194  1.00  0.00     0.015 A 
ATOM     16  C   UNL     1      46.327 131.497  14.048  1.00  0.00     0.015 A 
ATOM     17  C   UNL     1      47.375 128.938  14.454  1.00  0.00     0.040 A 
ATOM     18  C   UNL     1      47.436 131.068  13.312  1.00  0.00     0.040 A 
ATOM     19  C   UNL     1      47.960 129.789  13.515  1.00  0.00     0.123 A 
ATOM     20  F   UNL     1      49.034 129.375  12.799  1.00  0.00    -0.207 F 
ENDBRANCH  12  14
ENDBRANCH   3  12
TORSDOF 3
ENDMDL
MODEL 5
REMARK VINA RESULT:      -9.3      1.095      1.631
REMARK SMILES Cc1ccc([C@H]2O[C@@H]2C(=O)c2ccc(F)cc2)cc1F
REMARK SMILES IDX 6 1 7 2 8 3 5 4 2 5 3 6 19 7 4 8 18 9 1 10 20 11 9 12 10 13
REMARK SMILES IDX 11 14 12 15 17 16 13 17 16 18 14 19 15 20
REMARK H PARENT
ROOT
ATOM      1  C   UNL     1      43.785 130.999  17.241  1.00  0.00     0.186 C 
ATOM      2  O   UNL     1      43.147 132.111  16.654  1.00  0.00    -0.356 OA
ATOM      3  C   UNL     1      44.503 131.917  16.319  1.00  0.00     0.224 C 
ENDROOT
BRANCH   1   4
ATOM      4  C   UNL     1      44.038 131.217  18.703  1.00  0.00    -0.013 A 
ATOM      5  C   UNL     1      44.492 131.546  21.459  1.00  0.00    -0.015 A 
ATOM      6  C   UNL     1      45.499 131.025  20.632  1.00  0.00     0.007 A 
ATOM      7  C   UNL     1      43.255 131.904  20.897  1.00  0.00     0.126 A 
ATOM      8  C   UNL     1      45.270 130.852  19.263  1.00  0.00     0.007 A 
ATOM      9  C   UNL     1      43.028 131.731  19.528  1.00  0.00     0.046 A 
ATOM     10  C   UNL     1      44.743 131.752  22.925  1.00  0.00     0.047 C 
ATOM     11  F   UNL     1      42.269 132.418  21.675  1.00  0.00    -0.207 F 
ENDBRANCH   1   4
BRANCH   3  12
ATOM     12  C   UNL     1      44.651 131.438  14.905  1.00  0.00     0.194 C 
ATOM     13  O   UNL     1      43.663 131.547  14.128  1.00  0.00    -0.291 OA
BRANCH  12  14
ATOM     14  C   UNL     1      45.909 130.814  14.420  1.00  0.00     0.021 A 
ATOM     15  C   UNL     1      46.692 131.427  13.421  1.00  0.00     0.015 A 
ATOM     16  C   UNL     1      46.345 129.590  14.963  1.00  0.00     0.015 A 
ATOM     17  C   UNL     1      47.874 130.826  12.977  1.00  0.00     0.040 A 
ATOM     18  C   UNL     1      47.527 128.993  14.515  1.00  0.00     0.040 A 
ATOM     19  C   UNL     1      48.292 129.611  13.522  1.00  0.00     0.123 A 
ATOM     20  F   UNL     1      49.438 129.031  13.089  1.00  0.00    -0.207 F 
ENDBRANCH  12  14
ENDBRANCH   3  12
TORSDOF 3
ENDMDL
MODEL 6
REMARK VINA RESULT:      -9.3      1.672      7.371
REMARK SMILES Cc1ccc([C@H]2O[C@@H]2C(=O)c2ccc(F)cc2)cc1F
REMARK SMILES IDX 6 1 7 2 8 3 5 4 2 5 3 6 19 7 4 8 18 9 1 10 20 11 9 12 10 13
REMARK SMILES IDX 11 14 12 15 17 16 13 17 16 18 14 19 15 20
REMARK H PARENT
ROOT
ATOM      1  C   UNL     1      44.694 132.007  16.525  1.00  0.00     0.186 C 
ATOM      2  O   UNL     1      43.399 131.873  15.987  1.00  0.00    -0.356 OA
ATOM      3  C   UNL     1      43.654 131.178  17.187  1.00  0.00     0.224 C 
ENDROOT
BRANCH   1   4
ATOM      4  C   UNL     1      45.708 131.254  15.715  1.00  0.00    -0.013 A 
ATOM      5  C   UNL     1      47.668 129.879  14.240  1.00  0.00    -0.015 A 
ATOM      6  C   UNL     1      47.247 129.391  15.487  1.00  0.00     0.007 A 
ATOM      7  C   UNL     1      47.099 131.060  13.734  1.00  0.00     0.126 A 
ATOM      8  C   UNL     1      46.280 130.080  16.225  1.00  0.00     0.007 A 
ATOM      9  C   UNL     1      46.131 131.748  14.474  1.00  0.00     0.046 A 
ATOM     10  C   UNL     1      48.692 129.131  13.436  1.00  0.00     0.047 C 
ATOM     11  F   UNL     1      47.483 131.547  12.527  1.00  0.00    -0.207 F 
ENDBRANCH   1   4
BRANCH   3  12
ATOM     12  C   UNL     1      42.950 131.818  18.347  1.00  0.00     0.194 C 
ATOM     13  O   UNL     1      41.947 132.546  18.113  1.00  0.00    -0.291 OA
BRANCH  12  14
ATOM     14  C   UNL     1      43.428 131.643  19.743  1.00  0.00     0.021 A 
ATOM     15  C   UNL     1      44.754 131.254  20.020  1.00  0.00     0.015 A 
ATOM     16  C   UNL     1      42.552 131.874  20.823  1.00  0.00     0.015 A 
ATOM     17  C   UNL     1      45.186 131.096  21.340  1.00  0.00     0.040 A 
ATOM     18  C   UNL     1      42.990 131.713  22.141  1.00  0.00     0.040 A 
ATOM     19  C   UNL     1      44.307 131.324  22.400  1.00  0.00     0.123 A 
ATOM     20  F   UNL     1      44.729 131.169  23.678  1.00  0.00    -0.207 F 
ENDBRANCH  12  14
ENDBRANCH   3  12
TORSDOF 3
ENDMDL
MODEL 7
REMARK VINA RESULT:      -9.3      1.666      7.378
REMARK SMILES Cc1ccc([C@H]2O[C@@H]2C(=O)c2ccc(F)cc2)cc1F
REMARK SMILES IDX 6 1 7 2 8 3 5 4 2 5 3 6 19 7 4 8 18 9 1 10 20 11 9 12 10 13
REMARK SMILES IDX 11 14 12 15 17 16 13 17 16 18 14 19 15 20
REMARK H PARENT
ROOT
ATOM      1  C   UNL     1      44.606 132.010  16.461  1.00  0.00     0.186 C 
ATOM      2  O   UNL     1      43.307 131.807  15.953  1.00  0.00    -0.356 OA
ATOM      3  C   UNL     1      43.606 131.179  17.180  1.00  0.00     0.224 C 
ENDROOT
BRANCH   1   4
ATOM      4  C   UNL     1      45.631 131.253  15.670  1.00  0.00    -0.013 A 
ATOM      5  C   UNL     1      47.613 129.880  14.221  1.00  0.00    -0.015 A 
ATOM      6  C   UNL     1      47.288 129.485  15.528  1.00  0.00     0.007 A 
ATOM      7  C   UNL     1      46.938 130.967  13.642  1.00  0.00     0.126 A 
ATOM      8  C   UNL     1      46.310 130.174  16.252  1.00  0.00     0.007 A 
ATOM      9  C   UNL     1      45.959 131.655  14.367  1.00  0.00     0.046 A 
ATOM     10  C   UNL     1      48.649 129.129  13.434  1.00  0.00     0.047 C 
ATOM     11  F   UNL     1      47.228 131.363  12.376  1.00  0.00    -0.207 F 
ENDBRANCH   1   4
BRANCH   3  12
ATOM     12  C   UNL     1      42.900 131.850  18.321  1.00  0.00     0.194 C 
ATOM     13  O   UNL     1      41.914 132.594  18.063  1.00  0.00    -0.291 OA
BRANCH  12  14
ATOM     14  C   UNL     1      43.355 131.686  19.726  1.00  0.00     0.021 A 
ATOM     15  C   UNL     1      42.494 131.949  20.810  1.00  0.00     0.015 A 
ATOM     16  C   UNL     1      44.669 131.253  19.996  1.00  0.00     0.015 A 
ATOM     17  C   UNL     1      42.939 131.788  22.125  1.00  0.00     0.040 A 
ATOM     18  C   UNL     1      45.108 131.095  21.314  1.00  0.00     0.040 A 
ATOM     19  C   UNL     1      44.244 131.363  22.379  1.00  0.00     0.123 A 
ATOM     20  F   UNL     1      44.673 131.208  23.655  1.00  0.00    -0.207 F 
ENDBRANCH  12  14
ENDBRANCH   3  12
TORSDOF 3
ENDMDL
MODEL 8
REMARK VINA RESULT:      -9.2      1.089      1.221
REMARK SMILES Cc1ccc([C@H]2O[C@@H]2C(=O)c2ccc(F)cc2)cc1F
REMARK SMILES IDX 6 1 7 2 8 3 5 4 2 5 3 6 19 7 4 8 18 9 1 10 20 11 9 12 10 13
REMARK SMILES IDX 11 14 12 15 17 16 13 17 16 18 14 19 15 20
REMARK H PARENT
ROOT
ATOM      1  C   UNL     1      43.813 131.011  17.295  1.00  0.00     0.186 C 
ATOM      2  O   UNL     1      43.185 132.131  16.713  1.00  0.00    -0.356 OA
ATOM      3  C   UNL     1      44.538 131.923  16.373  1.00  0.00     0.224 C 
ENDROOT
BRANCH   1   4
ATOM      4  C   UNL     1      44.074 131.224  18.757  1.00  0.00    -0.013 A 
ATOM      5  C   UNL     1      44.542 131.544  21.511  1.00  0.00    -0.015 A 
ATOM      6  C   UNL     1      45.538 131.005  20.682  1.00  0.00     0.007 A 
ATOM      7  C   UNL     1      43.311 131.925  20.954  1.00  0.00     0.126 A 
ATOM      8  C   UNL     1      45.301 130.836  19.314  1.00  0.00     0.007 A 
ATOM      9  C   UNL     1      43.076 131.756  19.585  1.00  0.00     0.046 A 
ATOM     10  C   UNL     1      44.801 131.745  22.977  1.00  0.00     0.047 C 
ATOM     11  F   UNL     1      42.336 132.457  21.734  1.00  0.00    -0.207 F 
ENDBRANCH   1   4
BRANCH   3  12
ATOM     12  C   UNL     1      44.675 131.445  14.957  1.00  0.00     0.194 C 
ATOM     13  O   UNL     1      43.691 131.580  14.180  1.00  0.00    -0.291 OA
BRANCH  12  14
ATOM     14  C   UNL     1      45.918 130.791  14.471  1.00  0.00     0.021 A 
ATOM     15  C   UNL     1      46.363 129.569  15.015  1.00  0.00     0.015 A 
ATOM     16  C   UNL     1      46.673 131.387  13.442  1.00  0.00     0.015 A 
ATOM     17  C   UNL     1      47.534 128.968  14.544  1.00  0.00     0.040 A 
ATOM     18  C   UNL     1      47.844 130.782  12.976  1.00  0.00     0.040 A 
ATOM     19  C   UNL     1      48.275 129.572  13.527  1.00  0.00     0.123 A 
ATOM     20  F   UNL     1      49.410 128.987  13.072  1.00  0.00    -0.207 F 
ENDBRANCH  12  14
ENDBRANCH   3  12
TORSDOF 3
ENDMDL
MODEL 9
REMARK VINA RESULT:      -8.8      1.290      1.847
REMARK SMILES Cc1ccc([C@H]2O[C@@H]2C(=O)c2ccc(F)cc2)cc1F
REMARK SMILES IDX 6 1 7 2 8 3 5 4 2 5 3 6 19 7 4 8 18 9 1 10 20 11 9 12 10 13
REMARK SMILES IDX 11 14 12 15 17 16 13 17 16 18 14 19 15 20
REMARK H PARENT
ROOT
ATOM      1  C   UNL     1      43.862 131.823  19.076  1.00  0.00     0.186 C 
ATOM      2  O   UNL     1      45.021 132.550  18.735  1.00  0.00    -0.356 OA
ATOM      3  C   UNL     1      44.913 131.251  18.196  1.00  0.00     0.224 C 
ENDROOT
BRANCH   1   4
ATOM      4  C   UNL     1      43.896 131.372  20.506  1.00  0.00    -0.013 A 
ATOM      5  C   UNL     1      43.913 130.462  23.167  1.00  0.00    -0.015 A 
ATOM      6  C   UNL     1      44.838 129.957  22.239  1.00  0.00     0.007 A 
ATOM      7  C   UNL     1      42.980 131.428  22.755  1.00  0.00     0.126 A 
ATOM      8  C   UNL     1      44.823 130.403  20.914  1.00  0.00     0.007 A 
ATOM      9  C   UNL     1      42.967 131.873  21.429  1.00  0.00     0.046 A 
ATOM     10  C   UNL     1      43.940 130.000  24.596  1.00  0.00     0.047 C 
ATOM     11  F   UNL     1      42.081 131.937  23.636  1.00  0.00    -0.207 F 
ENDBRANCH   1   4
BRANCH   3  12
ATOM     12  C   UNL     1      44.626 131.296  16.724  1.00  0.00     0.194 C 
ATOM     13  O   UNL     1      43.483 131.671  16.345  1.00  0.00    -0.291 OA
BRANCH  12  14
ATOM     14  C   UNL     1      45.638 130.877  15.718  1.00  0.00     0.021 A 
ATOM     15  C   UNL     1      46.255 131.815  14.866  1.00  0.00     0.015 A 
ATOM     16  C   UNL     1      46.002 129.521  15.607  1.00  0.00     0.015 A 
ATOM     17  C   UNL     1      47.205 131.403  13.928  1.00  0.00     0.040 A 
ATOM     18  C   UNL     1      46.953 129.115  14.665  1.00  0.00     0.040 A 
ATOM     19  C   UNL     1      47.554 130.056  13.825  1.00  0.00     0.123 A 
ATOM     20  F   UNL     1      48.476 129.660  12.913  1.00  0.00    -0.207 F 
ENDBRANCH  12  14
ENDBRANCH   3  12
TORSDOF 3
ENDMDL


