REMARK SMILES O=C(c1ccc(F)cc1)[C@H]1O[C@@H]1[C@@H]1CC[C@H]2N=CC[C@@]2(F)C1
REMARK SMILES IDX 10 1 11 2 12 3 2 4 1 5 3 6 4 7 9 8 5 9 8 10 6 11 7 12 13 13
REMARK SMILES IDX 14 14 22 15 15 16 20 17 16 18 19 19 17 20 18 21 21 22
REMARK H PARENT
ROOT
ATOM      1  C   UNL     1       0.398  -0.637   1.492  1.00  0.00     0.219 C 
ATOM      2  O   UNL     1      -0.805   0.032   1.800  1.00  0.00    -0.361 OA
ATOM      3  C   UNL     1      -0.068   0.537   0.711  1.00  0.00     0.159 C 
ENDROOT
BRANCH   1   4
ATOM      4  C   UNL     1       1.461  -0.358   2.514  1.00  0.00     0.194 C 
ATOM      5  O   UNL     1       1.111  -0.081   3.695  1.00  0.00    -0.291 OA
BRANCH   4   6
ATOM      6  C   UNL     1       2.905  -0.433   2.174  1.00  0.00     0.021 A 
ATOM      7  C   UNL     1       3.879  -0.194   3.164  1.00  0.00     0.015 A 
ATOM      8  C   UNL     1       3.332  -0.753   0.870  1.00  0.00     0.015 A 
ATOM      9  C   UNL     1       5.240  -0.280   2.858  1.00  0.00     0.040 A 
ATOM     10  C   UNL     1       4.695  -0.830   0.568  1.00  0.00     0.040 A 
ATOM     11  C   UNL     1       5.649  -0.598   1.561  1.00  0.00     0.123 A 
ATOM     12  F   UNL     1       6.970  -0.687   1.268  1.00  0.00    -0.207 F 
ENDBRANCH   4   6
ENDBRANCH   1   4
BRANCH   3  13
ATOM     13  C   UNL     1      -0.777   0.249  -0.622  1.00  0.00     0.024 C 
ATOM     14  C   UNL     1       0.216   0.392  -1.779  1.00  0.00     0.009 C 
ATOM     15  C   UNL     1      -1.937   1.235  -0.820  1.00  0.00     0.050 C 
ATOM     16  C   UNL     1      -0.458  -0.000  -3.090  1.00  0.00     0.031 C 
ATOM     17  C   UNL     1      -2.629   1.116  -2.197  1.00  0.00     0.138 C 
ATOM     18  C   UNL     1      -1.693   0.871  -3.406  1.00  0.00     0.142 C 
ATOM     19  C   UNL     1      -3.638  -0.033  -2.304  1.00  0.00     0.091 C 
ATOM     20  N   UNL     1      -2.529   0.146  -4.328  1.00  0.00    -0.291 NA
ATOM     21  C   UNL     1      -3.552  -0.363  -3.753  1.00  0.00     0.081 C 
ATOM     22  F   UNL     1      -3.318   2.300  -2.423  1.00  0.00    -0.241 F 
ENDBRANCH   3  13
TORSDOF 3


