REMARK SMILES NCCc1ccc(-c2cnc3ccnn3c2)cc1
REMARK SMILES IDX 2 1 1 2 3 5 4 6 5 7 18 8 6 9 17 10 7 11 8 12 9 13 16 14
REMARK SMILES IDX 10 15 15 16 11 17 14 18 12 19 13 20
REMARK H PARENT 1 3 1 4
ROOT
ATOM      1  C   UNL     1      -3.158  -1.980   2.950  1.00  0.00     0.082 C 
ENDROOT
BRANCH   1   2
ATOM      2  N   UNL     1      -3.890  -0.731   2.755  1.00  0.00    -0.330 NA
ATOM      3  H   UNL     1      -3.811  -0.165   3.631  1.00  0.00     0.118 HD
ATOM      4  H   UNL     1      -4.902  -0.970   2.646  1.00  0.00     0.118 HD
ENDBRANCH   1   2
BRANCH   1   5
ATOM      5  C   UNL     1      -1.650  -1.720   3.031  1.00  0.00     0.050 C 
BRANCH   5   6
ATOM      6  C   UNL     1      -1.115  -1.164   1.737  1.00  0.00    -0.047 A 
ATOM      7  C   UNL     1      -0.987   0.221   1.558  1.00  0.00     0.004 A 
ATOM      8  C   UNL     1      -0.784  -2.026   0.681  1.00  0.00     0.004 A 
ATOM      9  C   UNL     1      -0.518   0.737   0.347  1.00  0.00     0.009 A 
ATOM     10  C   UNL     1      -0.314  -1.511  -0.530  1.00  0.00     0.009 A 
ATOM     11  C   UNL     1      -0.175  -0.123  -0.711  1.00  0.00    -0.015 A 
BRANCH  11  12
ATOM     12  C   UNL     1       0.323   0.424  -1.999  1.00  0.00     0.018 A 
ATOM     13  C   UNL     1      -0.224   1.610  -2.552  1.00  0.00     0.124 A 
ATOM     14  C   UNL     1       1.356  -0.221  -2.711  1.00  0.00     0.125 A 
ATOM     15  N   UNL     1       0.239   2.107  -3.736  1.00  0.00    -0.236 NA
ATOM     16  N   UNL     1       1.766   0.329  -3.878  1.00  0.00    -0.222 N 
ATOM     17  C   UNL     1       1.233   1.447  -4.375  1.00  0.00     0.154 A 
ATOM     18  N   UNL     1       2.715  -0.118  -4.681  1.00  0.00    -0.175 NA
ATOM     19  C   UNL     1       1.843   1.770  -5.561  1.00  0.00     0.071 A 
ATOM     20  C   UNL     1       2.779   0.751  -5.721  1.00  0.00     0.138 A 
ENDBRANCH  11  12
ENDBRANCH   5   6
ENDBRANCH   1   5
TORSDOF 4


