REMARK SMILES O/C(=N/c1ccc(-c2ccccc2)s1)[N-]c1cc(F)cnc1Nc1c[n-]c2nccc-2c1
REMARK SMILES IDX 2 1 1 2 3 4 4 5 14 6 5 7 7 8 6 9 8 10 9 11 13 12 10 13 12 14
REMARK SMILES IDX 11 15 15 16 16 17 22 18 17 19 21 20 18 21 20 22 19 23 23 24
REMARK SMILES IDX 24 26 25 27 32 28 26 29 31 30 27 31 30 32 28 33 29 34
REMARK H PARENT 1 3 23 25
ROOT
ATOM      1  C   UNL     1      -1.922  -2.979   0.406  1.00  0.00     0.097 C 
ENDROOT
BRANCH   1   2
ATOM      2  O   UNL     1      -2.392  -4.282   0.261  1.00  0.00    -0.515 OA
ATOM      3  H   UNL     1      -3.172  -4.623   0.810  1.00  0.00     0.292 HD
ENDBRANCH   1   2
BRANCH   1   4
ATOM      4  N   UNL     1      -2.502  -2.193   1.265  1.00  0.00    -0.396 NA
BRANCH   4   5
ATOM      5  C   UNL     1      -2.096  -0.860   1.595  1.00  0.00     0.016 A 
ATOM      6  S   UNL     1      -0.513  -0.295   1.691  1.00  0.00    -0.140 S 
ATOM      7  C   UNL     1      -2.957   0.123   2.052  1.00  0.00     0.016 A 
ATOM      8  C   UNL     1      -0.913   1.242   2.262  1.00  0.00     0.034 A 
ATOM      9  C   UNL     1      -2.300   1.308   2.407  1.00  0.00     0.021 A 
BRANCH   8  10
ATOM     10  C   UNL     1       0.054   2.320   2.572  1.00  0.00    -0.008 A 
ATOM     11  C   UNL     1      -0.350   3.668   2.578  1.00  0.00     0.009 A 
ATOM     12  C   UNL     1       1.399   2.010   2.846  1.00  0.00     0.009 A 
ATOM     13  C   UNL     1       0.575   4.682   2.847  1.00  0.00     0.001 A 
ATOM     14  C   UNL     1       2.319   3.028   3.115  1.00  0.00     0.001 A 
ATOM     15  C   UNL     1       1.908   4.362   3.115  1.00  0.00     0.000 A 
ENDBRANCH   8  10
ENDBRANCH   4   5
ENDBRANCH   1   4
BRANCH   1  16
ATOM     16  N   UNL     1      -0.817  -2.522  -0.388  1.00  0.00    -0.402 NA
BRANCH  16  17
ATOM     17  C   UNL     1      -0.364  -3.112  -1.618  1.00  0.00     0.007 A 
ATOM     18  C   UNL     1       0.957  -2.892  -2.059  1.00  0.00     0.133 A 
ATOM     19  C   UNL     1      -1.221  -3.879  -2.426  1.00  0.00     0.048 A 
ATOM     20  N   UNL     1       1.399  -3.497  -3.196  1.00  0.00    -0.236 NA
ATOM     21  C   UNL     1      -0.741  -4.465  -3.598  1.00  0.00     0.141 A 
ATOM     22  C   UNL     1       0.590  -4.273  -3.963  1.00  0.00     0.152 A 
ATOM     23  F   UNL     1      -1.562  -5.214  -4.375  1.00  0.00    -0.205 F 
BRANCH  18  24
ATOM     24  N   UNL     1       1.872  -2.088  -1.305  1.00  0.00    -0.340 N 
ATOM     25  H   UNL     1       2.799  -2.516  -1.083  1.00  0.00     0.168 HD
BRANCH  24  26
ATOM     26  C   UNL     1       1.711  -0.673  -1.087  1.00  0.00     0.036 A 
ATOM     27  C   UNL     1       2.695   0.021  -0.326  1.00  0.00     0.004 A 
ATOM     28  C   UNL     1       0.619   0.044  -1.638  1.00  0.00     0.033 A 
ATOM     29  N   UNL     1       2.611   1.367  -0.102  1.00  0.00    -0.440 NA
ATOM     30  C   UNL     1       0.554   1.403  -1.380  1.00  0.00    -0.025 A 
ATOM     31  C   UNL     1       1.564   2.050  -0.617  1.00  0.00    -0.052 A 
ATOM     32  C   UNL     1      -0.351   2.380  -1.708  1.00  0.00     0.003 A 
ATOM     33  N   UNL     1       1.315   3.360  -0.469  1.00  0.00    -0.442 NA
ATOM     34  C   UNL     1       0.147   3.553  -1.137  1.00  0.00    -0.022 A 
ENDBRANCH  24  26
ENDBRANCH  18  24
ENDBRANCH  16  17
ENDBRANCH   1  16
TORSDOF 8


