REMARK SMILES [NH3+]/C=C(\O)c1ccc(-c2c[nH+]c3ccnn3c2)c2c[n-]nc12
REMARK SMILES IDX 3 1 4 2 2 4 1 5 5 9 6 10 22 11 7 12 21 13 18 14 8 15 20 16
REMARK SMILES IDX 19 17 9 18 17 19 10 20 16 21 11 22 15 23 12 24 14 25 13 26
REMARK H PARENT 4 3 1 6 1 7 1 8 11 27
ROOT
ATOM      1  C   UNL     1      -4.184  -0.126  -1.213  1.00  0.00     0.178 C 
ENDROOT
BRANCH   1   2
ATOM      2  O   UNL     1      -4.891  -1.234  -0.735  1.00  0.00    -0.503 OA
ATOM      3  H   UNL     1      -5.890  -1.353  -0.854  1.00  0.00     0.293 HD
ENDBRANCH   1   2
BRANCH   1   4
ATOM      4  C   UNL     1      -4.814   0.871  -1.865  1.00  0.00     0.265 C 
BRANCH   4   5
ATOM      5  N   UNL     1      -6.223   0.846  -2.124  1.00  0.00    -0.328 N 
ATOM      6  H   UNL     1      -6.492   1.714  -2.640  1.00  0.00     0.350 HD
ATOM      7  H   UNL     1      -6.749   0.816  -1.221  1.00  0.00     0.350 HD
ATOM      8  H   UNL     1      -6.458   0.017  -2.717  1.00  0.00     0.350 HD
ENDBRANCH   4   5
ENDBRANCH   1   4
BRANCH   1   9
ATOM      9  C   UNL     1      -2.720  -0.074  -0.967  1.00  0.00     0.046 A 
ATOM     10  C   UNL     1      -1.821   0.516  -1.888  1.00  0.00     0.015 A 
ATOM     11  C   UNL     1      -2.159  -0.652   0.179  1.00  0.00     0.059 A 
ATOM     12  C   UNL     1      -0.432   0.530  -1.639  1.00  0.00     0.010 A 
ATOM     13  N   UNL     1      -2.795  -1.293   1.177  1.00  0.00    -0.367 NA
ATOM     14  C   UNL     1      -0.812  -0.632   0.421  1.00  0.00    -0.014 A 
ATOM     15  C   UNL     1       0.100  -0.042  -0.464  1.00  0.00    -0.003 A 
ATOM     16  N   UNL     1      -1.874  -1.694   2.046  1.00  0.00    -0.581 NA
ATOM     17  C   UNL     1      -0.653  -1.310   1.610  1.00  0.00    -0.113 A 
BRANCH  15  18
ATOM     18  C   UNL     1       1.557  -0.012  -0.199  1.00  0.00     0.063 A 
ATOM     19  C   UNL     1       2.061   0.394   1.052  1.00  0.00     0.245 A 
ATOM     20  C   UNL     1       2.484  -0.364  -1.211  1.00  0.00     0.210 A 
ATOM     21  N   UNL     1       3.403   0.410   1.223  1.00  0.00    -0.104 N 
ATOM     22  N   UNL     1       3.827  -0.325  -0.968  1.00  0.00    -0.245 N 
ATOM     23  N   UNL     1       4.064   0.758   2.313  1.00  0.00    -0.086 NA
ATOM     24  C   UNL     1       4.258   0.064   0.257  1.00  0.00     0.306 A 
ATOM     25  C   UNL     1       5.381   0.625   2.023  1.00  0.00     0.167 A 
ATOM     26  C   UNL     1       5.549   0.182   0.712  1.00  0.00     0.125 A 
ATOM     27  H   UNL     1       4.508  -0.590  -1.715  1.00  0.00     0.312 HD
ENDBRANCH  15  18
ENDBRANCH   1   9
TORSDOF 5


