REMARK SMILES CC1=N[C@@]2(F)C[C@@H]([C@H]3O[C@@H]3C(=O)c3ccc(F)cc3)CC[C@H]2C1
REMARK SMILES IDX 8 1 9 2 10 3 7 4 2 5 23 6 3 7 22 8 4 9 21 10 6 11 20 12 1 13
REMARK SMILES IDX 5 14 11 15 12 16 13 17 14 18 19 19 15 20 18 21 16 22 17 23
REMARK H PARENT
ROOT
ATOM      1  C   UNL     1       0.669  -1.311   1.047  1.00  0.00     0.159 C 
ATOM      2  O   UNL     1       1.207  -2.589   1.297  1.00  0.00    -0.361 OA
ATOM      3  C   UNL     1      -0.127  -2.379   1.699  1.00  0.00     0.219 C 
ENDROOT
BRANCH   1   4
ATOM      4  C   UNL     1       1.297  -0.238   1.961  1.00  0.00     0.026 C 
ATOM      5  C   UNL     1      -0.573   1.306  -0.778  1.00  0.00     0.014 C 
ATOM      6  C   UNL     1       0.683   2.100  -0.839  1.00  0.00     0.059 C 
ATOM      7  N   UNL     1      -1.028   1.140   0.402  1.00  0.00    -0.255 NA
ATOM      8  C   UNL     1       0.944   2.442   0.640  1.00  0.00     0.055 C 
ATOM      9  C   UNL     1      -0.227   1.779   1.411  1.00  0.00     0.203 C 
ATOM     10  C   UNL     1       2.337   1.994   1.133  1.00  0.00     0.010 C 
ATOM     11  C   UNL     1       0.229   0.757   2.472  1.00  0.00     0.072 C 
ATOM     12  C   UNL     1       2.478   0.465   1.234  1.00  0.00     0.007 C 
ATOM     13  C   UNL     1      -1.242   0.704  -1.974  1.00  0.00     0.061 C 
ATOM     14  F   UNL     1      -0.993   2.754   2.031  1.00  0.00    -0.218 F 
ENDBRANCH   1   4
BRANCH   3  15
ATOM     15  C   UNL     1      -1.093  -3.085   0.792  1.00  0.00     0.194 C 
ATOM     16  O   UNL     1      -0.832  -4.261   0.420  1.00  0.00    -0.291 OA
BRANCH  15  17
ATOM     17  C   UNL     1      -2.336  -2.423   0.332  1.00  0.00     0.021 A 
ATOM     18  C   UNL     1      -2.897  -1.356   1.057  1.00  0.00     0.015 A 
ATOM     19  C   UNL     1      -2.979  -2.861  -0.840  1.00  0.00     0.015 A 
ATOM     20  C   UNL     1      -4.069  -0.734   0.614  1.00  0.00     0.040 A 
ATOM     21  C   UNL     1      -4.152  -2.236  -1.280  1.00  0.00     0.040 A 
ATOM     22  C   UNL     1      -4.697  -1.173  -0.553  1.00  0.00     0.123 A 
ATOM     23  F   UNL     1      -5.845  -0.579  -0.972  1.00  0.00    -0.207 F 
ENDBRANCH  15  17
ENDBRANCH   3  15
TORSDOF 3


