MODEL 1
REMARK VINA RESULT:      -6.5      0.000      0.000
REMARK SMILES C=CC(=O)N1CCC[C@@H](c2ccc3ccc(C)c(F)c3n2)[C@@H]1F
REMARK SMILES IDX 5 1 6 2 7 3 8 4 9 5 22 6 23 7 3 8 4 9 2 10 1 11 10 12 11 13
REMARK SMILES IDX 21 14 12 15 20 16 13 17 18 18 14 19 16 20 15 21 19 22 17 23
REMARK H PARENT
ROOT
ATOM      1  N   UNL     1      43.437 129.608  23.612  1.00  0.00    -0.308 N 
ATOM      2  C   UNL     1      44.176 130.370  24.624  1.00  0.00     0.123 C 
ATOM      3  C   UNL     1      44.847 131.578  23.971  1.00  0.00     0.022 C 
ATOM      4  C   UNL     1      43.809 132.425  23.221  1.00  0.00     0.017 C 
ATOM      5  C   UNL     1      43.028 131.597  22.178  1.00  0.00     0.093 C 
ATOM      6  C   UNL     1      42.426 130.321  22.812  1.00  0.00     0.274 C 
ATOM      7  F   UNL     1      41.368 130.674  23.632  1.00  0.00    -0.223 F 
ENDROOT
BRANCH   1   8
ATOM      8  C   UNL     1      43.802 128.242  23.326  1.00  0.00     0.248 C 
ATOM      9  O   UNL     1      42.982 127.317  23.573  1.00  0.00    -0.270 OA
BRANCH   8  10
ATOM     10  C   UNL     1      45.113 127.877  22.755  1.00  0.00     0.063 C 
ATOM     11  C   UNL     1      45.279 126.845  21.930  1.00  0.00     0.014 C 
ENDBRANCH   8  10
ENDBRANCH   1   8
BRANCH   5  12
ATOM     12  C   UNL     1      43.885 131.306  20.961  1.00  0.00     0.049 A 
ATOM     13  C   UNL     1      45.145 130.706  21.124  1.00  0.00     0.025 A 
ATOM     14  N   UNL     1      43.432 131.577  19.705  1.00  0.00    -0.249 NA
ATOM     15  C   UNL     1      45.921 130.409  20.004  1.00  0.00     0.012 A 
ATOM     16  C   UNL     1      44.169 131.306  18.594  1.00  0.00     0.106 A 
ATOM     17  C   UNL     1      45.440 130.708  18.724  1.00  0.00     0.003 A 
ATOM     18  C   UNL     1      43.671 131.619  17.322  1.00  0.00     0.152 A 
ATOM     19  C   UNL     1      46.197 130.421  17.580  1.00  0.00     0.011 A 
ATOM     20  C   UNL     1      44.436 131.340  16.176  1.00  0.00    -0.013 A 
ATOM     21  C   UNL     1      45.695 130.732  16.313  1.00  0.00     0.007 A 
ATOM     22  F   UNL     1      42.449 132.199  17.199  1.00  0.00    -0.204 F 
ATOM     23  C   UNL     1      43.892 131.658  14.812  1.00  0.00     0.047 C 
ENDBRANCH   5  12
TORSDOF 3
ENDMDL
MODEL 2
REMARK VINA RESULT:      -5.5      2.551      5.947
REMARK SMILES C=CC(=O)N1CCC[C@@H](c2ccc3ccc(C)c(F)c3n2)[C@@H]1F
REMARK SMILES IDX 5 1 6 2 7 3 8 4 9 5 22 6 23 7 3 8 4 9 2 10 1 11 10 12 11 13
REMARK SMILES IDX 21 14 12 15 20 16 13 17 18 18 14 19 16 20 15 21 19 22 17 23
REMARK H PARENT
ROOT
ATOM      1  N   UNL     1      44.879 131.404  20.256  1.00  0.00    -0.308 N 
ATOM      2  C   UNL     1      43.671 132.149  19.886  1.00  0.00     0.123 C 
ATOM      3  C   UNL     1      42.542 131.815  20.861  1.00  0.00     0.022 C 
ATOM      4  C   UNL     1      42.990 132.076  22.306  1.00  0.00     0.017 C 
ATOM      5  C   UNL     1      44.275 131.301  22.666  1.00  0.00     0.093 C 
ATOM      6  C   UNL     1      45.393 131.559  21.627  1.00  0.00     0.274 C 
ATOM      7  F   UNL     1      45.876 132.847  21.787  1.00  0.00    -0.223 F 
ENDROOT
BRANCH   1   8
ATOM      8  C   UNL     1      45.448 130.447  19.339  1.00  0.00     0.248 C 
ATOM      9  O   UNL     1      45.931 129.372  19.786  1.00  0.00    -0.270 OA
BRANCH   8  10
ATOM     10  C   UNL     1      45.496 130.678  17.882  1.00  0.00     0.063 C 
ATOM     11  C   UNL     1      45.948 129.769  17.022  1.00  0.00     0.014 C 
ENDBRANCH   8  10
ENDBRANCH   1   8
BRANCH   5  12
ATOM     12  C   UNL     1      43.984 129.826  22.867  1.00  0.00     0.049 A 
ATOM     13  C   UNL     1      42.728 129.424  23.350  1.00  0.00     0.025 A 
ATOM     14  N   UNL     1      44.910 128.880  22.544  1.00  0.00    -0.249 NA
ATOM     15  C   UNL     1      42.448 128.066  23.506  1.00  0.00     0.012 A 
ATOM     16  C   UNL     1      44.670 127.549  22.693  1.00  0.00     0.106 A 
ATOM     17  C   UNL     1      43.419 127.113  23.180  1.00  0.00     0.003 A 
ATOM     18  C   UNL     1      45.658 126.612  22.366  1.00  0.00     0.152 A 
ATOM     19  C   UNL     1      43.167 125.742  23.326  1.00  0.00     0.011 A 
ATOM     20  C   UNL     1      45.407 125.237  22.523  1.00  0.00    -0.013 A 
ATOM     21  C   UNL     1      44.155 124.810  22.995  1.00  0.00     0.007 A 
ATOM     22  F   UNL     1      46.863 127.034  21.902  1.00  0.00    -0.204 F 
ATOM     23  C   UNL     1      46.461 124.233  22.152  1.00  0.00     0.047 C 
ENDBRANCH   5  12
TORSDOF 3
ENDMDL
MODEL 3
REMARK VINA RESULT:      -4.7      2.483      5.943
REMARK SMILES C=CC(=O)N1CCC[C@@H](c2ccc3ccc(C)c(F)c3n2)[C@@H]1F
REMARK SMILES IDX 5 1 6 2 7 3 8 4 9 5 22 6 23 7 3 8 4 9 2 10 1 11 10 12 11 13
REMARK SMILES IDX 21 14 12 15 20 16 13 17 18 18 14 19 16 20 15 21 19 22 17 23
REMARK H PARENT
ROOT
ATOM      1  N   UNL     1      44.497 131.504  21.586  1.00  0.00    -0.308 N 
ATOM      2  C   UNL     1      43.275 132.254  21.274  1.00  0.00     0.123 C 
ATOM      3  C   UNL     1      42.099 131.669  22.055  1.00  0.00     0.022 C 
ATOM      4  C   UNL     1      42.417 131.639  23.556  1.00  0.00     0.017 C 
ATOM      5  C   UNL     1      43.718 130.865  23.859  1.00  0.00     0.093 C 
ATOM      6  C   UNL     1      44.893 131.388  22.999  1.00  0.00     0.274 C 
ATOM      7  F   UNL     1      45.280 132.634  23.464  1.00  0.00    -0.223 F 
ENDROOT
BRANCH   1   8
ATOM      8  C   UNL     1      45.194 130.791  20.544  1.00  0.00     0.248 C 
ATOM      9  O   UNL     1      45.848 129.753  20.835  1.00  0.00    -0.270 OA
BRANCH   8  10
ATOM     10  C   UNL     1      45.179 131.232  19.136  1.00  0.00     0.063 C 
ATOM     11  C   UNL     1      45.623 130.473  18.137  1.00  0.00     0.014 C 
ENDBRANCH   8  10
ENDBRANCH   1   8
BRANCH   5  12
ATOM     12  C   UNL     1      43.506 129.369  23.724  1.00  0.00     0.049 A 
ATOM     13  C   UNL     1      42.251 128.814  24.021  1.00  0.00     0.025 A 
ATOM     14  N   UNL     1      44.506 128.559  23.276  1.00  0.00    -0.249 NA
ATOM     15  C   UNL     1      42.047 127.443  23.867  1.00  0.00     0.012 A 
ATOM     16  C   UNL     1      44.340 127.218  23.124  1.00  0.00     0.106 A 
ATOM     17  C   UNL     1      43.092 126.628  23.417  1.00  0.00     0.003 A 
ATOM     18  C   UNL     1      45.402 126.420  22.677  1.00  0.00     0.152 A 
ATOM     19  C   UNL     1      42.917 125.248  23.253  1.00  0.00     0.011 A 
ATOM     20  C   UNL     1      45.227 125.034  22.523  1.00  0.00    -0.013 A 
ATOM     21  C   UNL     1      43.978 124.457  22.804  1.00  0.00     0.007 A 
ATOM     22  F   UNL     1      46.604 126.989  22.399  1.00  0.00    -0.204 F 
ATOM     23  C   UNL     1      46.360 124.183  22.025  1.00  0.00     0.047 C 
ENDBRANCH   5  12
TORSDOF 3
ENDMDL
MODEL 4
REMARK VINA RESULT:      -4.6      3.562      6.897
REMARK SMILES C=CC(=O)N1CCC[C@@H](c2ccc3ccc(C)c(F)c3n2)[C@@H]1F
REMARK SMILES IDX 5 1 6 2 7 3 8 4 9 5 22 6 23 7 3 8 4 9 2 10 1 11 10 12 11 13
REMARK SMILES IDX 21 14 12 15 20 16 13 17 18 18 14 19 16 20 15 21 19 22 17 23
REMARK H PARENT
ROOT
ATOM      1  N   UNL     1      43.800 131.230  22.200  1.00  0.00    -0.308 N 
ATOM      2  C   UNL     1      44.307 132.021  23.327  1.00  0.00     0.123 C 
ATOM      3  C   UNL     1      44.148 131.229  24.624  1.00  0.00     0.022 C 
ATOM      4  C   UNL     1      44.827 129.858  24.499  1.00  0.00     0.017 C 
ATOM      5  C   UNL     1      44.296 129.053  23.294  1.00  0.00     0.093 C 
ATOM      6  C   UNL     1      44.363 129.886  21.992  1.00  0.00     0.274 C 
ATOM      7  F   UNL     1      45.684 130.005  21.594  1.00  0.00    -0.223 F 
ENDROOT
BRANCH   1   8
ATOM      8  C   UNL     1      42.687 131.713  21.420  1.00  0.00     0.248 C 
ATOM      9  O   UNL     1      41.764 132.356  21.991  1.00  0.00    -0.270 OA
BRANCH   8  10
ATOM     10  C   UNL     1      42.576 131.479  19.968  1.00  0.00     0.063 C 
ATOM     11  C   UNL     1      42.008 132.350  19.137  1.00  0.00     0.014 C 
ENDBRANCH   8  10
ENDBRANCH   1   8
BRANCH   5  12
ATOM     12  C   UNL     1      42.909 128.505  23.574  1.00  0.00     0.049 A 
ATOM     13  C   UNL     1      41.922 129.348  24.109  1.00  0.00     0.025 A 
ATOM     14  N   UNL     1      42.594 127.214  23.273  1.00  0.00    -0.249 NA
ATOM     15  C   UNL     1      40.638 128.853  24.337  1.00  0.00     0.012 A 
ATOM     16  C   UNL     1      41.354 126.700  23.493  1.00  0.00     0.106 A 
ATOM     17  C   UNL     1      40.340 127.520  24.032  1.00  0.00     0.003 A 
ATOM     18  C   UNL     1      41.079 125.360  23.185  1.00  0.00     0.152 A 
ATOM     19  C   UNL     1      39.060 126.994  24.251  1.00  0.00     0.011 A 
ATOM     20  C   UNL     1      39.797 124.832  23.415  1.00  0.00    -0.013 A 
ATOM     21  C   UNL     1      38.790 125.659  23.940  1.00  0.00     0.007 A 
ATOM     22  F   UNL     1      42.057 124.572  22.670  1.00  0.00    -0.204 F 
ATOM     23  C   UNL     1      39.498 123.402  23.066  1.00  0.00     0.047 C 
ENDBRANCH   5  12
TORSDOF 3
ENDMDL
MODEL 5
REMARK VINA RESULT:      -4.4      0.981      1.140
REMARK SMILES C=CC(=O)N1CCC[C@@H](c2ccc3ccc(C)c(F)c3n2)[C@@H]1F
REMARK SMILES IDX 5 1 6 2 7 3 8 4 9 5 22 6 23 7 3 8 4 9 2 10 1 11 10 12 11 13
REMARK SMILES IDX 21 14 12 15 20 16 13 17 18 18 14 19 16 20 15 21 19 22 17 23
REMARK H PARENT
ROOT
ATOM      1  N   UNL     1      43.501 130.282  23.750  1.00  0.00    -0.308 N 
ATOM      2  C   UNL     1      44.317 131.136  24.620  1.00  0.00     0.123 C 
ATOM      3  C   UNL     1      45.013 132.208  23.782  1.00  0.00     0.022 C 
ATOM      4  C   UNL     1      43.983 132.998  22.963  1.00  0.00     0.017 C 
ATOM      5  C   UNL     1      43.119 132.078  22.073  1.00  0.00     0.093 C 
ATOM      6  C   UNL     1      42.489 130.931  22.899  1.00  0.00     0.274 C 
ATOM      7  F   UNL     1      41.485 131.445  23.702  1.00  0.00    -0.223 F 
ENDROOT
BRANCH   1   8
ATOM      8  C   UNL     1      43.791 128.874  23.640  1.00  0.00     0.248 C 
ATOM      9  O   UNL     1      44.949 128.457  23.912  1.00  0.00    -0.270 OA
BRANCH   8  10
ATOM     10  C   UNL     1      42.779 127.888  23.212  1.00  0.00     0.063 C 
ATOM     11  C   UNL     1      42.118 127.114  24.069  1.00  0.00     0.014 C 
ENDBRANCH   8  10
ENDBRANCH   1   8
BRANCH   5  12
ATOM     12  C   UNL     1      43.908 131.581  20.877  1.00  0.00     0.049 A 
ATOM     13  C   UNL     1      45.070 130.818  21.077  1.00  0.00     0.025 A 
ATOM     14  N   UNL     1      43.481 131.827  19.606  1.00  0.00    -0.249 NA
ATOM     15  C   UNL     1      45.779 130.334  19.977  1.00  0.00     0.012 A 
ATOM     16  C   UNL     1      44.155 131.376  18.514  1.00  0.00     0.106 A 
ATOM     17  C   UNL     1      45.328 130.611  18.681  1.00  0.00     0.003 A 
ATOM     18  C   UNL     1      43.688 131.669  17.225  1.00  0.00     0.152 A 
ATOM     19  C   UNL     1      46.019 130.138  17.557  1.00  0.00     0.011 A 
ATOM     20  C   UNL     1      44.388 131.203  16.099  1.00  0.00    -0.013 A 
ATOM     21  C   UNL     1      45.548 130.430  16.274  1.00  0.00     0.007 A 
ATOM     22  F   UNL     1      42.561 132.410  17.067  1.00  0.00    -0.204 F 
ATOM     23  C   UNL     1      43.876 131.500  14.719  1.00  0.00     0.047 C 
ENDBRANCH   5  12
TORSDOF 3
ENDMDL
MODEL 6
REMARK VINA RESULT:      -4.2      3.539      6.142
REMARK SMILES C=CC(=O)N1CCC[C@@H](c2ccc3ccc(C)c(F)c3n2)[C@@H]1F
REMARK SMILES IDX 5 1 6 2 7 3 8 4 9 5 22 6 23 7 3 8 4 9 2 10 1 11 10 12 11 13
REMARK SMILES IDX 21 14 12 15 20 16 13 17 18 18 14 19 16 20 15 21 19 22 17 23
REMARK H PARENT
ROOT
ATOM      1  N   UNL     1      44.683 123.618  23.277  1.00  0.00    -0.308 N 
ATOM      2  C   UNL     1      45.224 123.313  21.948  1.00  0.00     0.123 C 
ATOM      3  C   UNL     1      45.788 124.586  21.317  1.00  0.00     0.022 C 
ATOM      4  C   UNL     1      46.820 125.233  22.250  1.00  0.00     0.017 C 
ATOM      5  C   UNL     1      46.236 125.524  23.649  1.00  0.00     0.093 C 
ATOM      6  C   UNL     1      45.577 124.262  24.254  1.00  0.00     0.274 C 
ATOM      7  F   UNL     1      46.564 123.365  24.625  1.00  0.00    -0.223 F 
ENDROOT
BRANCH   1   8
ATOM      8  C   UNL     1      43.281 123.419  23.551  1.00  0.00     0.248 C 
ATOM      9  O   UNL     1      42.630 122.581  22.868  1.00  0.00    -0.270 OA
BRANCH   8  10
ATOM     10  C   UNL     1      42.566 124.166  24.603  1.00  0.00     0.063 C 
ATOM     11  C   UNL     1      41.617 125.059  24.335  1.00  0.00     0.014 C 
ENDBRANCH   8  10
ENDBRANCH   1   8
BRANCH   5  12
ATOM     12  C   UNL     1      45.302 126.719  23.612  1.00  0.00     0.049 A 
ATOM     13  C   UNL     1      44.297 126.848  24.584  1.00  0.00     0.025 A 
ATOM     14  N   UNL     1      45.453 127.695  22.673  1.00  0.00    -0.249 NA
ATOM     15  C   UNL     1      43.458 127.963  24.569  1.00  0.00     0.012 A 
ATOM     16  C   UNL     1      44.645 128.789  22.627  1.00  0.00     0.106 A 
ATOM     17  C   UNL     1      43.623 128.946  23.587  1.00  0.00     0.003 A 
ATOM     18  C   UNL     1      44.824 129.759  21.632  1.00  0.00     0.152 A 
ATOM     19  C   UNL     1      42.795 130.076  23.546  1.00  0.00     0.011 A 
ATOM     20  C   UNL     1      43.986 130.887  21.586  1.00  0.00    -0.013 A 
ATOM     21  C   UNL     1      42.980 131.043  22.554  1.00  0.00     0.007 A 
ATOM     22  F   UNL     1      45.806 129.604  20.706  1.00  0.00    -0.204 F 
ATOM     23  C   UNL     1      44.193 131.935  20.531  1.00  0.00     0.047 C 
ENDBRANCH   5  12
TORSDOF 3
ENDMDL
MODEL 7
REMARK VINA RESULT:      -4.2      2.838      6.854
REMARK SMILES C=CC(=O)N1CCC[C@@H](c2ccc3ccc(C)c(F)c3n2)[C@@H]1F
REMARK SMILES IDX 5 1 6 2 7 3 8 4 9 5 22 6 23 7 3 8 4 9 2 10 1 11 10 12 11 13
REMARK SMILES IDX 21 14 12 15 20 16 13 17 18 18 14 19 16 20 15 21 19 22 17 23
REMARK H PARENT
ROOT
ATOM      1  N   UNL     1      45.740 130.608  14.996  1.00  0.00    -0.308 N 
ATOM      2  C   UNL     1      44.417 130.610  14.363  1.00  0.00     0.123 C 
ATOM      3  C   UNL     1      43.357 131.016  15.386  1.00  0.00     0.022 C 
ATOM      4  C   UNL     1      43.719 132.364  16.024  1.00  0.00     0.017 C 
ATOM      5  C   UNL     1      45.124 132.347  16.664  1.00  0.00     0.093 C 
ATOM      6  C   UNL     1      46.189 131.843  15.661  1.00  0.00     0.274 C 
ATOM      7  F   UNL     1      46.410 132.818  14.702  1.00  0.00    -0.223 F 
ENDROOT
BRANCH   1   8
ATOM      8  C   UNL     1      46.500 129.385  15.079  1.00  0.00     0.248 C 
ATOM      9  O   UNL     1      46.053 128.423  15.761  1.00  0.00    -0.270 OA
BRANCH   8  10
ATOM     10  C   UNL     1      47.797 129.211  14.397  1.00  0.00     0.063 C 
ATOM     11  C   UNL     1      48.157 129.930  13.336  1.00  0.00     0.014 C 
ENDBRANCH   8  10
ENDBRANCH   1   8
BRANCH   5  12
ATOM     12  C   UNL     1      45.120 131.566  17.964  1.00  0.00     0.049 A 
ATOM     13  C   UNL     1      46.036 130.518  18.150  1.00  0.00     0.025 A 
ATOM     14  N   UNL     1      44.268 131.895  18.976  1.00  0.00    -0.249 NA
ATOM     15  C   UNL     1      46.055 129.820  19.358  1.00  0.00     0.012 A 
ATOM     16  C   UNL     1      44.256 131.228  20.161  1.00  0.00     0.106 A 
ATOM     17  C   UNL     1      45.161 130.167  20.377  1.00  0.00     0.003 A 
ATOM     18  C   UNL     1      43.349 131.589  21.167  1.00  0.00     0.152 A 
ATOM     19  C   UNL     1      45.156 129.484  21.601  1.00  0.00     0.011 A 
ATOM     20  C   UNL     1      43.339 130.896  22.389  1.00  0.00    -0.013 A 
ATOM     21  C   UNL     1      44.252 129.850  22.602  1.00  0.00     0.007 A 
ATOM     22  F   UNL     1      42.476 132.607  20.954  1.00  0.00    -0.204 F 
ATOM     23  C   UNL     1      42.380 131.298  23.473  1.00  0.00     0.047 C 
ENDBRANCH   5  12
TORSDOF 3
ENDMDL
MODEL 8
REMARK VINA RESULT:      -4.0      2.444      3.773
REMARK SMILES C=CC(=O)N1CCC[C@@H](c2ccc3ccc(C)c(F)c3n2)[C@@H]1F
REMARK SMILES IDX 5 1 6 2 7 3 8 4 9 5 22 6 23 7 3 8 4 9 2 10 1 11 10 12 11 13
REMARK SMILES IDX 21 14 12 15 20 16 13 17 18 18 14 19 16 20 15 21 19 22 17 23
REMARK H PARENT
ROOT
ATOM      1  N   UNL     1      43.995 131.282  22.102  1.00  0.00    -0.308 N 
ATOM      2  C   UNL     1      44.165 129.888  22.525  1.00  0.00     0.123 C 
ATOM      3  C   UNL     1      44.804 129.081  21.394  1.00  0.00     0.022 C 
ATOM      4  C   UNL     1      46.118 129.737  20.947  1.00  0.00     0.017 C 
ATOM      5  C   UNL     1      45.920 131.209  20.529  1.00  0.00     0.093 C 
ATOM      6  C   UNL     1      45.185 132.010  21.631  1.00  0.00     0.274 C 
ATOM      7  F   UNL     1      46.044 132.211  22.698  1.00  0.00    -0.223 F 
ENDROOT
BRANCH   1   8
ATOM      8  C   UNL     1      42.675 131.858  22.021  1.00  0.00     0.248 C 
ATOM      9  O   UNL     1      42.281 132.354  20.931  1.00  0.00    -0.270 OA
BRANCH   8  10
ATOM     10  C   UNL     1      41.758 131.898  23.176  1.00  0.00     0.063 C 
ATOM     11  C   UNL     1      42.184 131.988  24.434  1.00  0.00     0.014 C 
ENDBRANCH   8  10
ENDBRANCH   1   8
BRANCH   5  12
ATOM     12  C   UNL     1      45.240 131.305  19.176  1.00  0.00     0.049 A 
ATOM     13  C   UNL     1      43.890 131.682  19.100  1.00  0.00     0.025 A 
ATOM     14  N   UNL     1      45.935 131.072  18.026  1.00  0.00    -0.249 NA
ATOM     15  C   UNL     1      43.273 131.800  17.854  1.00  0.00     0.012 A 
ATOM     16  C   UNL     1      45.359 131.171  16.798  1.00  0.00     0.106 A 
ATOM     17  C   UNL     1      44.002 131.544  16.688  1.00  0.00     0.003 A 
ATOM     18  C   UNL     1      46.107 130.904  15.643  1.00  0.00     0.152 A 
ATOM     19  C   UNL     1      43.410 131.654  15.423  1.00  0.00     0.011 A 
ATOM     20  C   UNL     1      45.507 131.006  14.376  1.00  0.00    -0.013 A 
ATOM     21  C   UNL     1      44.160 131.391  14.274  1.00  0.00     0.007 A 
ATOM     22  F   UNL     1      47.411 130.541  15.752  1.00  0.00    -0.204 F 
ATOM     23  C   UNL     1      46.316 130.739  13.138  1.00  0.00     0.047 C 
ENDBRANCH   5  12
TORSDOF 3
ENDMDL
MODEL 9
REMARK VINA RESULT:      -4.0      2.400      3.833
REMARK SMILES C=CC(=O)N1CCC[C@@H](c2ccc3ccc(C)c(F)c3n2)[C@@H]1F
REMARK SMILES IDX 5 1 6 2 7 3 8 4 9 5 22 6 23 7 3 8 4 9 2 10 1 11 10 12 11 13
REMARK SMILES IDX 21 14 12 15 20 16 13 17 18 18 14 19 16 20 15 21 19 22 17 23
REMARK H PARENT
ROOT
ATOM      1  N   UNL     1      43.888 131.332  22.178  1.00  0.00    -0.308 N 
ATOM      2  C   UNL     1      43.993 129.937  22.619  1.00  0.00     0.123 C 
ATOM      3  C   UNL     1      44.632 129.094  21.515  1.00  0.00     0.022 C 
ATOM      4  C   UNL     1      45.981 129.696  21.097  1.00  0.00     0.017 C 
ATOM      5  C   UNL     1      45.850 131.170  20.659  1.00  0.00     0.093 C 
ATOM      6  C   UNL     1      45.116 132.010  21.732  1.00  0.00     0.274 C 
ATOM      7  F   UNL     1      45.953 132.191  22.820  1.00  0.00    -0.223 F 
ENDROOT
BRANCH   1   8
ATOM      8  C   UNL     1      42.593 131.955  22.055  1.00  0.00     0.248 C 
ATOM      9  O   UNL     1      41.840 132.023  23.065  1.00  0.00    -0.270 OA
BRANCH   8  10
ATOM     10  C   UNL     1      42.102 132.518  20.783  1.00  0.00     0.063 C 
ATOM     11  C   UNL     1      41.157 133.454  20.724  1.00  0.00     0.014 C 
ENDBRANCH   8  10
ENDBRANCH   1   8
BRANCH   5  12
ATOM     12  C   UNL     1      45.211 131.276  19.287  1.00  0.00     0.049 A 
ATOM     13  C   UNL     1      43.879 131.704  19.170  1.00  0.00     0.025 A 
ATOM     14  N   UNL     1      45.926 131.003  18.159  1.00  0.00    -0.249 NA
ATOM     15  C   UNL     1      43.300 131.831  17.907  1.00  0.00     0.012 A 
ATOM     16  C   UNL     1      45.388 131.110  16.915  1.00  0.00     0.106 A 
ATOM     17  C   UNL     1      44.051 131.533  16.764  1.00  0.00     0.003 A 
ATOM     18  C   UNL     1      46.156 130.801  15.784  1.00  0.00     0.152 A 
ATOM     19  C   UNL     1      43.497 131.652  15.482  1.00  0.00     0.011 A 
ATOM     20  C   UNL     1      45.595 130.910  14.499  1.00  0.00    -0.013 A 
ATOM     21  C   UNL     1      44.267 131.346  14.356  1.00  0.00     0.007 A 
ATOM     22  F   UNL     1      47.441 130.389  15.932  1.00  0.00    -0.204 F 
ATOM     23  C   UNL     1      46.425 130.599  13.287  1.00  0.00     0.047 C 
ENDBRANCH   5  12
TORSDOF 3
ENDMDL


