REMARK SMILES O=C=Nc1c(/C(O)=N/Cc2ccc[nH]2)ccc2cc[nH]c12
REMARK SMILES IDX 6 1 7 2 8 4 9 5 10 6 11 7 14 8 12 9 13 10 5 12 15 13 4 14
REMARK SMILES IDX 16 15 21 16 17 17 20 18 18 19 19 20 3 22 2 23 1 24
REMARK H PARENT 7 3 14 11 20 21
ROOT
ATOM      1  C   UNL     1      -0.027  -0.970   0.015  1.00  0.00     0.216 C 
ENDROOT
BRANCH   1   2
ATOM      2  O   UNL     1       1.042  -1.267   0.867  1.00  0.00    -0.493 OA
ATOM      3  H   UNL     1       1.813  -1.867   0.607  1.00  0.00     0.295 HD
ENDBRANCH   1   2
BRANCH   1   4
ATOM      4  N   UNL     1      -0.090  -1.460  -1.192  1.00  0.00    -0.245 NA
BRANCH   4   5
ATOM      5  C   UNL     1       0.906  -2.318  -1.828  1.00  0.00     0.199 C 
BRANCH   5   6
ATOM      6  C   UNL     1       2.142  -1.536  -2.162  1.00  0.00     0.037 A 
ATOM      7  C   UNL     1       2.178  -0.371  -2.904  1.00  0.00     0.025 A 
ATOM      8  N   UNL     1       3.386  -1.900  -1.802  1.00  0.00    -0.363 N 
ATOM      9  C   UNL     1       3.507  -0.009  -2.986  1.00  0.00     0.020 A 
ATOM     10  C   UNL     1       4.222  -0.970  -2.298  1.00  0.00     0.082 A 
ATOM     11  H   UNL     1       3.657  -2.741  -1.245  1.00  0.00     0.166 HD
ENDBRANCH   5   6
ENDBRANCH   4   5
ENDBRANCH   1   4
BRANCH   1  12
ATOM     12  C   UNL     1      -1.116  -0.094   0.518  1.00  0.00     0.065 A 
ATOM     13  C   UNL     1      -1.337  -0.040   1.919  1.00  0.00     0.017 A 
ATOM     14  C   UNL     1      -1.939   0.679  -0.357  1.00  0.00     0.113 A 
ATOM     15  C   UNL     1      -2.352   0.756   2.464  1.00  0.00     0.011 A 
ATOM     16  C   UNL     1      -2.938   1.486   0.235  1.00  0.00     0.073 A 
ATOM     17  C   UNL     1      -3.130   1.506   1.594  1.00  0.00     0.002 A 
ATOM     18  N   UNL     1      -3.779   2.362  -0.355  1.00  0.00    -0.359 N 
ATOM     19  C   UNL     1      -4.138   2.402   1.870  1.00  0.00     0.028 A 
ATOM     20  C   UNL     1      -4.513   2.913   0.637  1.00  0.00     0.083 A 
ATOM     21  H   UNL     1      -3.850   2.620  -1.361  1.00  0.00     0.166 HD
BRANCH  14  22
ATOM     22  N   UNL     1      -1.694   0.651  -1.775  1.00  0.00    -0.165 NA
BRANCH  22  23
ATOM     23  C   UNL     1      -2.572   0.870  -2.670  1.00  0.00     0.240 C 
ATOM     24  O   UNL     1      -3.423   1.080  -3.543  1.00  0.00    -0.211 OA
ENDBRANCH  22  23
ENDBRANCH  14  22
ENDBRANCH   1  12
TORSDOF 7


