MODEL 1
REMARK VINA RESULT:     -10.6      0.000      0.000
REMARK SMILES c1cc2c(c([NH2+]c3ccc4[nH]ccc4c3)c1)CCC2
REMARK SMILES IDX 7 1 8 2 9 3 10 4 11 5 12 6 13 7 14 8 15 9 6 11 5 14 1 15
REMARK SMILES IDX 2 16 16 17 3 18 4 19 19 20 17 21 18 22
REMARK H PARENT 11 10 6 12 6 13
ROOT
ATOM      1  C   UNL     1      45.021 131.058  16.226  1.00  0.00     0.135 A 
ATOM      2  C   UNL     1      45.114 129.642  16.317  1.00  0.00     0.070 A 
ATOM      3  C   UNL     1      46.012 128.926  15.506  1.00  0.00     0.033 A 
ATOM      4  C   UNL     1      46.802 129.646  14.614  1.00  0.00     0.046 A 
ATOM      5  N   UNL     1      47.714 129.161  13.755  1.00  0.00    -0.361 N 
ATOM      6  C   UNL     1      48.215 130.237  13.104  1.00  0.00     0.083 A 
ATOM      7  C   UNL     1      47.616 131.409  13.553  1.00  0.00     0.028 A 
ATOM      8  C   UNL     1      46.718 131.008  14.517  1.00  0.00     0.005 A 
ATOM      9  C   UNL     1      45.841 131.751  15.304  1.00  0.00     0.078 A 
ATOM     10  H   UNL     1      47.983 128.162  13.615  1.00  0.00     0.166 HD
ENDROOT
BRANCH   1  11
ATOM     11  N   UNL     1      44.077 131.780  17.044  1.00  0.00    -0.281 N 
ATOM     12  H   UNL     1      43.106 131.494  16.784  1.00  0.00     0.358 HD
ATOM     13  H   UNL     1      44.146 132.808  16.858  1.00  0.00     0.358 HD
BRANCH  11  14
ATOM     14  C   UNL     1      44.346 131.539  18.443  1.00  0.00     0.138 A 
ATOM     15  C   UNL     1      45.819 130.670  20.193  1.00  0.00     0.006 A 
ATOM     16  C   UNL     1      44.894 131.047  21.174  1.00  0.00     0.004 A 
ATOM     17  C   UNL     1      45.551 130.916  18.837  1.00  0.00     0.068 A 
ATOM     18  C   UNL     1      43.709 131.669  20.778  1.00  0.00    -0.039 A 
ATOM     19  C   UNL     1      43.435 131.913  19.453  1.00  0.00     0.017 A 
ATOM     20  C   UNL     1      42.640 132.157  21.679  1.00  0.00     0.036 C 
ATOM     21  C   UNL     1      42.138 132.621  19.293  1.00  0.00     0.042 C 
ATOM     22  C   UNL     1      41.590 132.753  20.726  1.00  0.00     0.010 C 
ENDBRANCH  11  14
ENDBRANCH   1  11
TORSDOF 2
ENDMDL
MODEL 2
REMARK VINA RESULT:      -9.4      1.263      2.435
REMARK SMILES c1cc2c(c([NH2+]c3ccc4[nH]ccc4c3)c1)CCC2
REMARK SMILES IDX 7 1 8 2 9 3 10 4 11 5 12 6 13 7 14 8 15 9 6 11 5 14 1 15
REMARK SMILES IDX 2 16 16 17 3 18 4 19 19 20 17 21 18 22
REMARK H PARENT 11 10 6 12 6 13
ROOT
ATOM      1  C   UNL     1      45.916 130.747  17.284  1.00  0.00     0.135 A 
ATOM      2  C   UNL     1      45.583 132.011  16.724  1.00  0.00     0.070 A 
ATOM      3  C   UNL     1      45.922 132.321  15.394  1.00  0.00     0.033 A 
ATOM      4  C   UNL     1      46.593 131.354  14.650  1.00  0.00     0.046 A 
ATOM      5  N   UNL     1      47.008 131.446  13.376  1.00  0.00    -0.361 N 
ATOM      6  C   UNL     1      47.607 130.265  13.097  1.00  0.00     0.083 A 
ATOM      7  C   UNL     1      47.572 129.421  14.202  1.00  0.00     0.028 A 
ATOM      8  C   UNL     1      46.920 130.136  15.181  1.00  0.00     0.005 A 
ATOM      9  C   UNL     1      46.600 129.794  16.493  1.00  0.00     0.078 A 
ATOM     10  H   UNL     1      46.893 132.259  12.731  1.00  0.00     0.166 HD
ENDROOT
BRANCH   1  11
ATOM     11  N   UNL     1      45.587 130.449  18.658  1.00  0.00    -0.281 N 
ATOM     12  H   UNL     1      46.382 130.735  19.272  1.00  0.00     0.358 HD
ATOM     13  H   UNL     1      45.463 129.418  18.787  1.00  0.00     0.358 HD
BRANCH  11  14
ATOM     14  C   UNL     1      44.361 131.117  19.029  1.00  0.00     0.138 A 
ATOM     15  C   UNL     1      42.278 132.229  18.383  1.00  0.00     0.006 A 
ATOM     16  C   UNL     1      41.958 132.435  19.731  1.00  0.00     0.004 A 
ATOM     17  C   UNL     1      43.468 131.572  18.033  1.00  0.00     0.068 A 
ATOM     18  C   UNL     1      42.839 131.976  20.710  1.00  0.00    -0.039 A 
ATOM     19  C   UNL     1      44.009 131.334  20.379  1.00  0.00     0.017 A 
ATOM     20  C   UNL     1      42.645 132.083  22.174  1.00  0.00     0.036 C 
ATOM     21  C   UNL     1      44.751 130.907  21.593  1.00  0.00     0.042 C 
ATOM     22  C   UNL     1      43.899 131.419  22.768  1.00  0.00     0.010 C 
ENDBRANCH  11  14
ENDBRANCH   1  11
TORSDOF 2
ENDMDL
MODEL 3
REMARK VINA RESULT:      -8.4      0.690      1.468
REMARK SMILES c1cc2c(c([NH2+]c3ccc4[nH]ccc4c3)c1)CCC2
REMARK SMILES IDX 7 1 8 2 9 3 10 4 11 5 12 6 13 7 14 8 15 9 6 11 5 14 1 15
REMARK SMILES IDX 2 16 16 17 3 18 4 19 19 20 17 21 18 22
REMARK H PARENT 11 10 6 12 6 13
ROOT
ATOM      1  C   UNL     1      44.843 131.417  16.210  1.00  0.00     0.135 A 
ATOM      2  C   UNL     1      45.524 132.531  15.646  1.00  0.00     0.070 A 
ATOM      3  C   UNL     1      46.610 132.344  14.772  1.00  0.00     0.033 A 
ATOM      4  C   UNL     1      46.995 131.038  14.481  1.00  0.00     0.046 A 
ATOM      5  N   UNL     1      47.998 130.642  13.680  1.00  0.00    -0.361 N 
ATOM      6  C   UNL     1      47.984 129.289  13.714  1.00  0.00     0.083 A 
ATOM      7  C   UNL     1      46.966 128.827  14.541  1.00  0.00     0.028 A 
ATOM      8  C   UNL     1      46.348 129.960  15.020  1.00  0.00     0.005 A 
ATOM      9  C   UNL     1      45.269 130.106  15.888  1.00  0.00     0.078 A 
ATOM     10  H   UNL     1      48.655 131.249  13.142  1.00  0.00     0.166 HD
ENDROOT
BRANCH   1  11
ATOM     11  N   UNL     1      43.747 131.620  17.126  1.00  0.00    -0.281 N 
ATOM     12  H   UNL     1      42.966 130.972  16.878  1.00  0.00     0.358 HD
ATOM     13  H   UNL     1      43.371 132.593  17.033  1.00  0.00     0.358 HD
BRANCH  11  14
ATOM     14  C   UNL     1      44.194 131.419  18.486  1.00  0.00     0.138 A 
ATOM     15  C   UNL     1      45.883 130.607  20.059  1.00  0.00     0.006 A 
ATOM     16  C   UNL     1      45.086 131.007  21.138  1.00  0.00     0.004 A 
ATOM     17  C   UNL     1      45.443 130.813  18.742  1.00  0.00     0.068 A 
ATOM     18  C   UNL     1      43.856 131.613  20.879  1.00  0.00    -0.039 A 
ATOM     19  C   UNL     1      43.415 131.818  19.593  1.00  0.00     0.017 A 
ATOM     20  C   UNL     1      42.906 132.122  21.894  1.00  0.00     0.036 C 
ATOM     21  C   UNL     1      42.103 132.515  19.579  1.00  0.00     0.042 C 
ATOM     22  C   UNL     1      41.739 132.687  21.066  1.00  0.00     0.010 C 
ENDBRANCH  11  14
ENDBRANCH   1  11
TORSDOF 2
ENDMDL
MODEL 4
REMARK VINA RESULT:      -8.3      2.596      4.902
REMARK SMILES c1cc2c(c([NH2+]c3ccc4[nH]ccc4c3)c1)CCC2
REMARK SMILES IDX 7 1 8 2 9 3 10 4 11 5 12 6 13 7 14 8 15 9 6 11 5 14 1 15
REMARK SMILES IDX 2 16 16 17 3 18 4 19 19 20 17 21 18 22
REMARK H PARENT 11 10 6 12 6 13
ROOT
ATOM      1  C   UNL     1      44.690 131.446  20.422  1.00  0.00     0.135 A 
ATOM      2  C   UNL     1      43.348 131.847  20.174  1.00  0.00     0.070 A 
ATOM      3  C   UNL     1      42.860 131.954  18.860  1.00  0.00     0.033 A 
ATOM      4  C   UNL     1      43.730 131.656  17.814  1.00  0.00     0.046 A 
ATOM      5  N   UNL     1      43.469 131.696  16.498  1.00  0.00    -0.361 N 
ATOM      6  C   UNL     1      44.618 131.329  15.883  1.00  0.00     0.083 A 
ATOM      7  C   UNL     1      45.612 131.056  16.817  1.00  0.00     0.028 A 
ATOM      8  C   UNL     1      45.023 131.271  18.043  1.00  0.00     0.005 A 
ATOM      9  C   UNL     1      45.541 131.154  19.331  1.00  0.00     0.078 A 
ATOM     10  H   UNL     1      42.568 131.955  16.039  1.00  0.00     0.166 HD
ENDROOT
BRANCH   1  11
ATOM     11  N   UNL     1      45.188 131.366  21.774  1.00  0.00    -0.281 N 
ATOM     12  H   UNL     1      45.426 132.326  22.111  1.00  0.00     0.358 HD
ATOM     13  H   UNL     1      46.075 130.810  21.803  1.00  0.00     0.358 HD
BRANCH  11  14
ATOM     14  C   UNL     1      44.210 130.730  22.626  1.00  0.00     0.138 A 
ATOM     15  C   UNL     1      42.277 130.897  24.118  1.00  0.00     0.006 A 
ATOM     16  C   UNL     1      42.288 129.510  24.306  1.00  0.00     0.004 A 
ATOM     17  C   UNL     1      43.228 131.505  23.283  1.00  0.00     0.068 A 
ATOM     18  C   UNL     1      43.256 128.749  23.649  1.00  0.00    -0.039 A 
ATOM     19  C   UNL     1      44.193 129.333  22.830  1.00  0.00     0.017 A 
ATOM     20  C   UNL     1      43.394 127.276  23.710  1.00  0.00     0.036 C 
ATOM     21  C   UNL     1      45.081 128.313  22.215  1.00  0.00     0.042 C 
ATOM     22  C   UNL     1      44.601 126.975  22.805  1.00  0.00     0.010 C 
ENDBRANCH  11  14
ENDBRANCH   1  11
TORSDOF 2
ENDMDL
MODEL 5
REMARK VINA RESULT:      -8.2      3.269      5.788
REMARK SMILES c1cc2c(c([NH2+]c3ccc4[nH]ccc4c3)c1)CCC2
REMARK SMILES IDX 7 1 8 2 9 3 10 4 11 5 12 6 13 7 14 8 15 9 6 11 5 14 1 15
REMARK SMILES IDX 2 16 16 17 3 18 4 19 19 20 17 21 18 22
REMARK H PARENT 11 10 6 12 6 13
ROOT
ATOM      1  C   UNL     1      44.202 131.166  21.500  1.00  0.00     0.135 A 
ATOM      2  C   UNL     1      42.930 131.694  21.145  1.00  0.00     0.070 A 
ATOM      3  C   UNL     1      42.617 131.977  19.803  1.00  0.00     0.033 A 
ATOM      4  C   UNL     1      43.590 131.725  18.840  1.00  0.00     0.046 A 
ATOM      5  N   UNL     1      43.498 131.925  17.515  1.00  0.00    -0.361 N 
ATOM      6  C   UNL     1      44.689 131.538  17.001  1.00  0.00     0.083 A 
ATOM      7  C   UNL     1      45.539 131.092  18.007  1.00  0.00     0.028 A 
ATOM      8  C   UNL     1      44.817 131.220  19.172  1.00  0.00     0.005 A 
ATOM      9  C   UNL     1      45.162 130.928  20.489  1.00  0.00     0.078 A 
ATOM     10  H   UNL     1      42.679 132.300  16.987  1.00  0.00     0.166 HD
ENDROOT
BRANCH   1  11
ATOM     11  N   UNL     1      44.521 130.905  22.883  1.00  0.00    -0.281 N 
ATOM     12  H   UNL     1      44.377 131.777  23.441  1.00  0.00     0.358 HD
ATOM     13  H   UNL     1      45.532 130.650  22.981  1.00  0.00     0.358 HD
BRANCH  11  14
ATOM     14  C   UNL     1      43.714 129.815  23.381  1.00  0.00     0.138 A 
ATOM     15  C   UNL     1      41.748 129.029  24.609  1.00  0.00     0.006 A 
ATOM     16  C   UNL     1      42.120 127.700  24.374  1.00  0.00     0.004 A 
ATOM     17  C   UNL     1      42.536 130.081  24.114  1.00  0.00     0.068 A 
ATOM     18  C   UNL     1      43.280 127.444  23.643  1.00  0.00    -0.039 A 
ATOM     19  C   UNL     1      44.061 128.466  23.156  1.00  0.00     0.017 A 
ATOM     20  C   UNL     1      43.803 126.107  23.279  1.00  0.00     0.036 C 
ATOM     21  C   UNL     1      45.212 127.940  22.377  1.00  0.00     0.042 C 
ATOM     22  C   UNL     1      45.081 126.410  22.479  1.00  0.00     0.010 C 
ENDBRANCH  11  14
ENDBRANCH   1  11
TORSDOF 2
ENDMDL
MODEL 6
REMARK VINA RESULT:      -8.0      1.561      6.753
REMARK SMILES c1cc2c(c([NH2+]c3ccc4[nH]ccc4c3)c1)CCC2
REMARK SMILES IDX 7 1 8 2 9 3 10 4 11 5 12 6 13 7 14 8 15 9 6 11 5 14 1 15
REMARK SMILES IDX 2 16 16 17 3 18 4 19 19 20 17 21 18 22
REMARK H PARENT 11 10 6 12 6 13
ROOT
ATOM      1  C   UNL     1      45.433 130.657  18.867  1.00  0.00     0.135 A 
ATOM      2  C   UNL     1      45.768 130.282  20.197  1.00  0.00     0.070 A 
ATOM      3  C   UNL     1      44.972 130.689  21.283  1.00  0.00     0.033 A 
ATOM      4  C   UNL     1      43.851 131.470  21.013  1.00  0.00     0.046 A 
ATOM      5  N   UNL     1      42.967 131.963  21.895  1.00  0.00    -0.361 N 
ATOM      6  C   UNL     1      42.063 132.654  21.163  1.00  0.00     0.083 A 
ATOM      7  C   UNL     1      42.377 132.599  19.810  1.00  0.00     0.028 A 
ATOM      8  C   UNL     1      43.522 131.838  19.736  1.00  0.00     0.005 A 
ATOM      9  C   UNL     1      44.286 131.453  18.638  1.00  0.00     0.078 A 
ATOM     10  H   UNL     1      42.973 131.840  22.932  1.00  0.00     0.166 HD
ENDROOT
BRANCH   1  11
ATOM     11  N   UNL     1      46.272 130.256  17.764  1.00  0.00    -0.281 N 
ATOM     12  H   UNL     1      46.409 129.220  17.794  1.00  0.00     0.358 HD
ATOM     13  H   UNL     1      47.222 130.686  17.854  1.00  0.00     0.358 HD
BRANCH  11  14
ATOM     14  C   UNL     1      45.683 130.678  16.514  1.00  0.00     0.138 A 
ATOM     15  C   UNL     1      43.813 131.667  15.285  1.00  0.00     0.006 A 
ATOM     16  C   UNL     1      44.506 131.505  14.079  1.00  0.00     0.004 A 
ATOM     17  C   UNL     1      44.397 131.260  16.495  1.00  0.00     0.068 A 
ATOM     18  C   UNL     1      45.780 130.937  14.105  1.00  0.00    -0.039 A 
ATOM     19  C   UNL     1      46.360 130.533  15.284  1.00  0.00     0.017 A 
ATOM     20  C   UNL     1      46.660 130.720  12.934  1.00  0.00     0.036 C 
ATOM     21  C   UNL     1      47.729 130.002  15.056  1.00  0.00     0.042 C 
ATOM     22  C   UNL     1      47.925 130.080  13.530  1.00  0.00     0.010 C 
ENDBRANCH  11  14
ENDBRANCH   1  11
TORSDOF 2
ENDMDL
MODEL 7
REMARK VINA RESULT:      -8.0      1.877      7.000
REMARK SMILES c1cc2c(c([NH2+]c3ccc4[nH]ccc4c3)c1)CCC2
REMARK SMILES IDX 7 1 8 2 9 3 10 4 11 5 12 6 13 7 14 8 15 9 6 11 5 14 1 15
REMARK SMILES IDX 2 16 16 17 3 18 4 19 19 20 17 21 18 22
REMARK H PARENT 11 10 6 12 6 13
ROOT
ATOM      1  C   UNL     1      45.080 130.864  19.385  1.00  0.00     0.135 A 
ATOM      2  C   UNL     1      44.016 131.775  19.137  1.00  0.00     0.070 A 
ATOM      3  C   UNL     1      43.132 132.147  20.165  1.00  0.00     0.033 A 
ATOM      4  C   UNL     1      43.332 131.596  21.429  1.00  0.00     0.046 A 
ATOM      5  N   UNL     1      42.609 131.815  22.539  1.00  0.00    -0.361 N 
ATOM      6  C   UNL     1      43.182 131.061  23.506  1.00  0.00     0.083 A 
ATOM      7  C   UNL     1      44.274 130.361  23.004  1.00  0.00     0.028 A 
ATOM      8  C   UNL     1      44.352 130.718  21.677  1.00  0.00     0.005 A 
ATOM      9  C   UNL     1      45.246 130.327  20.683  1.00  0.00     0.078 A 
ATOM     10  H   UNL     1      41.776 132.437  22.639  1.00  0.00     0.166 HD
ENDROOT
BRANCH   1  11
ATOM     11  N   UNL     1      45.964 130.468  18.315  1.00  0.00    -0.281 N 
ATOM     12  H   UNL     1      46.143 129.441  18.379  1.00  0.00     0.358 HD
ATOM     13  H   UNL     1      46.892 130.942  18.417  1.00  0.00     0.358 HD
BRANCH  11  14
ATOM     14  C   UNL     1      45.392 130.830  17.039  1.00  0.00     0.138 A 
ATOM     15  C   UNL     1      43.562 131.811  15.744  1.00  0.00     0.006 A 
ATOM     16  C   UNL     1      44.246 131.541  14.552  1.00  0.00     0.004 A 
ATOM     17  C   UNL     1      44.130 131.462  16.979  1.00  0.00     0.068 A 
ATOM     18  C   UNL     1      45.496 130.925  14.619  1.00  0.00    -0.039 A 
ATOM     19  C   UNL     1      46.061 130.576  15.823  1.00  0.00     0.017 A 
ATOM     20  C   UNL     1      46.365 130.595  13.466  1.00  0.00     0.036 C 
ATOM     21  C   UNL     1      47.407 129.976  15.632  1.00  0.00     0.042 C 
ATOM     22  C   UNL     1      47.604 129.945  14.106  1.00  0.00     0.010 C 
ENDBRANCH  11  14
ENDBRANCH   1  11
TORSDOF 2
ENDMDL
MODEL 8
REMARK VINA RESULT:      -7.9      3.060      5.026
REMARK SMILES c1cc2c(c([NH2+]c3ccc4[nH]ccc4c3)c1)CCC2
REMARK SMILES IDX 7 1 8 2 9 3 10 4 11 5 12 6 13 7 14 8 15 9 6 11 5 14 1 15
REMARK SMILES IDX 2 16 16 17 3 18 4 19 19 20 17 21 18 22
REMARK H PARENT 11 10 6 12 6 13
ROOT
ATOM      1  C   UNL     1      44.146 131.197  20.881  1.00  0.00     0.135 A 
ATOM      2  C   UNL     1      42.811 131.566  20.558  1.00  0.00     0.070 A 
ATOM      3  C   UNL     1      42.436 131.818  19.226  1.00  0.00     0.033 A 
ATOM      4  C   UNL     1      43.411 131.696  18.240  1.00  0.00     0.046 A 
ATOM      5  N   UNL     1      43.266 131.893  16.919  1.00  0.00    -0.361 N 
ATOM      6  C   UNL     1      44.483 131.660  16.376  1.00  0.00     0.083 A 
ATOM      7  C   UNL     1      45.404 131.314  17.359  1.00  0.00     0.028 A 
ATOM      8  C   UNL     1      44.698 131.343  18.541  1.00  0.00     0.005 A 
ATOM      9  C   UNL     1      45.106 131.086  19.848  1.00  0.00     0.078 A 
ATOM     10  H   UNL     1      42.395 132.169  16.413  1.00  0.00     0.166 HD
ENDROOT
BRANCH   1  11
ATOM     11  N   UNL     1      44.526 130.966  22.254  1.00  0.00    -0.281 N 
ATOM     12  H   UNL     1      43.951 131.577  22.877  1.00  0.00     0.358 HD
ATOM     13  H   UNL     1      45.525 131.239  22.406  1.00  0.00     0.358 HD
BRANCH  11  14
ATOM     14  C   UNL     1      44.367 129.568  22.584  1.00  0.00     0.138 A 
ATOM     15  C   UNL     1      45.179 127.263  22.470  1.00  0.00     0.006 A 
ATOM     16  C   UNL     1      44.074 126.826  23.212  1.00  0.00     0.004 A 
ATOM     17  C   UNL     1      45.328 128.624  22.161  1.00  0.00     0.068 A 
ATOM     18  C   UNL     1      43.133 127.765  23.635  1.00  0.00    -0.039 A 
ATOM     19  C   UNL     1      43.267 129.100  23.335  1.00  0.00     0.017 A 
ATOM     20  C   UNL     1      41.928 127.484  24.447  1.00  0.00     0.036 C 
ATOM     21  C   UNL     1      42.165 129.899  23.930  1.00  0.00     0.042 C 
ATOM     22  C   UNL     1      41.265 128.860  24.624  1.00  0.00     0.010 C 
ENDBRANCH  11  14
ENDBRANCH   1  11
TORSDOF 2
ENDMDL
MODEL 9
REMARK VINA RESULT:      -7.7      1.477      6.590
REMARK SMILES c1cc2c(c([NH2+]c3ccc4[nH]ccc4c3)c1)CCC2
REMARK SMILES IDX 7 1 8 2 9 3 10 4 11 5 12 6 13 7 14 8 15 9 6 11 5 14 1 15
REMARK SMILES IDX 2 16 16 17 3 18 4 19 19 20 17 21 18 22
REMARK H PARENT 11 10 6 12 6 13
ROOT
ATOM      1  C   UNL     1      44.116 131.988  17.720  1.00  0.00     0.135 A 
ATOM      2  C   UNL     1      42.712 132.021  17.946  1.00  0.00     0.070 A 
ATOM      3  C   UNL     1      42.183 131.792  19.229  1.00  0.00     0.033 A 
ATOM      4  C   UNL     1      43.076 131.531  20.265  1.00  0.00     0.046 A 
ATOM      5  N   UNL     1      42.784 131.285  21.553  1.00  0.00    -0.361 N 
ATOM      6  C   UNL     1      43.972 131.090  22.169  1.00  0.00     0.083 A 
ATOM      7  C   UNL     1      45.023 131.213  21.267  1.00  0.00     0.028 A 
ATOM      8  C   UNL     1      44.428 131.495  20.057  1.00  0.00     0.005 A 
ATOM      9  C   UNL     1      44.987 131.717  18.801  1.00  0.00     0.078 A 
ATOM     10  H   UNL     1      41.836 131.251  21.990  1.00  0.00     0.166 HD
ENDROOT
BRANCH   1  11
ATOM     11  N   UNL     1      44.646 132.198  16.394  1.00  0.00    -0.281 N 
ATOM     12  H   UNL     1      45.368 132.952  16.428  1.00  0.00     0.358 HD
ATOM     13  H   UNL     1      43.892 132.533  15.750  1.00  0.00     0.358 HD
BRANCH  11  14
ATOM     14  C   UNL     1      45.189 130.963  15.876  1.00  0.00     0.138 A 
ATOM     15  C   UNL     1      45.215 128.517  15.836  1.00  0.00     0.006 A 
ATOM     16  C   UNL     1      46.241 128.532  14.883  1.00  0.00     0.004 A 
ATOM     17  C   UNL     1      44.689 129.722  16.328  1.00  0.00     0.068 A 
ATOM     18  C   UNL     1      46.724 129.762  14.435  1.00  0.00    -0.039 A 
ATOM     19  C   UNL     1      46.219 130.948  14.911  1.00  0.00     0.017 A 
ATOM     20  C   UNL     1      47.779 129.963  13.415  1.00  0.00     0.036 C 
ATOM     21  C   UNL     1      46.865 132.113  14.252  1.00  0.00     0.042 C 
ATOM     22  C   UNL     1      47.908 131.492  13.305  1.00  0.00     0.010 C 
ENDBRANCH  11  14
ENDBRANCH   1  11
TORSDOF 2
ENDMDL


