REMARK SMILES Nc1cc(NC2CC(=O)C2)c(C=O)cc1-c1ccc2c(c1)NC(=O)C2
REMARK SMILES IDX 2 1 3 2 4 3 11 4 14 5 15 6 1 7 16 10 17 11 21 12 18 13 20 14
REMARK SMILES IDX 19 15 22 16 25 17 23 18 24 20 5 21 6 23 7 24 10 25 8 26 9 27
REMARK SMILES IDX 12 28 13 29
REMARK H PARENT 1 8 1 9 22 19 5 22
ROOT
ATOM      1  C   UNL     1      -0.295   0.127  -0.575  1.00  0.00     0.041 A 
ATOM      2  C   UNL     1      -1.341   0.731   0.135  1.00  0.00     0.052 A 
ATOM      3  C   UNL     1      -1.306   2.096   0.468  1.00  0.00     0.047 A 
ATOM      4  C   UNL     1      -0.203   2.880   0.048  1.00  0.00     0.038 A 
ATOM      5  C   UNL     1       0.858   2.265  -0.634  1.00  0.00     0.024 A 
ATOM      6  C   UNL     1       0.830   0.896  -0.941  1.00  0.00     0.006 A 
ENDROOT
BRANCH   1   7
ATOM      7  N   UNL     1      -0.409  -1.256  -0.937  1.00  0.00    -0.398 N 
ATOM      8  H   UNL     1      -1.220  -1.826  -0.606  1.00  0.00     0.156 HD
ATOM      9  H   UNL     1       0.260  -1.714  -1.593  1.00  0.00     0.156 HD
ENDBRANCH   1   7
BRANCH   6  10
ATOM     10  C   UNL     1       1.996   0.300  -1.631  1.00  0.00    -0.014 A 
ATOM     11  C   UNL     1       2.420   0.812  -2.881  1.00  0.00     0.009 A 
ATOM     12  C   UNL     1       2.716  -0.752  -1.027  1.00  0.00     0.035 A 
ATOM     13  C   UNL     1       3.538   0.268  -3.534  1.00  0.00     0.007 A 
ATOM     14  C   UNL     1       3.821  -1.273  -1.698  1.00  0.00     0.045 A 
ATOM     15  C   UNL     1       4.223  -0.779  -2.921  1.00  0.00    -0.015 A 
ATOM     16  N   UNL     1       4.655  -2.324  -1.252  1.00  0.00    -0.326 N 
ATOM     17  C   UNL     1       5.431  -1.509  -3.415  1.00  0.00     0.138 C 
ATOM     18  C   UNL     1       5.627  -2.472  -2.281  1.00  0.00     0.228 C 
ATOM     19  H   UNL     1       4.577  -2.870  -0.365  1.00  0.00     0.169 HD
ATOM     20  O   UNL     1       6.551  -3.326  -2.232  1.00  0.00    -0.274 OA
ENDBRANCH   6  10
BRANCH   3  21
ATOM     21  N   UNL     1      -2.357   2.666   1.273  1.00  0.00    -0.381 N 
ATOM     22  H   UNL     1      -2.102   3.389   1.983  1.00  0.00     0.160 HD
BRANCH  21  23
ATOM     23  C   UNL     1      -3.743   2.186   1.229  1.00  0.00     0.094 C 
ATOM     24  C   UNL     1      -4.383   2.381  -0.114  1.00  0.00     0.100 C 
ATOM     25  C   UNL     1      -4.732   3.189   1.752  1.00  0.00     0.100 C 
ATOM     26  C   UNL     1      -5.396   3.387   0.402  1.00  0.00     0.137 C 
ATOM     27  O   UNL     1      -6.315   4.046  -0.056  1.00  0.00    -0.300 OA
ENDBRANCH  21  23
ENDBRANCH   3  21
BRANCH   4  28
ATOM     28  C   UNL     1      -0.126   4.343   0.257  1.00  0.00     0.262 C 
ATOM     29  O   UNL     1      -1.155   5.040   0.461  1.00  0.00    -0.298 OA
ENDBRANCH   4  28
TORSDOF 5


