MODEL 1
REMARK VINA RESULT:      -3.6      0.000      0.000
REMARK SMILES N#CC1(C(=O)[N-]CCCS[C@H](C(=O)c2ccc(F)cc2)[C@H](O)c2ccc(Cl)c(F)c2)CC1
REMARK SMILES IDX 8 1 7 2 6 3 4 4 5 5 3 6 31 7 32 8 2 9 1 10 9 11 10 12 11 13
REMARK SMILES IDX 12 14 13 15 14 16 15 17 20 18 16 19 19 20 17 21 18 22 21 23
REMARK SMILES IDX 22 24 23 26 24 27 30 28 25 29 28 30 26 31 29 32 27 33
REMARK H PARENT 22 25
ROOT
ATOM      1  C   UNL     1      47.997 125.088  24.159  1.00  0.00    -0.008 C 
ENDROOT
BRANCH   1   2
ATOM      2  C   UNL     1      48.006 123.593  23.824  1.00  0.00    -0.117 C 
BRANCH   2   3
ATOM      3  N   UNL     1      49.176 123.248  23.025  1.00  0.00    -0.652 NA
BRANCH   3   4
ATOM      4  C   UNL     1      50.502 123.714  23.294  1.00  0.00     0.072 C 
ATOM      5  O   UNL     1      51.191 123.193  24.212  1.00  0.00    -0.319 OA
BRANCH   4   6
ATOM      6  C   UNL     1      51.075 124.815  22.457  1.00  0.00     0.099 C 
ATOM      7  C   UNL     1      50.157 125.355  21.371  1.00  0.00     0.030 C 
ATOM      8  C   UNL     1      50.469 126.204  22.599  1.00  0.00     0.030 C 
BRANCH   6   9
ATOM      9  C   UNL     1      52.499 124.760  22.097  1.00  0.00     0.075 C 
ATOM     10  N   UNL     1      53.619 124.717  21.812  1.00  0.00    -0.197 NA
ENDBRANCH   6   9
ENDBRANCH   4   6
ENDBRANCH   3   4
ENDBRANCH   2   3
ENDBRANCH   1   2
BRANCH   1  11
ATOM     11  C   UNL     1      46.571 125.649  24.163  1.00  0.00     0.069 C 
BRANCH  11  12
ATOM     12  S   UNL     1      46.086 126.227  22.497  1.00  0.00    -0.147 SA
BRANCH  12  13
ATOM     13  C   UNL     1      44.414 126.880  22.921  1.00  0.00     0.151 C 
BRANCH  13  14
ATOM     14  C   UNL     1      44.531 128.308  23.404  1.00  0.00     0.178 C 
ATOM     15  O   UNL     1      44.805 128.516  24.618  1.00  0.00    -0.293 OA
BRANCH  14  16
ATOM     16  C   UNL     1      44.310 129.474  22.507  1.00  0.00     0.019 A 
ATOM     17  C   UNL     1      43.086 130.170  22.559  1.00  0.00     0.015 A 
ATOM     18  C   UNL     1      45.290 129.899  21.585  1.00  0.00     0.015 A 
ATOM     19  C   UNL     1      42.855 131.267  21.726  1.00  0.00     0.040 A 
ATOM     20  C   UNL     1      45.052 130.996  20.753  1.00  0.00     0.040 A 
ATOM     21  C   UNL     1      43.838 131.682  20.824  1.00  0.00     0.123 A 
ATOM     22  F   UNL     1      43.611 132.746  20.016  1.00  0.00    -0.207 F 
ENDBRANCH  14  16
ENDBRANCH  13  14
BRANCH  13  23
ATOM     23  C   UNL     1      43.700 125.999  23.983  1.00  0.00     0.165 C 
BRANCH  23  24
ATOM     24  O   UNL     1      43.912 124.619  23.791  1.00  0.00    -0.387 OA
ATOM     25  H   UNL     1      44.877 124.463  23.628  1.00  0.00     0.211 HD
ENDBRANCH  23  24
BRANCH  23  26
ATOM     26  C   UNL     1      42.222 126.329  24.087  1.00  0.00    -0.015 A 
ATOM     27  C   UNL     1      41.303 125.297  24.359  1.00  0.00     0.008 A 
ATOM     28  C   UNL     1      41.747 127.653  23.996  1.00  0.00     0.047 A 
ATOM     29  C   UNL     1      39.944 125.580  24.518  1.00  0.00     0.024 A 
ATOM     30  C   UNL     1      40.387 127.932  24.159  1.00  0.00     0.142 A 
ATOM     31  C   UNL     1      39.483 126.896  24.416  1.00  0.00     0.076 A 
ATOM     32  F   UNL     1      39.952 129.214  24.071  1.00  0.00    -0.205 F 
ATOM     33  Cl  UNL     1      37.773 127.239  24.615  1.00  0.00    -0.081 Cl
ENDBRANCH  23  26
ENDBRANCH  13  23
ENDBRANCH  12  13
ENDBRANCH  11  12
ENDBRANCH   1  11
TORSDOF 13
ENDMDL
MODEL 2
REMARK VINA RESULT:      -2.0      6.084      9.419
REMARK SMILES N#CC1(C(=O)[N-]CCCS[C@H](C(=O)c2ccc(F)cc2)[C@H](O)c2ccc(Cl)c(F)c2)CC1
REMARK SMILES IDX 8 1 7 2 6 3 4 4 5 5 3 6 31 7 32 8 2 9 1 10 9 11 10 12 11 13
REMARK SMILES IDX 12 14 13 15 14 16 15 17 20 18 16 19 19 20 17 21 18 22 21 23
REMARK SMILES IDX 22 24 23 26 24 27 30 28 25 29 28 30 26 31 29 32 27 33
REMARK H PARENT 22 25
ROOT
ATOM      1  C   UNL     1      41.682 131.884  19.199  1.00  0.00    -0.008 C 
ENDROOT
BRANCH   1   2
ATOM      2  C   UNL     1      42.252 132.353  20.542  1.00  0.00    -0.117 C 
BRANCH   2   3
ATOM      3  N   UNL     1      42.772 131.224  21.306  1.00  0.00    -0.652 NA
BRANCH   3   4
ATOM      4  C   UNL     1      42.730 131.129  22.733  1.00  0.00     0.072 C 
ATOM      5  O   UNL     1      42.577 132.161  23.440  1.00  0.00    -0.319 OA
BRANCH   4   6
ATOM      6  C   UNL     1      42.847 129.784  23.381  1.00  0.00     0.099 C 
ATOM      7  C   UNL     1      43.891 128.857  22.778  1.00  0.00     0.030 C 
ATOM      8  C   UNL     1      44.122 129.476  24.152  1.00  0.00     0.030 C 
BRANCH   6   9
ATOM      9  C   UNL     1      41.624 129.120  23.852  1.00  0.00     0.075 C 
ATOM     10  N   UNL     1      40.661 128.598  24.225  1.00  0.00    -0.197 NA
ENDBRANCH   6   9
ENDBRANCH   4   6
ENDBRANCH   3   4
ENDBRANCH   2   3
ENDBRANCH   1   2
BRANCH   1  11
ATOM     11  C   UNL     1      42.471 132.472  18.024  1.00  0.00     0.069 C 
BRANCH  11  12
ATOM     12  S   UNL     1      42.765 131.211  16.733  1.00  0.00    -0.147 SA
BRANCH  12  13
ATOM     13  C   UNL     1      44.535 131.598  16.384  1.00  0.00     0.151 C 
BRANCH  13  14
ATOM     14  C   UNL     1      44.808 131.449  14.905  1.00  0.00     0.178 C 
ATOM     15  O   UNL     1      43.936 131.849  14.085  1.00  0.00    -0.293 OA
BRANCH  14  16
ATOM     16  C   UNL     1      46.054 130.827  14.383  1.00  0.00     0.019 A 
ATOM     17  C   UNL     1      46.397 129.519  14.778  1.00  0.00     0.015 A 
ATOM     18  C   UNL     1      46.921 131.518  13.510  1.00  0.00     0.015 A 
ATOM     19  C   UNL     1      47.563 128.913  14.301  1.00  0.00     0.040 A 
ATOM     20  C   UNL     1      48.087 130.908  13.038  1.00  0.00     0.040 A 
ATOM     21  C   UNL     1      48.407 129.607  13.431  1.00  0.00     0.123 A 
ATOM     22  F   UNL     1      49.538 129.018  12.970  1.00  0.00    -0.207 F 
ENDBRANCH  14  16
ENDBRANCH  13  14
BRANCH  13  23
ATOM     23  C   UNL     1      45.497 130.702  17.212  1.00  0.00     0.165 C 
BRANCH  23  24
ATOM     24  O   UNL     1      45.197 129.328  17.112  1.00  0.00    -0.387 OA
ATOM     25  H   UNL     1      46.037 128.829  16.944  1.00  0.00     0.211 HD
ENDBRANCH  23  24
BRANCH  23  26
ATOM     26  C   UNL     1      45.583 131.152  18.659  1.00  0.00    -0.015 A 
ATOM     27  C   UNL     1      45.729 130.187  19.673  1.00  0.00     0.008 A 
ATOM     28  C   UNL     1      45.597 132.516  19.013  1.00  0.00     0.047 A 
ATOM     29  C   UNL     1      45.869 130.576  21.008  1.00  0.00     0.024 A 
ATOM     30  C   UNL     1      45.740 132.902  20.350  1.00  0.00     0.142 A 
ATOM     31  C   UNL     1      45.872 131.932  21.349  1.00  0.00     0.076 A 
ATOM     32  F   UNL     1      45.755 134.220  20.668  1.00  0.00    -0.205 F 
ATOM     33  Cl  UNL     1      46.045 132.409  23.030  1.00  0.00    -0.081 Cl
ENDBRANCH  23  26
ENDBRANCH  13  23
ENDBRANCH  12  13
ENDBRANCH  11  12
ENDBRANCH   1  11
TORSDOF 13
ENDMDL
MODEL 3
REMARK VINA RESULT:      -1.2      6.314      9.384
REMARK SMILES N#CC1(C(=O)[N-]CCCS[C@H](C(=O)c2ccc(F)cc2)[C@H](O)c2ccc(Cl)c(F)c2)CC1
REMARK SMILES IDX 8 1 7 2 6 3 4 4 5 5 3 6 31 7 32 8 2 9 1 10 9 11 10 12 11 13
REMARK SMILES IDX 12 14 13 15 14 16 15 17 20 18 16 19 19 20 17 21 18 22 21 23
REMARK SMILES IDX 22 24 23 26 24 27 30 28 25 29 28 30 26 31 29 32 27 33
REMARK H PARENT 22 25
ROOT
ATOM      1  C   UNL     1      43.620 132.255  19.475  1.00  0.00    -0.008 C 
ENDROOT
BRANCH   1   2
ATOM      2  C   UNL     1      44.522 132.227  18.236  1.00  0.00    -0.117 C 
BRANCH   2   3
ATOM      3  N   UNL     1      44.023 131.273  17.253  1.00  0.00    -0.652 NA
BRANCH   3   4
ATOM      4  C   UNL     1      44.381 131.281  15.868  1.00  0.00     0.072 C 
ATOM      5  O   UNL     1      43.749 131.999  15.046  1.00  0.00    -0.319 OA
BRANCH   4   6
ATOM      6  C   UNL     1      45.532 130.444  15.403  1.00  0.00     0.099 C 
ATOM      7  C   UNL     1      46.191 129.588  16.475  1.00  0.00     0.030 C 
ATOM      8  C   UNL     1      45.350 128.933  15.385  1.00  0.00     0.030 C 
BRANCH   6   9
ATOM      9  C   UNL     1      46.451 131.001  14.401  1.00  0.00     0.075 C 
ATOM     10  N   UNL     1      47.174 131.443  13.613  1.00  0.00    -0.197 NA
ENDBRANCH   6   9
ENDBRANCH   4   6
ENDBRANCH   3   4
ENDBRANCH   2   3
ENDBRANCH   1   2
BRANCH   1  11
ATOM     11  C   UNL     1      43.841 131.016  20.350  1.00  0.00     0.069 C 
BRANCH  11  12
ATOM     12  S   UNL     1      45.622 130.733  20.652  1.00  0.00    -0.147 SA
BRANCH  12  13
ATOM     13  C   UNL     1      45.806 131.786  22.156  1.00  0.00     0.151 C 
BRANCH  13  14
ATOM     14  C   UNL     1      44.586 131.635  23.036  1.00  0.00     0.178 C 
ATOM     15  O   UNL     1      44.008 132.676  23.455  1.00  0.00    -0.293 OA
BRANCH  14  16
ATOM     16  C   UNL     1      44.059 130.305  23.447  1.00  0.00     0.019 A 
ATOM     17  C   UNL     1      44.879 129.430  24.185  1.00  0.00     0.015 A 
ATOM     18  C   UNL     1      42.758 129.883  23.102  1.00  0.00     0.015 A 
ATOM     19  C   UNL     1      44.407 128.176  24.581  1.00  0.00     0.040 A 
ATOM     20  C   UNL     1      42.292 128.626  23.500  1.00  0.00     0.040 A 
ATOM     21  C   UNL     1      43.113 127.774  24.240  1.00  0.00     0.123 A 
ATOM     22  F   UNL     1      42.657 126.557  24.625  1.00  0.00    -0.207 F 
ENDBRANCH  14  16
ENDBRANCH  13  14
BRANCH  13  23
ATOM     23  C   UNL     1      46.036 133.279  21.792  1.00  0.00     0.165 C 
BRANCH  23  24
ATOM     24  O   UNL     1      46.007 133.522  20.404  1.00  0.00    -0.387 OA
ATOM     25  H   UNL     1      45.977 132.653  19.928  1.00  0.00     0.211 HD
ENDBRANCH  23  24
BRANCH  23  26
ATOM     26  C   UNL     1      47.302 133.825  22.428  1.00  0.00    -0.015 A 
ATOM     27  C   UNL     1      47.736 133.299  23.660  1.00  0.00     0.008 A 
ATOM     28  C   UNL     1      48.101 134.791  21.784  1.00  0.00     0.047 A 
ATOM     29  C   UNL     1      48.928 133.742  24.239  1.00  0.00     0.024 A 
ATOM     30  C   UNL     1      49.295 135.228  22.365  1.00  0.00     0.142 A 
ATOM     31  C   UNL     1      49.708 134.707  23.596  1.00  0.00     0.076 A 
ATOM     32  F   UNL     1      50.050 136.156  21.726  1.00  0.00    -0.205 F 
ATOM     33  Cl  UNL     1      51.202 135.257  24.335  1.00  0.00    -0.081 Cl
ENDBRANCH  23  26
ENDBRANCH  13  23
ENDBRANCH  12  13
ENDBRANCH  11  12
ENDBRANCH   1  11
TORSDOF 13
ENDMDL


