MODEL 1
REMARK VINA RESULT:      -4.9      0.000      0.000
REMARK SMILES Cc1cc(N)c(OC(=O)/C=C(\[NH3+])C([NH-])=O)c(-n2nc3ccccc3[nH+]2)c1
REMARK SMILES IDX 10 1 11 2 13 3 15 4 14 5 12 7 8 11 9 12 7 13 6 14 4 15 16 16
REMARK SMILES IDX 3 17 26 18 2 19 1 20 5 21 17 24 18 25 25 26 19 27 24 28
REMARK SMILES IDX 20 29 23 30 21 31 22 32
REMARK H PARENT 14 6 12 8 12 9 12 10 5 22 5 23 25 33
ROOT
ATOM      1  C   UNL     1      45.508 130.168  19.817  1.00  0.00     0.163 C 
ENDROOT
BRANCH   1   2
ATOM      2  C   UNL     1      45.200 130.913  18.728  1.00  0.00     0.160 C 
BRANCH   2   3
ATOM      3  C   UNL     1      45.450 130.358  17.369  1.00  0.00     0.134 C 
ATOM      4  O   UNL     1      44.566 130.452  16.474  1.00  0.00    -0.309 OA
BRANCH   3   5
ATOM      5  N   UNL     1      46.682 129.711  17.053  1.00  0.00    -0.659 NA
ATOM      6  H   UNL     1      46.863 128.726  17.347  1.00  0.00    -0.121 HD
ENDBRANCH   3   5
ENDBRANCH   2   3
BRANCH   2   7
ATOM      7  N   UNL     1      44.627 132.230  18.863  1.00  0.00    -0.323 N 
ATOM      8  H   UNL     1      43.778 132.187  19.471  1.00  0.00     0.350 HD
ATOM      9  H   UNL     1      44.391 132.607  17.917  1.00  0.00     0.350 HD
ATOM     10  H   UNL     1      45.293 132.895  19.316  1.00  0.00     0.350 HD
ENDBRANCH   2   7
ENDBRANCH   1   2
BRANCH   1  11
ATOM     11  C   UNL     1      45.227 130.533  21.223  1.00  0.00     0.342 C 
ATOM     12  O   UNL     1      45.047 131.749  21.503  1.00  0.00    -0.246 OA
BRANCH  11  13
ATOM     13  O   UNL     1      45.196 129.570  22.238  1.00  0.00    -0.418 OA
BRANCH  13  14
ATOM     14  C   UNL     1      44.017 129.140  22.863  1.00  0.00     0.185 A 
ATOM     15  C   UNL     1      43.082 130.102  23.288  1.00  0.00     0.078 A 
ATOM     16  C   UNL     1      43.754 127.765  23.068  1.00  0.00     0.173 A 
ATOM     17  C   UNL     1      41.873 129.692  23.863  1.00  0.00     0.033 A 
ATOM     18  C   UNL     1      42.531 127.375  23.635  1.00  0.00     0.042 A 
ATOM     19  C   UNL     1      41.594 128.331  24.043  1.00  0.00    -0.046 A 
ATOM     20  C   UNL     1      40.278 127.900  24.622  1.00  0.00     0.044 C 
BRANCH  15  21
ATOM     21  N   UNL     1      43.342 131.499  23.112  1.00  0.00    -0.396 N 
ATOM     22  H   UNL     1      42.722 132.085  22.508  1.00  0.00     0.156 HD
ATOM     23  H   UNL     1      44.149 131.967  23.582  1.00  0.00     0.156 HD
ENDBRANCH  15  21
BRANCH  16  24
ATOM     24  N   UNL     1      44.742 126.768  22.761  1.00  0.00    -0.009 N 
ATOM     25  N   UNL     1      44.447 125.501  22.471  1.00  0.00     0.054 NA
ATOM     26  N   UNL     1      46.053 127.001  22.717  1.00  0.00    -0.161 N 
ATOM     27  C   UNL     1      45.633 124.910  22.246  1.00  0.00     0.249 A 
ATOM     28  C   UNL     1      46.624 125.832  22.398  1.00  0.00     0.198 A 
ATOM     29  C   UNL     1      45.901 123.583  21.924  1.00  0.00     0.064 A 
ATOM     30  C   UNL     1      47.969 125.515  22.240  1.00  0.00     0.058 A 
ATOM     31  C   UNL     1      47.252 123.220  21.753  1.00  0.00     0.005 A 
ATOM     32  C   UNL     1      48.281 124.181  21.910  1.00  0.00     0.005 A 
ATOM     33  H   UNL     1      46.529 127.909  22.919  1.00  0.00     0.340 HD
ENDBRANCH  16  24
ENDBRANCH  13  14
ENDBRANCH  11  13
ENDBRANCH   1  11
TORSDOF 9
ENDMDL
MODEL 2
REMARK VINA RESULT:      -4.7      4.815      6.585
REMARK SMILES Cc1cc(N)c(OC(=O)/C=C(\[NH3+])C([NH-])=O)c(-n2nc3ccccc3[nH+]2)c1
REMARK SMILES IDX 10 1 11 2 13 3 15 4 14 5 12 7 8 11 9 12 7 13 6 14 4 15 16 16
REMARK SMILES IDX 3 17 26 18 2 19 1 20 5 21 17 24 18 25 25 26 19 27 24 28
REMARK SMILES IDX 20 29 23 30 21 31 22 32
REMARK H PARENT 14 6 12 8 12 9 12 10 5 22 5 23 25 33
ROOT
ATOM      1  C   UNL     1      46.858 133.678  21.342  1.00  0.00     0.163 C 
ENDROOT
BRANCH   1   2
ATOM      2  C   UNL     1      47.717 134.513  21.973  1.00  0.00     0.160 C 
BRANCH   2   3
ATOM      3  C   UNL     1      48.374 134.070  23.234  1.00  0.00     0.134 C 
ATOM      4  O   UNL     1      47.805 134.255  24.344  1.00  0.00    -0.309 OA
BRANCH   3   5
ATOM      5  N   UNL     1      49.651 133.433  23.214  1.00  0.00    -0.659 NA
ATOM      6  H   UNL     1      50.520 133.978  23.018  1.00  0.00    -0.121 HD
ENDBRANCH   3   5
ENDBRANCH   2   3
BRANCH   2   7
ATOM      7  N   UNL     1      48.013 135.821  21.441  1.00  0.00    -0.323 N 
ATOM      8  H   UNL     1      49.011 135.862  21.136  1.00  0.00     0.350 HD
ATOM      9  H   UNL     1      47.812 136.547  22.165  1.00  0.00     0.350 HD
ATOM     10  H   UNL     1      47.429 136.036  20.602  1.00  0.00     0.350 HD
ENDBRANCH   2   7
ENDBRANCH   1   2
BRANCH   1  11
ATOM     11  C   UNL     1      47.126 132.268  20.985  1.00  0.00     0.342 C 
ATOM     12  O   UNL     1      48.320 131.916  20.786  1.00  0.00    -0.246 OA
BRANCH  11  13
ATOM     13  O   UNL     1      46.089 131.341  20.828  1.00  0.00    -0.418 OA
BRANCH  13  14
ATOM     14  C   UNL     1      44.733 131.692  20.793  1.00  0.00     0.185 A 
ATOM     15  C   UNL     1      44.056 131.913  22.006  1.00  0.00     0.078 A 
ATOM     16  C   UNL     1      44.042 131.830  19.567  1.00  0.00     0.173 A 
ATOM     17  C   UNL     1      42.715 132.320  21.992  1.00  0.00     0.033 A 
ATOM     18  C   UNL     1      42.702 132.250  19.574  1.00  0.00     0.042 A 
ATOM     19  C   UNL     1      42.033 132.485  20.781  1.00  0.00    -0.046 A 
ATOM     20  C   UNL     1      40.610 132.962  20.774  1.00  0.00     0.044 C 
BRANCH  15  21
ATOM     21  N   UNL     1      44.732 131.755  23.259  1.00  0.00    -0.396 N 
ATOM     22  H   UNL     1      45.083 130.818  23.560  1.00  0.00     0.156 HD
ATOM     23  H   UNL     1      44.895 132.566  23.896  1.00  0.00     0.156 HD
ENDBRANCH  15  21
BRANCH  16  24
ATOM     24  N   UNL     1      44.669 131.488  18.320  1.00  0.00    -0.009 N 
ATOM     25  N   UNL     1      44.362 132.064  17.157  1.00  0.00     0.054 NA
ATOM     26  N   UNL     1      45.632 130.577  18.190  1.00  0.00    -0.161 N 
ATOM     27  C   UNL     1      45.165 131.473  16.254  1.00  0.00     0.249 A 
ATOM     28  C   UNL     1      45.948 130.557  16.889  1.00  0.00     0.198 A 
ATOM     29  C   UNL     1      45.241 131.687  14.881  1.00  0.00     0.064 A 
ATOM     30  C   UNL     1      46.877 129.773  16.213  1.00  0.00     0.058 A 
ATOM     31  C   UNL     1      46.172 130.914  14.158  1.00  0.00     0.005 A 
ATOM     32  C   UNL     1      46.987 129.962  14.821  1.00  0.00     0.005 A 
ATOM     33  H   UNL     1      46.032 129.986  18.953  1.00  0.00     0.340 HD
ENDBRANCH  16  24
ENDBRANCH  13  14
ENDBRANCH  11  13
ENDBRANCH   1  11
TORSDOF 9
ENDMDL
MODEL 3
REMARK VINA RESULT:      -4.7      4.771      6.683
REMARK SMILES Cc1cc(N)c(OC(=O)/C=C(\[NH3+])C([NH-])=O)c(-n2nc3ccccc3[nH+]2)c1
REMARK SMILES IDX 10 1 11 2 13 3 15 4 14 5 12 7 8 11 9 12 7 13 6 14 4 15 16 16
REMARK SMILES IDX 3 17 26 18 2 19 1 20 5 21 17 24 18 25 25 26 19 27 24 28
REMARK SMILES IDX 20 29 23 30 21 31 22 32
REMARK H PARENT 14 6 12 8 12 9 12 10 5 22 5 23 25 33
ROOT
ATOM      1  C   UNL     1      46.975 133.412  21.911  1.00  0.00     0.163 C 
ENDROOT
BRANCH   1   2
ATOM      2  C   UNL     1      47.874 134.395  22.152  1.00  0.00     0.160 C 
BRANCH   2   3
ATOM      3  C   UNL     1      48.812 134.262  23.301  1.00  0.00     0.134 C 
ATOM      4  O   UNL     1      48.366 134.199  24.479  1.00  0.00    -0.309 OA
BRANCH   3   5
ATOM      5  N   UNL     1      50.223 134.206  23.096  1.00  0.00    -0.659 NA
ATOM      6  H   UNL     1      50.745 135.029  22.721  1.00  0.00    -0.121 HD
ENDBRANCH   3   5
ENDBRANCH   2   3
BRANCH   2   7
ATOM      7  N   UNL     1      47.944 135.564  21.310  1.00  0.00    -0.323 N 
ATOM      8  H   UNL     1      48.721 136.185  21.629  1.00  0.00     0.350 HD
ATOM      9  H   UNL     1      47.028 136.068  21.335  1.00  0.00     0.350 HD
ATOM     10  H   UNL     1      48.143 135.312  20.317  1.00  0.00     0.350 HD
ENDBRANCH   2   7
ENDBRANCH   1   2
BRANCH   1  11
ATOM     11  C   UNL     1      47.231 132.173  21.144  1.00  0.00     0.342 C 
ATOM     12  O   UNL     1      48.406 131.944  20.748  1.00  0.00    -0.246 OA
BRANCH  11  13
ATOM     13  O   UNL     1      46.201 131.282  20.822  1.00  0.00    -0.418 OA
BRANCH  13  14
ATOM     14  C   UNL     1      44.850 131.650  20.756  1.00  0.00     0.185 A 
ATOM     15  C   UNL     1      44.131 131.817  21.954  1.00  0.00     0.078 A 
ATOM     16  C   UNL     1      44.206 131.858  19.514  1.00  0.00     0.173 A 
ATOM     17  C   UNL     1      42.796 132.238  21.912  1.00  0.00     0.033 A 
ATOM     18  C   UNL     1      42.871 132.293  19.494  1.00  0.00     0.042 A 
ATOM     19  C   UNL     1      42.160 132.473  20.686  1.00  0.00    -0.046 A 
ATOM     20  C   UNL     1      40.743 132.965  20.653  1.00  0.00     0.044 C 
BRANCH  15  21
ATOM     21  N   UNL     1      44.759 131.586  23.220  1.00  0.00    -0.396 N 
ATOM     22  H   UNL     1      45.764 131.306  23.273  1.00  0.00     0.156 HD
ATOM     23  H   UNL     1      44.234 131.697  24.117  1.00  0.00     0.156 HD
ENDBRANCH  15  21
BRANCH  16  24
ATOM     24  N   UNL     1      44.876 131.574  18.275  1.00  0.00    -0.009 N 
ATOM     25  N   UNL     1      45.425 130.393  17.986  1.00  0.00     0.054 NA
ATOM     26  N   UNL     1      45.008 132.446  17.277  1.00  0.00    -0.161 N 
ATOM     27  C   UNL     1      45.935 130.540  16.751  1.00  0.00     0.249 A 
ATOM     28  C   UNL     1      45.680 131.804  16.313  1.00  0.00     0.198 A 
ATOM     29  C   UNL     1      46.636 129.618  15.981  1.00  0.00     0.064 A 
ATOM     30  C   UNL     1      46.099 132.261  15.068  1.00  0.00     0.058 A 
ATOM     31  C   UNL     1      47.077 130.039  14.710  1.00  0.00     0.005 A 
ATOM     32  C   UNL     1      46.809 131.354  14.256  1.00  0.00     0.005 A 
ATOM     33  H   UNL     1      44.674 133.436  17.271  1.00  0.00     0.340 HD
ENDBRANCH  16  24
ENDBRANCH  13  14
ENDBRANCH  11  13
ENDBRANCH   1  11
TORSDOF 9
ENDMDL
MODEL 4
REMARK VINA RESULT:      -4.6      3.894      6.242
REMARK SMILES Cc1cc(N)c(OC(=O)/C=C(\[NH3+])C([NH-])=O)c(-n2nc3ccccc3[nH+]2)c1
REMARK SMILES IDX 10 1 11 2 13 3 15 4 14 5 12 7 8 11 9 12 7 13 6 14 4 15 16 16
REMARK SMILES IDX 3 17 26 18 2 19 1 20 5 21 17 24 18 25 25 26 19 27 24 28
REMARK SMILES IDX 20 29 23 30 21 31 22 32
REMARK H PARENT 14 6 12 8 12 9 12 10 5 22 5 23 25 33
ROOT
ATOM      1  C   UNL     1      47.786 134.408  21.923  1.00  0.00     0.163 C 
ENDROOT
BRANCH   1   2
ATOM      2  C   UNL     1      48.888 134.490  22.706  1.00  0.00     0.160 C 
BRANCH   2   3
ATOM      3  C   UNL     1      49.829 135.630  22.526  1.00  0.00     0.134 C 
ATOM      4  O   UNL     1      49.820 136.297  21.456  1.00  0.00    -0.309 OA
BRANCH   3   5
ATOM      5  N   UNL     1      50.754 135.989  23.551  1.00  0.00    -0.659 NA
ATOM      6  H   UNL     1      51.277 135.259  24.084  1.00  0.00    -0.121 HD
ENDBRANCH   3   5
ENDBRANCH   2   3
BRANCH   2   7
ATOM      7  N   UNL     1      49.161 133.496  23.715  1.00  0.00    -0.323 N 
ATOM      8  H   UNL     1      49.319 132.567  23.265  1.00  0.00     0.350 HD
ATOM      9  H   UNL     1      48.363 133.454  24.389  1.00  0.00     0.350 HD
ATOM     10  H   UNL     1      50.025 133.724  24.256  1.00  0.00     0.350 HD
ENDBRANCH   2   7
ENDBRANCH   1   2
BRANCH   1  11
ATOM     11  C   UNL     1      47.037 133.172  21.609  1.00  0.00     0.342 C 
ATOM     12  O   UNL     1      47.663 132.203  21.101  1.00  0.00    -0.246 OA
BRANCH  11  13
ATOM     13  O   UNL     1      45.658 133.074  21.827  1.00  0.00    -0.418 OA
BRANCH  13  14
ATOM     14  C   UNL     1      45.037 131.939  22.367  1.00  0.00     0.185 A 
ATOM     15  C   UNL     1      44.928 131.823  23.765  1.00  0.00     0.078 A 
ATOM     16  C   UNL     1      44.519 130.920  21.534  1.00  0.00     0.173 A 
ATOM     17  C   UNL     1      44.262 130.725  24.323  1.00  0.00     0.033 A 
ATOM     18  C   UNL     1      43.844 129.834  22.113  1.00  0.00     0.042 A 
ATOM     19  C   UNL     1      43.722 129.726  23.504  1.00  0.00    -0.046 A 
ATOM     20  C   UNL     1      42.973 128.575  24.109  1.00  0.00     0.044 C 
BRANCH  15  21
ATOM     21  N   UNL     1      45.468 132.833  24.625  1.00  0.00    -0.396 N 
ATOM     22  H   UNL     1      46.363 132.673  25.139  1.00  0.00     0.156 HD
ATOM     23  H   UNL     1      44.987 133.752  24.756  1.00  0.00     0.156 HD
ENDBRANCH  15  21
BRANCH  16  24
ATOM     24  N   UNL     1      44.727 130.947  20.112  1.00  0.00    -0.009 N 
ATOM     25  N   UNL     1      43.952 131.627  19.266  1.00  0.00     0.054 NA
ATOM     26  N   UNL     1      45.719 130.315  19.487  1.00  0.00    -0.161 N 
ATOM     27  C   UNL     1      44.479 131.397  18.051  1.00  0.00     0.249 A 
ATOM     28  C   UNL     1      45.567 130.590  18.186  1.00  0.00     0.198 A 
ATOM     29  C   UNL     1      44.045 131.853  16.810  1.00  0.00     0.064 A 
ATOM     30  C   UNL     1      46.321 130.165  17.096  1.00  0.00     0.058 A 
ATOM     31  C   UNL     1      44.781 131.447  15.679  1.00  0.00     0.005 A 
ATOM     32  C   UNL     1      45.914 130.608  15.821  1.00  0.00     0.005 A 
ATOM     33  H   UNL     1      46.445 129.710  19.932  1.00  0.00     0.340 HD
ENDBRANCH  16  24
ENDBRANCH  13  14
ENDBRANCH  11  13
ENDBRANCH   1  11
TORSDOF 9
ENDMDL
MODEL 5
REMARK VINA RESULT:      -4.5      2.633      6.590
REMARK SMILES Cc1cc(N)c(OC(=O)/C=C(\[NH3+])C([NH-])=O)c(-n2nc3ccccc3[nH+]2)c1
REMARK SMILES IDX 10 1 11 2 13 3 15 4 14 5 12 7 8 11 9 12 7 13 6 14 4 15 16 16
REMARK SMILES IDX 3 17 26 18 2 19 1 20 5 21 17 24 18 25 25 26 19 27 24 28
REMARK SMILES IDX 20 29 23 30 21 31 22 32
REMARK H PARENT 14 6 12 8 12 9 12 10 5 22 5 23 25 33
ROOT
ATOM      1  C   UNL     1      45.056 128.698  22.324  1.00  0.00     0.163 C 
ENDROOT
BRANCH   1   2
ATOM      2  C   UNL     1      45.208 127.376  22.571  1.00  0.00     0.160 C 
BRANCH   2   3
ATOM      3  C   UNL     1      44.704 126.810  23.854  1.00  0.00     0.134 C 
ATOM      4  O   UNL     1      43.564 127.134  24.285  1.00  0.00    -0.309 OA
BRANCH   3   5
ATOM      5  N   UNL     1      45.494 125.899  24.616  1.00  0.00    -0.659 NA
ATOM      6  H   UNL     1      45.266 125.694  25.614  1.00  0.00    -0.121 HD
ENDBRANCH   3   5
ENDBRANCH   2   3
BRANCH   2   7
ATOM      7  N   UNL     1      45.840 126.505  21.611  1.00  0.00    -0.323 N 
ATOM      8  H   UNL     1      46.473 127.060  20.991  1.00  0.00     0.350 HD
ATOM      9  H   UNL     1      45.108 126.011  21.052  1.00  0.00     0.350 HD
ATOM     10  H   UNL     1      46.430 125.781  22.078  1.00  0.00     0.350 HD
ENDBRANCH   2   7
ENDBRANCH   1   2
BRANCH   1  11
ATOM     11  C   UNL     1      45.462 129.400  21.087  1.00  0.00     0.342 C 
ATOM     12  O   UNL     1      45.947 128.720  20.142  1.00  0.00    -0.246 OA
BRANCH  11  13
ATOM     13  O   UNL     1      45.354 130.790  20.962  1.00  0.00    -0.418 OA
BRANCH  13  14
ATOM     14  C   UNL     1      44.135 131.479  20.994  1.00  0.00     0.185 A 
ATOM     15  C   UNL     1      43.515 131.709  22.236  1.00  0.00     0.078 A 
ATOM     16  C   UNL     1      43.524 131.946  19.807  1.00  0.00     0.173 A 
ATOM     17  C   UNL     1      42.324 132.444  22.296  1.00  0.00     0.033 A 
ATOM     18  C   UNL     1      42.338 132.692  19.889  1.00  0.00     0.042 A 
ATOM     19  C   UNL     1      41.729 132.934  21.127  1.00  0.00    -0.046 A 
ATOM     20  C   UNL     1      40.477 133.756  21.204  1.00  0.00     0.044 C 
BRANCH  15  21
ATOM     21  N   UNL     1      44.105 131.222  23.447  1.00  0.00    -0.396 N 
ATOM     22  H   UNL     1      43.828 131.620  24.373  1.00  0.00     0.156 HD
ATOM     23  H   UNL     1      44.818 130.459  23.437  1.00  0.00     0.156 HD
ENDBRANCH  15  21
BRANCH  16  24
ATOM     24  N   UNL     1      44.065 131.619  18.517  1.00  0.00    -0.009 N 
ATOM     25  N   UNL     1      43.388 131.753  17.376  1.00  0.00     0.054 NA
ATOM     26  N   UNL     1      45.301 131.162  18.316  1.00  0.00    -0.161 N 
ATOM     27  C   UNL     1      44.239 131.350  16.416  1.00  0.00     0.249 A 
ATOM     28  C   UNL     1      45.417 130.985  16.994  1.00  0.00     0.198 A 
ATOM     29  C   UNL     1      44.032 131.269  15.043  1.00  0.00     0.064 A 
ATOM     30  C   UNL     1      46.495 130.508  16.254  1.00  0.00     0.058 A 
ATOM     31  C   UNL     1      45.100 130.793  14.256  1.00  0.00     0.005 A 
ATOM     32  C   UNL     1      46.326 130.415  14.858  1.00  0.00     0.005 A 
ATOM     33  H   UNL     1      46.014 130.962  19.052  1.00  0.00     0.340 HD
ENDBRANCH  16  24
ENDBRANCH  13  14
ENDBRANCH  11  13
ENDBRANCH   1  11
TORSDOF 9
ENDMDL
MODEL 6
REMARK VINA RESULT:      -4.5      4.718      6.555
REMARK SMILES Cc1cc(N)c(OC(=O)/C=C(\[NH3+])C([NH-])=O)c(-n2nc3ccccc3[nH+]2)c1
REMARK SMILES IDX 10 1 11 2 13 3 15 4 14 5 12 7 8 11 9 12 7 13 6 14 4 15 16 16
REMARK SMILES IDX 3 17 26 18 2 19 1 20 5 21 17 24 18 25 25 26 19 27 24 28
REMARK SMILES IDX 20 29 23 30 21 31 22 32
REMARK H PARENT 14 6 12 8 12 9 12 10 5 22 5 23 25 33
ROOT
ATOM      1  C   UNL     1      47.019 133.293  21.453  1.00  0.00     0.163 C 
ENDROOT
BRANCH   1   2
ATOM      2  C   UNL     1      48.059 133.977  21.984  1.00  0.00     0.160 C 
BRANCH   2   3
ATOM      3  C   UNL     1      48.255 135.408  21.621  1.00  0.00     0.134 C 
ATOM      4  O   UNL     1      47.287 136.089  21.185  1.00  0.00    -0.309 OA
BRANCH   3   5
ATOM      5  N   UNL     1      49.531 136.033  21.754  1.00  0.00    -0.659 NA
ATOM      6  H   UNL     1      50.171 136.129  20.934  1.00  0.00    -0.121 HD
ENDBRANCH   3   5
ENDBRANCH   2   3
BRANCH   2   7
ATOM      7  N   UNL     1      48.975 133.346  22.903  1.00  0.00    -0.323 N 
ATOM      8  H   UNL     1      48.629 133.458  23.883  1.00  0.00     0.350 HD
ATOM      9  H   UNL     1      49.926 133.766  22.792  1.00  0.00     0.350 HD
ATOM     10  H   UNL     1      49.055 132.321  22.723  1.00  0.00     0.350 HD
ENDBRANCH   2   7
ENDBRANCH   1   2
BRANCH   1  11
ATOM     11  C   UNL     1      47.078 131.927  20.889  1.00  0.00     0.342 C 
ATOM     12  O   UNL     1      48.172 131.521  20.412  1.00  0.00    -0.246 OA
BRANCH  11  13
ATOM     13  O   UNL     1      45.948 131.102  20.842  1.00  0.00    -0.418 OA
BRANCH  13  14
ATOM     14  C   UNL     1      44.633 131.585  20.887  1.00  0.00     0.185 A 
ATOM     15  C   UNL     1      44.029 131.798  22.140  1.00  0.00     0.078 A 
ATOM     16  C   UNL     1      43.912 131.862  19.702  1.00  0.00     0.173 A 
ATOM     17  C   UNL     1      42.736 132.332  22.208  1.00  0.00     0.033 A 
ATOM     18  C   UNL     1      42.623 132.409  19.792  1.00  0.00     0.042 A 
ATOM     19  C   UNL     1      42.027 132.635  21.039  1.00  0.00    -0.046 A 
ATOM     20  C   UNL     1      40.660 133.247  21.122  1.00  0.00     0.044 C 
BRANCH  15  21
ATOM     21  N   UNL     1      44.734 131.499  23.350  1.00  0.00    -0.396 N 
ATOM     22  H   UNL     1      44.481 131.974  24.246  1.00  0.00     0.156 HD
ATOM     23  H   UNL     1      45.511 130.801  23.370  1.00  0.00     0.156 HD
ENDBRANCH  15  21
BRANCH  16  24
ATOM     24  N   UNL     1      44.454 131.537  18.412  1.00  0.00    -0.009 N 
ATOM     25  N   UNL     1      45.518 130.752  18.234  1.00  0.00     0.054 NA
ATOM     26  N   UNL     1      43.948 131.966  17.256  1.00  0.00    -0.161 N 
ATOM     27  C   UNL     1      45.691 130.699  16.902  1.00  0.00     0.249 A 
ATOM     28  C   UNL     1      44.726 131.446  16.299  1.00  0.00     0.198 A 
ATOM     29  C   UNL     1      46.673 130.032  16.175  1.00  0.00     0.064 A 
ATOM     30  C   UNL     1      44.652 131.594  14.917  1.00  0.00     0.058 A 
ATOM     31  C   UNL     1      46.633 130.155  14.772  1.00  0.00     0.005 A 
ATOM     32  C   UNL     1      45.627 130.931  14.146  1.00  0.00     0.005 A 
ATOM     33  H   UNL     1      43.127 132.600  17.137  1.00  0.00     0.340 HD
ENDBRANCH  16  24
ENDBRANCH  13  14
ENDBRANCH  11  13
ENDBRANCH   1  11
TORSDOF 9
ENDMDL
MODEL 7
REMARK VINA RESULT:      -4.1      3.919      6.219
REMARK SMILES Cc1cc(N)c(OC(=O)/C=C(\[NH3+])C([NH-])=O)c(-n2nc3ccccc3[nH+]2)c1
REMARK SMILES IDX 10 1 11 2 13 3 15 4 14 5 12 7 8 11 9 12 7 13 6 14 4 15 16 16
REMARK SMILES IDX 3 17 26 18 2 19 1 20 5 21 17 24 18 25 25 26 19 27 24 28
REMARK SMILES IDX 20 29 23 30 21 31 22 32
REMARK H PARENT 14 6 12 8 12 9 12 10 5 22 5 23 25 33
ROOT
ATOM      1  C   UNL     1      47.594 134.712  22.138  1.00  0.00     0.163 C 
ENDROOT
BRANCH   1   2
ATOM      2  C   UNL     1      48.915 134.948  22.318  1.00  0.00     0.160 C 
BRANCH   2   3
ATOM      3  C   UNL     1      49.622 134.310  23.463  1.00  0.00     0.134 C 
ATOM      4  O   UNL     1      50.027 135.013  24.428  1.00  0.00    -0.309 OA
BRANCH   3   5
ATOM      5  N   UNL     1      49.857 132.903  23.491  1.00  0.00    -0.659 NA
ATOM      6  H   UNL     1      50.389 132.431  22.726  1.00  0.00    -0.121 HD
ENDBRANCH   3   5
ENDBRANCH   2   3
BRANCH   2   7
ATOM      7  N   UNL     1      49.650 135.799  21.414  1.00  0.00    -0.323 N 
ATOM      8  H   UNL     1      49.413 135.557  20.426  1.00  0.00     0.350 HD
ATOM      9  H   UNL     1      50.675 135.692  21.590  1.00  0.00     0.350 HD
ATOM     10  H   UNL     1      49.406 136.805  21.549  1.00  0.00     0.350 HD
ENDBRANCH   2   7
ENDBRANCH   1   2
BRANCH   1  11
ATOM     11  C   UNL     1      46.991 133.421  21.741  1.00  0.00     0.342 C 
ATOM     12  O   UNL     1      47.747 132.519  21.290  1.00  0.00    -0.246 OA
BRANCH  11  13
ATOM     13  O   UNL     1      45.612 133.200  21.821  1.00  0.00    -0.418 OA
BRANCH  13  14
ATOM     14  C   UNL     1      45.042 132.055  22.395  1.00  0.00     0.185 A 
ATOM     15  C   UNL     1      44.933 131.978  23.796  1.00  0.00     0.078 A 
ATOM     16  C   UNL     1      44.576 130.987  21.594  1.00  0.00     0.173 A 
ATOM     17  C   UNL     1      44.316 130.868  24.387  1.00  0.00     0.033 A 
ATOM     18  C   UNL     1      43.949 129.889  22.205  1.00  0.00     0.042 A 
ATOM     19  C   UNL     1      43.827 129.820  23.598  1.00  0.00    -0.046 A 
ATOM     20  C   UNL     1      43.130 128.655  24.237  1.00  0.00     0.044 C 
BRANCH  15  21
ATOM     21  N   UNL     1      45.421 133.039  24.625  1.00  0.00    -0.396 N 
ATOM     22  H   UNL     1      45.244 134.037  24.373  1.00  0.00     0.156 HD
ATOM     23  H   UNL     1      45.960 132.844  25.498  1.00  0.00     0.156 HD
ENDBRANCH  15  21
BRANCH  16  24
ATOM     24  N   UNL     1      44.787 130.979  20.172  1.00  0.00    -0.009 N 
ATOM     25  N   UNL     1      45.750 130.277  19.573  1.00  0.00     0.054 NA
ATOM     26  N   UNL     1      44.041 131.655  19.300  1.00  0.00    -0.161 N 
ATOM     27  C   UNL     1      45.604 130.537  18.262  1.00  0.00     0.249 A 
ATOM     28  C   UNL     1      44.553 131.386  18.092  1.00  0.00     0.198 A 
ATOM     29  C   UNL     1      46.363 130.075  17.191  1.00  0.00     0.064 A 
ATOM     30  C   UNL     1      44.163 131.849  16.840  1.00  0.00     0.058 A 
ATOM     31  C   UNL     1      46.000 130.518  15.903  1.00  0.00     0.005 A 
ATOM     32  C   UNL     1      44.904 131.401  15.728  1.00  0.00     0.005 A 
ATOM     33  H   UNL     1      43.239 132.285  19.527  1.00  0.00     0.340 HD
ENDBRANCH  16  24
ENDBRANCH  13  14
ENDBRANCH  11  13
ENDBRANCH   1  11
TORSDOF 9
ENDMDL
MODEL 8
REMARK VINA RESULT:      -4.0      3.376      5.543
REMARK SMILES Cc1cc(N)c(OC(=O)/C=C(\[NH3+])C([NH-])=O)c(-n2nc3ccccc3[nH+]2)c1
REMARK SMILES IDX 10 1 11 2 13 3 15 4 14 5 12 7 8 11 9 12 7 13 6 14 4 15 16 16
REMARK SMILES IDX 3 17 26 18 2 19 1 20 5 21 17 24 18 25 25 26 19 27 24 28
REMARK SMILES IDX 20 29 23 30 21 31 22 32
REMARK H PARENT 14 6 12 8 12 9 12 10 5 22 5 23 25 33
ROOT
ATOM      1  C   UNL     1      40.794 126.486  23.400  1.00  0.00     0.163 C 
ENDROOT
BRANCH   1   2
ATOM      2  C   UNL     1      39.539 125.984  23.323  1.00  0.00     0.160 C 
BRANCH   2   3
ATOM      3  C   UNL     1      38.377 126.876  23.590  1.00  0.00     0.134 C 
ATOM      4  O   UNL     1      38.469 127.798  24.445  1.00  0.00    -0.309 OA
BRANCH   3   5
ATOM      5  N   UNL     1      37.144 126.707  22.893  1.00  0.00    -0.659 NA
ATOM      6  H   UNL     1      36.248 126.563  23.410  1.00  0.00    -0.121 HD
ENDBRANCH   3   5
ENDBRANCH   2   3
BRANCH   2   7
ATOM      7  N   UNL     1      39.309 124.602  22.977  1.00  0.00    -0.323 N 
ATOM      8  H   UNL     1      40.213 124.079  22.985  1.00  0.00     0.350 HD
ATOM      9  H   UNL     1      38.854 124.548  22.038  1.00  0.00     0.350 HD
ATOM     10  H   UNL     1      38.679 124.134  23.665  1.00  0.00     0.350 HD
ENDBRANCH   2   7
ENDBRANCH   1   2
BRANCH   1  11
ATOM     11  C   UNL     1      41.908 125.916  24.188  1.00  0.00     0.342 C 
ATOM     12  O   UNL     1      41.794 124.738  24.625  1.00  0.00    -0.246 OA
BRANCH  11  13
ATOM     13  O   UNL     1      43.055 126.661  24.485  1.00  0.00    -0.418 OA
BRANCH  13  14
ATOM     14  C   UNL     1      43.437 127.810  23.779  1.00  0.00     0.185 A 
ATOM     15  C   UNL     1      42.574 128.921  23.769  1.00  0.00     0.078 A 
ATOM     16  C   UNL     1      44.669 127.870  23.086  1.00  0.00     0.173 A 
ATOM     17  C   UNL     1      42.962 130.099  23.116  1.00  0.00     0.033 A 
ATOM     18  C   UNL     1      45.044 129.063  22.449  1.00  0.00     0.042 A 
ATOM     19  C   UNL     1      44.192 130.174  22.452  1.00  0.00    -0.046 A 
ATOM     20  C   UNL     1      44.617 131.453  21.792  1.00  0.00     0.044 C 
BRANCH  15  21
ATOM     21  N   UNL     1      41.312 128.871  24.444  1.00  0.00    -0.396 N 
ATOM     22  H   UNL     1      41.253 128.564  25.441  1.00  0.00     0.156 HD
ATOM     23  H   UNL     1      40.426 129.144  23.963  1.00  0.00     0.156 HD
ENDBRANCH  15  21
BRANCH  16  24
ATOM     24  N   UNL     1      45.512 126.711  22.972  1.00  0.00    -0.009 N 
ATOM     25  N   UNL     1      45.523 125.909  21.907  1.00  0.00     0.054 NA
ATOM     26  N   UNL     1      46.381 126.323  23.903  1.00  0.00    -0.161 N 
ATOM     27  C   UNL     1      46.437 124.965  22.194  1.00  0.00     0.249 A 
ATOM     28  C   UNL     1      46.966 125.218  23.423  1.00  0.00     0.198 A 
ATOM     29  C   UNL     1      46.829 123.869  21.432  1.00  0.00     0.064 A 
ATOM     30  C   UNL     1      47.933 124.403  24.001  1.00  0.00     0.058 A 
ATOM     31  C   UNL     1      47.809 123.018  21.980  1.00  0.00     0.005 A 
ATOM     32  C   UNL     1      48.359 123.284  23.259  1.00  0.00     0.005 A 
ATOM     33  H   UNL     1      46.544 126.781  24.828  1.00  0.00     0.340 HD
ENDBRANCH  16  24
ENDBRANCH  13  14
ENDBRANCH  11  13
ENDBRANCH   1  11
TORSDOF 9
ENDMDL
MODEL 9
REMARK VINA RESULT:      -3.8      3.669      6.139
REMARK SMILES Cc1cc(N)c(OC(=O)/C=C(\[NH3+])C([NH-])=O)c(-n2nc3ccccc3[nH+]2)c1
REMARK SMILES IDX 10 1 11 2 13 3 15 4 14 5 12 7 8 11 9 12 7 13 6 14 4 15 16 16
REMARK SMILES IDX 3 17 26 18 2 19 1 20 5 21 17 24 18 25 25 26 19 27 24 28
REMARK SMILES IDX 20 29 23 30 21 31 22 32
REMARK H PARENT 14 6 12 8 12 9 12 10 5 22 5 23 25 33
ROOT
ATOM      1  C   UNL     1      47.238 134.525  22.323  1.00  0.00     0.163 C 
ENDROOT
BRANCH   1   2
ATOM      2  C   UNL     1      48.546 134.749  22.591  1.00  0.00     0.160 C 
BRANCH   2   3
ATOM      3  C   UNL     1      49.262 135.840  21.873  1.00  0.00     0.134 C 
ATOM      4  O   UNL     1      50.465 136.099  22.151  1.00  0.00    -0.309 OA
BRANCH   3   5
ATOM      5  N   UNL     1      48.610 136.610  20.864  1.00  0.00    -0.659 NA
ATOM      6  H   UNL     1      47.782 137.204  21.093  1.00  0.00    -0.121 HD
ENDBRANCH   3   5
ENDBRANCH   2   3
BRANCH   2   7
ATOM      7  N   UNL     1      49.255 133.956  23.565  1.00  0.00    -0.323 N 
ATOM      8  H   UNL     1      49.101 132.940  23.376  1.00  0.00     0.350 HD
ATOM      9  H   UNL     1      48.930 134.211  24.525  1.00  0.00     0.350 HD
ATOM     10  H   UNL     1      50.285 134.123  23.521  1.00  0.00     0.350 HD
ENDBRANCH   2   7
ENDBRANCH   1   2
BRANCH   1  11
ATOM     11  C   UNL     1      46.674 133.295  21.727  1.00  0.00     0.342 C 
ATOM     12  O   UNL     1      47.442 132.540  21.070  1.00  0.00    -0.246 OA
BRANCH  11  13
ATOM     13  O   UNL     1      45.316 132.977  21.845  1.00  0.00    -0.418 OA
BRANCH  13  14
ATOM     14  C   UNL     1      44.847 131.747  22.325  1.00  0.00     0.185 A 
ATOM     15  C   UNL     1      44.704 131.568  23.713  1.00  0.00     0.078 A 
ATOM     16  C   UNL     1      44.513 130.693  21.442  1.00  0.00     0.173 A 
ATOM     17  C   UNL     1      44.184 130.367  24.211  1.00  0.00     0.033 A 
ATOM     18  C   UNL     1      43.981 129.502  21.961  1.00  0.00     0.042 A 
ATOM     19  C   UNL     1      43.825 129.330  23.341  1.00  0.00    -0.046 A 
ATOM     20  C   UNL     1      43.229 128.063  23.881  1.00  0.00     0.044 C 
BRANCH  15  21
ATOM     21  N   UNL     1      45.060 132.614  24.624  1.00  0.00    -0.396 N 
ATOM     22  H   UNL     1      46.039 132.977  24.663  1.00  0.00     0.156 HD
ATOM     23  H   UNL     1      44.354 133.043  25.265  1.00  0.00     0.156 HD
ENDBRANCH  15  21
BRANCH  16  24
ATOM     24  N   UNL     1      44.767 130.800  20.032  1.00  0.00    -0.009 N 
ATOM     25  N   UNL     1      45.684 130.075  19.390  1.00  0.00     0.054 NA
ATOM     26  N   UNL     1      44.108 131.616  19.211  1.00  0.00    -0.161 N 
ATOM     27  C   UNL     1      45.602 130.467  18.107  1.00  0.00     0.249 A 
ATOM     28  C   UNL     1      44.632 131.417  17.995  1.00  0.00     0.198 A 
ATOM     29  C   UNL     1      46.351 130.043  17.014  1.00  0.00     0.064 A 
ATOM     30  C   UNL     1      44.321 132.027  16.785  1.00  0.00     0.058 A 
ATOM     31  C   UNL     1      46.066 130.635  15.767  1.00  0.00     0.005 A 
ATOM     32  C   UNL     1      45.056 131.622  15.652  1.00  0.00     0.005 A 
ATOM     33  H   UNL     1      43.356 132.290  19.480  1.00  0.00     0.340 HD
ENDBRANCH  16  24
ENDBRANCH  13  14
ENDBRANCH  11  13
ENDBRANCH   1  11
TORSDOF 9
ENDMDL


