REMARK SMILES Cc1ccc([C@@H]2CC[C@@H](N)[C@@]3(C=O)C=CN[C@@H]23)cc1F
REMARK SMILES IDX 6 1 7 2 8 3 9 4 11 5 14 6 15 7 16 8 17 9 5 11 2 12 3 13
REMARK SMILES IDX 19 14 4 15 18 16 1 17 20 18 12 19 13 20 10 21
REMARK H PARENT 16 10 10 22 10 23
ROOT
ATOM      1  C   UNL     1       0.665  -0.376  -0.333  1.00  0.00     0.043 C 
ATOM      2  C   UNL     1       0.493  -0.389   1.189  1.00  0.00     0.012 C 
ATOM      3  C   UNL     1       1.790   0.059   1.854  1.00  0.00     0.021 C 
ATOM      4  C   UNL     1       2.062   1.530   1.524  1.00  0.00     0.070 C 
ATOM      5  C   UNL     1       2.116   1.807  -0.015  1.00  0.00     0.081 C 
ATOM      6  C   UNL     1       3.416   1.397  -0.658  1.00  0.00     0.008 C 
ATOM      7  C   UNL     1       3.195   0.910  -1.864  1.00  0.00     0.075 C 
ATOM      8  N   UNL     1       1.809   0.791  -2.132  1.00  0.00    -0.386 N 
ATOM      9  C   UNL     1       1.079   1.018  -0.891  1.00  0.00     0.104 C 
ATOM     10  H   UNL     1       1.411   0.346  -2.989  1.00  0.00     0.160 HD
ENDROOT
BRANCH   1  11
ATOM     11  C   UNL     1      -0.582  -0.896  -1.027  1.00  0.00    -0.040 A 
ATOM     12  C   UNL     1      -2.882  -1.871  -2.339  1.00  0.00    -0.015 A 
ATOM     13  C   UNL     1      -2.961  -0.734  -1.521  1.00  0.00     0.007 A 
ATOM     14  C   UNL     1      -1.643  -2.506  -2.516  1.00  0.00     0.126 A 
ATOM     15  C   UNL     1      -1.823  -0.252  -0.869  1.00  0.00     0.004 A 
ATOM     16  C   UNL     1      -0.504  -2.024  -1.863  1.00  0.00     0.043 A 
ATOM     17  C   UNL     1      -4.099  -2.371  -3.062  1.00  0.00     0.047 C 
ATOM     18  F   UNL     1      -1.535  -3.591  -3.325  1.00  0.00    -0.207 F 
ENDBRANCH   1  11
BRANCH   5  19
ATOM     19  C   UNL     1       1.939   3.299  -0.249  1.00  0.00     0.239 C 
ATOM     20  O   UNL     1       0.891   3.855   0.042  1.00  0.00    -0.302 OA
ENDBRANCH   5  19
BRANCH   4  21
ATOM     21  N   UNL     1       3.301   1.961   2.181  1.00  0.00    -0.326 NA
ATOM     22  H   UNL     1       3.417   2.990   2.035  1.00  0.00     0.119 HD
ATOM     23  H   UNL     1       3.194   1.833   3.214  1.00  0.00     0.119 HD
ENDBRANCH   4  21
TORSDOF 3


