REMARK SMILES O=C(c1cscn1)N1C[C@@H]2CCCC[C@@H]2N[C@@H]1c1ccc2[nH]ccc2c1
REMARK SMILES IDX 8 1 9 2 10 3 11 4 12 5 13 6 14 7 15 8 16 9 17 10 2 12 1 13
REMARK SMILES IDX 3 14 4 15 7 16 5 17 6 18 18 19 19 20 26 21 20 22 25 23 21 24
REMARK SMILES IDX 24 25 22 26 23 27
REMARK H PARENT 16 11 22 28
ROOT
ATOM      1  N   UNL     1       0.782   0.731   0.278  1.00  0.00    -0.317 N 
ATOM      2  C   UNL     1       1.164   1.467   1.490  1.00  0.00     0.127 C 
ATOM      3  C   UNL     1       0.293   2.719   1.641  1.00  0.00     0.026 C 
ATOM      4  C   UNL     1       0.683   3.576   2.865  1.00  0.00     0.007 C 
ATOM      5  C   UNL     1       0.192   2.980   4.187  1.00  0.00     0.000 C 
ATOM      6  C   UNL     1      -1.317   2.747   4.142  1.00  0.00     0.002 C 
ATOM      7  C   UNL     1      -1.683   1.803   2.995  1.00  0.00     0.019 C 
ATOM      8  C   UNL     1      -1.213   2.338   1.628  1.00  0.00     0.060 C 
ATOM      9  N   UNL     1      -1.549   1.318   0.609  1.00  0.00    -0.290 NA
ATOM     10  C   UNL     1      -0.502   1.033  -0.388  1.00  0.00     0.185 C 
ATOM     11  H   UNL     1      -2.416   1.623   0.105  1.00  0.00     0.125 HD
ENDROOT
BRANCH   1  12
ATOM     12  C   UNL     1       1.817   0.018  -0.425  1.00  0.00     0.274 C 
ATOM     13  O   UNL     1       2.101   0.343  -1.610  1.00  0.00    -0.267 OA
BRANCH  12  14
ATOM     14  C   UNL     1       2.544  -1.092   0.213  1.00  0.00     0.139 A 
ATOM     15  C   UNL     1       2.102  -1.744   1.362  1.00  0.00     0.100 A 
ATOM     16  N   UNL     1       3.699  -1.583  -0.316  1.00  0.00    -0.240 NA
ATOM     17  S   UNL     1       3.208  -2.957   1.717  1.00  0.00    -0.130 S 
ATOM     18  C   UNL     1       4.196  -2.612   0.404  1.00  0.00     0.176 A 
ENDBRANCH  12  14
ENDBRANCH   1  12
BRANCH  10  19
ATOM     19  C   UNL     1      -0.956  -0.142  -1.230  1.00  0.00    -0.010 A 
ATOM     20  C   UNL     1      -1.130   0.003  -2.632  1.00  0.00     0.009 A 
ATOM     21  C   UNL     1      -1.195  -1.395  -0.621  1.00  0.00     0.017 A 
ATOM     22  C   UNL     1      -1.533  -1.089  -3.421  1.00  0.00     0.027 A 
ATOM     23  C   UNL     1      -1.590  -2.454  -1.433  1.00  0.00    -0.000 A 
ATOM     24  C   UNL     1      -1.754  -2.308  -2.784  1.00  0.00     0.045 A 
ATOM     25  C   UNL     1      -1.877  -3.765  -1.122  1.00  0.00     0.028 A 
ATOM     26  N   UNL     1      -2.134  -3.467  -3.346  1.00  0.00    -0.361 N 
ATOM     27  C   UNL     1      -2.211  -4.361  -2.334  1.00  0.00     0.083 A 
ATOM     28  H   UNL     1      -2.330  -3.646  -4.356  1.00  0.00     0.166 HD
ENDBRANCH  10  19
TORSDOF 3


