REMARK SMILES Cc1ccc([C@@H]2CC[C@@H]3CC=N[C@]3(C=O)C2)c(F)c1F
REMARK SMILES IDX 6 1 7 2 8 3 9 4 10 5 11 6 12 7 13 8 16 9 5 10 2 11 3 12
REMARK SMILES IDX 19 13 4 14 17 15 1 16 20 17 18 18 14 19 15 20
REMARK H PARENT
ROOT
ATOM      1  C   UNL     1      -0.028   0.831  -0.085  1.00  0.00     0.025 C 
ATOM      2  C   UNL     1      -0.477   1.154   1.370  1.00  0.00     0.009 C 
ATOM      3  C   UNL     1      -1.711   0.357   1.812  1.00  0.00     0.007 C 
ATOM      4  C   UNL     1      -2.865   0.520   0.801  1.00  0.00     0.029 C 
ATOM      5  C   UNL     1      -4.008  -0.471   1.081  1.00  0.00     0.054 C 
ATOM      6  C   UNL     1      -4.090  -1.255  -0.174  1.00  0.00     0.079 C 
ATOM      7  N   UNL     1      -3.271  -0.880  -1.078  1.00  0.00    -0.283 NA
ATOM      8  C   UNL     1      -2.442   0.228  -0.677  1.00  0.00     0.119 C 
ATOM      9  C   UNL     1      -0.953  -0.180  -0.800  1.00  0.00     0.047 C 
ENDROOT
BRANCH   1  10
ATOM     10  C   UNL     1       1.421   0.373  -0.152  1.00  0.00    -0.006 A 
ATOM     11  C   UNL     1       4.115  -0.453  -0.334  1.00  0.00    -0.012 A 
ATOM     12  C   UNL     1       3.667   0.666  -1.050  1.00  0.00     0.007 A 
ATOM     13  C   UNL     1       3.207  -1.173   0.458  1.00  0.00     0.162 A 
ATOM     14  C   UNL     1       2.334   1.075  -0.958  1.00  0.00     0.007 A 
ATOM     15  C   UNL     1       1.872  -0.765   0.552  1.00  0.00     0.162 A 
ATOM     16  C   UNL     1       5.541  -0.908  -0.453  1.00  0.00     0.047 C 
ATOM     17  F   UNL     1       3.616  -2.274   1.139  1.00  0.00    -0.203 F 
ATOM     18  F   UNL     1       1.024  -1.481   1.332  1.00  0.00    -0.203 F 
ENDBRANCH   1  10
BRANCH   8  19
ATOM     19  C   UNL     1      -2.734   1.405  -1.585  1.00  0.00     0.254 C 
ATOM     20  O   UNL     1      -2.661   1.284  -2.798  1.00  0.00    -0.301 OA
ENDBRANCH   8  19
TORSDOF 2


