REMARK SMILES C=Cc1ccc(-c2ccc3[nH]ccc3c2)nc1
REMARK SMILES IDX 3 1 4 2 5 3 6 4 16 5 17 6 2 7 1 8 7 9 8 10 15 11 9 12 14 13
REMARK SMILES IDX 10 14 13 15 11 16 12 17
REMARK H PARENT 11 18
ROOT
ATOM      1  C   UNL     1       2.644   3.033   0.322  1.00  0.00    -0.008 A 
ATOM      2  C   UNL     1       1.499   3.439  -0.386  1.00  0.00     0.012 A 
ATOM      3  C   UNL     1       0.469   2.532  -0.646  1.00  0.00     0.029 A 
ATOM      4  C   UNL     1       0.574   1.201  -0.197  1.00  0.00     0.070 A 
ATOM      5  N   UNL     1       1.697   0.839   0.486  1.00  0.00    -0.256 NA
ATOM      6  C   UNL     1       2.712   1.702   0.751  1.00  0.00     0.119 A 
ENDROOT
BRANCH   1   7
ATOM      7  C   UNL     1       3.779   3.940   0.635  1.00  0.00     0.002 C 
ATOM      8  C   UNL     1       3.846   5.227   0.288  1.00  0.00     0.009 C 
ENDBRANCH   1   7
BRANCH   4   9
ATOM      9  C   UNL     1      -0.487   0.172  -0.436  1.00  0.00     0.001 A 
ATOM     10  C   UNL     1      -1.694   0.465  -1.142  1.00  0.00     0.012 A 
ATOM     11  C   UNL     1      -0.294  -1.147   0.054  1.00  0.00     0.020 A 
ATOM     12  C   UNL     1      -2.672  -0.524  -1.351  1.00  0.00     0.027 A 
ATOM     13  C   UNL     1      -1.285  -2.097  -0.173  1.00  0.00     0.000 A 
ATOM     14  C   UNL     1      -2.432  -1.798  -0.850  1.00  0.00     0.045 A 
ATOM     15  C   UNL     1      -1.352  -3.425   0.186  1.00  0.00     0.028 A 
ATOM     16  N   UNL     1      -3.230  -2.875  -0.940  1.00  0.00    -0.361 N 
ATOM     17  C   UNL     1      -2.573  -3.873  -0.307  1.00  0.00     0.083 A 
ATOM     18  H   UNL     1      -4.165  -2.933  -1.402  1.00  0.00     0.166 HD
ENDBRANCH   4   9
TORSDOF 2


