REMARK SMILES O=C(C(=O)c1cc2cc(-c3nc[nH+]cc3F)[nH]c2cc1F)c1ccccc1
REMARK SMILES IDX 5 1 6 2 7 3 8 4 9 5 17 6 18 7 19 8 20 9 21 10 3 12 4 13 2 14
REMARK SMILES IDX 1 15 22 16 23 17 27 18 24 19 26 20 25 21 10 22 11 23 15 24
REMARK SMILES IDX 12 25 14 26 13 27 16 28
REMARK H PARENT 17 11 13 29
ROOT
ATOM      1  C   UNL     1       0.883   0.172  -0.247  1.00  0.00     0.063 A 
ATOM      2  C   UNL     1      -0.374  -0.466  -0.151  1.00  0.00     0.025 A 
ATOM      3  C   UNL     1      -0.482  -1.777  -0.606  1.00  0.00     0.001 A 
ATOM      4  C   UNL     1      -1.565  -2.629  -0.633  1.00  0.00     0.041 A 
ATOM      5  C   UNL     1      -1.079  -3.819  -1.184  1.00  0.00     0.095 A 
ATOM      6  N   UNL     1       0.242  -3.704  -1.470  1.00  0.00    -0.351 N 
ATOM      7  C   UNL     1       0.589  -2.455  -1.119  1.00  0.00     0.049 A 
ATOM      8  C   UNL     1       1.849  -1.871  -1.211  1.00  0.00     0.066 A 
ATOM      9  C   UNL     1       1.998  -0.544  -0.765  1.00  0.00     0.136 A 
ATOM     10  F   UNL     1       3.231   0.021  -0.794  1.00  0.00    -0.206 F 
ATOM     11  H   UNL     1       0.867  -4.434  -1.878  1.00  0.00     0.167 HD
ENDROOT
BRANCH   1  12
ATOM     12  C   UNL     1       1.022   1.562   0.236  1.00  0.00     0.236 C 
ATOM     13  O   UNL     1       0.579   1.846   1.381  1.00  0.00    -0.285 OA
BRANCH  12  14
ATOM     14  C   UNL     1       1.656   2.615  -0.597  1.00  0.00     0.233 C 
ATOM     15  O   UNL     1       2.094   2.318  -1.741  1.00  0.00    -0.285 OA
BRANCH  14  16
ATOM     16  C   UNL     1       1.796   4.013  -0.128  1.00  0.00     0.026 A 
ATOM     17  C   UNL     1       2.974   4.727  -0.414  1.00  0.00     0.012 A 
ATOM     18  C   UNL     1       0.754   4.663   0.558  1.00  0.00     0.012 A 
ATOM     19  C   UNL     1       3.118   6.053   0.006  1.00  0.00     0.001 A 
ATOM     20  C   UNL     1       0.902   5.990   0.975  1.00  0.00     0.001 A 
ATOM     21  C   UNL     1       2.084   6.683   0.703  1.00  0.00     0.000 A 
ENDBRANCH  14  16
ENDBRANCH  12  14
ENDBRANCH   1  12
BRANCH   5  22
ATOM     22  C   UNL     1      -1.840  -5.071  -1.399  1.00  0.00     0.237 A 
ATOM     23  N   UNL     1      -1.147  -6.231  -1.561  1.00  0.00    -0.044 NA
ATOM     24  C   UNL     1      -3.245  -5.107  -1.456  1.00  0.00     0.215 A 
ATOM     25  C   UNL     1      -1.779  -7.416  -1.761  1.00  0.00     0.449 A 
ATOM     26  C   UNL     1      -3.874  -6.335  -1.661  1.00  0.00     0.241 A 
ATOM     27  N   UNL     1      -3.135  -7.466  -1.806  1.00  0.00    -0.247 N 
ATOM     28  F   UNL     1      -4.000  -3.985  -1.362  1.00  0.00    -0.198 F 
ATOM     29  H   UNL     1      -3.614  -8.381  -1.961  1.00  0.00     0.311 HD
ENDBRANCH   5  22
TORSDOF 4


