MODEL 1
REMARK VINA RESULT:      -7.0      0.000      0.000
REMARK SMILES NC(=O)c1ccc(-c2cc(F)cc(F)c2OCc2n[n-]c3c2CCC3)cc1
REMARK SMILES IDX 8 1 9 2 10 3 11 4 12 5 13 6 14 7 15 8 7 9 4 10 5 11 27 12
REMARK SMILES IDX 6 13 26 14 2 15 1 16 3 19 16 20 17 21 18 22 19 23 22 24
REMARK SMILES IDX 20 25 21 26 23 27 25 28 24 29
REMARK H PARENT 1 17 1 18
ROOT
ATOM      1  C   UNL     1      43.765 130.787  21.829  1.00  0.00     0.030 A 
ATOM      2  C   UNL     1      43.032 131.825  22.428  1.00  0.00     0.052 A 
ATOM      3  C   UNL     1      42.584 131.710  23.745  1.00  0.00     0.127 A 
ATOM      4  F   UNL     1      41.871 132.714  24.310  1.00  0.00    -0.207 F 
ATOM      5  C   UNL     1      42.863 130.555  24.479  1.00  0.00     0.082 A 
ATOM      6  C   UNL     1      43.598 129.518  23.902  1.00  0.00     0.168 A 
ATOM      7  F   UNL     1      43.832 128.392  24.622  1.00  0.00    -0.203 F 
ATOM      8  C   UNL     1      44.065 129.631  22.582  1.00  0.00     0.163 A 
ENDROOT
BRANCH   1   9
ATOM      9  C   UNL     1      44.246 130.937  20.435  1.00  0.00    -0.014 A 
ATOM     10  C   UNL     1      45.168 131.216  17.781  1.00  0.00     0.039 A 
ATOM     11  C   UNL     1      43.935 131.770  18.173  1.00  0.00     0.014 A 
ATOM     12  C   UNL     1      45.943 130.542  18.741  1.00  0.00     0.014 A 
ATOM     13  C   UNL     1      43.480 131.631  19.486  1.00  0.00     0.010 A 
ATOM     14  C   UNL     1      45.484 130.400  20.053  1.00  0.00     0.010 A 
BRANCH  10  15
ATOM     15  C   UNL     1      45.661 131.346  16.390  1.00  0.00     0.248 C 
ATOM     16  N   UNL     1      45.802 132.625  15.764  1.00  0.00    -0.366 N 
ATOM     17  H   UNL     1      46.203 132.692  14.803  1.00  0.00     0.159 HD
ATOM     18  H   UNL     1      45.428 133.494  16.203  1.00  0.00     0.159 HD
ATOM     19  O   UNL     1      45.949 130.311  15.730  1.00  0.00    -0.270 OA
ENDBRANCH  10  15
ENDBRANCH   1   9
BRANCH   8  20
ATOM     20  O   UNL     1      44.833 128.608  22.013  1.00  0.00    -0.484 OA
BRANCH  20  21
ATOM     21  C   UNL     1      45.496 127.617  22.795  1.00  0.00     0.284 C 
BRANCH  21  22
ATOM     22  C   UNL     1      44.940 126.264  22.481  1.00  0.00     0.058 A 
ATOM     23  N   UNL     1      43.688 125.865  22.810  1.00  0.00    -0.369 NA
ATOM     24  C   UNL     1      45.654 125.158  22.089  1.00  0.00    -0.042 A 
ATOM     25  N   UNL     1      43.612 124.545  22.662  1.00  0.00    -0.578 NA
ATOM     26  C   UNL     1      44.803 124.134  22.195  1.00  0.00    -0.141 A 
ATOM     27  C   UNL     1      47.069 124.755  22.177  1.00  0.00     0.036 C 
ATOM     28  C   UNL     1      45.473 122.829  22.346  1.00  0.00     0.013 C 
ATOM     29  C   UNL     1      46.971 123.207  22.198  1.00  0.00     0.008 C 
ENDBRANCH  21  22
ENDBRANCH  20  21
ENDBRANCH   8  20
TORSDOF 5
ENDMDL
MODEL 2
REMARK VINA RESULT:      -6.8      1.927      2.882
REMARK SMILES NC(=O)c1ccc(-c2cc(F)cc(F)c2OCc2n[n-]c3c2CCC3)cc1
REMARK SMILES IDX 8 1 9 2 10 3 11 4 12 5 13 6 14 7 15 8 7 9 4 10 5 11 27 12
REMARK SMILES IDX 6 13 26 14 2 15 1 16 3 19 16 20 17 21 18 22 19 23 22 24
REMARK SMILES IDX 20 25 21 26 23 27 25 28 24 29
REMARK H PARENT 1 17 1 18
ROOT
ATOM      1  C   UNL     1      43.183 131.801  20.219  1.00  0.00     0.030 A 
ATOM      2  C   UNL     1      42.196 132.800  20.161  1.00  0.00     0.052 A 
ATOM      3  C   UNL     1      41.427 133.104  21.286  1.00  0.00     0.127 A 
ATOM      4  F   UNL     1      40.472 134.063  21.216  1.00  0.00    -0.207 F 
ATOM      5  C   UNL     1      41.635 132.414  22.482  1.00  0.00     0.082 A 
ATOM      6  C   UNL     1      42.619 131.425  22.559  1.00  0.00     0.168 A 
ATOM      7  F   UNL     1      42.784 130.746  23.722  1.00  0.00    -0.203 F 
ATOM      8  C   UNL     1      43.407 131.122  21.436  1.00  0.00     0.163 A 
ENDROOT
BRANCH   1   9
ATOM      9  C   UNL     1      43.999 131.505  19.018  1.00  0.00    -0.014 A 
ATOM     10  C   UNL     1      45.548 130.948  16.724  1.00  0.00     0.039 A 
ATOM     11  C   UNL     1      46.028 130.627  18.007  1.00  0.00     0.014 A 
ATOM     12  C   UNL     1      44.274 131.529  16.603  1.00  0.00     0.014 A 
ATOM     13  C   UNL     1      45.260 130.903  19.141  1.00  0.00     0.010 A 
ATOM     14  C   UNL     1      43.510 131.810  17.739  1.00  0.00     0.010 A 
BRANCH  10  15
ATOM     15  C   UNL     1      46.353 130.670  15.511  1.00  0.00     0.248 C 
ATOM     16  N   UNL     1      46.376 131.577  14.406  1.00  0.00    -0.366 N 
ATOM     17  H   UNL     1      46.993 131.384  13.587  1.00  0.00     0.159 HD
ATOM     18  H   UNL     1      45.720 132.387  14.347  1.00  0.00     0.159 HD
ATOM     19  O   UNL     1      47.022 129.604  15.436  1.00  0.00    -0.270 OA
ENDBRANCH  10  15
ENDBRANCH   1   9
BRANCH   8  20
ATOM     20  O   UNL     1      44.417 130.156  21.521  1.00  0.00    -0.484 OA
BRANCH  20  21
ATOM     21  C   UNL     1      44.911 129.667  22.765  1.00  0.00     0.284 C 
BRANCH  21  22
ATOM     22  C   UNL     1      44.809 128.175  22.802  1.00  0.00     0.058 A 
ATOM     23  N   UNL     1      45.521 127.346  22.003  1.00  0.00    -0.369 NA
ATOM     24  C   UNL     1      43.821 127.438  23.411  1.00  0.00    -0.042 A 
ATOM     25  N   UNL     1      44.992 126.128  22.075  1.00  0.00    -0.578 NA
ATOM     26  C   UNL     1      43.979 126.193  22.956  1.00  0.00    -0.141 A 
ATOM     27  C   UNL     1      42.449 127.726  23.868  1.00  0.00     0.036 C 
ATOM     28  C   UNL     1      42.753 125.377  23.042  1.00  0.00     0.013 C 
ATOM     29  C   UNL     1      41.771 126.334  23.770  1.00  0.00     0.008 C 
ENDBRANCH  21  22
ENDBRANCH  20  21
ENDBRANCH   8  20
TORSDOF 5
ENDMDL
MODEL 3
REMARK VINA RESULT:      -6.7      1.501      2.309
REMARK SMILES NC(=O)c1ccc(-c2cc(F)cc(F)c2OCc2n[n-]c3c2CCC3)cc1
REMARK SMILES IDX 8 1 9 2 10 3 11 4 12 5 13 6 14 7 15 8 7 9 4 10 5 11 27 12
REMARK SMILES IDX 6 13 26 14 2 15 1 16 3 19 16 20 17 21 18 22 19 23 22 24
REMARK SMILES IDX 20 25 21 26 23 27 25 28 24 29
REMARK H PARENT 1 17 1 18
ROOT
ATOM      1  C   UNL     1      43.421 131.637  19.970  1.00  0.00     0.030 A 
ATOM      2  C   UNL     1      42.427 132.630  19.935  1.00  0.00     0.052 A 
ATOM      3  C   UNL     1      41.716 132.963  21.089  1.00  0.00     0.127 A 
ATOM      4  F   UNL     1      40.753 133.917  21.041  1.00  0.00    -0.207 F 
ATOM      5  C   UNL     1      41.988 132.309  22.291  1.00  0.00     0.082 A 
ATOM      6  C   UNL     1      42.979 131.326  22.346  1.00  0.00     0.168 A 
ATOM      7  F   UNL     1      43.207 130.681  23.517  1.00  0.00    -0.203 F 
ATOM      8  C   UNL     1      43.710 130.994  21.193  1.00  0.00     0.163 A 
ENDROOT
BRANCH   1   9
ATOM      9  C   UNL     1      44.176 131.310  18.737  1.00  0.00    -0.014 A 
ATOM     10  C   UNL     1      45.608 130.694  16.384  1.00  0.00     0.039 A 
ATOM     11  C   UNL     1      46.134 130.369  17.648  1.00  0.00     0.014 A 
ATOM     12  C   UNL     1      44.346 131.309  16.313  1.00  0.00     0.014 A 
ATOM     13  C   UNL     1      45.425 130.675  18.812  1.00  0.00     0.010 A 
ATOM     14  C   UNL     1      43.640 131.619  17.478  1.00  0.00     0.010 A 
BRANCH  10  15
ATOM     15  C   UNL     1      46.352 130.385  15.140  1.00  0.00     0.248 C 
ATOM     16  N   UNL     1      45.889 130.832  13.862  1.00  0.00    -0.366 N 
ATOM     17  H   UNL     1      46.460 130.648  13.009  1.00  0.00     0.159 HD
ATOM     18  H   UNL     1      44.945 131.259  13.740  1.00  0.00     0.159 HD
ATOM     19  O   UNL     1      47.408 129.699  15.198  1.00  0.00    -0.270 OA
ENDBRANCH  10  15
ENDBRANCH   1   9
BRANCH   8  20
ATOM     20  O   UNL     1      44.728 130.035  21.253  1.00  0.00    -0.484 OA
BRANCH  20  21
ATOM     21  C   UNL     1      45.113 129.395  22.467  1.00  0.00     0.284 C 
BRANCH  21  22
ATOM     22  C   UNL     1      44.522 128.022  22.529  1.00  0.00     0.058 A 
ATOM     23  N   UNL     1      43.376 127.719  23.183  1.00  0.00    -0.369 NA
ATOM     24  C   UNL     1      45.153 126.846  22.203  1.00  0.00    -0.042 A 
ATOM     25  N   UNL     1      43.289 126.397  23.296  1.00  0.00    -0.578 NA
ATOM     26  C   UNL     1      44.360 125.880  22.670  1.00  0.00    -0.141 A 
ATOM     27  C   UNL     1      46.560 126.431  22.060  1.00  0.00     0.036 C 
ATOM     28  C   UNL     1      45.065 124.607  22.910  1.00  0.00     0.013 C 
ATOM     29  C   UNL     1      46.491 124.915  22.382  1.00  0.00     0.008 C 
ENDBRANCH  21  22
ENDBRANCH  20  21
ENDBRANCH   8  20
TORSDOF 5
ENDMDL
MODEL 4
REMARK VINA RESULT:      -6.4      1.686      2.286
REMARK SMILES NC(=O)c1ccc(-c2cc(F)cc(F)c2OCc2n[n-]c3c2CCC3)cc1
REMARK SMILES IDX 8 1 9 2 10 3 11 4 12 5 13 6 14 7 15 8 7 9 4 10 5 11 27 12
REMARK SMILES IDX 6 13 26 14 2 15 1 16 3 19 16 20 17 21 18 22 19 23 22 24
REMARK SMILES IDX 20 25 21 26 23 27 25 28 24 29
REMARK H PARENT 1 17 1 18
ROOT
ATOM      1  C   UNL     1      43.726 131.499  19.663  1.00  0.00     0.030 A 
ATOM      2  C   UNL     1      42.730 132.491  19.671  1.00  0.00     0.052 A 
ATOM      3  C   UNL     1      42.055 132.808  20.851  1.00  0.00     0.127 A 
ATOM      4  F   UNL     1      41.090 133.760  20.844  1.00  0.00    -0.207 F 
ATOM      5  C   UNL     1      42.366 132.139  22.035  1.00  0.00     0.082 A 
ATOM      6  C   UNL     1      43.360 131.158  22.047  1.00  0.00     0.168 A 
ATOM      7  F   UNL     1      43.625 130.498  23.202  1.00  0.00    -0.203 F 
ATOM      8  C   UNL     1      44.055 130.841  20.867  1.00  0.00     0.163 A 
ENDROOT
BRANCH   1   9
ATOM      9  C   UNL     1      44.443 131.190  18.403  1.00  0.00    -0.014 A 
ATOM     10  C   UNL     1      45.814 130.593  16.008  1.00  0.00     0.039 A 
ATOM     11  C   UNL     1      44.662 131.400  15.991  1.00  0.00     0.014 A 
ATOM     12  C   UNL     1      46.284 130.109  17.241  1.00  0.00     0.014 A 
ATOM     13  C   UNL     1      43.984 131.695  17.177  1.00  0.00     0.010 A 
ATOM     14  C   UNL     1      45.602 130.400  18.425  1.00  0.00     0.010 A 
BRANCH  10  15
ATOM     15  C   UNL     1      46.539 130.263  14.758  1.00  0.00     0.248 C 
ATOM     16  N   UNL     1      47.734 129.477  14.773  1.00  0.00    -0.366 N 
ATOM     17  H   UNL     1      48.195 129.213  13.875  1.00  0.00     0.159 HD
ATOM     18  H   UNL     1      48.218 129.232  15.665  1.00  0.00     0.159 HD
ATOM     19  O   UNL     1      46.110 130.696  13.654  1.00  0.00    -0.270 OA
ENDBRANCH  10  15
ENDBRANCH   1   9
BRANCH   8  20
ATOM     20  O   UNL     1      45.076 129.883  20.883  1.00  0.00    -0.484 OA
BRANCH  20  21
ATOM     21  C   UNL     1      45.560 129.295  22.088  1.00  0.00     0.284 C 
BRANCH  21  22
ATOM     22  C   UNL     1      44.973 127.929  22.259  1.00  0.00     0.058 A 
ATOM     23  N   UNL     1      43.794 127.683  22.878  1.00  0.00    -0.369 NA
ATOM     24  C   UNL     1      45.626 126.732  22.089  1.00  0.00    -0.042 A 
ATOM     25  N   UNL     1      43.707 126.378  23.121  1.00  0.00    -0.578 NA
ATOM     26  C   UNL     1      44.813 125.811  22.610  1.00  0.00    -0.141 A 
ATOM     27  C   UNL     1      47.041 126.319  22.066  1.00  0.00     0.036 C 
ATOM     28  C   UNL     1      45.510 124.576  23.017  1.00  0.00     0.013 C 
ATOM     29  C   UNL     1      46.962 124.843  22.538  1.00  0.00     0.008 C 
ENDBRANCH  21  22
ENDBRANCH  20  21
ENDBRANCH   8  20
TORSDOF 5
ENDMDL
MODEL 5
REMARK VINA RESULT:      -6.4      4.535      6.880
REMARK SMILES NC(=O)c1ccc(-c2cc(F)cc(F)c2OCc2n[n-]c3c2CCC3)cc1
REMARK SMILES IDX 8 1 9 2 10 3 11 4 12 5 13 6 14 7 15 8 7 9 4 10 5 11 27 12
REMARK SMILES IDX 6 13 26 14 2 15 1 16 3 19 16 20 17 21 18 22 19 23 22 24
REMARK SMILES IDX 20 25 21 26 23 27 25 28 24 29
REMARK H PARENT 1 17 1 18
ROOT
ATOM      1  C   UNL     1      44.391 131.449  21.345  1.00  0.00     0.030 A 
ATOM      2  C   UNL     1      43.221 130.910  21.907  1.00  0.00     0.052 A 
ATOM      3  C   UNL     1      42.959 131.052  23.271  1.00  0.00     0.127 A 
ATOM      4  F   UNL     1      41.831 130.521  23.804  1.00  0.00    -0.207 F 
ATOM      5  C   UNL     1      43.863 131.731  24.089  1.00  0.00     0.082 A 
ATOM      6  C   UNL     1      45.026 132.281  23.545  1.00  0.00     0.168 A 
ATOM      7  F   UNL     1      45.905 132.912  24.363  1.00  0.00    -0.203 F 
ATOM      8  C   UNL     1      45.291 132.156  22.171  1.00  0.00     0.163 A 
ENDROOT
BRANCH   1   9
ATOM      9  C   UNL     1      44.642 131.302  19.891  1.00  0.00    -0.014 A 
ATOM     10  C   UNL     1      45.126 131.015  17.125  1.00  0.00     0.039 A 
ATOM     11  C   UNL     1      44.037 131.778  17.586  1.00  0.00     0.014 A 
ATOM     12  C   UNL     1      45.982 130.419  18.066  1.00  0.00     0.014 A 
ATOM     13  C   UNL     1      43.798 131.919  18.955  1.00  0.00     0.010 A 
ATOM     14  C   UNL     1      45.739 130.556  19.435  1.00  0.00     0.010 A 
BRANCH  10  15
ATOM     15  C   UNL     1      45.388 130.848  15.676  1.00  0.00     0.248 C 
ATOM     16  N   UNL     1      46.086 131.844  14.923  1.00  0.00    -0.366 N 
ATOM     17  H   UNL     1      46.305 131.678  13.917  1.00  0.00     0.159 HD
ATOM     18  H   UNL     1      46.305 132.782  15.325  1.00  0.00     0.159 HD
ATOM     19  O   UNL     1      44.974 129.816  15.081  1.00  0.00    -0.270 OA
ENDBRANCH  10  15
ENDBRANCH   1   9
BRANCH   8  20
ATOM     20  O   UNL     1      46.438 132.736  21.617  1.00  0.00    -0.484 OA
BRANCH  20  21
ATOM     21  C   UNL     1      46.677 134.142  21.637  1.00  0.00     0.284 C 
BRANCH  21  22
ATOM     22  C   UNL     1      48.085 134.413  22.062  1.00  0.00     0.058 A 
ATOM     23  N   UNL     1      48.632 133.952  23.212  1.00  0.00    -0.369 NA
ATOM     24  C   UNL     1      48.929 135.363  21.537  1.00  0.00    -0.042 A 
ATOM     25  N   UNL     1      49.771 134.602  23.430  1.00  0.00    -0.578 NA
ATOM     26  C   UNL     1      49.953 135.434  22.390  1.00  0.00    -0.141 A 
ATOM     27  C   UNL     1      48.738 136.591  20.745  1.00  0.00     0.036 C 
ATOM     28  C   UNL     1      50.681 136.715  22.326  1.00  0.00     0.013 C 
ATOM     29  C   UNL     1      49.975 137.437  21.148  1.00  0.00     0.008 C 
ENDBRANCH  21  22
ENDBRANCH  20  21
ENDBRANCH   8  20
TORSDOF 5
ENDMDL
MODEL 6
REMARK VINA RESULT:      -6.4      1.097      1.560
REMARK SMILES NC(=O)c1ccc(-c2cc(F)cc(F)c2OCc2n[n-]c3c2CCC3)cc1
REMARK SMILES IDX 8 1 9 2 10 3 11 4 12 5 13 6 14 7 15 8 7 9 4 10 5 11 27 12
REMARK SMILES IDX 6 13 26 14 2 15 1 16 3 19 16 20 17 21 18 22 19 23 22 24
REMARK SMILES IDX 20 25 21 26 23 27 25 28 24 29
REMARK H PARENT 1 17 1 18
ROOT
ATOM      1  C   UNL     1      43.796 130.762  21.826  1.00  0.00     0.030 A 
ATOM      2  C   UNL     1      43.091 131.830  22.405  1.00  0.00     0.052 A 
ATOM      3  C   UNL     1      42.608 131.736  23.711  1.00  0.00     0.127 A 
ATOM      4  F   UNL     1      41.922 132.770  24.257  1.00  0.00    -0.207 F 
ATOM      5  C   UNL     1      42.823 130.574  24.454  1.00  0.00     0.082 A 
ATOM      6  C   UNL     1      43.530 129.506  23.897  1.00  0.00     0.168 A 
ATOM      7  F   UNL     1      43.702 128.374  24.624  1.00  0.00    -0.203 F 
ATOM      8  C   UNL     1      44.032 129.597  22.588  1.00  0.00     0.163 A 
ENDROOT
BRANCH   1   9
ATOM      9  C   UNL     1      44.315 130.889  20.443  1.00  0.00    -0.014 A 
ATOM     10  C   UNL     1      45.310 131.123  17.811  1.00  0.00     0.039 A 
ATOM     11  C   UNL     1      44.124 131.778  18.189  1.00  0.00     0.014 A 
ATOM     12  C   UNL     1      46.004 130.369  18.774  1.00  0.00     0.014 A 
ATOM     13  C   UNL     1      43.632 131.661  19.492  1.00  0.00     0.010 A 
ATOM     14  C   UNL     1      45.508 130.249  20.075  1.00  0.00     0.010 A 
BRANCH  10  15
ATOM     15  C   UNL     1      45.840 131.229  16.431  1.00  0.00     0.248 C 
ATOM     16  N   UNL     1      45.531 132.348  15.596  1.00  0.00    -0.366 N 
ATOM     17  H   UNL     1      45.961 132.425  14.649  1.00  0.00     0.159 HD
ATOM     18  H   UNL     1      44.809 133.051  15.868  1.00  0.00     0.159 HD
ATOM     19  O   UNL     1      46.567 130.308  15.969  1.00  0.00    -0.270 OA
ENDBRANCH  10  15
ENDBRANCH   1   9
BRANCH   8  20
ATOM     20  O   UNL     1      44.772 128.542  22.039  1.00  0.00    -0.484 OA
BRANCH  20  21
ATOM     21  C   UNL     1      45.819 127.886  22.749  1.00  0.00     0.284 C 
BRANCH  21  22
ATOM     22  C   UNL     1      45.638 126.403  22.668  1.00  0.00     0.058 A 
ATOM     23  N   UNL     1      46.537 125.559  22.108  1.00  0.00    -0.369 NA
ATOM     24  C   UNL     1      44.469 125.711  22.872  1.00  0.00    -0.042 A 
ATOM     25  N   UNL     1      45.955 124.376  21.933  1.00  0.00    -0.578 NA
ATOM     26  C   UNL     1      44.710 124.475  22.429  1.00  0.00    -0.141 A 
ATOM     27  C   UNL     1      43.039 126.068  22.861  1.00  0.00     0.036 C 
ATOM     28  C   UNL     1      43.489 123.736  22.057  1.00  0.00     0.013 C 
ATOM     29  C   UNL     1      42.366 124.727  22.467  1.00  0.00     0.008 C 
ENDBRANCH  21  22
ENDBRANCH  20  21
ENDBRANCH   8  20
TORSDOF 5
ENDMDL
MODEL 7
REMARK VINA RESULT:      -6.4      3.101      7.173
REMARK SMILES NC(=O)c1ccc(-c2cc(F)cc(F)c2OCc2n[n-]c3c2CCC3)cc1
REMARK SMILES IDX 8 1 9 2 10 3 11 4 12 5 13 6 14 7 15 8 7 9 4 10 5 11 27 12
REMARK SMILES IDX 6 13 26 14 2 15 1 16 3 19 16 20 17 21 18 22 19 23 22 24
REMARK SMILES IDX 20 25 21 26 23 27 25 28 24 29
REMARK H PARENT 1 17 1 18
ROOT
ATOM      1  C   UNL     1      44.920 125.002  22.982  1.00  0.00     0.030 A 
ATOM      2  C   UNL     1      44.202 123.816  23.208  1.00  0.00     0.052 A 
ATOM      3  C   UNL     1      42.820 123.850  23.402  1.00  0.00     0.127 A 
ATOM      4  F   UNL     1      42.138 122.700  23.628  1.00  0.00    -0.207 F 
ATOM      5  C   UNL     1      42.140 125.069  23.374  1.00  0.00     0.082 A 
ATOM      6  C   UNL     1      42.838 126.256  23.141  1.00  0.00     0.168 A 
ATOM      7  F   UNL     1      42.163 127.433  23.148  1.00  0.00    -0.203 F 
ATOM      8  C   UNL     1      44.226 126.230  22.930  1.00  0.00     0.163 A 
ENDROOT
BRANCH   1   9
ATOM      9  C   UNL     1      46.385 124.942  22.761  1.00  0.00    -0.014 A 
ATOM     10  C   UNL     1      49.172 124.825  22.330  1.00  0.00     0.039 A 
ATOM     11  C   UNL     1      48.652 125.426  23.491  1.00  0.00     0.014 A 
ATOM     12  C   UNL     1      48.281 124.263  21.400  1.00  0.00     0.014 A 
ATOM     13  C   UNL     1      47.272 125.483  23.703  1.00  0.00     0.010 A 
ATOM     14  C   UNL     1      46.901 124.326  21.611  1.00  0.00     0.010 A 
BRANCH  10  15
ATOM     15  C   UNL     1      50.633 124.764  22.086  1.00  0.00     0.248 C 
ATOM     16  N   UNL     1      51.365 123.543  22.234  1.00  0.00    -0.366 N 
ATOM     17  H   UNL     1      52.381 123.515  22.003  1.00  0.00     0.159 HD
ATOM     18  H   UNL     1      50.933 122.693  22.658  1.00  0.00     0.159 HD
ATOM     19  O   UNL     1      51.256 125.810  21.756  1.00  0.00    -0.270 OA
ENDBRANCH  10  15
ENDBRANCH   1   9
BRANCH   8  20
ATOM     20  O   UNL     1      44.923 127.415  22.661  1.00  0.00    -0.484 OA
BRANCH  20  21
ATOM     21  C   UNL     1      44.981 128.500  23.584  1.00  0.00     0.284 C 
BRANCH  21  22
ATOM     22  C   UNL     1      44.407 129.731  22.958  1.00  0.00     0.058 A 
ATOM     23  N   UNL     1      43.173 130.217  23.235  1.00  0.00    -0.369 NA
ATOM     24  C   UNL     1      44.883 130.381  21.845  1.00  0.00    -0.042 A 
ATOM     25  N   UNL     1      42.859 131.125  22.315  1.00  0.00    -0.578 NA
ATOM     26  C   UNL     1      43.919 131.235  21.496  1.00  0.00    -0.141 A 
ATOM     27  C   UNL     1      45.766 130.004  20.726  1.00  0.00     0.036 C 
ATOM     28  C   UNL     1      43.972 131.633  20.077  1.00  0.00     0.013 C 
ATOM     29  C   UNL     1      45.270 130.935  19.587  1.00  0.00     0.008 C 
ENDBRANCH  21  22
ENDBRANCH  20  21
ENDBRANCH   8  20
TORSDOF 5
ENDMDL
MODEL 8
REMARK VINA RESULT:      -6.3      4.521      7.023
REMARK SMILES NC(=O)c1ccc(-c2cc(F)cc(F)c2OCc2n[n-]c3c2CCC3)cc1
REMARK SMILES IDX 8 1 9 2 10 3 11 4 12 5 13 6 14 7 15 8 7 9 4 10 5 11 27 12
REMARK SMILES IDX 6 13 26 14 2 15 1 16 3 19 16 20 17 21 18 22 19 23 22 24
REMARK SMILES IDX 20 25 21 26 23 27 25 28 24 29
REMARK H PARENT 1 17 1 18
ROOT
ATOM      1  C   UNL     1      44.517 131.428  21.348  1.00  0.00     0.030 A 
ATOM      2  C   UNL     1      43.349 130.873  21.899  1.00  0.00     0.052 A 
ATOM      3  C   UNL     1      43.034 131.073  23.244  1.00  0.00     0.127 A 
ATOM      4  F   UNL     1      41.909 130.526  23.766  1.00  0.00    -0.207 F 
ATOM      5  C   UNL     1      43.883 131.829  24.055  1.00  0.00     0.082 A 
ATOM      6  C   UNL     1      45.043 132.395  23.522  1.00  0.00     0.168 A 
ATOM      7  F   UNL     1      45.869 133.100  24.334  1.00  0.00    -0.203 F 
ATOM      8  C   UNL     1      45.360 132.211  22.166  1.00  0.00     0.163 A 
ENDROOT
BRANCH   1   9
ATOM      9  C   UNL     1      44.824 131.218  19.913  1.00  0.00    -0.014 A 
ATOM     10  C   UNL     1      45.402 130.825  17.178  1.00  0.00     0.039 A 
ATOM     11  C   UNL     1      46.125 130.135  18.169  1.00  0.00     0.014 A 
ATOM     12  C   UNL     1      44.371 131.695  17.574  1.00  0.00     0.014 A 
ATOM     13  C   UNL     1      45.838 130.331  19.522  1.00  0.00     0.010 A 
ATOM     14  C   UNL     1      44.089 131.893  18.927  1.00  0.00     0.010 A 
BRANCH  10  15
ATOM     15  C   UNL     1      45.700 130.637  15.738  1.00  0.00     0.248 C 
ATOM     16  N   UNL     1      46.001 129.346  15.201  1.00  0.00    -0.366 N 
ATOM     17  H   UNL     1      46.153 129.232  14.175  1.00  0.00     0.159 HD
ATOM     18  H   UNL     1      46.167 128.520  15.818  1.00  0.00     0.159 HD
ATOM     19  O   UNL     1      45.707 131.634  14.966  1.00  0.00    -0.270 OA
ENDBRANCH  10  15
ENDBRANCH   1   9
BRANCH   8  20
ATOM     20  O   UNL     1      46.504 132.807  21.620  1.00  0.00    -0.484 OA
BRANCH  20  21
ATOM     21  C   UNL     1      46.737 134.212  21.669  1.00  0.00     0.284 C 
BRANCH  21  22
ATOM     22  C   UNL     1      48.147 134.480  22.094  1.00  0.00     0.058 A 
ATOM     23  N   UNL     1      48.686 134.033  23.253  1.00  0.00    -0.369 NA
ATOM     24  C   UNL     1      48.999 135.413  21.556  1.00  0.00    -0.042 A 
ATOM     25  N   UNL     1      49.830 134.678  23.464  1.00  0.00    -0.578 NA
ATOM     26  C   UNL     1      50.021 135.491  22.411  1.00  0.00    -0.141 A 
ATOM     27  C   UNL     1      48.821 136.630  20.743  1.00  0.00     0.036 C 
ATOM     28  C   UNL     1      50.760 136.765  22.328  1.00  0.00     0.013 C 
ATOM     29  C   UNL     1      50.064 137.473  21.135  1.00  0.00     0.008 C 
ENDBRANCH  21  22
ENDBRANCH  20  21
ENDBRANCH   8  20
TORSDOF 5
ENDMDL
MODEL 9
REMARK VINA RESULT:      -6.0      4.553      6.435
REMARK SMILES NC(=O)c1ccc(-c2cc(F)cc(F)c2OCc2n[n-]c3c2CCC3)cc1
REMARK SMILES IDX 8 1 9 2 10 3 11 4 12 5 13 6 14 7 15 8 7 9 4 10 5 11 27 12
REMARK SMILES IDX 6 13 26 14 2 15 1 16 3 19 16 20 17 21 18 22 19 23 22 24
REMARK SMILES IDX 20 25 21 26 23 27 25 28 24 29
REMARK H PARENT 1 17 1 18
ROOT
ATOM      1  C   UNL     1      44.211 131.339  21.385  1.00  0.00     0.030 A 
ATOM      2  C   UNL     1      43.191 130.550  21.944  1.00  0.00     0.052 A 
ATOM      3  C   UNL     1      42.904 130.624  23.308  1.00  0.00     0.127 A 
ATOM      4  F   UNL     1      41.924 129.852  23.838  1.00  0.00    -0.207 F 
ATOM      5  C   UNL     1      43.632 131.486  24.130  1.00  0.00     0.082 A 
ATOM      6  C   UNL     1      44.642 132.284  23.589  1.00  0.00     0.168 A 
ATOM      7  F   UNL     1      45.358 133.093  24.409  1.00  0.00    -0.203 F 
ATOM      8  C   UNL     1      44.929 132.227  22.214  1.00  0.00     0.163 A 
ENDROOT
BRANCH   1   9
ATOM      9  C   UNL     1      44.488 131.258  19.931  1.00  0.00    -0.014 A 
ATOM     10  C   UNL     1      45.023 131.095  17.164  1.00  0.00     0.039 A 
ATOM     11  C   UNL     1      43.909 131.813  17.637  1.00  0.00     0.014 A 
ATOM     12  C   UNL     1      45.878 130.481  18.095  1.00  0.00     0.014 A 
ATOM     13  C   UNL     1      43.645 131.892  19.007  1.00  0.00     0.010 A 
ATOM     14  C   UNL     1      45.610 130.557  19.464  1.00  0.00     0.010 A 
BRANCH  10  15
ATOM     15  C   UNL     1      45.312 130.993  15.714  1.00  0.00     0.248 C 
ATOM     16  N   UNL     1      44.886 132.003  14.795  1.00  0.00    -0.366 N 
ATOM     17  H   UNL     1      45.149 131.935  13.788  1.00  0.00     0.159 HD
ATOM     18  H   UNL     1      44.236 132.767  15.082  1.00  0.00     0.159 HD
ATOM     19  O   UNL     1      45.931 129.989  15.269  1.00  0.00    -0.270 OA
ENDBRANCH  10  15
ENDBRANCH   1   9
BRANCH   8  20
ATOM     20  O   UNL     1      45.917 133.052  21.663  1.00  0.00    -0.484 OA
BRANCH  20  21
ATOM     21  C   UNL     1      47.310 132.781  21.799  1.00  0.00     0.284 C 
BRANCH  21  22
ATOM     22  C   UNL     1      48.055 134.054  22.046  1.00  0.00     0.058 A 
ATOM     23  N   UNL     1      48.051 135.111  21.200  1.00  0.00    -0.369 NA
ATOM     24  C   UNL     1      49.048 134.253  22.975  1.00  0.00    -0.042 A 
ATOM     25  N   UNL     1      49.025 135.943  21.556  1.00  0.00    -0.578 NA
ATOM     26  C   UNL     1      49.602 135.423  22.653  1.00  0.00    -0.141 A 
ATOM     27  C   UNL     1      49.951 133.365  23.731  1.00  0.00     0.036 C 
ATOM     28  C   UNL     1      50.981 135.577  23.152  1.00  0.00     0.013 C 
ATOM     29  C   UNL     1      51.177 134.281  23.984  1.00  0.00     0.008 C 
ENDBRANCH  21  22
ENDBRANCH  20  21
ENDBRANCH   8  20
TORSDOF 5
ENDMDL


