REMARK SMILES Cc1ccc([NH2+]c2cc(F)c(C)cc2N)c(F)[nH+]1
REMARK SMILES IDX 7 1 8 2 9 3 10 4 11 5 12 6 13 7 14 8 6 9 5 12 2 13 3 14
REMARK SMILES IDX 18 15 4 16 16 17 1 18 17 20 15 21
REMARK H PARENT 6 10 6 11 18 19 15 22 15 23
ROOT
ATOM      1  C   UNL     1      -0.011   2.274  -0.469  1.00  0.00     0.161 A 
ATOM      2  C   UNL     1       0.480   3.091  -1.506  1.00  0.00     0.110 A 
ATOM      3  C   UNL     1      -0.085   3.053  -2.781  1.00  0.00     0.132 A 
ATOM      4  F   UNL     1       0.415   3.858  -3.753  1.00  0.00    -0.206 F 
ATOM      5  C   UNL     1      -1.153   2.189  -3.054  1.00  0.00    -0.013 A 
ATOM      6  C   UNL     1      -1.777   2.165  -4.419  1.00  0.00     0.047 C 
ATOM      7  C   UNL     1      -1.674   1.395  -2.024  1.00  0.00     0.038 A 
ATOM      8  C   UNL     1      -1.122   1.430  -0.733  1.00  0.00     0.094 A 
ENDROOT
BRANCH   1   9
ATOM      9  N   UNL     1       0.639   2.307   0.827  1.00  0.00    -0.272 N 
ATOM     10  H   UNL     1       1.274   3.136   0.900  1.00  0.00     0.358 HD
ATOM     11  H   UNL     1      -0.081   2.436   1.574  1.00  0.00     0.358 HD
BRANCH   9  12
ATOM     12  C   UNL     1       1.430   1.116   1.048  1.00  0.00     0.239 A 
ATOM     13  C   UNL     1       3.003  -1.150   1.499  1.00  0.00     0.179 A 
ATOM     14  C   UNL     1       1.899  -0.897   2.321  1.00  0.00     0.080 A 
ATOM     15  N   UNL     1       3.300  -0.288   0.484  1.00  0.00    -0.179 N 
ATOM     16  C   UNL     1       1.126   0.242   2.104  1.00  0.00     0.085 A 
ATOM     17  C   UNL     1       2.560   0.831   0.253  1.00  0.00     0.420 A 
ATOM     18  C   UNL     1       3.821  -2.391   1.698  1.00  0.00     0.124 C 
ATOM     19  H   UNL     1       4.121  -0.479  -0.134  1.00  0.00     0.456 HD
ATOM     20  F   UNL     1       2.931   1.674  -0.743  1.00  0.00    -0.131 F 
ENDBRANCH   9  12
ENDBRANCH   1   9
BRANCH   8  21
ATOM     21  N   UNL     1      -1.719   0.618   0.287  1.00  0.00    -0.394 N 
ATOM     22  H   UNL     1      -1.492   0.730   1.296  1.00  0.00     0.156 HD
ATOM     23  H   UNL     1      -2.476  -0.060   0.046  1.00  0.00     0.156 HD
ENDBRANCH   8  21
TORSDOF 3


