REMARK SMILES Cc1cc(F)[nH+]cc1-c1ccc2c(C)[n-]nc2c1
REMARK SMILES IDX 9 1 10 2 11 3 12 4 13 5 14 6 15 7 16 8 17 9 18 10 8 11 2 12
REMARK SMILES IDX 3 13 4 14 7 15 6 16 1 17 5 18
REMARK H PARENT 6 19
ROOT
ATOM      1  C   UNL     1      -0.682   0.449   0.543  1.00  0.00    -0.010 A 
ATOM      2  C   UNL     1      -1.572   1.313  -0.149  1.00  0.00     0.010 A 
ATOM      3  C   UNL     1      -2.691   0.797  -0.829  1.00  0.00     0.009 A 
ATOM      4  C   UNL     1      -2.888  -0.581  -0.788  1.00  0.00    -0.020 A 
ATOM      5  C   UNL     1      -3.854  -1.404  -1.317  1.00  0.00    -0.139 A 
ATOM      6  C   UNL     1      -5.047  -0.990  -2.114  1.00  0.00     0.019 C 
ATOM      7  N   UNL     1      -3.583  -2.678  -0.949  1.00  0.00    -0.578 NA
ATOM      8  N   UNL     1      -2.473  -2.689  -0.214  1.00  0.00    -0.367 NA
ATOM      9  C   UNL     1      -2.047  -1.417  -0.115  1.00  0.00     0.048 A 
ATOM     10  C   UNL     1      -0.931  -0.943   0.569  1.00  0.00     0.036 A 
ENDROOT
BRANCH   1  11
ATOM     11  C   UNL     1       0.483   1.012   1.263  1.00  0.00     0.049 A 
ATOM     12  C   UNL     1       1.813   0.628   0.969  1.00  0.00    -0.028 A 
ATOM     13  C   UNL     1       2.861   1.172   1.725  1.00  0.00     0.118 A 
ATOM     14  C   UNL     1       2.586   2.107   2.724  1.00  0.00     0.358 A 
ATOM     15  C   UNL     1       0.262   1.967   2.269  1.00  0.00     0.317 A 
ATOM     16  N   UNL     1       1.305   2.487   2.970  1.00  0.00    -0.186 N 
ATOM     17  C   UNL     1       2.136  -0.361  -0.121  1.00  0.00     0.045 C 
ATOM     18  F   UNL     1       3.602   2.639   3.447  1.00  0.00    -0.136 F 
ATOM     19  H   UNL     1       1.115   3.190   3.718  1.00  0.00     0.456 HD
ENDBRANCH   1  11
TORSDOF 1


