REMARK SMILES Oc1ccc(Nc2ccc3ccc(-c4ccc[nH+]c4F)nc3c2F)c(F)c1
REMARK SMILES IDX 6 1 5 3 2 4 3 5 27 6 4 7 25 8 26 9 1 10 7 12 8 13 23 14 9 15
REMARK SMILES IDX 22 16 10 17 21 18 11 19 13 20 12 21 24 22 14 23 15 24 19 25
REMARK SMILES IDX 16 26 18 27 17 28 20 29
REMARK H PARENT 6 2 1 11 18 30
ROOT
ATOM      1  N   UNL     1      -2.383  -2.275   2.188  1.00  0.00    -0.351 N 
ATOM      2  H   UNL     1      -2.509  -3.002   2.929  1.00  0.00     0.167 HD
ENDROOT
BRANCH   1   3
ATOM      3  C   UNL     1      -3.349  -2.225   1.125  1.00  0.00     0.075 A 
ATOM      4  C   UNL     1      -5.278  -2.187  -0.921  1.00  0.00     0.118 A 
ATOM      5  C   UNL     1      -4.870  -3.402  -0.362  1.00  0.00     0.048 A 
ATOM      6  C   UNL     1      -4.733  -0.986  -0.447  1.00  0.00     0.087 A 
ATOM      7  C   UNL     1      -3.918  -3.420   0.661  1.00  0.00     0.033 A 
ATOM      8  C   UNL     1      -3.779  -1.000   0.577  1.00  0.00     0.150 A 
ATOM      9  F   UNL     1      -3.308   0.180   1.052  1.00  0.00    -0.205 F 
BRANCH   4  10
ATOM     10  O   UNL     1      -6.226  -2.183  -1.941  1.00  0.00    -0.508 OA
ATOM     11  H   UNL     1      -6.544  -1.319  -2.365  1.00  0.00     0.293 HD
ENDBRANCH   4  10
ENDBRANCH   1   3
BRANCH   1  12
ATOM     12  C   UNL     1      -1.255  -1.391   2.302  1.00  0.00     0.077 A 
ATOM     13  C   UNL     1      -0.838  -0.978   3.577  1.00  0.00     0.030 A 
ATOM     14  C   UNL     1      -0.529  -0.975   1.168  1.00  0.00     0.172 A 
ATOM     15  C   UNL     1       0.262  -0.129   3.725  1.00  0.00     0.013 A 
ATOM     16  C   UNL     1       0.573  -0.122   1.314  1.00  0.00     0.109 A 
ATOM     17  C   UNL     1       0.969   0.307   2.597  1.00  0.00     0.003 A 
ATOM     18  N   UNL     1       1.267   0.290   0.219  1.00  0.00    -0.244 NA
ATOM     19  C   UNL     1       2.076   1.155   2.716  1.00  0.00     0.013 A 
ATOM     20  C   UNL     1       2.345   1.119   0.307  1.00  0.00     0.080 A 
ATOM     21  C   UNL     1       2.767   1.562   1.574  1.00  0.00     0.030 A 
ATOM     22  F   UNL     1      -0.867  -1.421  -0.070  1.00  0.00    -0.202 F 
BRANCH  20  23
ATOM     23  C   UNL     1       3.054   1.531  -0.931  1.00  0.00     0.104 A 
ATOM     24  C   UNL     1       3.632   2.808  -1.043  1.00  0.00     0.026 A 
ATOM     25  C   UNL     1       3.143   0.661  -2.037  1.00  0.00     0.367 A 
ATOM     26  C   UNL     1       4.282   3.185  -2.217  1.00  0.00     0.072 A 
ATOM     27  N   UNL     1       3.784   1.055  -3.172  1.00  0.00    -0.186 N 
ATOM     28  C   UNL     1       4.350   2.287  -3.281  1.00  0.00     0.309 A 
ATOM     29  F   UNL     1       2.616  -0.589  -1.979  1.00  0.00    -0.135 F 
ATOM     30  H   UNL     1       3.846   0.395  -3.979  1.00  0.00     0.456 HD
ENDBRANCH  20  23
ENDBRANCH   1  12
TORSDOF 4


