REMARK SMILES CC(=O)c1ccc(C(=O)N[C@@H]2C=CCC2)c(F)c1[O-]
REMARK SMILES IDX 4 1 5 2 6 3 7 4 16 5 17 6 18 7 19 8 2 9 1 10 3 11 8 12 10 13
REMARK SMILES IDX 9 14 11 16 12 17 15 18 13 19 14 20
REMARK H PARENT 10 15
ROOT
ATOM      1  C   UNL     1      -2.247  -2.462  -0.915  1.00  0.00     0.012 A 
ATOM      2  C   UNL     1      -2.324  -1.345  -1.768  1.00  0.00     0.012 A 
ATOM      3  C   UNL     1      -1.820  -0.105  -1.372  1.00  0.00     0.017 A 
ATOM      4  C   UNL     1      -1.216   0.054  -0.117  1.00  0.00     0.074 A 
ATOM      5  C   UNL     1      -1.148  -1.050   0.751  1.00  0.00     0.128 A 
ATOM      6  F   UNL     1      -0.634  -0.919   2.001  1.00  0.00    -0.207 F 
ATOM      7  C   UNL     1      -1.653  -2.297   0.358  1.00  0.00    -0.060 A 
ATOM      8  O   UNL     1      -1.552  -3.365   1.244  1.00  0.00    -0.870 OA
ENDROOT
BRANCH   1   9
ATOM      9  C   UNL     1      -2.794  -3.780  -1.350  1.00  0.00     0.159 C 
ATOM     10  C   UNL     1      -3.147  -4.054  -2.781  1.00  0.00     0.093 C 
ATOM     11  O   UNL     1      -2.996  -4.692  -0.504  1.00  0.00    -0.295 OA
ENDBRANCH   1   9
BRANCH   4  12
ATOM     12  C   UNL     1      -0.685   1.380   0.276  1.00  0.00     0.254 C 
ATOM     13  N   UNL     1       0.476   1.491   1.114  1.00  0.00    -0.346 N 
ATOM     14  O   UNL     1      -1.245   2.424  -0.159  1.00  0.00    -0.269 OA
ATOM     15  H   UNL     1       1.096   0.655   1.218  1.00  0.00     0.164 HD
BRANCH  13  16
ATOM     16  C   UNL     1       0.966   2.784   1.597  1.00  0.00     0.105 C 
ATOM     17  C   UNL     1       1.977   3.326   0.649  1.00  0.00    -0.007 C 
ATOM     18  C   UNL     1       1.738   2.629   2.918  1.00  0.00     0.033 C 
ATOM     19  C   UNL     1       3.186   3.377   1.179  1.00  0.00    -0.029 C 
ATOM     20  C   UNL     1       3.210   2.880   2.579  1.00  0.00     0.029 C 
ENDBRANCH  13  16
ENDBRANCH   4  12
TORSDOF 3


