REMARK SMILES Cc1ccc(-c2ccc(O)cc2)c2c[nH][nH+]c12
REMARK SMILES IDX 6 1 7 2 8 3 9 4 11 5 12 6 5 7 2 8 3 9 17 10 4 11 16 12 13 13
REMARK SMILES IDX 15 14 14 15 1 16 10 19
REMARK H PARENT 16 17 15 18 10 20
ROOT
ATOM      1  C   UNL     1      -0.091  -1.725   1.175  1.00  0.00    -0.017 A 
ATOM      2  C   UNL     1      -1.105  -2.442   0.516  1.00  0.00     0.012 A 
ATOM      3  C   UNL     1      -2.131  -3.049   1.247  1.00  0.00     0.047 A 
ATOM      4  C   UNL     1      -2.152  -2.953   2.644  1.00  0.00     0.115 A 
ATOM      5  C   UNL     1      -1.141  -2.249   3.306  1.00  0.00     0.047 A 
ATOM      6  C   UNL     1      -0.114  -1.641   2.578  1.00  0.00     0.012 A 
ENDROOT
BRANCH   1   7
ATOM      7  C   UNL     1       1.004  -1.088   0.407  1.00  0.00    -0.003 A 
ATOM      8  C   UNL     1       3.124   0.128  -1.079  1.00  0.00     0.024 A 
ATOM      9  C   UNL     1       3.400  -0.670   0.051  1.00  0.00     0.011 A 
ATOM     10  C   UNL     1       1.780   0.301  -1.427  1.00  0.00     0.239 A 
ATOM     11  C   UNL     1       2.353  -1.269   0.786  1.00  0.00     0.010 A 
ATOM     12  N   UNL     1       1.265   1.041  -2.423  1.00  0.00    -0.126 N 
ATOM     13  C   UNL     1       0.763  -0.283  -0.715  1.00  0.00     0.078 A 
ATOM     14  N   UNL     1      -0.057   0.948  -2.357  1.00  0.00    -0.174 N 
ATOM     15  C   UNL     1      -0.403   0.150  -1.322  1.00  0.00     0.163 A 
ATOM     16  C   UNL     1       4.223   0.786  -1.859  1.00  0.00     0.052 C 
ATOM     17  H   UNL     1       1.786   1.610  -3.127  1.00  0.00     0.488 HD
ATOM     18  H   UNL     1      -0.716   1.433  -3.005  1.00  0.00     0.238 HD
ENDBRANCH   1   7
BRANCH   4  19
ATOM     19  O   UNL     1      -3.169  -3.553   3.383  1.00  0.00    -0.508 OA
ATOM     20  H   UNL     1      -3.916  -4.070   2.933  1.00  0.00     0.293 HD
ENDBRANCH   4  19
TORSDOF 2


