REMARK SMILES Cc1cc(N)c(OC(=O)/C=C(\[NH3+])C([NH-])=O)c(-n2nc3ccccc3[nH+]2)c1
REMARK SMILES IDX 10 1 11 2 13 3 15 4 14 5 12 7 8 11 9 12 7 13 6 14 4 15 16 16
REMARK SMILES IDX 3 17 26 18 2 19 1 20 5 21 17 24 18 25 25 26 19 27 24 28
REMARK SMILES IDX 20 29 23 30 21 31 22 32
REMARK H PARENT 14 6 12 8 12 9 12 10 5 22 5 23 25 33
ROOT
ATOM      1  C   UNL     1       1.959  -2.082   0.610  1.00  0.00     0.163 C 
ENDROOT
BRANCH   1   2
ATOM      2  C   UNL     1       2.314  -2.525  -0.619  1.00  0.00     0.160 C 
BRANCH   2   3
ATOM      3  C   UNL     1       3.662  -3.126  -0.818  1.00  0.00     0.134 C 
ATOM      4  O   UNL     1       3.980  -3.613  -1.937  1.00  0.00    -0.309 OA
BRANCH   3   5
ATOM      5  N   UNL     1       4.614  -3.166   0.244  1.00  0.00    -0.659 NA
ATOM      6  H   UNL     1       5.559  -3.588   0.104  1.00  0.00    -0.121 HD
ENDBRANCH   3   5
ENDBRANCH   2   3
BRANCH   2   7
ATOM      7  N   UNL     1       1.406  -2.433  -1.736  1.00  0.00    -0.323 N 
ATOM      8  H   UNL     1       1.088  -1.445  -1.855  1.00  0.00     0.350 HD
ATOM      9  H   UNL     1       0.593  -3.071  -1.579  1.00  0.00     0.350 HD
ATOM     10  H   UNL     1       1.866  -2.715  -2.630  1.00  0.00     0.350 HD
ENDBRANCH   2   7
ENDBRANCH   1   2
BRANCH   1  11
ATOM     11  C   UNL     1       0.654  -1.488   0.973  1.00  0.00     0.342 C 
ATOM     12  O   UNL     1       0.529  -0.964   2.113  1.00  0.00    -0.246 OA
BRANCH  11  13
ATOM     13  O   UNL     1      -0.440  -1.530   0.101  1.00  0.00    -0.418 OA
BRANCH  13  14
ATOM     14  C   UNL     1      -1.624  -0.809   0.307  1.00  0.00     0.185 A 
ATOM     15  C   UNL     1      -2.848  -1.503   0.331  1.00  0.00     0.078 A 
ATOM     16  C   UNL     1      -1.607   0.593   0.493  1.00  0.00     0.173 A 
ATOM     17  C   UNL     1      -4.037  -0.810   0.591  1.00  0.00     0.033 A 
ATOM     18  C   UNL     1      -2.808   1.267   0.765  1.00  0.00     0.042 A 
ATOM     19  C   UNL     1      -4.024   0.574   0.804  1.00  0.00    -0.046 A 
ATOM     20  C   UNL     1      -5.297   1.301   1.124  1.00  0.00     0.044 C 
BRANCH  15  21
ATOM     21  N   UNL     1      -2.888  -2.919   0.120  1.00  0.00    -0.396 N 
ATOM     22  H   UNL     1      -3.795  -3.437   0.149  1.00  0.00     0.156 HD
ATOM     23  H   UNL     1      -2.019  -3.466  -0.072  1.00  0.00     0.156 HD
ENDBRANCH  15  21
BRANCH  16  24
ATOM     24  N   UNL     1      -0.391   1.345   0.348  1.00  0.00    -0.009 N 
ATOM     25  N   UNL     1       0.536   1.079  -0.573  1.00  0.00     0.054 NA
ATOM     26  N   UNL     1      -0.064   2.394   1.101  1.00  0.00    -0.161 N 
ATOM     27  C   UNL     1       1.495   2.001  -0.377  1.00  0.00     0.249 A 
ATOM     28  C   UNL     1       1.127   2.811   0.654  1.00  0.00     0.198 A 
ATOM     29  C   UNL     1       2.700   2.165  -1.053  1.00  0.00     0.064 A 
ATOM     30  C   UNL     1       1.926   3.858   1.102  1.00  0.00     0.058 A 
ATOM     31  C   UNL     1       3.539   3.216  -0.632  1.00  0.00     0.005 A 
ATOM     32  C   UNL     1       3.154   4.059   0.440  1.00  0.00     0.005 A 
ATOM     33  H   UNL     1      -0.621   2.785   1.894  1.00  0.00     0.340 HD
ENDBRANCH  16  24
ENDBRANCH  13  14
ENDBRANCH  11  13
ENDBRANCH   1  11
TORSDOF 9


