REMARK SMILES CC(=O)c1cc(-c2ccc(C)cc2)c(C(=O)N[C@@H]2C=CCC2)c(F)c1[O-]
REMARK SMILES IDX 4 1 5 2 6 3 14 4 23 5 24 6 25 7 26 8 2 9 1 10 3 11 7 12 8 13
REMARK SMILES IDX 13 14 9 15 12 16 10 17 11 18 15 19 17 20 16 21 18 23 19 24
REMARK SMILES IDX 22 25 20 26 21 27
REMARK H PARENT 17 22
ROOT
ATOM      1  C   UNL     1       3.348   1.780   0.108  1.00  0.00     0.013 A 
ATOM      2  C   UNL     1       2.453   1.057   0.919  1.00  0.00     0.021 A 
ATOM      3  C   UNL     1       1.147   0.774   0.490  1.00  0.00    -0.002 A 
ATOM      4  C   UNL     1       0.725   1.196  -0.793  1.00  0.00     0.082 A 
ATOM      5  C   UNL     1       1.610   1.935  -1.597  1.00  0.00     0.129 A 
ATOM      6  F   UNL     1       1.228   2.351  -2.832  1.00  0.00    -0.207 F 
ATOM      7  C   UNL     1       2.905   2.225  -1.155  1.00  0.00    -0.060 A 
ATOM      8  O   UNL     1       3.740   2.966  -1.986  1.00  0.00    -0.870 OA
ENDROOT
BRANCH   1   9
ATOM      9  C   UNL     1       4.732   2.068   0.586  1.00  0.00     0.159 C 
ATOM     10  C   UNL     1       5.115   1.921   2.029  1.00  0.00     0.093 C 
ATOM     11  O   UNL     1       5.624   2.417  -0.233  1.00  0.00    -0.295 OA
ENDBRANCH   1   9
BRANCH   3  12
ATOM     12  C   UNL     1       0.232   0.083   1.427  1.00  0.00    -0.017 A 
ATOM     13  C   UNL     1       0.546  -1.198   1.908  1.00  0.00     0.009 A 
ATOM     14  C   UNL     1      -0.959   0.701   1.840  1.00  0.00     0.009 A 
ATOM     15  C   UNL     1      -0.339  -1.867   2.758  1.00  0.00     0.004 A 
ATOM     16  C   UNL     1      -1.838   0.035   2.699  1.00  0.00     0.004 A 
ATOM     17  C   UNL     1      -1.546  -1.264   3.141  1.00  0.00    -0.051 A 
ATOM     18  C   UNL     1      -2.489  -1.975   4.065  1.00  0.00     0.044 C 
ENDBRANCH   3  12
BRANCH   4  19
ATOM     19  C   UNL     1      -0.614   0.847  -1.326  1.00  0.00     0.255 C 
ATOM     20  N   UNL     1      -1.122  -0.490  -1.198  1.00  0.00    -0.346 N 
ATOM     21  O   UNL     1      -1.298   1.727  -1.915  1.00  0.00    -0.269 OA
ATOM     22  H   UNL     1      -0.467  -1.238  -0.876  1.00  0.00     0.164 HD
BRANCH  20  23
ATOM     23  C   UNL     1      -2.520  -0.824  -1.491  1.00  0.00     0.105 C 
ATOM     24  C   UNL     1      -3.407  -0.266  -0.431  1.00  0.00    -0.007 C 
ATOM     25  C   UNL     1      -2.772  -2.340  -1.407  1.00  0.00     0.033 C 
ATOM     26  C   UNL     1      -3.930  -1.210   0.333  1.00  0.00    -0.029 C 
ATOM     27  C   UNL     1      -3.494  -2.569  -0.078  1.00  0.00     0.029 C 
ENDBRANCH  20  23
ENDBRANCH   4  19
TORSDOF 4


