MODEL 1
REMARK VINA RESULT:      -9.9      0.000      0.000
REMARK SMILES [O-]c1cc(-c2cccc3ncoc23)cc(F)c1F
REMARK SMILES IDX 1 1 2 2 3 3 4 4 14 5 15 6 16 7 17 8 18 9 5 10 6 11 13 12
REMARK SMILES IDX 7 13 12 14 9 15 8 16 11 17 10 18
REMARK H PARENT
ROOT
ATOM      1  O   UNL     1      47.572 129.704  14.853  1.00  0.00    -0.870 OA
ATOM      2  C   UNL     1      46.431 130.330  15.342  1.00  0.00    -0.068 A 
ATOM      3  C   UNL     1      46.215 130.406  16.722  1.00  0.00     0.003 A 
ATOM      4  C   UNL     1      45.065 131.040  17.230  1.00  0.00    -0.012 A 
ATOM      5  C   UNL     1      44.142 131.600  16.329  1.00  0.00     0.051 A 
ATOM      6  C   UNL     1      44.360 131.521  14.950  1.00  0.00     0.158 A 
ATOM      7  F   UNL     1      43.458 132.060  14.092  1.00  0.00    -0.204 F 
ATOM      8  C   UNL     1      45.503 130.887  14.456  1.00  0.00     0.151 A 
ATOM      9  F   UNL     1      45.711 130.813  13.117  1.00  0.00    -0.204 F 
ENDROOT
BRANCH   4  10
ATOM     10  C   UNL     1      44.833 131.124  18.693  1.00  0.00     0.027 A 
ATOM     11  C   UNL     1      45.778 130.621  19.619  1.00  0.00     0.013 A 
ATOM     12  C   UNL     1      43.677 131.707  19.228  1.00  0.00     0.162 A 
ATOM     13  C   UNL     1      45.542 130.707  21.011  1.00  0.00     0.003 A 
ATOM     14  O   UNL     1      42.668 132.262  18.609  1.00  0.00    -0.443 OA
ATOM     15  C   UNL     1      43.453 131.788  20.570  1.00  0.00     0.110 A 
ATOM     16  C   UNL     1      44.364 131.298  21.500  1.00  0.00     0.032 A 
ATOM     17  C   UNL     1      41.840 132.672  19.554  1.00  0.00     0.309 A 
ATOM     18  N   UNL     1      42.282 132.400  20.809  1.00  0.00    -0.217 NA
ENDBRANCH   4  10
TORSDOF 1
ENDMDL
MODEL 2
REMARK VINA RESULT:      -9.9      1.314      1.964
REMARK SMILES [O-]c1cc(-c2cccc3ncoc23)cc(F)c1F
REMARK SMILES IDX 1 1 2 2 3 3 4 4 14 5 15 6 16 7 17 8 18 9 5 10 6 11 13 12
REMARK SMILES IDX 7 13 12 14 9 15 8 16 11 17 10 18
REMARK H PARENT
ROOT
ATOM      1  O   UNL     1      43.331 131.859  14.029  1.00  0.00    -0.870 OA
ATOM      2  C   UNL     1      44.302 131.418  14.921  1.00  0.00    -0.068 A 
ATOM      3  C   UNL     1      44.072 131.499  16.298  1.00  0.00     0.003 A 
ATOM      4  C   UNL     1      45.045 131.053  17.211  1.00  0.00    -0.012 A 
ATOM      5  C   UNL     1      46.249 130.520  16.717  1.00  0.00     0.051 A 
ATOM      6  C   UNL     1      46.478 130.441  15.339  1.00  0.00     0.158 A 
ATOM      7  F   UNL     1      47.645 129.931  14.876  1.00  0.00    -0.204 F 
ATOM      8  C   UNL     1      45.505 130.890  14.441  1.00  0.00     0.151 A 
ATOM      9  F   UNL     1      45.730 130.812  13.106  1.00  0.00    -0.204 F 
ENDROOT
BRANCH   4  10
ATOM     10  C   UNL     1      44.805 131.135  18.673  1.00  0.00     0.027 A 
ATOM     11  C   UNL     1      45.742 130.626  19.604  1.00  0.00     0.013 A 
ATOM     12  C   UNL     1      43.648 131.722  19.202  1.00  0.00     0.162 A 
ATOM     13  C   UNL     1      45.497 130.710  20.994  1.00  0.00     0.003 A 
ATOM     14  O   UNL     1      42.645 132.282  18.578  1.00  0.00    -0.443 OA
ATOM     15  C   UNL     1      43.416 131.801  20.543  1.00  0.00     0.110 A 
ATOM     16  C   UNL     1      44.319 131.305  21.478  1.00  0.00     0.032 A 
ATOM     17  C   UNL     1      41.812 132.693  19.519  1.00  0.00     0.309 A 
ATOM     18  N   UNL     1      42.246 132.418  20.776  1.00  0.00    -0.217 NA
ENDBRANCH   4  10
TORSDOF 1
ENDMDL
MODEL 3
REMARK VINA RESULT:      -8.6      1.264      2.170
REMARK SMILES [O-]c1cc(-c2cccc3ncoc23)cc(F)c1F
REMARK SMILES IDX 1 1 2 2 3 3 4 4 14 5 15 6 16 7 17 8 18 9 5 10 6 11 13 12
REMARK SMILES IDX 7 13 12 14 9 15 8 16 11 17 10 18
REMARK H PARENT
ROOT
ATOM      1  O   UNL     1      47.386 129.998  15.402  1.00  0.00    -0.870 OA
ATOM      2  C   UNL     1      46.123 130.563  15.536  1.00  0.00    -0.068 A 
ATOM      3  C   UNL     1      45.598 130.800  16.811  1.00  0.00     0.003 A 
ATOM      4  C   UNL     1      44.321 131.374  16.961  1.00  0.00    -0.012 A 
ATOM      5  C   UNL     1      43.586 131.709  15.810  1.00  0.00     0.051 A 
ATOM      6  C   UNL     1      44.113 131.469  14.536  1.00  0.00     0.158 A 
ATOM      7  F   UNL     1      43.390 131.791  13.435  1.00  0.00    -0.204 F 
ATOM      8  C   UNL     1      45.380 130.896  14.399  1.00  0.00     0.151 A 
ATOM      9  F   UNL     1      45.888 130.665  13.162  1.00  0.00    -0.204 F 
ENDROOT
BRANCH   4  10
ATOM     10  C   UNL     1      43.761 131.629  18.311  1.00  0.00     0.027 A 
ATOM     11  C   UNL     1      42.465 132.172  18.480  1.00  0.00     0.013 A 
ATOM     12  C   UNL     1      44.481 131.343  19.478  1.00  0.00     0.162 A 
ATOM     13  C   UNL     1      41.945 132.412  19.773  1.00  0.00     0.003 A 
ATOM     14  O   UNL     1      45.673 130.824  19.608  1.00  0.00    -0.443 OA
ATOM     15  C   UNL     1      43.976 131.576  20.722  1.00  0.00     0.110 A 
ATOM     16  C   UNL     1      42.707 132.111  20.916  1.00  0.00     0.032 A 
ATOM     17  C   UNL     1      45.897 130.744  20.909  1.00  0.00     0.309 A 
ATOM     18  N   UNL     1      44.863 131.203  21.660  1.00  0.00    -0.217 NA
ENDBRANCH   4  10
TORSDOF 1
ENDMDL
MODEL 4
REMARK VINA RESULT:      -8.6      1.844      2.906
REMARK SMILES [O-]c1cc(-c2cccc3ncoc23)cc(F)c1F
REMARK SMILES IDX 1 1 2 2 3 3 4 4 14 5 15 6 16 7 17 8 18 9 5 10 6 11 13 12
REMARK SMILES IDX 7 13 12 14 9 15 8 16 11 17 10 18
REMARK H PARENT
ROOT
ATOM      1  O   UNL     1      43.211 131.723  13.467  1.00  0.00    -0.870 OA
ATOM      2  C   UNL     1      44.004 131.477  14.582  1.00  0.00    -0.068 A 
ATOM      3  C   UNL     1      43.489 131.692  15.865  1.00  0.00     0.003 A 
ATOM      4  C   UNL     1      44.280 131.444  17.002  1.00  0.00    -0.012 A 
ATOM      5  C   UNL     1      45.593 130.971  16.828  1.00  0.00     0.051 A 
ATOM      6  C   UNL     1      46.106 130.758  15.545  1.00  0.00     0.158 A 
ATOM      7  F   UNL     1      47.376 130.308  15.391  1.00  0.00    -0.204 F 
ATOM      8  C   UNL     1      45.313 131.011  14.422  1.00  0.00     0.151 A 
ATOM      9  F   UNL     1      45.814 130.802  13.178  1.00  0.00    -0.204 F 
ENDROOT
BRANCH   4  10
ATOM     10  C   UNL     1      43.737 131.669  18.364  1.00  0.00     0.027 A 
ATOM     11  C   UNL     1      42.450 132.224  18.562  1.00  0.00     0.013 A 
ATOM     12  C   UNL     1      44.464 131.341  19.516  1.00  0.00     0.162 A 
ATOM     13  C   UNL     1      41.946 132.435  19.866  1.00  0.00     0.003 A 
ATOM     14  O   UNL     1      45.651 130.803  19.620  1.00  0.00    -0.443 OA
ATOM     15  C   UNL     1      43.975 131.546  20.771  1.00  0.00     0.110 A 
ATOM     16  C   UNL     1      42.715 132.093  20.992  1.00  0.00     0.032 A 
ATOM     17  C   UNL     1      45.886 130.683  20.915  1.00  0.00     0.309 A 
ATOM     18  N   UNL     1      44.866 131.135  21.689  1.00  0.00    -0.217 NA
ENDBRANCH   4  10
TORSDOF 1
ENDMDL
MODEL 5
REMARK VINA RESULT:      -8.1      1.384      1.652
REMARK SMILES [O-]c1cc(-c2cccc3ncoc23)cc(F)c1F
REMARK SMILES IDX 1 1 2 2 3 3 4 4 14 5 15 6 16 7 17 8 18 9 5 10 6 11 13 12
REMARK SMILES IDX 7 13 12 14 9 15 8 16 11 17 10 18
REMARK H PARENT
ROOT
ATOM      1  O   UNL     1      46.760 132.659  14.528  1.00  0.00    -0.870 OA
ATOM      2  C   UNL     1      46.230 131.632  15.301  1.00  0.00    -0.068 A 
ATOM      3  C   UNL     1      45.846 131.882  16.622  1.00  0.00     0.003 A 
ATOM      4  C   UNL     1      45.306 130.852  17.415  1.00  0.00    -0.012 A 
ATOM      5  C   UNL     1      45.154 129.570  16.856  1.00  0.00     0.051 A 
ATOM      6  C   UNL     1      45.541 129.323  15.535  1.00  0.00     0.158 A 
ATOM      7  F   UNL     1      45.396 128.081  15.010  1.00  0.00    -0.204 F 
ATOM      8  C   UNL     1      46.079 130.352  14.758  1.00  0.00     0.151 A 
ATOM      9  F   UNL     1      46.453 130.108  13.476  1.00  0.00    -0.204 F 
ENDROOT
BRANCH   4  10
ATOM     10  C   UNL     1      44.894 131.113  18.816  1.00  0.00     0.027 A 
ATOM     11  C   UNL     1      45.739 130.787  19.905  1.00  0.00     0.013 A 
ATOM     12  C   UNL     1      43.660 131.697  19.131  1.00  0.00     0.162 A 
ATOM     13  C   UNL     1      45.332 131.040  21.236  1.00  0.00     0.003 A 
ATOM     14  O   UNL     1      42.713 132.110  18.330  1.00  0.00    -0.443 OA
ATOM     15  C   UNL     1      43.272 131.939  20.414  1.00  0.00     0.110 A 
ATOM     16  C   UNL     1      44.082 131.625  21.501  1.00  0.00     0.032 A 
ATOM     17  C   UNL     1      41.761 132.593  19.109  1.00  0.00     0.309 A 
ATOM     18  N   UNL     1      42.058 132.512  20.432  1.00  0.00    -0.217 NA
ENDBRANCH   4  10
TORSDOF 1
ENDMDL
MODEL 6
REMARK VINA RESULT:      -8.0      1.875      2.701
REMARK SMILES [O-]c1cc(-c2cccc3ncoc23)cc(F)c1F
REMARK SMILES IDX 1 1 2 2 3 3 4 4 14 5 15 6 16 7 17 8 18 9 5 10 6 11 13 12
REMARK SMILES IDX 7 13 12 14 9 15 8 16 11 17 10 18
REMARK H PARENT
ROOT
ATOM      1  O   UNL     1      47.164 132.337  14.274  1.00  0.00    -0.870 OA
ATOM      2  C   UNL     1      46.396 131.436  15.003  1.00  0.00    -0.068 A 
ATOM      3  C   UNL     1      45.637 131.886  16.089  1.00  0.00     0.003 A 
ATOM      4  C   UNL     1      44.853 130.985  16.833  1.00  0.00    -0.012 A 
ATOM      5  C   UNL     1      44.841 129.628  16.465  1.00  0.00     0.051 A 
ATOM      6  C   UNL     1      45.602 129.180  15.379  1.00  0.00     0.158 A 
ATOM      7  F   UNL     1      45.585 127.868  15.039  1.00  0.00    -0.204 F 
ATOM      8  C   UNL     1      46.379 130.084  14.649  1.00  0.00     0.151 A 
ATOM      9  F   UNL     1      47.115 129.646  13.597  1.00  0.00    -0.204 F 
ENDROOT
BRANCH   4  10
ATOM     10  C   UNL     1      44.045 131.458  17.984  1.00  0.00     0.027 A 
ATOM     11  C   UNL     1      42.738 131.971  17.806  1.00  0.00     0.013 A 
ATOM     12  C   UNL     1      44.531 131.416  19.298  1.00  0.00     0.162 A 
ATOM     13  C   UNL     1      41.981 132.420  18.913  1.00  0.00     0.003 A 
ATOM     14  O   UNL     1      45.679 130.976  19.742  1.00  0.00    -0.443 OA
ATOM     15  C   UNL     1      43.798 131.850  20.362  1.00  0.00     0.110 A 
ATOM     16  C   UNL     1      42.513 132.361  20.213  1.00  0.00     0.032 A 
ATOM     17  C   UNL     1      45.652 131.141  21.053  1.00  0.00     0.309 A 
ATOM     18  N   UNL     1      44.492 131.688  21.501  1.00  0.00    -0.217 NA
ENDBRANCH   4  10
TORSDOF 1
ENDMDL
MODEL 7
REMARK VINA RESULT:      -8.0      1.211      1.227
REMARK SMILES [O-]c1cc(-c2cccc3ncoc23)cc(F)c1F
REMARK SMILES IDX 1 1 2 2 3 3 4 4 14 5 15 6 16 7 17 8 18 9 5 10 6 11 13 12
REMARK SMILES IDX 7 13 12 14 9 15 8 16 11 17 10 18
REMARK H PARENT
ROOT
ATOM      1  O   UNL     1      45.686 128.287  14.950  1.00  0.00    -0.870 OA
ATOM      2  C   UNL     1      45.695 129.544  15.543  1.00  0.00    -0.068 A 
ATOM      3  C   UNL     1      45.306 129.688  16.879  1.00  0.00     0.003 A 
ATOM      4  C   UNL     1      45.315 130.955  17.492  1.00  0.00    -0.012 A 
ATOM      5  C   UNL     1      45.725 132.072  16.742  1.00  0.00     0.051 A 
ATOM      6  C   UNL     1      46.112 131.925  15.406  1.00  0.00     0.158 A 
ATOM      7  F   UNL     1      46.500 133.011  14.693  1.00  0.00    -0.204 F 
ATOM      8  C   UNL     1      46.097 130.663  14.806  1.00  0.00     0.151 A 
ATOM      9  F   UNL     1      46.474 130.525  13.510  1.00  0.00    -0.204 F 
ENDROOT
BRANCH   4  10
ATOM     10  C   UNL     1      44.905 131.111  18.909  1.00  0.00     0.027 A 
ATOM     11  C   UNL     1      45.736 130.676  19.969  1.00  0.00     0.013 A 
ATOM     12  C   UNL     1      43.685 131.699  19.268  1.00  0.00     0.162 A 
ATOM     13  C   UNL     1      45.331 130.830  21.315  1.00  0.00     0.003 A 
ATOM     14  O   UNL     1      42.752 132.200  18.502  1.00  0.00    -0.443 OA
ATOM     15  C   UNL     1      43.298 131.845  20.566  1.00  0.00     0.110 A 
ATOM     16  C   UNL     1      44.095 131.423  21.625  1.00  0.00     0.032 A 
ATOM     17  C   UNL     1      41.808 132.642  19.316  1.00  0.00     0.309 A 
ATOM     18  N   UNL     1      42.098 132.446  20.629  1.00  0.00    -0.217 NA
ENDBRANCH   4  10
TORSDOF 1
ENDMDL
MODEL 8
REMARK VINA RESULT:      -7.9      1.753      2.515
REMARK SMILES [O-]c1cc(-c2cccc3ncoc23)cc(F)c1F
REMARK SMILES IDX 1 1 2 2 3 3 4 4 14 5 15 6 16 7 17 8 18 9 5 10 6 11 13 12
REMARK SMILES IDX 7 13 12 14 9 15 8 16 11 17 10 18
REMARK H PARENT
ROOT
ATOM      1  O   UNL     1      45.837 128.062  15.015  1.00  0.00    -0.870 OA
ATOM      2  C   UNL     1      45.765 129.398  15.391  1.00  0.00    -0.068 A 
ATOM      3  C   UNL     1      44.968 129.774  16.477  1.00  0.00     0.003 A 
ATOM      4  C   UNL     1      44.889 131.124  16.870  1.00  0.00    -0.012 A 
ATOM      5  C   UNL     1      45.628 132.085  16.158  1.00  0.00     0.051 A 
ATOM      6  C   UNL     1      46.423 131.706  15.071  1.00  0.00     0.158 A 
ATOM      7  F   UNL     1      47.126 132.644  14.389  1.00  0.00    -0.204 F 
ATOM      8  C   UNL     1      46.492 130.364  14.688  1.00  0.00     0.151 A 
ATOM      9  F   UNL     1      47.265 130.000  13.634  1.00  0.00    -0.204 F 
ENDROOT
BRANCH   4  10
ATOM     10  C   UNL     1      44.046 131.527  18.023  1.00  0.00     0.027 A 
ATOM     11  C   UNL     1      42.719 131.986  17.840  1.00  0.00     0.013 A 
ATOM     12  C   UNL     1      44.516 131.470  19.341  1.00  0.00     0.162 A 
ATOM     13  C   UNL     1      41.928 132.369  18.948  1.00  0.00     0.003 A 
ATOM     14  O   UNL     1      45.677 131.070  19.789  1.00  0.00    -0.443 OA
ATOM     15  C   UNL     1      43.750 131.840  20.406  1.00  0.00     0.110 A 
ATOM     16  C   UNL     1      42.446 132.297  20.253  1.00  0.00     0.032 A 
ATOM     17  C   UNL     1      45.625 131.196  21.104  1.00  0.00     0.309 A 
ATOM     18  N   UNL     1      44.436 131.676  21.550  1.00  0.00    -0.217 NA
ENDBRANCH   4  10
TORSDOF 1
ENDMDL
MODEL 9
REMARK VINA RESULT:      -7.9      3.312      5.525
REMARK SMILES [O-]c1cc(-c2cccc3ncoc23)cc(F)c1F
REMARK SMILES IDX 1 1 2 2 3 3 4 4 14 5 15 6 16 7 17 8 18 9 5 10 6 11 13 12
REMARK SMILES IDX 7 13 12 14 9 15 8 16 11 17 10 18
REMARK H PARENT
ROOT
ATOM      1  O   UNL     1      44.848 131.038  22.035  1.00  0.00    -0.870 OA
ATOM      2  C   UNL     1      44.257 131.320  20.809  1.00  0.00    -0.068 A 
ATOM      3  C   UNL     1      44.912 130.971  19.623  1.00  0.00     0.003 A 
ATOM      4  C   UNL     1      44.324 131.248  18.375  1.00  0.00    -0.012 A 
ATOM      5  C   UNL     1      43.066 131.877  18.339  1.00  0.00     0.051 A 
ATOM      6  C   UNL     1      42.414 132.227  19.527  1.00  0.00     0.158 A 
ATOM      7  F   UNL     1      41.205 132.838  19.478  1.00  0.00    -0.204 F 
ATOM      8  C   UNL     1      43.009 131.949  20.761  1.00  0.00     0.151 A 
ATOM      9  F   UNL     1      42.373 132.289  21.910  1.00  0.00    -0.204 F 
ENDROOT
BRANCH   4  10
ATOM     10  C   UNL     1      45.014 130.877  17.115  1.00  0.00     0.027 A 
ATOM     11  C   UNL     1      46.244 130.178  17.127  1.00  0.00     0.013 A 
ATOM     12  C   UNL     1      44.483 131.195  15.858  1.00  0.00     0.162 A 
ATOM     13  C   UNL     1      46.892 129.833  15.918  1.00  0.00     0.003 A 
ATOM     14  O   UNL     1      43.367 131.808  15.562  1.00  0.00    -0.443 OA
ATOM     15  C   UNL     1      45.110 130.860  14.695  1.00  0.00     0.110 A 
ATOM     16  C   UNL     1      46.321 130.176  14.680  1.00  0.00     0.032 A 
ATOM     17  C   UNL     1      43.314 131.852  14.241  1.00  0.00     0.309 A 
ATOM     18  N   UNL     1      44.384 131.270  13.641  1.00  0.00    -0.217 NA
ENDBRANCH   4  10
TORSDOF 1
ENDMDL


