MODEL 1
REMARK VINA RESULT:      -9.3      0.000      0.000
REMARK SMILES Cc1ccc(Nc2cccc(N=[N+]=[N-])c2O)cc1
REMARK SMILES IDX 15 1 11 2 10 3 9 4 8 5 7 6 16 7 12 9 13 10 14 11 6 12 5 14
REMARK SMILES IDX 4 15 17 16 3 17 18 18 2 19 1 20
REMARK H PARENT 16 8 6 13
ROOT
ATOM      1  C   UNL     1      43.274 131.891  19.265  1.00  0.00     0.148 A 
ATOM      2  C   UNL     1      43.457 131.776  20.666  1.00  0.00     0.081 A 
ATOM      3  C   UNL     1      44.667 131.276  21.163  1.00  0.00     0.014 A 
ATOM      4  C   UNL     1      45.688 130.889  20.295  1.00  0.00     0.003 A 
ATOM      5  C   UNL     1      45.506 130.981  18.916  1.00  0.00     0.030 A 
ATOM      6  C   UNL     1      44.298 131.454  18.391  1.00  0.00     0.081 A 
ENDROOT
BRANCH   1   7
ATOM      7  O   UNL     1      42.102 132.456  18.759  1.00  0.00    -0.505 OA
ATOM      8  H   UNL     1      41.457 132.989  19.329  1.00  0.00     0.293 HD
ENDBRANCH   1   7
BRANCH   2   9
ATOM      9  N   UNL     1      42.456 132.166  21.622  1.00  0.00    -0.057 NA
BRANCH   9  10
ATOM     10  N   UNL     1      42.559 131.968  22.833  1.00  0.00     0.005 N 
ATOM     11  N   UNL     1      42.653 131.769  24.043  1.00  0.00    -0.003 NA
ENDBRANCH   9  10
ENDBRANCH   2   9
BRANCH   6  12
ATOM     12  N   UNL     1      44.141 131.507  16.965  1.00  0.00    -0.352 N 
ATOM     13  H   UNL     1      43.297 132.000  16.593  1.00  0.00     0.167 HD
BRANCH  12  14
ATOM     14  C   UNL     1      45.158 131.097  16.032  1.00  0.00     0.038 A 
ATOM     15  C   UNL     1      45.338 129.731  15.770  1.00  0.00     0.026 A 
ATOM     16  C   UNL     1      45.959 132.034  15.353  1.00  0.00     0.026 A 
ATOM     17  C   UNL     1      46.314 129.303  14.865  1.00  0.00     0.005 A 
ATOM     18  C   UNL     1      46.935 131.606  14.448  1.00  0.00     0.005 A 
ATOM     19  C   UNL     1      47.130 130.238  14.212  1.00  0.00    -0.051 A 
ATOM     20  C   UNL     1      48.151 129.782  13.211  1.00  0.00     0.044 C 
ENDBRANCH  12  14
ENDBRANCH   6  12
TORSDOF 5
ENDMDL
MODEL 2
REMARK VINA RESULT:      -9.3      0.190      1.157
REMARK SMILES Cc1ccc(Nc2cccc(N=[N+]=[N-])c2O)cc1
REMARK SMILES IDX 15 1 11 2 10 3 9 4 8 5 7 6 16 7 12 9 13 10 14 11 6 12 5 14
REMARK SMILES IDX 4 15 17 16 3 17 18 18 2 19 1 20
REMARK H PARENT 16 8 6 13
ROOT
ATOM      1  C   UNL     1      43.289 131.933  19.448  1.00  0.00     0.148 A 
ATOM      2  C   UNL     1      43.486 131.747  20.839  1.00  0.00     0.081 A 
ATOM      3  C   UNL     1      44.685 131.184  21.295  1.00  0.00     0.014 A 
ATOM      4  C   UNL     1      45.681 130.805  20.395  1.00  0.00     0.003 A 
ATOM      5  C   UNL     1      45.484 130.968  19.025  1.00  0.00     0.030 A 
ATOM      6  C   UNL     1      44.286 131.504  18.540  1.00  0.00     0.081 A 
ENDROOT
BRANCH   1   7
ATOM      7  O   UNL     1      42.130 132.560  18.986  1.00  0.00    -0.505 OA
ATOM      8  H   UNL     1      41.834 132.527  18.019  1.00  0.00     0.293 HD
ENDBRANCH   1   7
BRANCH   2   9
ATOM      9  N   UNL     1      42.512 132.125  21.826  1.00  0.00    -0.057 NA
BRANCH   9  10
ATOM     10  N   UNL     1      42.600 131.826  23.018  1.00  0.00     0.005 N 
ATOM     11  N   UNL     1      42.689 131.519  24.206  1.00  0.00    -0.003 NA
ENDBRANCH   9  10
ENDBRANCH   2   9
BRANCH   6  12
ATOM     12  N   UNL     1      44.112 131.629  17.120  1.00  0.00    -0.352 N 
ATOM     13  H   UNL     1      43.307 132.205  16.784  1.00  0.00     0.167 HD
BRANCH  12  14
ATOM     14  C   UNL     1      45.077 131.175  16.153  1.00  0.00     0.038 A 
ATOM     15  C   UNL     1      45.888 132.113  15.498  1.00  0.00     0.026 A 
ATOM     16  C   UNL     1      45.247 129.806  15.866  1.00  0.00     0.026 A 
ATOM     17  C   UNL     1      46.837 131.699  14.558  1.00  0.00     0.005 A 
ATOM     18  C   UNL     1      46.196 129.394  14.926  1.00  0.00     0.005 A 
ATOM     19  C   UNL     1      46.984 130.339  14.253  1.00  0.00    -0.051 A 
ATOM     20  C   UNL     1      48.028 129.892  13.273  1.00  0.00     0.044 C 
ENDBRANCH  12  14
ENDBRANCH   6  12
TORSDOF 5
ENDMDL
MODEL 3
REMARK VINA RESULT:      -8.1      0.689      1.549
REMARK SMILES Cc1ccc(Nc2cccc(N=[N+]=[N-])c2O)cc1
REMARK SMILES IDX 15 1 11 2 10 3 9 4 8 5 7 6 16 7 12 9 13 10 14 11 6 12 5 14
REMARK SMILES IDX 4 15 17 16 3 17 18 18 2 19 1 20
REMARK H PARENT 16 8 6 13
ROOT
ATOM      1  C   UNL     1      43.475 131.811  19.208  1.00  0.00     0.148 A 
ATOM      2  C   UNL     1      43.655 131.645  20.604  1.00  0.00     0.081 A 
ATOM      3  C   UNL     1      44.852 131.098  21.082  1.00  0.00     0.014 A 
ATOM      4  C   UNL     1      45.862 130.715  20.200  1.00  0.00     0.003 A 
ATOM      5  C   UNL     1      45.683 130.859  18.826  1.00  0.00     0.030 A 
ATOM      6  C   UNL     1      44.487 131.380  18.318  1.00  0.00     0.081 A 
ENDROOT
BRANCH   1   7
ATOM      7  O   UNL     1      42.316 132.423  18.723  1.00  0.00    -0.505 OA
ATOM      8  H   UNL     1      41.427 131.944  18.657  1.00  0.00     0.293 HD
ENDBRANCH   1   7
BRANCH   2   9
ATOM      9  N   UNL     1      42.665 132.026  21.573  1.00  0.00    -0.057 NA
BRANCH   9  10
ATOM     10  N   UNL     1      41.744 132.810  21.334  1.00  0.00     0.005 N 
ATOM     11  N   UNL     1      40.821 133.586  21.094  1.00  0.00    -0.003 NA
ENDBRANCH   9  10
ENDBRANCH   2   9
BRANCH   6  12
ATOM     12  N   UNL     1      44.331 131.486  16.895  1.00  0.00    -0.352 N 
ATOM     13  H   UNL     1      43.535 132.065  16.542  1.00  0.00     0.167 HD
BRANCH  12  14
ATOM     14  C   UNL     1      45.301 131.007  15.946  1.00  0.00     0.038 A 
ATOM     15  C   UNL     1      46.071 131.931  15.225  1.00  0.00     0.026 A 
ATOM     16  C   UNL     1      45.519 129.631  15.742  1.00  0.00     0.026 A 
ATOM     17  C   UNL     1      47.025 131.495  14.300  1.00  0.00     0.005 A 
ATOM     18  C   UNL     1      46.472 129.196  14.817  1.00  0.00     0.005 A 
ATOM     19  C   UNL     1      47.218 130.124  14.078  1.00  0.00    -0.051 A 
ATOM     20  C   UNL     1      48.269 129.655  13.115  1.00  0.00     0.044 C 
ENDBRANCH  12  14
ENDBRANCH   6  12
TORSDOF 5
ENDMDL
MODEL 4
REMARK VINA RESULT:      -7.7      1.462      1.959
REMARK SMILES Cc1ccc(Nc2cccc(N=[N+]=[N-])c2O)cc1
REMARK SMILES IDX 15 1 11 2 10 3 9 4 8 5 7 6 16 7 12 9 13 10 14 11 6 12 5 14
REMARK SMILES IDX 4 15 17 16 3 17 18 18 2 19 1 20
REMARK H PARENT 16 8 6 13
ROOT
ATOM      1  C   UNL     1      44.136 131.456  20.202  1.00  0.00     0.148 A 
ATOM      2  C   UNL     1      42.917 132.022  20.652  1.00  0.00     0.081 A 
ATOM      3  C   UNL     1      41.942 132.387  19.716  1.00  0.00     0.014 A 
ATOM      4  C   UNL     1      42.159 132.201  18.351  1.00  0.00     0.003 A 
ATOM      5  C   UNL     1      43.364 131.663  17.902  1.00  0.00     0.030 A 
ATOM      6  C   UNL     1      44.367 131.312  18.813  1.00  0.00     0.081 A 
ENDROOT
BRANCH   1   7
ATOM      7  O   UNL     1      45.086 131.021  21.129  1.00  0.00    -0.505 OA
ATOM      8  H   UNL     1      45.066 130.100  21.547  1.00  0.00     0.293 HD
ENDBRANCH   1   7
BRANCH   2   9
ATOM      9  N   UNL     1      42.616 132.232  22.042  1.00  0.00    -0.057 NA
BRANCH   9  10
ATOM     10  N   UNL     1      42.540 131.321  22.867  1.00  0.00     0.005 N 
ATOM     11  N   UNL     1      42.472 130.413  23.694  1.00  0.00    -0.003 NA
ENDBRANCH   9  10
ENDBRANCH   2   9
BRANCH   6  12
ATOM     12  N   UNL     1      45.604 130.787  18.308  1.00  0.00    -0.352 N 
ATOM     13  H   UNL     1      46.182 130.210  18.961  1.00  0.00     0.167 HD
BRANCH  12  14
ATOM     14  C   UNL     1      45.993 130.849  16.923  1.00  0.00     0.038 A 
ATOM     15  C   UNL     1      46.476 129.693  16.293  1.00  0.00     0.026 A 
ATOM     16  C   UNL     1      45.875 132.036  16.175  1.00  0.00     0.026 A 
ATOM     17  C   UNL     1      46.856 129.722  14.948  1.00  0.00     0.005 A 
ATOM     18  C   UNL     1      46.256 132.064  14.830  1.00  0.00     0.005 A 
ATOM     19  C   UNL     1      46.765 130.912  14.214  1.00  0.00    -0.051 A 
ATOM     20  C   UNL     1      47.136 130.934  12.760  1.00  0.00     0.044 C 
ENDBRANCH  12  14
ENDBRANCH   6  12
TORSDOF 5
ENDMDL
MODEL 5
REMARK VINA RESULT:      -7.7      1.777      2.471
REMARK SMILES Cc1ccc(Nc2cccc(N=[N+]=[N-])c2O)cc1
REMARK SMILES IDX 15 1 11 2 10 3 9 4 8 5 7 6 16 7 12 9 13 10 14 11 6 12 5 14
REMARK SMILES IDX 4 15 17 16 3 17 18 18 2 19 1 20
REMARK H PARENT 16 8 6 13
ROOT
ATOM      1  C   UNL     1      44.470 131.404  18.629  1.00  0.00     0.148 A 
ATOM      2  C   UNL     1      44.192 131.379  20.018  1.00  0.00     0.081 A 
ATOM      3  C   UNL     1      42.918 131.743  20.471  1.00  0.00     0.014 A 
ATOM      4  C   UNL     1      41.926 132.131  19.571  1.00  0.00     0.003 A 
ATOM      5  C   UNL     1      42.200 132.176  18.205  1.00  0.00     0.030 A 
ATOM      6  C   UNL     1      43.472 131.841  17.726  1.00  0.00     0.081 A 
ENDROOT
BRANCH   1   7
ATOM      7  O   UNL     1      45.713 130.974  18.159  1.00  0.00    -0.505 OA
ATOM      8  H   UNL     1      46.168 130.134  18.494  1.00  0.00     0.293 HD
ENDBRANCH   1   7
BRANCH   2   9
ATOM      9  N   UNL     1      45.158 130.979  21.005  1.00  0.00    -0.057 NA
BRANCH   9  10
ATOM     10  N   UNL     1      44.946 130.109  21.851  1.00  0.00     0.005 N 
ATOM     11  N   UNL     1      44.743 129.239  22.697  1.00  0.00    -0.003 NA
ENDBRANCH   9  10
ENDBRANCH   2   9
BRANCH   6  12
ATOM     12  N   UNL     1      43.722 131.928  16.316  1.00  0.00    -0.352 N 
ATOM     13  H   UNL     1      43.154 132.615  15.769  1.00  0.00     0.167 HD
BRANCH  12  14
ATOM     14  C   UNL     1      44.821 131.273  15.656  1.00  0.00     0.038 A 
ATOM     15  C   UNL     1      45.855 132.047  15.110  1.00  0.00     0.026 A 
ATOM     16  C   UNL     1      44.901 129.869  15.570  1.00  0.00     0.026 A 
ATOM     17  C   UNL     1      46.938 131.438  14.469  1.00  0.00     0.005 A 
ATOM     18  C   UNL     1      45.983 129.261  14.928  1.00  0.00     0.005 A 
ATOM     19  C   UNL     1      46.999 130.042  14.358  1.00  0.00    -0.051 A 
ATOM     20  C   UNL     1      48.180 129.386  13.705  1.00  0.00     0.044 C 
ENDBRANCH  12  14
ENDBRANCH   6  12
TORSDOF 5
ENDMDL
MODEL 6
REMARK VINA RESULT:      -7.7      1.086      1.338
REMARK SMILES Cc1ccc(Nc2cccc(N=[N+]=[N-])c2O)cc1
REMARK SMILES IDX 15 1 11 2 10 3 9 4 8 5 7 6 16 7 12 9 13 10 14 11 6 12 5 14
REMARK SMILES IDX 4 15 17 16 3 17 18 18 2 19 1 20
REMARK H PARENT 16 8 6 13
ROOT
ATOM      1  C   UNL     1      43.245 131.842  20.099  1.00  0.00     0.148 A 
ATOM      2  C   UNL     1      43.670 131.529  21.414  1.00  0.00     0.081 A 
ATOM      3  C   UNL     1      44.925 130.941  21.609  1.00  0.00     0.014 A 
ATOM      4  C   UNL     1      45.756 130.659  20.525  1.00  0.00     0.003 A 
ATOM      5  C   UNL     1      45.335 130.948  19.228  1.00  0.00     0.030 A 
ATOM      6  C   UNL     1      44.075 131.513  19.001  1.00  0.00     0.081 A 
ENDROOT
BRANCH   1   7
ATOM      7  O   UNL     1      42.027 132.496  19.897  1.00  0.00    -0.505 OA
ATOM      8  H   UNL     1      41.146 132.005  19.811  1.00  0.00     0.293 HD
ENDBRANCH   1   7
BRANCH   2   9
ATOM      9  N   UNL     1      42.874 131.801  22.581  1.00  0.00    -0.057 NA
BRANCH   9  10
ATOM     10  N   UNL     1      42.543 130.937  23.394  1.00  0.00     0.005 N 
ATOM     11  N   UNL     1      42.218 130.077  24.211  1.00  0.00    -0.003 NA
ENDBRANCH   9  10
ENDBRANCH   2   9
BRANCH   6  12
ATOM     12  N   UNL     1      43.668 131.769  17.649  1.00  0.00    -0.352 N 
ATOM     13  H   UNL     1      42.775 132.293  17.507  1.00  0.00     0.167 HD
BRANCH  12  14
ATOM     14  C   UNL     1      44.502 131.518  16.502  1.00  0.00     0.038 A 
ATOM     15  C   UNL     1      43.943 131.591  15.217  1.00  0.00     0.026 A 
ATOM     16  C   UNL     1      45.874 131.228  16.634  1.00  0.00     0.026 A 
ATOM     17  C   UNL     1      44.729 131.358  14.085  1.00  0.00     0.005 A 
ATOM     18  C   UNL     1      46.659 130.995  15.501  1.00  0.00     0.005 A 
ATOM     19  C   UNL     1      46.088 131.041  14.222  1.00  0.00    -0.051 A 
ATOM     20  C   UNL     1      46.941 130.829  13.006  1.00  0.00     0.044 C 
ENDBRANCH  12  14
ENDBRANCH   6  12
TORSDOF 5
ENDMDL
MODEL 7
REMARK VINA RESULT:      -7.7      1.731      2.165
REMARK SMILES Cc1ccc(Nc2cccc(N=[N+]=[N-])c2O)cc1
REMARK SMILES IDX 15 1 11 2 10 3 9 4 8 5 7 6 16 7 12 9 13 10 14 11 6 12 5 14
REMARK SMILES IDX 4 15 17 16 3 17 18 18 2 19 1 20
REMARK H PARENT 16 8 6 13
ROOT
ATOM      1  C   UNL     1      44.425 131.405  18.616  1.00  0.00     0.148 A 
ATOM      2  C   UNL     1      44.139 131.401  20.004  1.00  0.00     0.081 A 
ATOM      3  C   UNL     1      42.868 131.786  20.446  1.00  0.00     0.014 A 
ATOM      4  C   UNL     1      41.885 132.175  19.535  1.00  0.00     0.003 A 
ATOM      5  C   UNL     1      42.166 132.198  18.171  1.00  0.00     0.030 A 
ATOM      6  C   UNL     1      43.436 131.842  17.703  1.00  0.00     0.081 A 
ENDROOT
BRANCH   1   7
ATOM      7  O   UNL     1      45.665 130.953  18.158  1.00  0.00    -0.505 OA
ATOM      8  H   UNL     1      46.433 131.576  17.944  1.00  0.00     0.293 HD
ENDBRANCH   1   7
BRANCH   2   9
ATOM      9  N   UNL     1      45.096 131.002  21.000  1.00  0.00    -0.057 NA
BRANCH   9  10
ATOM     10  N   UNL     1      44.842 130.210  21.909  1.00  0.00     0.005 N 
ATOM     11  N   UNL     1      44.586 129.424  22.820  1.00  0.00    -0.003 NA
ENDBRANCH   9  10
ENDBRANCH   2   9
BRANCH   6  12
ATOM     12  N   UNL     1      43.694 131.907  16.292  1.00  0.00    -0.352 N 
ATOM     13  H   UNL     1      43.103 132.558  15.726  1.00  0.00     0.167 HD
BRANCH  12  14
ATOM     14  C   UNL     1      44.825 131.283  15.656  1.00  0.00     0.038 A 
ATOM     15  C   UNL     1      44.887 129.884  15.582  1.00  0.00     0.026 A 
ATOM     16  C   UNL     1      45.861 132.044  15.079  1.00  0.00     0.026 A 
ATOM     17  C   UNL     1      45.970 129.252  14.966  1.00  0.00     0.005 A 
ATOM     18  C   UNL     1      46.944 131.410  14.463  1.00  0.00     0.005 A 
ATOM     19  C   UNL     1      47.014 130.011  14.418  1.00  0.00    -0.051 A 
ATOM     20  C   UNL     1      48.158 129.333  13.722  1.00  0.00     0.044 C 
ENDBRANCH  12  14
ENDBRANCH   6  12
TORSDOF 5
ENDMDL
MODEL 8
REMARK VINA RESULT:      -7.6      2.999      7.200
REMARK SMILES Cc1ccc(Nc2cccc(N=[N+]=[N-])c2O)cc1
REMARK SMILES IDX 15 1 11 2 10 3 9 4 8 5 7 6 16 7 12 9 13 10 14 11 6 12 5 14
REMARK SMILES IDX 4 15 17 16 3 17 18 18 2 19 1 20
REMARK H PARENT 16 8 6 13
ROOT
ATOM      1  C   UNL     1      46.054 130.349  16.453  1.00  0.00     0.148 A 
ATOM      2  C   UNL     1      45.561 130.521  15.136  1.00  0.00     0.081 A 
ATOM      3  C   UNL     1      44.369 131.228  14.934  1.00  0.00     0.014 A 
ATOM      4  C   UNL     1      43.665 131.759  16.014  1.00  0.00     0.003 A 
ATOM      5  C   UNL     1      44.135 131.577  17.314  1.00  0.00     0.030 A 
ATOM      6  C   UNL     1      45.310 130.853  17.547  1.00  0.00     0.081 A 
ENDROOT
BRANCH   1   7
ATOM      7  O   UNL     1      47.278 129.710  16.661  1.00  0.00    -0.505 OA
ATOM      8  H   UNL     1      47.717 129.120  15.966  1.00  0.00     0.293 HD
ENDBRANCH   1   7
BRANCH   2   9
ATOM      9  N   UNL     1      46.237 130.013  13.973  1.00  0.00    -0.057 NA
BRANCH   9  10
ATOM     10  N   UNL     1      47.111 130.636  13.368  1.00  0.00     0.005 N 
ATOM     11  N   UNL     1      47.979 131.258  12.758  1.00  0.00    -0.003 NA
ENDBRANCH   9  10
ENDBRANCH   2   9
BRANCH   6  12
ATOM     12  N   UNL     1      45.745 130.664  18.901  1.00  0.00    -0.352 N 
ATOM     13  H   UNL     1      46.763 130.483  19.058  1.00  0.00     0.167 HD
BRANCH  12  14
ATOM     14  C   UNL     1      44.908 130.894  20.050  1.00  0.00     0.038 A 
ATOM     15  C   UNL     1      45.179 130.213  21.246  1.00  0.00     0.026 A 
ATOM     16  C   UNL     1      43.839 131.810  20.014  1.00  0.00     0.026 A 
ATOM     17  C   UNL     1      44.387 130.421  22.378  1.00  0.00     0.005 A 
ATOM     18  C   UNL     1      43.047 132.017  21.147  1.00  0.00     0.005 A 
ATOM     19  C   UNL     1      43.305 131.311  22.330  1.00  0.00    -0.051 A 
ATOM     20  C   UNL     1      42.479 131.565  23.557  1.00  0.00     0.044 C 
ENDBRANCH  12  14
ENDBRANCH   6  12
TORSDOF 5
ENDMDL
MODEL 9
REMARK VINA RESULT:      -7.4      2.050      2.481
REMARK SMILES Cc1ccc(Nc2cccc(N=[N+]=[N-])c2O)cc1
REMARK SMILES IDX 15 1 11 2 10 3 9 4 8 5 7 6 16 7 12 9 13 10 14 11 6 12 5 14
REMARK SMILES IDX 4 15 17 16 3 17 18 18 2 19 1 20
REMARK H PARENT 16 8 6 13
ROOT
ATOM      1  C   UNL     1      44.686 131.413  18.533  1.00  0.00     0.148 A 
ATOM      2  C   UNL     1      44.551 131.603  19.931  1.00  0.00     0.081 A 
ATOM      3  C   UNL     1      43.312 131.991  20.455  1.00  0.00     0.014 A 
ATOM      4  C   UNL     1      42.216 132.194  19.616  1.00  0.00     0.003 A 
ATOM      5  C   UNL     1      42.349 132.027  18.239  1.00  0.00     0.030 A 
ATOM      6  C   UNL     1      43.581 131.663  17.685  1.00  0.00     0.081 A 
ENDROOT
BRANCH   1   7
ATOM      7  O   UNL     1      45.896 130.954  18.006  1.00  0.00    -0.505 OA
ATOM      8  H   UNL     1      46.154 131.072  17.034  1.00  0.00     0.293 HD
ENDBRANCH   1   7
BRANCH   2   9
ATOM      9  N   UNL     1      45.631 131.401  20.858  1.00  0.00    -0.057 NA
BRANCH   9  10
ATOM     10  N   UNL     1      46.411 132.292  21.198  1.00  0.00     0.005 N 
ATOM     11  N   UNL     1      47.193 133.182  21.530  1.00  0.00    -0.003 NA
ENDBRANCH   9  10
ENDBRANCH   2   9
BRANCH   6  12
ATOM     12  N   UNL     1      43.683 131.528  16.260  1.00  0.00    -0.352 N 
ATOM     13  H   UNL     1      42.910 131.932  15.683  1.00  0.00     0.167 HD
BRANCH  12  14
ATOM     14  C   UNL     1      44.861 131.049  15.584  1.00  0.00     0.038 A 
ATOM     15  C   UNL     1      45.069 129.667  15.462  1.00  0.00     0.026 A 
ATOM     16  C   UNL     1      45.798 131.933  15.015  1.00  0.00     0.026 A 
ATOM     17  C   UNL     1      46.200 129.173  14.806  1.00  0.00     0.005 A 
ATOM     18  C   UNL     1      46.929 131.438  14.360  1.00  0.00     0.005 A 
ATOM     19  C   UNL     1      47.146 130.056  14.267  1.00  0.00    -0.051 A 
ATOM     20  C   UNL     1      48.340 129.527  13.528  1.00  0.00     0.044 C 
ENDBRANCH  12  14
ENDBRANCH   6  12
TORSDOF 5
ENDMDL


