MODEL 1
REMARK VINA RESULT:     -10.4      0.000      0.000
REMARK SMILES NNc1ccccc1-c1nc2ccccc2[nH]1
REMARK SMILES IDX 3 1 4 2 5 3 6 4 7 5 8 6 2 7 1 9 9 12 10 13 17 14 11 15 16 16
REMARK SMILES IDX 12 17 15 18 13 19 14 20
REMARK H PARENT 2 8 1 10 1 11 17 21
ROOT
ATOM      1  C   UNL     1      43.913 131.675  18.813  1.00  0.00     0.059 A 
ATOM      2  C   UNL     1      43.464 131.885  20.131  1.00  0.00     0.028 A 
ATOM      3  C   UNL     1      44.202 131.417  21.220  1.00  0.00     0.002 A 
ATOM      4  C   UNL     1      45.396 130.732  21.011  1.00  0.00     0.001 A 
ATOM      5  C   UNL     1      45.867 130.527  19.714  1.00  0.00     0.014 A 
ATOM      6  C   UNL     1      45.147 131.004  18.605  1.00  0.00     0.042 A 
ENDROOT
BRANCH   1   7
ATOM      7  N   UNL     1      43.090 132.085  17.703  1.00  0.00    -0.323 N 
ATOM      8  H   UNL     1      43.418 131.934  16.723  1.00  0.00     0.181 HD
BRANCH   7   9
ATOM      9  N   UNL     1      41.823 132.658  17.902  1.00  0.00    -0.250 NA
ATOM     10  H   UNL     1      41.936 133.693  17.815  1.00  0.00     0.143 HD
ATOM     11  H   UNL     1      41.545 132.478  18.894  1.00  0.00     0.143 HD
ENDBRANCH   7   9
ENDBRANCH   1   7
BRANCH   6  12
ATOM     12  C   UNL     1      45.738 130.834  17.258  1.00  0.00     0.140 A 
ATOM     13  N   UNL     1      45.697 131.800  16.299  1.00  0.00    -0.228 NA
ATOM     14  N   UNL     1      46.430 129.728  16.882  1.00  0.00    -0.338 N 
ATOM     15  C   UNL     1      46.385 131.246  15.286  1.00  0.00     0.089 A 
ATOM     16  C   UNL     1      46.825 130.005  15.634  1.00  0.00     0.066 A 
ATOM     17  C   UNL     1      46.655 131.798  14.036  1.00  0.00     0.030 A 
ATOM     18  C   UNL     1      47.570 129.210  14.764  1.00  0.00     0.028 A 
ATOM     19  C   UNL     1      47.406 131.026  13.129  1.00  0.00     0.002 A 
ATOM     20  C   UNL     1      47.861 129.737  13.491  1.00  0.00     0.002 A 
ATOM     21  H   UNL     1      46.609 128.858  17.430  1.00  0.00     0.168 HD
ENDBRANCH   6  12
TORSDOF 3
ENDMDL
MODEL 2
REMARK VINA RESULT:      -9.7      0.516      1.500
REMARK SMILES NNc1ccccc1-c1nc2ccccc2[nH]1
REMARK SMILES IDX 3 1 4 2 5 3 6 4 7 5 8 6 2 7 1 9 9 12 10 13 17 14 11 15 16 16
REMARK SMILES IDX 12 17 15 18 13 19 14 20
REMARK H PARENT 2 8 1 10 1 11 17 21
ROOT
ATOM      1  C   UNL     1      43.534 131.729  19.103  1.00  0.00     0.059 A 
ATOM      2  C   UNL     1      43.026 131.943  20.399  1.00  0.00     0.028 A 
ATOM      3  C   UNL     1      43.765 131.573  21.525  1.00  0.00     0.002 A 
ATOM      4  C   UNL     1      45.018 130.985  21.376  1.00  0.00     0.001 A 
ATOM      5  C   UNL     1      45.547 130.780  20.102  1.00  0.00     0.014 A 
ATOM      6  C   UNL     1      44.827 131.159  18.956  1.00  0.00     0.042 A 
ENDROOT
BRANCH   1   7
ATOM      7  N   UNL     1      42.717 132.032  17.955  1.00  0.00    -0.323 N 
ATOM      8  H   UNL     1      42.951 131.624  17.022  1.00  0.00     0.181 HD
BRANCH   7   9
ATOM      9  N   UNL     1      41.576 132.845  18.062  1.00  0.00    -0.250 NA
ATOM     10  H   UNL     1      40.760 132.272  17.748  1.00  0.00     0.143 HD
ATOM     11  H   UNL     1      41.672 133.619  17.366  1.00  0.00     0.143 HD
ENDBRANCH   7   9
ENDBRANCH   1   7
BRANCH   6  12
ATOM     12  C   UNL     1      45.474 130.997  17.634  1.00  0.00     0.140 A 
ATOM     13  N   UNL     1      45.970 129.811  17.187  1.00  0.00    -0.228 NA
ATOM     14  N   UNL     1      45.569 132.001  16.724  1.00  0.00    -0.338 N 
ATOM     15  C   UNL     1      46.403 130.115  15.950  1.00  0.00     0.089 A 
ATOM     16  C   UNL     1      46.162 131.425  15.671  1.00  0.00     0.066 A 
ATOM     17  C   UNL     1      47.011 129.266  15.028  1.00  0.00     0.030 A 
ATOM     18  C   UNL     1      46.510 132.001  14.450  1.00  0.00     0.028 A 
ATOM     19  C   UNL     1      47.378 129.811  13.782  1.00  0.00     0.002 A 
ATOM     20  C   UNL     1      47.129 131.173  13.495  1.00  0.00     0.002 A 
ATOM     21  H   UNL     1      45.261 132.994  16.819  1.00  0.00     0.168 HD
ENDBRANCH   6  12
TORSDOF 3
ENDMDL
MODEL 3
REMARK VINA RESULT:      -9.6      1.008      1.152
REMARK SMILES NNc1ccccc1-c1nc2ccccc2[nH]1
REMARK SMILES IDX 3 1 4 2 5 3 6 4 7 5 8 6 2 7 1 9 9 12 10 13 17 14 11 15 16 16
REMARK SMILES IDX 12 17 15 18 13 19 14 20
REMARK H PARENT 2 8 1 10 1 11 17 21
ROOT
ATOM      1  C   UNL     1      43.161 131.641  19.679  1.00  0.00     0.059 A 
ATOM      2  C   UNL     1      42.788 131.917  21.009  1.00  0.00     0.028 A 
ATOM      3  C   UNL     1      43.710 131.791  22.049  1.00  0.00     0.002 A 
ATOM      4  C   UNL     1      45.015 131.388  21.781  1.00  0.00     0.001 A 
ATOM      5  C   UNL     1      45.411 131.125  20.469  1.00  0.00     0.014 A 
ATOM      6  C   UNL     1      44.502 131.261  19.405  1.00  0.00     0.042 A 
ENDROOT
BRANCH   1   7
ATOM      7  N   UNL     1      42.171 131.687  18.633  1.00  0.00    -0.323 N 
ATOM      8  H   UNL     1      41.816 130.802  18.207  1.00  0.00     0.181 HD
BRANCH   7   9
ATOM      9  N   UNL     1      41.633 132.906  18.187  1.00  0.00    -0.250 NA
ATOM     10  H   UNL     1      42.242 133.244  17.407  1.00  0.00     0.143 HD
ATOM     11  H   UNL     1      41.737 133.602  18.960  1.00  0.00     0.143 HD
ENDBRANCH   7   9
ENDBRANCH   1   7
BRANCH   6  12
ATOM     12  C   UNL     1      44.999 131.054  18.026  1.00  0.00     0.140 A 
ATOM     13  N   UNL     1      44.539 131.756  16.955  1.00  0.00    -0.228 NA
ATOM     14  N   UNL     1      46.005 130.194  17.718  1.00  0.00    -0.338 N 
ATOM     15  C   UNL     1      45.291 131.287  15.943  1.00  0.00     0.089 A 
ATOM     16  C   UNL     1      46.170 130.352  16.400  1.00  0.00     0.066 A 
ATOM     17  C   UNL     1      45.243 131.658  14.602  1.00  0.00     0.030 A 
ATOM     18  C   UNL     1      47.073 129.708  15.556  1.00  0.00     0.028 A 
ATOM     19  C   UNL     1      46.139 131.029  13.717  1.00  0.00     0.002 A 
ATOM     20  C   UNL     1      47.051 130.057  14.192  1.00  0.00     0.002 A 
ATOM     21  H   UNL     1      46.527 129.552  18.354  1.00  0.00     0.168 HD
ENDBRANCH   6  12
TORSDOF 3
ENDMDL
MODEL 4
REMARK VINA RESULT:      -9.3      1.490      2.706
REMARK SMILES NNc1ccccc1-c1nc2ccccc2[nH]1
REMARK SMILES IDX 3 1 4 2 5 3 6 4 7 5 8 6 2 7 1 9 9 12 10 13 17 14 11 15 16 16
REMARK SMILES IDX 12 17 15 18 13 19 14 20
REMARK H PARENT 2 8 1 10 1 11 17 21
ROOT
ATOM      1  C   UNL     1      44.531 131.566  19.475  1.00  0.00     0.059 A 
ATOM      2  C   UNL     1      43.568 131.834  20.468  1.00  0.00     0.028 A 
ATOM      3  C   UNL     1      42.266 132.198  20.119  1.00  0.00     0.002 A 
ATOM      4  C   UNL     1      41.905 132.300  18.778  1.00  0.00     0.001 A 
ATOM      5  C   UNL     1      42.839 132.023  17.779  1.00  0.00     0.014 A 
ATOM      6  C   UNL     1      44.150 131.641  18.109  1.00  0.00     0.042 A 
ENDROOT
BRANCH   1   7
ATOM      7  N   UNL     1      45.892 131.283  19.857  1.00  0.00    -0.323 N 
ATOM      8  H   UNL     1      46.591 132.058  19.919  1.00  0.00     0.181 HD
BRANCH   7   9
ATOM      9  N   UNL     1      46.306 129.982  20.186  1.00  0.00    -0.250 NA
ATOM     10  H   UNL     1      47.132 129.760  19.585  1.00  0.00     0.143 HD
ATOM     11  H   UNL     1      45.548 129.324  19.892  1.00  0.00     0.143 HD
ENDBRANCH   7   9
ENDBRANCH   1   7
BRANCH   6  12
ATOM     12  C   UNL     1      45.073 131.274  17.011  1.00  0.00     0.140 A 
ATOM     13  N   UNL     1      45.627 130.037  16.884  1.00  0.00    -0.228 NA
ATOM     14  N   UNL     1      45.394 132.118  15.995  1.00  0.00    -0.338 N 
ATOM     15  C   UNL     1      46.334 130.141  15.744  1.00  0.00     0.089 A 
ATOM     16  C   UNL     1      46.194 131.386  15.210  1.00  0.00     0.066 A 
ATOM     17  C   UNL     1      47.112 129.162  15.132  1.00  0.00     0.030 A 
ATOM     18  C   UNL     1      46.820 131.760  14.023  1.00  0.00     0.028 A 
ATOM     19  C   UNL     1      47.762 129.501  13.930  1.00  0.00     0.002 A 
ATOM     20  C   UNL     1      47.617 130.795  13.377  1.00  0.00     0.002 A 
ATOM     21  H   UNL     1      45.097 133.109  15.857  1.00  0.00     0.168 HD
ENDBRANCH   6  12
TORSDOF 3
ENDMDL
MODEL 5
REMARK VINA RESULT:      -8.9      1.538      2.293
REMARK SMILES NNc1ccccc1-c1nc2ccccc2[nH]1
REMARK SMILES IDX 3 1 4 2 5 3 6 4 7 5 8 6 2 7 1 9 9 12 10 13 17 14 11 15 16 16
REMARK SMILES IDX 12 17 15 18 13 19 14 20
REMARK H PARENT 2 8 1 10 1 11 17 21
ROOT
ATOM      1  C   UNL     1      44.749 131.448  19.326  1.00  0.00     0.059 A 
ATOM      2  C   UNL     1      43.839 131.710  20.369  1.00  0.00     0.028 A 
ATOM      3  C   UNL     1      42.515 132.055  20.092  1.00  0.00     0.002 A 
ATOM      4  C   UNL     1      42.078 132.144  18.773  1.00  0.00     0.001 A 
ATOM      5  C   UNL     1      42.959 131.872  17.725  1.00  0.00     0.014 A 
ATOM      6  C   UNL     1      44.292 131.508  17.983  1.00  0.00     0.042 A 
ENDROOT
BRANCH   1   7
ATOM      7  N   UNL     1      46.133 131.185  19.633  1.00  0.00    -0.323 N 
ATOM      8  H   UNL     1      46.748 130.724  18.926  1.00  0.00     0.181 HD
BRANCH   7   9
ATOM      9  N   UNL     1      46.697 131.569  20.861  1.00  0.00    -0.250 NA
ATOM     10  H   UNL     1      46.172 132.411  21.191  1.00  0.00     0.143 HD
ATOM     11  H   UNL     1      47.674 131.891  20.675  1.00  0.00     0.143 HD
ENDBRANCH   7   9
ENDBRANCH   1   7
BRANCH   6  12
ATOM     12  C   UNL     1      45.156 131.146  16.837  1.00  0.00     0.140 A 
ATOM     13  N   UNL     1      45.564 132.043  15.898  1.00  0.00    -0.228 NA
ATOM     14  N   UNL     1      45.674 129.903  16.658  1.00  0.00    -0.338 N 
ATOM     15  C   UNL     1      46.354 131.304  15.100  1.00  0.00     0.089 A 
ATOM     16  C   UNL     1      46.422 130.022  15.555  1.00  0.00     0.066 A 
ATOM     17  C   UNL     1      47.043 131.717  13.962  1.00  0.00     0.030 A 
ATOM     18  C   UNL     1      47.180 129.045  14.912  1.00  0.00     0.028 A 
ATOM     19  C   UNL     1      47.821 130.759  13.285  1.00  0.00     0.002 A 
ATOM     20  C   UNL     1      47.888 129.427  13.757  1.00  0.00     0.002 A 
ATOM     21  H   UNL     1      45.521 129.048  17.237  1.00  0.00     0.168 HD
ENDBRANCH   6  12
TORSDOF 3
ENDMDL
MODEL 6
REMARK VINA RESULT:      -8.6      1.844      3.008
REMARK SMILES NNc1ccccc1-c1nc2ccccc2[nH]1
REMARK SMILES IDX 3 1 4 2 5 3 6 4 7 5 8 6 2 7 1 9 9 12 10 13 17 14 11 15 16 16
REMARK SMILES IDX 12 17 15 18 13 19 14 20
REMARK H PARENT 2 8 1 10 1 11 17 21
ROOT
ATOM      1  C   UNL     1      44.451 131.285  20.727  1.00  0.00     0.059 A 
ATOM      2  C   UNL     1      43.737 131.495  21.924  1.00  0.00     0.028 A 
ATOM      3  C   UNL     1      42.496 132.133  21.912  1.00  0.00     0.002 A 
ATOM      4  C   UNL     1      41.947 132.572  20.710  1.00  0.00     0.001 A 
ATOM      5  C   UNL     1      42.629 132.359  19.511  1.00  0.00     0.014 A 
ATOM      6  C   UNL     1      43.873 131.705  19.499  1.00  0.00     0.042 A 
ENDROOT
BRANCH   1   7
ATOM      7  N   UNL     1      45.771 130.709  20.773  1.00  0.00    -0.323 N 
ATOM      8  H   UNL     1      45.889 129.672  20.818  1.00  0.00     0.181 HD
BRANCH   7   9
ATOM      9  N   UNL     1      46.923 131.511  20.723  1.00  0.00    -0.250 NA
ATOM     10  H   UNL     1      46.619 132.468  20.434  1.00  0.00     0.143 HD
ATOM     11  H   UNL     1      47.527 131.152  19.949  1.00  0.00     0.143 HD
ENDBRANCH   7   9
ENDBRANCH   1   7
BRANCH   6  12
ATOM     12  C   UNL     1      44.510 131.430  18.192  1.00  0.00     0.140 A 
ATOM     13  N   UNL     1      45.566 130.584  18.040  1.00  0.00    -0.228 NA
ATOM     14  N   UNL     1      44.056 131.943  17.019  1.00  0.00    -0.338 N 
ATOM     15  C   UNL     1      45.773 130.598  16.712  1.00  0.00     0.089 A 
ATOM     16  C   UNL     1      44.869 131.411  16.099  1.00  0.00     0.066 A 
ATOM     17  C   UNL     1      46.744 129.905  15.993  1.00  0.00     0.030 A 
ATOM     18  C   UNL     1      44.858 131.602  14.718  1.00  0.00     0.028 A 
ATOM     19  C   UNL     1      46.766 130.072  14.595  1.00  0.00     0.002 A 
ATOM     20  C   UNL     1      45.827 130.918  13.960  1.00  0.00     0.002 A 
ATOM     21  H   UNL     1      43.264 132.605  16.865  1.00  0.00     0.168 HD
ENDBRANCH   6  12
TORSDOF 3
ENDMDL
MODEL 7
REMARK VINA RESULT:      -8.5      1.403      5.853
REMARK SMILES NNc1ccccc1-c1nc2ccccc2[nH]1
REMARK SMILES IDX 3 1 4 2 5 3 6 4 7 5 8 6 2 7 1 9 9 12 10 13 17 14 11 15 16 16
REMARK SMILES IDX 12 17 15 18 13 19 14 20
REMARK H PARENT 2 8 1 10 1 11 17 21
ROOT
ATOM      1  C   UNL     1      46.531 129.525  14.877  1.00  0.00     0.059 A 
ATOM      2  C   UNL     1      47.467 129.273  13.855  1.00  0.00     0.028 A 
ATOM      3  C   UNL     1      48.051 130.325  13.147  1.00  0.00     0.002 A 
ATOM      4  C   UNL     1      47.712 131.642  13.445  1.00  0.00     0.001 A 
ATOM      5  C   UNL     1      46.800 131.915  14.465  1.00  0.00     0.014 A 
ATOM      6  C   UNL     1      46.212 130.871  15.200  1.00  0.00     0.042 A 
ENDROOT
BRANCH   1   7
ATOM      7  N   UNL     1      45.872 128.424  15.531  1.00  0.00    -0.323 N 
ATOM      8  H   UNL     1      46.427 127.736  16.087  1.00  0.00     0.181 HD
BRANCH   7   9
ATOM      9  N   UNL     1      44.477 128.264  15.472  1.00  0.00    -0.250 NA
ATOM     10  H   UNL     1      44.260 127.313  15.846  1.00  0.00     0.143 HD
ATOM     11  H   UNL     1      44.202 128.249  14.463  1.00  0.00     0.143 HD
ENDBRANCH   7   9
ENDBRANCH   1   7
BRANCH   6  12
ATOM     12  C   UNL     1      45.319 131.222  16.327  1.00  0.00     0.140 A 
ATOM     13  N   UNL     1      43.991 131.481  16.174  1.00  0.00    -0.228 NA
ATOM     14  N   UNL     1      45.729 131.252  17.622  1.00  0.00    -0.338 N 
ATOM     15  C   UNL     1      43.579 131.694  17.436  1.00  0.00     0.089 A 
ATOM     16  C   UNL     1      44.619 131.556  18.304  1.00  0.00     0.066 A 
ATOM     17  C   UNL     1      42.294 132.007  17.872  1.00  0.00     0.030 A 
ATOM     18  C   UNL     1      44.465 131.721  19.680  1.00  0.00     0.028 A 
ATOM     19  C   UNL     1      42.097 132.182  19.255  1.00  0.00     0.002 A 
ATOM     20  C   UNL     1      43.179 132.040  20.156  1.00  0.00     0.002 A 
ATOM     21  H   UNL     1      46.687 131.085  18.003  1.00  0.00     0.168 HD
ENDBRANCH   6  12
TORSDOF 3
ENDMDL
MODEL 8
REMARK VINA RESULT:      -8.5      1.226      5.587
REMARK SMILES NNc1ccccc1-c1nc2ccccc2[nH]1
REMARK SMILES IDX 3 1 4 2 5 3 6 4 7 5 8 6 2 7 1 9 9 12 10 13 17 14 11 15 16 16
REMARK SMILES IDX 12 17 15 18 13 19 14 20
REMARK H PARENT 2 8 1 10 1 11 17 21
ROOT
ATOM      1  C   UNL     1      45.583 131.284  14.691  1.00  0.00     0.059 A 
ATOM      2  C   UNL     1      46.175 130.927  13.464  1.00  0.00     0.028 A 
ATOM      3  C   UNL     1      47.277 130.071  13.425  1.00  0.00     0.002 A 
ATOM      4  C   UNL     1      47.805 129.558  14.606  1.00  0.00     0.001 A 
ATOM      5  C   UNL     1      47.225 129.885  15.832  1.00  0.00     0.014 A 
ATOM      6  C   UNL     1      46.105 130.734  15.892  1.00  0.00     0.042 A 
ENDROOT
BRANCH   1   7
ATOM      7  N   UNL     1      44.507 132.242  14.715  1.00  0.00    -0.323 N 
ATOM      8  H   UNL     1      44.683 133.221  15.033  1.00  0.00     0.181 HD
BRANCH   7   9
ATOM      9  N   UNL     1      43.214 131.902  14.283  1.00  0.00    -0.250 NA
ATOM     10  H   UNL     1      43.321 131.303  13.433  1.00  0.00     0.143 HD
ATOM     11  H   UNL     1      42.745 132.780  13.962  1.00  0.00     0.143 HD
ENDBRANCH   7   9
ENDBRANCH   1   7
BRANCH   6  12
ATOM     12  C   UNL     1      45.478 130.976  17.211  1.00  0.00     0.140 A 
ATOM     13  N   UNL     1      44.244 131.533  17.358  1.00  0.00    -0.228 NA
ATOM     14  N   UNL     1      46.047 130.604  18.387  1.00  0.00    -0.338 N 
ATOM     15  C   UNL     1      44.063 131.513  18.690  1.00  0.00     0.089 A 
ATOM     16  C   UNL     1      45.142 130.956  19.307  1.00  0.00     0.066 A 
ATOM     17  C   UNL     1      42.960 131.969  19.408  1.00  0.00     0.030 A 
ATOM     18  C   UNL     1      45.212 130.809  20.692  1.00  0.00     0.028 A 
ATOM     19  C   UNL     1      42.993 131.838  20.810  1.00  0.00     0.002 A 
ATOM     20  C   UNL     1      44.115 131.261  21.449  1.00  0.00     0.002 A 
ATOM     21  H   UNL     1      46.976 130.156  18.544  1.00  0.00     0.168 HD
ENDBRANCH   6  12
TORSDOF 3
ENDMDL
MODEL 9
REMARK VINA RESULT:      -8.5      1.364      5.972
REMARK SMILES NNc1ccccc1-c1nc2ccccc2[nH]1
REMARK SMILES IDX 3 1 4 2 5 3 6 4 7 5 8 6 2 7 1 9 9 12 10 13 17 14 11 15 16 16
REMARK SMILES IDX 12 17 15 18 13 19 14 20
REMARK H PARENT 2 8 1 10 1 11 17 21
ROOT
ATOM      1  C   UNL     1      46.282 129.614  15.078  1.00  0.00     0.059 A 
ATOM      2  C   UNL     1      47.185 129.439  14.011  1.00  0.00     0.028 A 
ATOM      3  C   UNL     1      47.735 130.540  13.352  1.00  0.00     0.002 A 
ATOM      4  C   UNL     1      47.394 131.831  13.746  1.00  0.00     0.001 A 
ATOM      5  C   UNL     1      46.515 132.028  14.811  1.00  0.00     0.014 A 
ATOM      6  C   UNL     1      45.962 130.933  15.498  1.00  0.00     0.042 A 
ENDROOT
BRANCH   1   7
ATOM      7  N   UNL     1      45.655 128.466  15.681  1.00  0.00    -0.323 N 
ATOM      8  H   UNL     1      46.117 127.976  16.481  1.00  0.00     0.181 HD
BRANCH   7   9
ATOM      9  N   UNL     1      44.405 127.998  15.243  1.00  0.00    -0.250 NA
ATOM     10  H   UNL     1      44.103 127.255  15.913  1.00  0.00     0.143 HD
ATOM     11  H   UNL     1      44.549 127.520  14.324  1.00  0.00     0.143 HD
ENDBRANCH   7   9
ENDBRANCH   1   7
BRANCH   6  12
ATOM     12  C   UNL     1      45.105 131.202  16.674  1.00  0.00     0.140 A 
ATOM     13  N   UNL     1      45.550 131.108  17.958  1.00  0.00    -0.228 NA
ATOM     14  N   UNL     1      43.820 131.630  16.578  1.00  0.00    -0.338 N 
ATOM     15  C   UNL     1      44.476 131.482  18.675  1.00  0.00     0.089 A 
ATOM     16  C   UNL     1      43.439 131.796  17.850  1.00  0.00     0.066 A 
ATOM     17  C   UNL     1      44.364 131.568  20.061  1.00  0.00     0.030 A 
ATOM     18  C   UNL     1      42.204 132.220  18.337  1.00  0.00     0.028 A 
ATOM     19  C   UNL     1      43.132 131.992  20.592  1.00  0.00     0.002 A 
ATOM     20  C   UNL     1      42.055 132.316  19.734  1.00  0.00     0.002 A 
ATOM     21  H   UNL     1      43.252 131.788  15.716  1.00  0.00     0.168 HD
ENDBRANCH   6  12
TORSDOF 3
ENDMDL


