MODEL 1
REMARK VINA RESULT:      -5.3      0.000      0.000
REMARK SMILES C=C[C@@H]1C[C@](Nc2ccc3cc[nH]c3c2)(c2ccc(C(C)=O)cc2)[C@H](F)C[C@@H]1O
REMARK SMILES IDX 3 1 4 2 5 3 25 4 26 5 27 6 28 7 2 8 1 9 29 10 6 12 7 14 8 15
REMARK SMILES IDX 15 16 9 17 14 18 10 19 13 20 11 21 12 22 16 24 17 25 24 26
REMARK SMILES IDX 18 27 23 28 19 29 20 30 21 31 22 32
REMARK H PARENT 29 11 6 13 13 23
ROOT
ATOM      1  C   UNL     1      42.846 131.949  21.731  1.00  0.00     0.043 C 
ATOM      2  C   UNL     1      42.975 130.412  21.741  1.00  0.00     0.046 C 
ATOM      3  C   UNL     1      44.316 129.944  22.388  1.00  0.00     0.095 C 
ATOM      4  C   UNL     1      44.358 130.507  23.843  1.00  0.00     0.199 C 
ATOM      5  F   UNL     1      43.386 129.897  24.622  1.00  0.00    -0.244 F 
ATOM      6  C   UNL     1      44.167 132.037  23.896  1.00  0.00     0.073 C 
ATOM      7  C   UNL     1      42.889 132.501  23.173  1.00  0.00     0.124 C 
ENDROOT
BRANCH   1   8
ATOM      8  C   UNL     1      41.574 132.369  21.028  1.00  0.00    -0.029 C 
ATOM      9  C   UNL     1      41.598 132.953  19.826  1.00  0.00     0.004 C 
ENDBRANCH   1   8
BRANCH   7  10
ATOM     10  O   UNL     1      41.749 132.086  23.885  1.00  0.00    -0.392 OA
ATOM     11  H   UNL     1      41.177 131.585  23.247  1.00  0.00     0.210 HD
ENDBRANCH   7  10
BRANCH   3  12
ATOM     12  N   UNL     1      45.459 130.487  21.616  1.00  0.00    -0.373 N 
ATOM     13  H   UNL     1      46.358 130.654  22.122  1.00  0.00     0.161 HD
BRANCH  12  14
ATOM     14  C   UNL     1      45.448 130.864  20.223  1.00  0.00     0.037 A 
ATOM     15  C   UNL     1      44.961 132.125  19.778  1.00  0.00     0.026 A 
ATOM     16  C   UNL     1      45.906 129.928  19.268  1.00  0.00     0.052 A 
ATOM     17  C   UNL     1      44.953 132.454  18.411  1.00  0.00     0.012 A 
ATOM     18  C   UNL     1      45.886 130.288  17.922  1.00  0.00     0.047 A 
ATOM     19  C   UNL     1      45.427 131.507  17.511  1.00  0.00    -0.001 A 
ATOM     20  N   UNL     1      46.284 129.548  16.874  1.00  0.00    -0.361 N 
ATOM     21  C   UNL     1      45.537 131.549  16.137  1.00  0.00     0.028 A 
ATOM     22  C   UNL     1      46.073 130.315  15.780  1.00  0.00     0.083 A 
ATOM     23  H   UNL     1      46.675 128.581  16.894  1.00  0.00     0.166 HD
ENDBRANCH  12  14
ENDBRANCH   3  12
BRANCH   3  24
ATOM     24  C   UNL     1      44.467 128.414  22.478  1.00  0.00    -0.020 A 
ATOM     25  C   UNL     1      43.426 127.659  23.054  1.00  0.00     0.007 A 
ATOM     26  C   UNL     1      45.586 127.718  21.971  1.00  0.00     0.007 A 
ATOM     27  C   UNL     1      43.506 126.268  23.145  1.00  0.00     0.012 A 
ATOM     28  C   UNL     1      45.665 126.326  22.063  1.00  0.00     0.012 A 
ATOM     29  C   UNL     1      44.629 125.582  22.652  1.00  0.00     0.017 A 
BRANCH  29  30
ATOM     30  C   UNL     1      44.733 124.100  22.744  1.00  0.00     0.159 C 
ATOM     31  C   UNL     1      45.891 123.349  22.158  1.00  0.00     0.093 C 
ATOM     32  O   UNL     1      43.828 123.445  23.328  1.00  0.00    -0.295 OA
ENDBRANCH  29  30
ENDBRANCH   3  24
TORSDOF 6
ENDMDL
MODEL 2
REMARK VINA RESULT:      -4.9      0.522      1.100
REMARK SMILES C=C[C@@H]1C[C@](Nc2ccc3cc[nH]c3c2)(c2ccc(C(C)=O)cc2)[C@H](F)C[C@@H]1O
REMARK SMILES IDX 3 1 4 2 5 3 25 4 26 5 27 6 28 7 2 8 1 9 29 10 6 12 7 14 8 15
REMARK SMILES IDX 15 16 9 17 14 18 10 19 13 20 11 21 12 22 16 24 17 25 24 26
REMARK SMILES IDX 18 27 23 28 19 29 20 30 21 31 22 32
REMARK H PARENT 29 11 6 13 13 23
ROOT
ATOM      1  C   UNL     1      42.961 131.880  21.648  1.00  0.00     0.043 C 
ATOM      2  C   UNL     1      43.017 130.339  21.720  1.00  0.00     0.046 C 
ATOM      3  C   UNL     1      44.330 129.835  22.398  1.00  0.00     0.095 C 
ATOM      4  C   UNL     1      44.387 130.453  23.829  1.00  0.00     0.199 C 
ATOM      5  F   UNL     1      43.381 129.921  24.622  1.00  0.00    -0.244 F 
ATOM      6  C   UNL     1      44.267 131.991  23.821  1.00  0.00     0.073 C 
ATOM      7  C   UNL     1      43.018 132.485  23.068  1.00  0.00     0.124 C 
ENDROOT
BRANCH   1   8
ATOM      8  C   UNL     1      41.715 132.330  20.917  1.00  0.00    -0.029 C 
ATOM      9  C   UNL     1      41.654 132.347  19.582  1.00  0.00     0.004 C 
ENDBRANCH   1   8
BRANCH   7  10
ATOM     10  O   UNL     1      41.854 132.153  23.785  1.00  0.00    -0.392 OA
ATOM     11  H   UNL     1      42.125 131.514  24.494  1.00  0.00     0.210 HD
ENDBRANCH   7  10
BRANCH   3  12
ATOM     12  N   UNL     1      45.503 130.294  21.616  1.00  0.00    -0.373 N 
ATOM     13  H   UNL     1      46.424 130.359  22.106  1.00  0.00     0.161 HD
BRANCH  12  14
ATOM     14  C   UNL     1      45.499 130.716  20.235  1.00  0.00     0.037 A 
ATOM     15  C   UNL     1      44.992 131.982  19.826  1.00  0.00     0.026 A 
ATOM     16  C   UNL     1      45.984 129.820  19.256  1.00  0.00     0.052 A 
ATOM     17  C   UNL     1      44.993 132.355  18.471  1.00  0.00     0.012 A 
ATOM     18  C   UNL     1      45.970 130.223  17.922  1.00  0.00     0.047 A 
ATOM     19  C   UNL     1      45.493 131.446  17.545  1.00  0.00    -0.001 A 
ATOM     20  N   UNL     1      46.392 129.526  16.854  1.00  0.00    -0.361 N 
ATOM     21  C   UNL     1      45.616 131.535  16.175  1.00  0.00     0.028 A 
ATOM     22  C   UNL     1      46.178 130.324  15.784  1.00  0.00     0.083 A 
ATOM     23  H   UNL     1      46.802 128.565  16.847  1.00  0.00     0.166 HD
ENDBRANCH  12  14
ENDBRANCH   3  12
BRANCH   3  24
ATOM     24  C   UNL     1      44.408 128.305  22.548  1.00  0.00    -0.020 A 
ATOM     25  C   UNL     1      45.562 127.634  22.099  1.00  0.00     0.007 A 
ATOM     26  C   UNL     1      43.391 127.537  23.157  1.00  0.00     0.007 A 
ATOM     27  C   UNL     1      45.690 126.250  22.226  1.00  0.00     0.012 A 
ATOM     28  C   UNL     1      43.520 126.151  23.283  1.00  0.00     0.012 A 
ATOM     29  C   UNL     1      44.668 125.488  22.819  1.00  0.00     0.017 A 
BRANCH  29  30
ATOM     30  C   UNL     1      44.786 124.011  22.961  1.00  0.00     0.159 C 
ATOM     31  C   UNL     1      43.581 123.127  23.067  1.00  0.00     0.093 C 
ATOM     32  O   UNL     1      45.927 123.475  22.993  1.00  0.00    -0.295 OA
ENDBRANCH  29  30
ENDBRANCH   3  24
TORSDOF 6
ENDMDL


