REMARK SMILES C[C@H](CO/C(O)=N/c1cc(F)c[nH]/c1=N\c1c[n-]c2nccc-2c1)c1ccccc1[N+](=O)[O-]
REMARK SMILES IDX 4 1 5 2 6 3 7 5 8 6 9 7 14 8 10 9 13 10 12 11 11 12 15 14
REMARK SMILES IDX 16 15 17 16 24 17 18 18 23 19 19 20 22 21 20 22 21 23 3 24
REMARK SMILES IDX 2 25 1 26 25 27 26 28 30 29 27 30 29 31 28 32 31 33 32 34
REMARK SMILES IDX 33 35
REMARK H PARENT 6 4 13 13
ROOT
ATOM      1  O   UNL     1       0.995   1.581   0.060  1.00  0.00    -0.450 OA
ENDROOT
BRANCH   1   2
ATOM      2  C   UNL     1      -0.014   0.850   0.699  1.00  0.00     0.386 C 
BRANCH   2   3
ATOM      3  O   UNL     1      -0.968   1.554   1.437  1.00  0.00    -0.466 OA
ATOM      4  H   UNL     1      -1.670   1.099   2.007  1.00  0.00     0.298 HD
ENDBRANCH   2   3
BRANCH   2   5
ATOM      5  N   UNL     1      -0.035  -0.451   0.616  1.00  0.00    -0.175 NA
BRANCH   5   6
ATOM      6  C   UNL     1      -1.040  -1.312   1.167  1.00  0.00     0.116 A 
ATOM      7  C   UNL     1      -0.651  -2.324   2.048  1.00  0.00     0.073 A 
ATOM      8  C   UNL     1      -2.392  -1.230   0.768  1.00  0.00     0.157 A 
ATOM      9  C   UNL     1      -1.602  -3.195   2.576  1.00  0.00     0.141 A 
ATOM     10  N   UNL     1      -3.309  -2.082   1.326  1.00  0.00    -0.342 N 
ATOM     11  C   UNL     1      -2.939  -3.050   2.209  1.00  0.00     0.123 A 
ATOM     12  F   UNL     1      -1.232  -4.168   3.445  1.00  0.00    -0.205 F 
ATOM     13  H   UNL     1      -4.327  -2.000   1.112  1.00  0.00     0.168 HD
BRANCH   8  14
ATOM     14  N   UNL     1      -2.738  -0.329  -0.112  1.00  0.00    -0.229 NA
BRANCH  14  15
ATOM     15  C   UNL     1      -4.026  -0.155  -0.719  1.00  0.00     0.062 A 
ATOM     16  C   UNL     1      -4.690  -1.243  -1.356  1.00  0.00     0.006 A 
ATOM     17  C   UNL     1      -4.581   1.139  -0.774  1.00  0.00     0.036 A 
ATOM     18  N   UNL     1      -5.892  -1.073  -1.986  1.00  0.00    -0.440 NA
ATOM     19  C   UNL     1      -5.801   1.281  -1.414  1.00  0.00    -0.025 A 
ATOM     20  C   UNL     1      -6.446   0.161  -2.010  1.00  0.00    -0.052 A 
ATOM     21  C   UNL     1      -6.622   2.354  -1.647  1.00  0.00     0.003 A 
ATOM     22  N   UNL     1      -7.607   0.505  -2.587  1.00  0.00    -0.442 NA
ATOM     23  C   UNL     1      -7.709   1.842  -2.360  1.00  0.00    -0.022 A 
ENDBRANCH  14  15
ENDBRANCH   8  14
ENDBRANCH   5   6
ENDBRANCH   2   5
ENDBRANCH   1   2
BRANCH   1  24
ATOM     24  C   UNL     1       2.079   0.995  -0.665  1.00  0.00     0.243 C 
BRANCH  24  25
ATOM     25  C   UNL     1       3.316   0.807   0.240  1.00  0.00     0.061 C 
ATOM     26  C   UNL     1       3.102  -0.282   1.299  1.00  0.00     0.016 C 
BRANCH  25  27
ATOM     27  C   UNL     1       4.562   0.497  -0.584  1.00  0.00     0.036 A 
ATOM     28  C   UNL     1       4.538  -0.578  -1.498  1.00  0.00     0.011 A 
ATOM     29  C   UNL     1       5.750   1.270  -0.471  1.00  0.00     0.272 A 
ATOM     30  C   UNL     1       5.634  -0.844  -2.319  1.00  0.00     0.001 A 
ATOM     31  C   UNL     1       6.836   0.997  -1.322  1.00  0.00     0.086 A 
ATOM     32  C   UNL     1       6.776  -0.051  -2.240  1.00  0.00     0.007 A 
BRANCH  29  33
ATOM     33  N   UNL     1       5.888   2.303   0.516  1.00  0.00     0.063 N 
ATOM     34  O   UNL     1       6.473   3.367   0.228  1.00  0.00    -0.258 OA
ATOM     35  O   UNL     1       5.625   2.026   1.838  1.00  0.00    -0.258 OA
ENDBRANCH  29  33
ENDBRANCH  25  27
ENDBRANCH  24  25
ENDBRANCH   1  24
TORSDOF 10


