REMARK SMILES O=C(Oc1ccc([NH2+]c2ccc3cc[nH]c3c2)c(F)c1)[C@H](O)CC1CC1
REMARK SMILES IDX 3 1 2 2 1 3 21 4 22 5 23 7 24 8 25 9 26 10 4 11 5 12 20 13
REMARK SMILES IDX 6 14 18 15 7 16 19 17 8 18 9 21 10 22 17 23 11 24 16 25
REMARK SMILES IDX 12 26 15 27 13 28 14 29
REMARK H PARENT 22 6 8 19 8 20 15 30
ROOT
ATOM      1  O   UNL     1       1.751   1.503   1.535  1.00  0.00    -0.425 OA
ENDROOT
BRANCH   1   2
ATOM      2  C   UNL     1       2.065   2.310   0.433  1.00  0.00     0.340 C 
ATOM      3  O   UNL     1       1.418   2.215  -0.647  1.00  0.00    -0.249 OA
BRANCH   2   4
ATOM      4  C   UNL     1       3.184   3.308   0.553  1.00  0.00     0.224 C 
BRANCH   4   5
ATOM      5  O   UNL     1       2.798   4.551   0.019  1.00  0.00    -0.381 OA
ATOM      6  H   UNL     1       2.698   4.446  -0.963  1.00  0.00     0.211 HD
ENDBRANCH   4   5
BRANCH   4   7
ATOM      7  C   UNL     1       4.468   2.796  -0.125  1.00  0.00     0.047 C 
BRANCH   7   8
ATOM      8  C   UNL     1       5.049   1.585   0.625  1.00  0.00    -0.008 C 
ATOM      9  C   UNL     1       6.078   0.792  -0.164  1.00  0.00     0.004 C 
ATOM     10  C   UNL     1       4.691   0.215   0.067  1.00  0.00     0.004 C 
ENDBRANCH   7   8
ENDBRANCH   4   7
ENDBRANCH   2   4
ENDBRANCH   1   2
BRANCH   1  11
ATOM     11  C   UNL     1       0.916   0.377   1.498  1.00  0.00     0.134 A 
ATOM     12  C   UNL     1       0.836  -0.461   0.372  1.00  0.00     0.053 A 
ATOM     13  C   UNL     1       0.164   0.066   2.636  1.00  0.00     0.093 A 
ATOM     14  C   UNL     1      -0.022  -1.563   0.372  1.00  0.00     0.075 A 
ATOM     15  C   UNL     1      -0.697  -1.035   2.642  1.00  0.00     0.187 A 
ATOM     16  C   UNL     1      -0.803  -1.860   1.504  1.00  0.00     0.170 A 
ATOM     17  F   UNL     1      -1.428  -1.294   3.757  1.00  0.00    -0.200 F 
BRANCH  16  18
ATOM     18  N   UNL     1      -1.739  -2.958   1.469  1.00  0.00    -0.279 N 
ATOM     19  H   UNL     1      -1.928  -3.317   2.434  1.00  0.00     0.358 HD
ATOM     20  H   UNL     1      -1.330  -3.755   0.927  1.00  0.00     0.358 HD
BRANCH  18  21
ATOM     21  C   UNL     1      -2.970  -2.519   0.859  1.00  0.00     0.136 A 
ATOM     22  C   UNL     1      -3.956  -1.854   1.634  1.00  0.00     0.069 A 
ATOM     23  C   UNL     1      -3.178  -2.692  -0.530  1.00  0.00     0.094 A 
ATOM     24  C   UNL     1      -5.129  -1.359   1.038  1.00  0.00     0.016 A 
ATOM     25  C   UNL     1      -4.354  -2.197  -1.089  1.00  0.00     0.051 A 
ATOM     26  C   UNL     1      -5.292  -1.551  -0.332  1.00  0.00    -0.000 A 
ATOM     27  N   UNL     1      -4.736  -2.255  -2.376  1.00  0.00    -0.361 N 
ATOM     28  C   UNL     1      -6.315  -1.176  -1.175  1.00  0.00     0.028 A 
ATOM     29  C   UNL     1      -5.935  -1.633  -2.434  1.00  0.00     0.083 A 
ATOM     30  H   UNL     1      -4.222  -2.695  -3.170  1.00  0.00     0.166 HD
ENDBRANCH  18  21
ENDBRANCH  16  18
ENDBRANCH   1  11
TORSDOF 8


