MODEL 1
REMARK VINA RESULT:      -5.4      0.000      0.000
REMARK SMILES O/C(=N\c1cc(F)c[nH]/c1=N\c1c[n-]c2nccc-2c1)Nc1ccc(-c2ccccc2)s1
REMARK SMILES IDX 3 1 2 2 21 3 1 5 22 7 32 8 23 9 25 10 24 11 26 12 27 13
REMARK SMILES IDX 31 14 28 15 30 16 29 17 4 18 5 19 10 20 6 21 9 22 8 23 7 24
REMARK SMILES IDX 11 26 12 27 13 28 20 29 14 30 19 31 15 32 18 33 16 34 17 35
REMARK H PARENT 21 4 1 6 9 25
ROOT
ATOM      1  N   UNL     1      45.236 131.263  20.653  1.00  0.00    -0.194 NA
ENDROOT
BRANCH   1   2
ATOM      2  C   UNL     1      45.569 131.815  21.783  1.00  0.00     0.292 C 
ATOM      3  N   UNL     1      44.913 131.411  22.995  1.00  0.00    -0.301 N 
ATOM      4  H   UNL     1      45.019 132.022  23.836  1.00  0.00     0.172 HD
BRANCH   2   5
ATOM      5  O   UNL     1      46.574 132.778  21.839  1.00  0.00    -0.480 OA
ATOM      6  H   UNL     1      46.647 133.412  22.625  1.00  0.00     0.296 HD
ENDBRANCH   2   5
BRANCH   3   7
ATOM      7  C   UNL     1      44.146 130.203  23.135  1.00  0.00     0.097 A 
ATOM      8  S   UNL     1      44.730 128.627  23.028  1.00  0.00    -0.118 S 
ATOM      9  C   UNL     1      42.797 130.154  23.458  1.00  0.00     0.039 A 
ATOM     10  C   UNL     1      43.268 127.857  23.360  1.00  0.00     0.036 A 
ATOM     11  C   UNL     1      42.303 128.846  23.575  1.00  0.00     0.023 A 
BRANCH  10  12
ATOM     12  C   UNL     1      43.069 126.386  23.406  1.00  0.00    -0.008 A 
ATOM     13  C   UNL     1      41.901 125.845  23.979  1.00  0.00     0.009 A 
ATOM     14  C   UNL     1      44.042 125.504  22.895  1.00  0.00     0.009 A 
ATOM     15  C   UNL     1      41.712 124.461  24.038  1.00  0.00     0.001 A 
ATOM     16  C   UNL     1      43.847 124.121  22.958  1.00  0.00     0.001 A 
ATOM     17  C   UNL     1      42.685 123.600  23.528  1.00  0.00     0.000 A 
ENDBRANCH  10  12
ENDBRANCH   3   7
ENDBRANCH   1   2
BRANCH   1  18
ATOM     18  C   UNL     1      44.131 131.579  19.787  1.00  0.00     0.114 A 
ATOM     19  C   UNL     1      43.038 132.352  20.211  1.00  0.00     0.073 A 
ATOM     20  C   UNL     1      44.116 131.029  18.492  1.00  0.00     0.156 A 
ATOM     21  C   UNL     1      41.977 132.592  19.339  1.00  0.00     0.141 A 
ATOM     22  N   UNL     1      43.046 131.260  17.668  1.00  0.00    -0.342 N 
ATOM     23  C   UNL     1      42.000 132.035  18.063  1.00  0.00     0.123 A 
ATOM     24  F   UNL     1      40.918 133.336  19.742  1.00  0.00    -0.205 F 
ATOM     25  H   UNL     1      42.981 130.816  16.726  1.00  0.00     0.168 HD
BRANCH  20  26
ATOM     26  N   UNL     1      45.120 130.275  18.127  1.00  0.00    -0.229 NA
BRANCH  26  27
ATOM     27  C   UNL     1      45.723 130.156  16.831  1.00  0.00     0.062 A 
ATOM     28  C   UNL     1      45.626 128.950  16.080  1.00  0.00     0.006 A 
ATOM     29  C   UNL     1      46.280 131.310  16.243  1.00  0.00     0.036 A 
ATOM     30  N   UNL     1      46.114 128.865  14.804  1.00  0.00    -0.440 NA
ATOM     31  C   UNL     1      46.768 131.195  14.953  1.00  0.00    -0.025 A 
ATOM     32  C   UNL     1      46.686 129.960  14.251  1.00  0.00    -0.052 A 
ATOM     33  C   UNL     1      47.348 132.083  14.085  1.00  0.00     0.003 A 
ATOM     34  N   UNL     1      47.181 130.062  13.008  1.00  0.00    -0.442 NA
ATOM     35  C   UNL     1      47.587 131.357  12.917  1.00  0.00    -0.022 A 
ENDBRANCH  26  27
ENDBRANCH  20  26
ENDBRANCH   1  18
TORSDOF 7
ENDMDL
MODEL 2
REMARK VINA RESULT:      -4.2      4.031      7.268
REMARK SMILES O/C(=N\c1cc(F)c[nH]/c1=N\c1c[n-]c2nccc-2c1)Nc1ccc(-c2ccccc2)s1
REMARK SMILES IDX 3 1 2 2 21 3 1 5 22 7 32 8 23 9 25 10 24 11 26 12 27 13
REMARK SMILES IDX 31 14 28 15 30 16 29 17 4 18 5 19 10 20 6 21 9 22 8 23 7 24
REMARK SMILES IDX 11 26 12 27 13 28 20 29 14 30 19 31 15 32 18 33 16 34 17 35
REMARK H PARENT 21 4 1 6 9 25
ROOT
ATOM      1  N   UNL     1      44.350 131.654  22.800  1.00  0.00    -0.194 NA
ENDROOT
BRANCH   1   2
ATOM      2  C   UNL     1      44.091 132.284  23.908  1.00  0.00     0.292 C 
ATOM      3  N   UNL     1      45.116 133.071  24.537  1.00  0.00    -0.301 N 
ATOM      4  H   UNL     1      44.967 133.365  25.528  1.00  0.00     0.172 HD
BRANCH   2   5
ATOM      5  O   UNL     1      42.824 132.228  24.483  1.00  0.00    -0.480 OA
ATOM      6  H   UNL     1      42.282 133.070  24.638  1.00  0.00     0.296 HD
ENDBRANCH   2   5
BRANCH   3   7
ATOM      7  C   UNL     1      46.318 133.507  23.879  1.00  0.00     0.097 A 
ATOM      8  S   UNL     1      47.721 134.065  24.625  1.00  0.00    -0.118 S 
ATOM      9  C   UNL     1      46.531 133.463  22.509  1.00  0.00     0.039 A 
ATOM     10  C   UNL     1      48.613 134.289  23.212  1.00  0.00     0.036 A 
ATOM     11  C   UNL     1      47.808 133.908  22.133  1.00  0.00     0.023 A 
BRANCH  10  12
ATOM     12  C   UNL     1      50.004 134.806  23.153  1.00  0.00    -0.008 A 
ATOM     13  C   UNL     1      51.050 134.100  23.779  1.00  0.00     0.009 A 
ATOM     14  C   UNL     1      50.304 136.012  22.490  1.00  0.00     0.009 A 
ATOM     15  C   UNL     1      52.361 134.587  23.740  1.00  0.00     0.001 A 
ATOM     16  C   UNL     1      51.617 136.493  22.455  1.00  0.00     0.001 A 
ATOM     17  C   UNL     1      52.643 135.783  23.079  1.00  0.00     0.000 A 
ENDBRANCH  10  12
ENDBRANCH   3   7
ENDBRANCH   1   2
BRANCH   1  18
ATOM     18  C   UNL     1      44.625 130.256  22.602  1.00  0.00     0.114 A 
ATOM     19  C   UNL     1      44.329 129.285  23.572  1.00  0.00     0.073 A 
ATOM     20  C   UNL     1      45.284 129.863  21.422  1.00  0.00     0.156 A 
ATOM     21  C   UNL     1      44.656 127.949  23.340  1.00  0.00     0.141 A 
ATOM     22  N   UNL     1      45.616 128.547  21.235  1.00  0.00    -0.342 N 
ATOM     23  C   UNL     1      45.303 127.597  22.157  1.00  0.00     0.123 A 
ATOM     24  F   UNL     1      44.374 127.006  24.272  1.00  0.00    -0.205 F 
ATOM     25  H   UNL     1      46.157 128.238  20.399  1.00  0.00     0.168 HD
BRANCH  20  26
ATOM     26  N   UNL     1      45.593 130.784  20.548  1.00  0.00    -0.229 NA
BRANCH  26  27
ATOM     27  C   UNL     1      45.174 130.897  19.182  1.00  0.00     0.062 A 
ATOM     28  C   UNL     1      44.100 131.754  18.807  1.00  0.00     0.006 A 
ATOM     29  C   UNL     1      45.948 130.262  18.189  1.00  0.00     0.036 A 
ATOM     30  N   UNL     1      43.763 131.940  17.493  1.00  0.00    -0.440 NA
ATOM     31  C   UNL     1      45.582 130.465  16.869  1.00  0.00    -0.025 A 
ATOM     32  C   UNL     1      44.479 131.300  16.540  1.00  0.00    -0.052 A 
ATOM     33  C   UNL     1      46.097 130.032  15.675  1.00  0.00     0.003 A 
ATOM     34  N   UNL     1      44.308 131.395  15.212  1.00  0.00    -0.442 NA
ATOM     35  C   UNL     1      45.295 130.616  14.693  1.00  0.00    -0.022 A 
ENDBRANCH  26  27
ENDBRANCH  20  26
ENDBRANCH   1  18
TORSDOF 7
ENDMDL
MODEL 3
REMARK VINA RESULT:      -2.6      2.921      8.745
REMARK SMILES O/C(=N\c1cc(F)c[nH]/c1=N\c1c[n-]c2nccc-2c1)Nc1ccc(-c2ccccc2)s1
REMARK SMILES IDX 3 1 2 2 21 3 1 5 22 7 32 8 23 9 25 10 24 11 26 12 27 13
REMARK SMILES IDX 31 14 28 15 30 16 29 17 4 18 5 19 10 20 6 21 9 22 8 23 7 24
REMARK SMILES IDX 11 26 12 27 13 28 20 29 14 30 19 31 15 32 18 33 16 34 17 35
REMARK H PARENT 21 4 1 6 9 25
ROOT
ATOM      1  N   UNL     1      42.828 130.999  20.165  1.00  0.00    -0.194 NA
ENDROOT
BRANCH   1   2
ATOM      2  C   UNL     1      42.040 131.716  19.420  1.00  0.00     0.292 C 
ATOM      3  N   UNL     1      42.555 132.348  18.238  1.00  0.00    -0.301 N 
ATOM      4  H   UNL     1      41.982 133.101  17.795  1.00  0.00     0.172 HD
BRANCH   2   5
ATOM      5  O   UNL     1      40.692 131.863  19.740  1.00  0.00    -0.480 OA
ATOM      6  H   UNL     1      40.312 131.473  20.594  1.00  0.00     0.296 HD
ENDBRANCH   2   5
BRANCH   3   7
ATOM      7  C   UNL     1      43.795 131.989  17.604  1.00  0.00     0.097 A 
ATOM      8  S   UNL     1      43.974 131.234  16.110  1.00  0.00    -0.118 S 
ATOM      9  C   UNL     1      45.055 132.282  18.107  1.00  0.00     0.039 A 
ATOM     10  C   UNL     1      45.660 131.240  16.093  1.00  0.00     0.036 A 
ATOM     11  C   UNL     1      46.097 131.857  17.269  1.00  0.00     0.023 A 
BRANCH  10  12
ATOM     12  C   UNL     1      46.505 130.678  15.008  1.00  0.00    -0.008 A 
ATOM     13  C   UNL     1      46.763 129.294  14.954  1.00  0.00     0.009 A 
ATOM     14  C   UNL     1      47.076 131.511  14.026  1.00  0.00     0.009 A 
ATOM     15  C   UNL     1      47.568 128.759  13.944  1.00  0.00     0.001 A 
ATOM     16  C   UNL     1      47.881 130.969  13.019  1.00  0.00     0.001 A 
ATOM     17  C   UNL     1      48.127 129.596  12.977  1.00  0.00     0.000 A 
ENDBRANCH  10  12
ENDBRANCH   3   7
ENDBRANCH   1   2
BRANCH   1  18
ATOM     18  C   UNL     1      43.783 131.434  21.149  1.00  0.00     0.114 A 
ATOM     19  C   UNL     1      44.950 132.136  20.807  1.00  0.00     0.073 A 
ATOM     20  C   UNL     1      43.571 131.075  22.493  1.00  0.00     0.156 A 
ATOM     21  C   UNL     1      45.859 132.498  21.801  1.00  0.00     0.141 A 
ATOM     22  N   UNL     1      44.496 131.422  23.443  1.00  0.00    -0.342 N 
ATOM     23  C   UNL     1      45.613 132.130  23.122  1.00  0.00     0.123 A 
ATOM     24  F   UNL     1      46.988 133.175  21.479  1.00  0.00    -0.205 F 
ATOM     25  H   UNL     1      44.395 131.117  24.435  1.00  0.00     0.168 HD
BRANCH  20  26
ATOM     26  N   UNL     1      42.503 130.383  22.789  1.00  0.00    -0.229 NA
BRANCH  26  27
ATOM     27  C   UNL     1      42.418 129.068  23.353  1.00  0.00     0.062 A 
ATOM     28  C   UNL     1      41.192 128.567  23.878  1.00  0.00     0.006 A 
ATOM     29  C   UNL     1      43.534 128.215  23.236  1.00  0.00     0.036 A 
ATOM     30  N   UNL     1      41.083 127.278  24.325  1.00  0.00    -0.440 NA
ATOM     31  C   UNL     1      43.397 126.918  23.699  1.00  0.00    -0.025 A 
ATOM     32  C   UNL     1      42.165 126.469  24.251  1.00  0.00    -0.052 A 
ATOM     33  C   UNL     1      44.241 125.839  23.733  1.00  0.00     0.003 A 
ATOM     34  N   UNL     1      42.225 125.178  24.610  1.00  0.00    -0.442 NA
ATOM     35  C   UNL     1      43.494 124.802  24.296  1.00  0.00    -0.022 A 
ENDBRANCH  26  27
ENDBRANCH  20  26
ENDBRANCH   1  18
TORSDOF 7
ENDMDL


