REMARK SMILES NN(C(=O)OCc1ccccc1Cl)c1ccccc1-c1nc2ccccc2[nH]1
REMARK SMILES IDX 3 1 4 2 2 3 1 4 14 7 15 8 19 9 16 10 18 11 17 12 20 13 21 14
REMARK SMILES IDX 28 15 22 16 27 17 23 18 26 19 24 20 25 21 5 23 6 24 7 25
REMARK SMILES IDX 8 26 12 27 9 28 11 29 10 30 13 31
REMARK H PARENT 1 5 1 6 28 22
ROOT
ATOM      1  C   UNL     1      -1.165  -1.390  -1.940  1.00  0.00     0.429 C 
ATOM      2  O   UNL     1      -0.422  -0.854  -2.809  1.00  0.00    -0.222 OA
ENDROOT
BRANCH   1   3
ATOM      3  N   UNL     1      -2.321  -0.691  -1.447  1.00  0.00    -0.212 N 
BRANCH   3   4
ATOM      4  N   UNL     1      -3.291  -1.396  -0.708  1.00  0.00    -0.238 NA
ATOM      5  H   UNL     1      -3.940  -0.706  -0.264  1.00  0.00     0.144 HD
ATOM      6  H   UNL     1      -2.802  -1.863   0.090  1.00  0.00     0.144 HD
ENDBRANCH   3   4
BRANCH   3   7
ATOM      7  C   UNL     1      -2.593   0.648  -1.902  1.00  0.00     0.075 A 
ATOM      8  C   UNL     1      -3.726   0.883  -2.695  1.00  0.00     0.029 A 
ATOM      9  C   UNL     1      -1.709   1.716  -1.610  1.00  0.00     0.043 A 
ATOM     10  C   UNL     1      -3.973   2.153  -3.219  1.00  0.00     0.002 A 
ATOM     11  C   UNL     1      -1.964   2.986  -2.156  1.00  0.00     0.014 A 
ATOM     12  C   UNL     1      -3.089   3.201  -2.956  1.00  0.00     0.001 A 
BRANCH   9  13
ATOM     13  C   UNL     1      -0.554   1.534  -0.702  1.00  0.00     0.140 A 
ATOM     14  N   UNL     1      -0.581   0.702   0.375  1.00  0.00    -0.228 NA
ATOM     15  N   UNL     1       0.621   2.201  -0.839  1.00  0.00    -0.338 N 
ATOM     16  C   UNL     1       0.638   0.869   0.915  1.00  0.00     0.089 A 
ATOM     17  C   UNL     1       1.361   1.765   0.188  1.00  0.00     0.066 A 
ATOM     18  C   UNL     1       1.151   0.268   2.062  1.00  0.00     0.030 A 
ATOM     19  C   UNL     1       2.661   2.126   0.535  1.00  0.00     0.028 A 
ATOM     20  C   UNL     1       2.460   0.613   2.450  1.00  0.00     0.002 A 
ATOM     21  C   UNL     1       3.214   1.535   1.687  1.00  0.00     0.002 A 
ATOM     22  H   UNL     1       0.896   2.887  -1.577  1.00  0.00     0.168 HD
ENDBRANCH   9  13
ENDBRANCH   3   7
ENDBRANCH   1   3
BRANCH   1  23
ATOM     23  O   UNL     1      -0.868  -2.669  -1.455  1.00  0.00    -0.443 OA
BRANCH  23  24
ATOM     24  C   UNL     1       0.309  -3.387  -1.820  1.00  0.00     0.272 C 
BRANCH  24  25
ATOM     25  C   UNL     1       1.525  -2.767  -1.177  1.00  0.00     0.008 A 
ATOM     26  C   UNL     1       2.421  -2.019  -1.961  1.00  0.00     0.009 A 
ATOM     27  C   UNL     1       1.766  -2.895   0.208  1.00  0.00     0.047 A 
ATOM     28  C   UNL     1       3.544  -1.423  -1.381  1.00  0.00     0.001 A 
ATOM     29  C   UNL     1       2.904  -2.310   0.776  1.00  0.00     0.021 A 
ATOM     30  C   UNL     1       3.788  -1.574  -0.015  1.00  0.00     0.002 A 
ATOM     31  Cl  UNL     1       0.659  -3.770   1.261  1.00  0.00    -0.084 Cl
ENDBRANCH  24  25
ENDBRANCH  23  24
ENDBRANCH   1  23
TORSDOF 7


