MODEL 1
REMARK VINA RESULT:      -3.8      0.000      0.000
REMARK SMILES Cc1ccc(-c2ccc(NC(=O)c3cccc(C)c3)c(C(=O)O[C@H](C)[C@H](C)[N+](=O)[O-])c2)cc1
REMARK SMILES IDX 21 1 22 2 20 3 6 4 7 5 31 6 8 7 9 8 5 9 2 10 3 11 33 12 4 13
REMARK SMILES IDX 32 14 1 15 10 16 11 17 12 19 13 20 14 21 19 22 15 23 17 24
REMARK SMILES IDX 16 25 18 26 23 27 24 28 25 29 26 30 27 31 28 32 29 33 30 34
REMARK H PARENT 10 18
ROOT
ATOM      1  C   UNL     1      45.656 130.424  20.136  1.00  0.00     0.340 C 
ATOM      2  O   UNL     1      45.450 129.206  20.390  1.00  0.00    -0.246 OA
ENDROOT
BRANCH   1   3
ATOM      3  C   UNL     1      45.782 131.401  21.250  1.00  0.00     0.084 A 
ATOM      4  C   UNL     1      46.931 133.341  22.210  1.00  0.00    -0.017 A 
ATOM      5  C   UNL     1      45.973 133.388  23.234  1.00  0.00     0.011 A 
ATOM      6  C   UNL     1      46.826 132.344  21.223  1.00  0.00     0.026 A 
ATOM      7  C   UNL     1      44.942 132.451  23.281  1.00  0.00     0.028 A 
ATOM      8  C   UNL     1      44.842 131.452  22.306  1.00  0.00     0.056 A 
BRANCH   4   9
ATOM      9  C   UNL     1      48.036 134.333  22.165  1.00  0.00    -0.018 A 
ATOM     10  C   UNL     1      50.126 136.225  22.088  1.00  0.00    -0.051 A 
ATOM     11  C   UNL     1      50.150 135.181  23.023  1.00  0.00     0.004 A 
ATOM     12  C   UNL     1      49.064 136.306  21.175  1.00  0.00     0.004 A 
ATOM     13  C   UNL     1      49.112 134.247  23.066  1.00  0.00     0.009 A 
ATOM     14  C   UNL     1      48.024 135.372  21.217  1.00  0.00     0.009 A 
ATOM     15  C   UNL     1      51.260 137.205  22.016  1.00  0.00     0.044 C 
ENDBRANCH   4   9
BRANCH   8  16
ATOM     16  N   UNL     1      43.825 130.452  22.439  1.00  0.00    -0.321 N 
ATOM     17  C   UNL     1      43.848 129.485  23.500  1.00  0.00     0.255 C 
ATOM     18  H   UNL     1      42.960 130.574  21.869  1.00  0.00     0.170 HD
ATOM     19  O   UNL     1      44.831 129.448  24.291  1.00  0.00    -0.269 OA
BRANCH  17  20
ATOM     20  C   UNL     1      42.704 128.573  23.717  1.00  0.00     0.040 A 
ATOM     21  C   UNL     1      41.475 129.054  24.202  1.00  0.00     0.014 A 
ATOM     22  C   UNL     1      42.841 127.197  23.453  1.00  0.00     0.017 A 
ATOM     23  C   UNL     1      40.417 128.175  24.445  1.00  0.00     0.001 A 
ATOM     24  C   UNL     1      41.775 126.315  23.683  1.00  0.00    -0.050 A 
ATOM     25  C   UNL     1      40.568 126.809  24.197  1.00  0.00     0.003 A 
ATOM     26  C   UNL     1      41.953 124.843  23.457  1.00  0.00     0.044 C 
ENDBRANCH  17  20
ENDBRANCH   8  16
ENDBRANCH   1   3
BRANCH   1  27
ATOM     27  O   UNL     1      45.820 130.845  18.808  1.00  0.00    -0.452 OA
BRANCH  27  28
ATOM     28  C   UNL     1      44.965 131.781  18.147  1.00  0.00     0.247 C 
ATOM     29  C   UNL     1      43.538 131.590  18.666  1.00  0.00     0.061 C 
BRANCH  28  30
ATOM     30  C   UNL     1      45.047 131.636  16.606  1.00  0.00     0.364 C 
ATOM     31  C   UNL     1      43.674 131.668  15.913  1.00  0.00     0.098 C 
BRANCH  30  32
ATOM     32  N   UNL     1      45.775 130.416  16.248  1.00  0.00     0.026 N 
ATOM     33  O   UNL     1      46.918 130.475  15.746  1.00  0.00    -0.264 OA
ATOM     34  O   UNL     1      45.120 129.207  16.275  1.00  0.00    -0.264 OA
ENDBRANCH  30  32
ENDBRANCH  28  30
ENDBRANCH  27  28
ENDBRANCH   1  27
TORSDOF 8
ENDMDL
MODEL 2
REMARK VINA RESULT:      -3.1      0.347      1.564
REMARK SMILES Cc1ccc(-c2ccc(NC(=O)c3cccc(C)c3)c(C(=O)O[C@H](C)[C@H](C)[N+](=O)[O-])c2)cc1
REMARK SMILES IDX 21 1 22 2 20 3 6 4 7 5 31 6 8 7 9 8 5 9 2 10 3 11 33 12 4 13
REMARK SMILES IDX 32 14 1 15 10 16 11 17 12 19 13 20 14 21 19 22 15 23 17 24
REMARK SMILES IDX 16 25 18 26 23 27 24 28 25 29 26 30 27 31 28 32 29 33 30 34
REMARK H PARENT 10 18
ROOT
ATOM      1  C   UNL     1      45.546 130.502  20.014  1.00  0.00     0.340 C 
ATOM      2  O   UNL     1      45.179 129.309  20.198  1.00  0.00    -0.246 OA
ENDROOT
BRANCH   1   3
ATOM      3  C   UNL     1      45.723 131.409  21.179  1.00  0.00     0.084 A 
ATOM      4  C   UNL     1      46.899 133.303  22.194  1.00  0.00    -0.017 A 
ATOM      5  C   UNL     1      46.000 133.271  23.271  1.00  0.00     0.011 A 
ATOM      6  C   UNL     1      46.752 132.369  21.154  1.00  0.00     0.026 A 
ATOM      7  C   UNL     1      44.985 132.317  23.316  1.00  0.00     0.028 A 
ATOM      8  C   UNL     1      44.843 131.379  22.287  1.00  0.00     0.056 A 
BRANCH   4   9
ATOM      9  C   UNL     1      47.987 134.314  22.151  1.00  0.00    -0.018 A 
ATOM     10  C   UNL     1      50.060 136.224  22.061  1.00  0.00    -0.051 A 
ATOM     11  C   UNL     1      48.982 136.307  21.170  1.00  0.00     0.004 A 
ATOM     12  C   UNL     1      50.087 135.195  23.015  1.00  0.00     0.004 A 
ATOM     13  C   UNL     1      47.957 135.357  21.209  1.00  0.00     0.009 A 
ATOM     14  C   UNL     1      49.063 134.244  23.055  1.00  0.00     0.009 A 
ATOM     15  C   UNL     1      51.140 137.266  22.045  1.00  0.00     0.044 C 
ENDBRANCH   4   9
BRANCH   8  16
ATOM     16  N   UNL     1      43.847 130.357  22.412  1.00  0.00    -0.321 N 
ATOM     17  C   UNL     1      44.011 129.248  23.309  1.00  0.00     0.255 C 
ATOM     18  H   UNL     1      42.913 130.547  21.990  1.00  0.00     0.170 HD
ATOM     19  O   UNL     1      45.093 129.110  23.944  1.00  0.00    -0.269 OA
BRANCH  17  20
ATOM     20  C   UNL     1      42.901 128.298  23.547  1.00  0.00     0.040 A 
ATOM     21  C   UNL     1      43.063 126.921  23.315  1.00  0.00     0.014 A 
ATOM     22  C   UNL     1      41.655 128.771  23.998  1.00  0.00     0.017 A 
ATOM     23  C   UNL     1      41.994 126.041  23.501  1.00  0.00     0.001 A 
ATOM     24  C   UNL     1      40.584 127.887  24.200  1.00  0.00    -0.050 A 
ATOM     25  C   UNL     1      40.756 126.522  23.932  1.00  0.00     0.003 A 
ATOM     26  C   UNL     1      39.243 128.411  24.620  1.00  0.00     0.044 C 
ENDBRANCH  17  20
ENDBRANCH   8  16
ENDBRANCH   1   3
BRANCH   1  27
ATOM     27  O   UNL     1      45.840 130.952  18.719  1.00  0.00    -0.452 OA
BRANCH  27  28
ATOM     28  C   UNL     1      44.972 131.775  17.935  1.00  0.00     0.247 C 
ATOM     29  C   UNL     1      43.532 131.553  18.406  1.00  0.00     0.061 C 
BRANCH  28  30
ATOM     30  C   UNL     1      45.137 131.494  16.419  1.00  0.00     0.364 C 
ATOM     31  C   UNL     1      43.839 131.680  15.616  1.00  0.00     0.098 C 
BRANCH  30  32
ATOM     32  N   UNL     1      45.684 130.152  16.208  1.00  0.00     0.026 N 
ATOM     33  O   UNL     1      44.947 129.144  16.253  1.00  0.00    -0.264 OA
ATOM     34  O   UNL     1      47.049 129.979  16.160  1.00  0.00    -0.264 OA
ENDBRANCH  30  32
ENDBRANCH  28  30
ENDBRANCH  27  28
ENDBRANCH   1  27
TORSDOF 8
ENDMDL
MODEL 3
REMARK VINA RESULT:      -2.8      0.977      1.218
REMARK SMILES Cc1ccc(-c2ccc(NC(=O)c3cccc(C)c3)c(C(=O)O[C@H](C)[C@H](C)[N+](=O)[O-])c2)cc1
REMARK SMILES IDX 21 1 22 2 20 3 6 4 7 5 31 6 8 7 9 8 5 9 2 10 3 11 33 12 4 13
REMARK SMILES IDX 32 14 1 15 10 16 11 17 12 19 13 20 14 21 19 22 15 23 17 24
REMARK SMILES IDX 16 25 18 26 23 27 24 28 25 29 26 30 27 31 28 32 29 33 30 34
REMARK H PARENT 10 18
ROOT
ATOM      1  C   UNL     1      44.802 131.282  19.974  1.00  0.00     0.340 C 
ATOM      2  O   UNL     1      43.566 131.109  19.793  1.00  0.00    -0.246 OA
ENDROOT
BRANCH   1   3
ATOM      3  C   UNL     1      45.286 131.889  21.242  1.00  0.00     0.084 A 
ATOM      4  C   UNL     1      46.837 133.412  22.373  1.00  0.00    -0.017 A 
ATOM      5  C   UNL     1      46.144 133.209  23.575  1.00  0.00     0.011 A 
ATOM      6  C   UNL     1      46.400 132.748  21.212  1.00  0.00     0.026 A 
ATOM      7  C   UNL     1      45.047 132.349  23.623  1.00  0.00     0.028 A 
ATOM      8  C   UNL     1      44.618 131.678  22.471  1.00  0.00     0.056 A 
BRANCH   4   9
ATOM      9  C   UNL     1      48.011 134.321  22.325  1.00  0.00    -0.018 A 
ATOM     10  C   UNL     1      50.234 136.055  22.241  1.00  0.00    -0.051 A 
ATOM     11  C   UNL     1      50.194 134.998  23.162  1.00  0.00     0.004 A 
ATOM     12  C   UNL     1      49.169 136.227  21.345  1.00  0.00     0.004 A 
ATOM     13  C   UNL     1      49.090 134.143  23.208  1.00  0.00     0.009 A 
ATOM     14  C   UNL     1      48.064 135.371  21.391  1.00  0.00     0.009 A 
ATOM     15  C   UNL     1      51.437 136.949  22.165  1.00  0.00     0.044 C 
ENDBRANCH   4   9
BRANCH   8  16
ATOM     16  N   UNL     1      43.547 130.733  22.578  1.00  0.00    -0.321 N 
ATOM     17  C   UNL     1      43.679 129.523  23.338  1.00  0.00     0.255 C 
ATOM     18  H   UNL     1      42.603 131.044  22.261  1.00  0.00     0.170 HD
ATOM     19  O   UNL     1      44.791 129.228  23.857  1.00  0.00    -0.269 OA
BRANCH  17  20
ATOM     20  C   UNL     1      42.511 128.645  23.574  1.00  0.00     0.040 A 
ATOM     21  C   UNL     1      41.414 129.089  24.333  1.00  0.00     0.014 A 
ATOM     22  C   UNL     1      42.494 127.340  23.049  1.00  0.00     0.017 A 
ATOM     23  C   UNL     1      40.337 128.235  24.585  1.00  0.00     0.001 A 
ATOM     24  C   UNL     1      41.407 126.486  23.289  1.00  0.00    -0.050 A 
ATOM     25  C   UNL     1      40.337 126.936  24.075  1.00  0.00     0.003 A 
ATOM     26  C   UNL     1      41.428 125.077  22.777  1.00  0.00     0.044 C 
ENDBRANCH  17  20
ENDBRANCH   8  16
ENDBRANCH   1   3
BRANCH   1  27
ATOM     27  O   UNL     1      45.719 130.851  19.004  1.00  0.00    -0.452 OA
BRANCH  27  28
ATOM     28  C   UNL     1      45.365 130.474  17.670  1.00  0.00     0.247 C 
ATOM     29  C   UNL     1      46.563 129.769  17.028  1.00  0.00     0.061 C 
BRANCH  28  30
ATOM     30  C   UNL     1      44.897 131.696  16.840  1.00  0.00     0.364 C 
ATOM     31  C   UNL     1      43.367 131.848  16.782  1.00  0.00     0.098 C 
BRANCH  30  32
ATOM     32  N   UNL     1      45.459 131.639  15.488  1.00  0.00     0.026 N 
ATOM     33  O   UNL     1      44.732 131.796  14.484  1.00  0.00    -0.264 OA
ATOM     34  O   UNL     1      46.754 131.209  15.314  1.00  0.00    -0.264 OA
ENDBRANCH  30  32
ENDBRANCH  28  30
ENDBRANCH  27  28
ENDBRANCH   1  27
TORSDOF 8
ENDMDL
MODEL 4
REMARK VINA RESULT:      -1.6      1.495      7.972
REMARK SMILES Cc1ccc(-c2ccc(NC(=O)c3cccc(C)c3)c(C(=O)O[C@H](C)[C@H](C)[N+](=O)[O-])c2)cc1
REMARK SMILES IDX 21 1 22 2 20 3 6 4 7 5 31 6 8 7 9 8 5 9 2 10 3 11 33 12 4 13
REMARK SMILES IDX 32 14 1 15 10 16 11 17 12 19 13 20 14 21 19 22 15 23 17 24
REMARK SMILES IDX 16 25 18 26 23 27 24 28 25 29 26 30 27 31 28 32 29 33 30 34
REMARK H PARENT 10 18
ROOT
ATOM      1  C   UNL     1      45.617 131.059  19.673  1.00  0.00     0.340 C 
ATOM      2  O   UNL     1      46.392 130.143  19.282  1.00  0.00    -0.246 OA
ENDROOT
BRANCH   1   3
ATOM      3  C   UNL     1      45.151 131.082  21.084  1.00  0.00     0.084 A 
ATOM      4  C   UNL     1      43.853 130.026  22.874  1.00  0.00    -0.017 A 
ATOM      5  C   UNL     1      44.368 130.961  23.785  1.00  0.00     0.011 A 
ATOM      6  C   UNL     1      44.250 130.094  21.527  1.00  0.00     0.026 A 
ATOM      7  C   UNL     1      45.249 131.953  23.357  1.00  0.00     0.028 A 
ATOM      8  C   UNL     1      45.638 132.030  22.014  1.00  0.00     0.056 A 
BRANCH   4   9
ATOM      9  C   UNL     1      42.906 128.975  23.329  1.00  0.00    -0.018 A 
ATOM     10  C   UNL     1      41.114 126.980  24.203  1.00  0.00    -0.051 A 
ATOM     11  C   UNL     1      40.734 128.329  24.219  1.00  0.00     0.004 A 
ATOM     12  C   UNL     1      42.386 126.630  23.727  1.00  0.00     0.004 A 
ATOM     13  C   UNL     1      41.623 129.319  23.791  1.00  0.00     0.009 A 
ATOM     14  C   UNL     1      43.277 127.619  23.299  1.00  0.00     0.009 A 
ATOM     15  C   UNL     1      40.146 125.914  24.625  1.00  0.00     0.044 C 
ENDBRANCH   4   9
BRANCH   8  16
ATOM     16  N   UNL     1      46.470 133.117  21.594  1.00  0.00    -0.321 N 
ATOM     17  C   UNL     1      47.153 133.955  22.538  1.00  0.00     0.255 C 
ATOM     18  H   UNL     1      46.730 133.156  20.585  1.00  0.00     0.170 HD
ATOM     19  O   UNL     1      46.955 133.797  23.774  1.00  0.00    -0.269 OA
BRANCH  17  20
ATOM     20  C   UNL     1      48.138 134.962  22.082  1.00  0.00     0.040 A 
ATOM     21  C   UNL     1      47.822 135.874  21.061  1.00  0.00     0.014 A 
ATOM     22  C   UNL     1      49.420 135.004  22.661  1.00  0.00     0.017 A 
ATOM     23  C   UNL     1      48.776 136.789  20.609  1.00  0.00     0.001 A 
ATOM     24  C   UNL     1      50.375 135.932  22.219  1.00  0.00    -0.050 A 
ATOM     25  C   UNL     1      50.051 136.813  21.177  1.00  0.00     0.003 A 
ATOM     26  C   UNL     1      51.757 135.927  22.801  1.00  0.00     0.044 C 
ENDBRANCH  17  20
ENDBRANCH   8  16
ENDBRANCH   1   3
BRANCH   1  27
ATOM     27  O   UNL     1      45.242 132.083  18.790  1.00  0.00    -0.452 OA
BRANCH  27  28
ATOM     28  C   UNL     1      44.106 132.024  17.922  1.00  0.00     0.247 C 
ATOM     29  C   UNL     1      42.920 131.460  18.709  1.00  0.00     0.061 C 
BRANCH  28  30
ATOM     30  C   UNL     1      44.406 131.192  16.649  1.00  0.00     0.364 C 
ATOM     31  C   UNL     1      44.281 129.675  16.865  1.00  0.00     0.098 C 
BRANCH  30  32
ATOM     32  N   UNL     1      45.731 131.528  16.122  1.00  0.00     0.026 N 
ATOM     33  O   UNL     1      46.668 130.704  16.171  1.00  0.00    -0.264 OA
ATOM     34  O   UNL     1      46.001 132.827  15.755  1.00  0.00    -0.264 OA
ENDBRANCH  30  32
ENDBRANCH  28  30
ENDBRANCH  27  28
ENDBRANCH   1  27
TORSDOF 8
ENDMDL
MODEL 5
REMARK VINA RESULT:      -1.4      1.561      8.005
REMARK SMILES Cc1ccc(-c2ccc(NC(=O)c3cccc(C)c3)c(C(=O)O[C@H](C)[C@H](C)[N+](=O)[O-])c2)cc1
REMARK SMILES IDX 21 1 22 2 20 3 6 4 7 5 31 6 8 7 9 8 5 9 2 10 3 11 33 12 4 13
REMARK SMILES IDX 32 14 1 15 10 16 11 17 12 19 13 20 14 21 19 22 15 23 17 24
REMARK SMILES IDX 16 25 18 26 23 27 24 28 25 29 26 30 27 31 28 32 29 33 30 34
REMARK H PARENT 10 18
ROOT
ATOM      1  C   UNL     1      44.704 131.981  19.679  1.00  0.00     0.340 C 
ATOM      2  O   UNL     1      45.188 133.089  19.318  1.00  0.00    -0.246 OA
ENDROOT
BRANCH   1   3
ATOM      3  C   UNL     1      44.625 131.644  21.125  1.00  0.00     0.084 A 
ATOM      4  C   UNL     1      43.673 130.245  22.897  1.00  0.00    -0.017 A 
ATOM      5  C   UNL     1      44.551 130.834  23.820  1.00  0.00     0.011 A 
ATOM      6  C   UNL     1      43.718 130.656  21.553  1.00  0.00     0.026 A 
ATOM      7  C   UNL     1      45.444 131.824  23.413  1.00  0.00     0.028 A 
ATOM      8  C   UNL     1      45.483 132.243  22.077  1.00  0.00     0.056 A 
BRANCH   4   9
ATOM      9  C   UNL     1      42.714 129.197  23.333  1.00  0.00    -0.018 A 
ATOM     10  C   UNL     1      40.887 127.209  24.148  1.00  0.00    -0.051 A 
ATOM     11  C   UNL     1      42.115 126.850  23.575  1.00  0.00     0.004 A 
ATOM     12  C   UNL     1      40.585 128.566  24.334  1.00  0.00     0.004 A 
ATOM     13  C   UNL     1      43.019 127.835  23.166  1.00  0.00     0.009 A 
ATOM     14  C   UNL     1      41.488 129.552  23.924  1.00  0.00     0.009 A 
ATOM     15  C   UNL     1      39.935 126.151  24.624  1.00  0.00     0.044 C 
ENDBRANCH   4   9
BRANCH   8  16
ATOM     16  N   UNL     1      46.348 133.326  21.715  1.00  0.00    -0.321 N 
ATOM     17  C   UNL     1      47.262 133.910  22.654  1.00  0.00     0.255 C 
ATOM     18  H   UNL     1      46.442 133.541  20.699  1.00  0.00     0.170 HD
ATOM     19  O   UNL     1      47.253 133.530  23.857  1.00  0.00    -0.269 OA
BRANCH  17  20
ATOM     20  C   UNL     1      48.262 134.910  22.215  1.00  0.00     0.040 A 
ATOM     21  C   UNL     1      49.525 134.987  22.826  1.00  0.00     0.014 A 
ATOM     22  C   UNL     1      47.946 135.813  21.183  1.00  0.00     0.017 A 
ATOM     23  C   UNL     1      50.443 135.965  22.432  1.00  0.00     0.001 A 
ATOM     24  C   UNL     1      48.872 136.786  20.776  1.00  0.00    -0.050 A 
ATOM     25  C   UNL     1      50.115 136.868  21.419  1.00  0.00     0.003 A 
ATOM     26  C   UNL     1      48.502 137.782  19.718  1.00  0.00     0.044 C 
ENDBRANCH  17  20
ENDBRANCH   8  16
ENDBRANCH   1   3
BRANCH   1  27
ATOM     27  O   UNL     1      44.192 131.094  18.720  1.00  0.00    -0.452 OA
BRANCH  27  28
ATOM     28  C   UNL     1      44.992 130.373  17.779  1.00  0.00     0.247 C 
ATOM     29  C   UNL     1      46.343 130.060  18.428  1.00  0.00     0.061 C 
BRANCH  28  30
ATOM     30  C   UNL     1      45.152 131.155  16.451  1.00  0.00     0.364 C 
ATOM     31  C   UNL     1      43.824 131.697  15.896  1.00  0.00     0.098 C 
BRANCH  30  32
ATOM     32  N   UNL     1      45.827 130.325  15.450  1.00  0.00     0.026 N 
ATOM     33  O   UNL     1      46.661 130.821  14.663  1.00  0.00    -0.264 OA
ATOM     34  O   UNL     1      45.395 129.036  15.240  1.00  0.00    -0.264 OA
ENDBRANCH  30  32
ENDBRANCH  28  30
ENDBRANCH  27  28
ENDBRANCH   1  27
TORSDOF 8
ENDMDL


