MODEL 1
REMARK VINA RESULT:      -7.4      0.000      0.000
REMARK SMILES C[C@H]1CC[C@H]2C=C[NH2+][C@@]2(C)C1
REMARK SMILES IDX 1 1 2 2 3 3 4 4 5 5 6 6 7 7 8 8 9 9 10 10 11 11
REMARK H PARENT 8 12 8 13
ROOT
ATOM      1  C   UNL     1      47.997 131.276  13.054  1.00  0.00     0.008 C 
ATOM      2  C   UNL     1      46.640 130.911  13.670  1.00  0.00    -0.008 C 
ATOM      3  C   UNL     1      46.640 129.450  14.196  1.00  0.00     0.004 C 
ATOM      4  C   UNL     1      46.665 129.379  15.724  1.00  0.00     0.015 C 
ATOM      5  C   UNL     1      45.417 130.068  16.309  1.00  0.00     0.079 C 
ATOM      6  C   UNL     1      45.606 130.375  17.745  1.00  0.00     0.042 C 
ATOM      7  C   UNL     1      45.350 131.645  17.986  1.00  0.00     0.216 C 
ATOM      8  N   UNL     1      44.958 132.403  16.840  1.00  0.00    -0.315 N 
ATOM      9  C   UNL     1      45.101 131.469  15.689  1.00  0.00     0.104 C 
ATOM     10  C   UNL     1      43.779 131.413  14.885  1.00  0.00     0.080 C 
ATOM     11  C   UNL     1      46.256 131.946  14.758  1.00  0.00     0.072 C 
ATOM     12  H   UNL     1      43.971 132.717  16.987  1.00  0.00     0.352 HD
ATOM     13  H   UNL     1      45.574 133.245  16.765  1.00  0.00     0.352 HD
ENDROOT
TORSDOF 0
ENDMDL
MODEL 2
REMARK VINA RESULT:      -7.3      1.776      3.959
REMARK SMILES C[C@H]1CC[C@H]2C=C[NH2+][C@@]2(C)C1
REMARK SMILES IDX 1 1 2 2 3 3 4 4 5 5 6 6 7 7 8 8 9 9 10 10 11 11
REMARK H PARENT 8 12 8 13
ROOT
ATOM      1  C   UNL     1      45.843 131.028  18.962  1.00  0.00     0.008 C 
ATOM      2  C   UNL     1      45.319 130.684  17.561  1.00  0.00    -0.008 C 
ATOM      3  C   UNL     1      44.927 131.968  16.780  1.00  0.00     0.004 C 
ATOM      4  C   UNL     1      45.918 132.296  15.661  1.00  0.00     0.015 C 
ATOM      5  C   UNL     1      45.967 131.143  14.640  1.00  0.00     0.079 C 
ATOM      6  C   UNL     1      47.179 131.237  13.794  1.00  0.00     0.042 C 
ATOM      7  C   UNL     1      47.841 130.098  13.804  1.00  0.00     0.216 C 
ATOM      8  N   UNL     1      47.249 129.070  14.600  1.00  0.00    -0.315 N 
ATOM      9  C   UNL     1      46.092 129.720  15.275  1.00  0.00     0.104 C 
ATOM     10  C   UNL     1      44.801 128.903  15.017  1.00  0.00     0.080 C 
ATOM     11  C   UNL     1      46.352 129.808  16.809  1.00  0.00     0.072 C 
ATOM     12  H   UNL     1      46.962 128.294  13.959  1.00  0.00     0.352 HD
ATOM     13  H   UNL     1      47.966 128.707  15.270  1.00  0.00     0.352 HD
ENDROOT
TORSDOF 0
ENDMDL
MODEL 3
REMARK VINA RESULT:      -5.4      3.086      5.081
REMARK SMILES C[C@H]1CC[C@H]2C=C[NH2+][C@@]2(C)C1
REMARK SMILES IDX 1 1 2 2 3 3 4 4 5 5 6 6 7 7 8 8 9 9 10 10 11 11
REMARK H PARENT 8 12 8 13
ROOT
ATOM      1  C   UNL     1      45.769 129.875  17.085  1.00  0.00     0.008 C 
ATOM      2  C   UNL     1      45.680 130.970  18.156  1.00  0.00    -0.008 C 
ATOM      3  C   UNL     1      44.490 131.928  17.878  1.00  0.00     0.004 C 
ATOM      4  C   UNL     1      43.335 131.727  18.861  1.00  0.00     0.015 C 
ATOM      5  C   UNL     1      43.809 132.002  20.301  1.00  0.00     0.079 C 
ATOM      6  C   UNL     1      42.862 131.432  21.287  1.00  0.00     0.042 C 
ATOM      7  C   UNL     1      43.497 130.666  22.152  1.00  0.00     0.216 C 
ATOM      8  N   UNL     1      44.907 130.573  21.943  1.00  0.00    -0.315 N 
ATOM      9  C   UNL     1      45.163 131.317  20.679  1.00  0.00     0.104 C 
ATOM     10  C   UNL     1      46.259 132.387  20.907  1.00  0.00     0.080 C 
ATOM     11  C   UNL     1      45.625 130.329  19.566  1.00  0.00     0.072 C 
ATOM     12  H   UNL     1      45.382 131.003  22.770  1.00  0.00     0.352 HD
ATOM     13  H   UNL     1      45.174 129.563  21.888  1.00  0.00     0.352 HD
ENDROOT
TORSDOF 0
ENDMDL
MODEL 4
REMARK VINA RESULT:      -5.0      1.921      4.059
REMARK SMILES C[C@H]1CC[C@H]2C=C[NH2+][C@@]2(C)C1
REMARK SMILES IDX 1 1 2 2 3 3 4 4 5 5 6 6 7 7 8 8 9 9 10 10 11 11
REMARK H PARENT 8 12 8 13
ROOT
ATOM      1  C   UNL     1      42.931 131.907  19.476  1.00  0.00     0.008 C 
ATOM      2  C   UNL     1      44.145 132.048  18.550  1.00  0.00    -0.008 C 
ATOM      3  C   UNL     1      45.387 131.327  19.141  1.00  0.00     0.004 C 
ATOM      4  C   UNL     1      45.730 130.041  18.388  1.00  0.00     0.015 C 
ATOM      5  C   UNL     1      46.052 130.357  16.915  1.00  0.00     0.079 C 
ATOM      6  C   UNL     1      45.985 129.133  16.084  1.00  0.00     0.042 C 
ATOM      7  C   UNL     1      45.195 129.320  15.045  1.00  0.00     0.216 C 
ATOM      8  N   UNL     1      44.612 130.621  14.965  1.00  0.00    -0.315 N 
ATOM      9  C   UNL     1      45.027 131.310  16.218  1.00  0.00     0.104 C 
ATOM     10  C   UNL     1      45.698 132.665  15.881  1.00  0.00     0.080 C 
ATOM     11  C   UNL     1      43.783 131.559  17.124  1.00  0.00     0.072 C 
ATOM     12  H   UNL     1      44.984 131.086  14.105  1.00  0.00     0.352 HD
ATOM     13  H   UNL     1      43.575 130.521  14.874  1.00  0.00     0.352 HD
ENDROOT
TORSDOF 0
ENDMDL
MODEL 5
REMARK VINA RESULT:      -4.8      1.469      2.212
REMARK SMILES C[C@H]1CC[C@H]2C=C[NH2+][C@@]2(C)C1
REMARK SMILES IDX 1 1 2 2 3 3 4 4 5 5 6 6 7 7 8 8 9 9 10 10 11 11
REMARK H PARENT 8 12 8 13
ROOT
ATOM      1  C   UNL     1      46.592 131.706  14.589  1.00  0.00     0.008 C 
ATOM      2  C   UNL     1      45.503 131.253  15.571  1.00  0.00    -0.008 C 
ATOM      3  C   UNL     1      45.713 129.776  15.998  1.00  0.00     0.004 C 
ATOM      4  C   UNL     1      46.207 129.650  17.441  1.00  0.00     0.015 C 
ATOM      5  C   UNL     1      45.175 130.257  18.411  1.00  0.00     0.079 C 
ATOM      6  C   UNL     1      45.784 130.520  19.735  1.00  0.00     0.042 C 
ATOM      7  C   UNL     1      45.571 131.767  20.104  1.00  0.00     0.216 C 
ATOM      8  N   UNL     1      44.822 132.546  19.171  1.00  0.00    -0.315 N 
ATOM      9  C   UNL     1      44.637 131.663  17.987  1.00  0.00     0.104 C 
ATOM     10  C   UNL     1      43.135 131.574  17.621  1.00  0.00     0.080 C 
ATOM     11  C   UNL     1      45.434 132.229  16.773  1.00  0.00     0.072 C 
ATOM     12  H   UNL     1      43.917 132.808  19.627  1.00  0.00     0.352 HD
ATOM     13  H   UNL     1      45.356 133.419  18.955  1.00  0.00     0.352 HD
ENDROOT
TORSDOF 0
ENDMDL


