MODEL 1
REMARK VINA RESULT:      -3.7      0.000      0.000
REMARK SMILES COCCN/C(S)=[N+]1/CC[C@H](C)[C@@H](F)[C@@H]1c1ccc(C(C)=O)cc1
REMARK SMILES IDX 6 1 5 2 7 4 8 6 9 7 15 8 10 9 13 10 11 11 14 12 12 13 16 14
REMARK SMILES IDX 17 15 24 16 18 17 23 18 19 19 20 20 22 21 21 22 4 23 3 24
REMARK SMILES IDX 2 25 1 26
REMARK H PARENT 5 3 7 5
ROOT
ATOM      1  C   UNL     1      44.319 123.876  23.030  1.00  0.00     0.303 C 
ATOM      2  N   UNL     1      43.665 124.650  22.003  1.00  0.00    -0.267 N 
ATOM      3  H   UNL     1      44.223 125.088  21.238  1.00  0.00     0.305 HD
ENDROOT
BRANCH   1   4
ATOM      4  S   UNL     1      43.324 122.619  23.872  1.00  0.00    -0.056 SA
ATOM      5  H   UNL     1      42.128 123.308  23.595  1.00  0.00     0.116 HD
ENDBRANCH   1   4
BRANCH   1   6
ATOM      6  N   UNL     1      45.584 124.101  23.358  1.00  0.00    -0.247 N 
ATOM      7  C   UNL     1      46.257 123.349  24.442  1.00  0.00     0.238 C 
ATOM      8  C   UNL     1      46.371 125.177  22.694  1.00  0.00     0.241 C 
ATOM      9  C   UNL     1      47.608 122.796  23.968  1.00  0.00     0.052 C 
ATOM     10  C   UNL     1      47.835 125.227  23.187  1.00  0.00     0.219 C 
ATOM     11  C   UNL     1      48.452 123.818  23.162  1.00  0.00     0.029 C 
ATOM     12  F   UNL     1      48.566 126.073  22.367  1.00  0.00    -0.242 F 
ATOM     13  C   UNL     1      49.904 123.849  23.663  1.00  0.00     0.011 C 
BRANCH   8  14
ATOM     14  C   UNL     1      45.734 126.542  22.895  1.00  0.00    -0.001 A 
ATOM     15  C   UNL     1      45.610 127.449  21.829  1.00  0.00     0.009 A 
ATOM     16  C   UNL     1      45.222 126.897  24.153  1.00  0.00     0.009 A 
ATOM     17  C   UNL     1      45.025 128.702  22.029  1.00  0.00     0.012 A 
ATOM     18  C   UNL     1      44.628 128.145  24.351  1.00  0.00     0.012 A 
ATOM     19  C   UNL     1      44.532 129.070  23.295  1.00  0.00     0.017 A 
BRANCH  19  20
ATOM     20  C   UNL     1      43.919 130.406  23.530  1.00  0.00     0.159 C 
ATOM     21  O   UNL     1      44.238 131.379  22.794  1.00  0.00    -0.295 OA
ATOM     22  C   UNL     1      42.921 130.638  24.624  1.00  0.00     0.093 C 
ENDBRANCH  19  20
ENDBRANCH   8  14
ENDBRANCH   1   6
BRANCH   2  23
ATOM     23  C   UNL     1      42.213 124.844  21.993  1.00  0.00     0.262 C 
BRANCH  23  24
ATOM     24  C   UNL     1      41.552 124.153  23.185  1.00  0.00     0.205 C 
BRANCH  24  25
ATOM     25  O   UNL     1      40.154 124.118  22.989  1.00  0.00    -0.381 OA
ATOM     26  C   UNL     1      39.667 122.837  23.316  1.00  0.00     0.195 C 
ENDBRANCH  24  25
ENDBRANCH  23  24
ENDBRANCH   2  23
TORSDOF 7
ENDMDL
MODEL 2
REMARK VINA RESULT:      -3.3      4.816      7.886
REMARK SMILES COCCN/C(S)=[N+]1/CC[C@H](C)[C@@H](F)[C@@H]1c1ccc(C(C)=O)cc1
REMARK SMILES IDX 6 1 5 2 7 4 8 6 9 7 15 8 10 9 13 10 11 11 14 12 12 13 16 14
REMARK SMILES IDX 17 15 24 16 18 17 23 18 19 19 20 20 22 21 21 22 4 23 3 24
REMARK SMILES IDX 2 25 1 26
REMARK H PARENT 5 3 7 5
ROOT
ATOM      1  C   UNL     1      44.801 131.304  19.995  1.00  0.00     0.303 C 
ATOM      2  N   UNL     1      45.544 130.452  19.098  1.00  0.00    -0.267 N 
ATOM      3  H   UNL     1      46.301 129.835  19.466  1.00  0.00     0.305 HD
ENDROOT
BRANCH   1   4
ATOM      4  S   UNL     1      43.133 131.786  19.477  1.00  0.00    -0.056 SA
ATOM      5  H   UNL     1      43.333 133.115  19.896  1.00  0.00     0.116 HD
ENDBRANCH   1   4
BRANCH   1   6
ATOM      6  N   UNL     1      45.331 131.734  21.131  1.00  0.00    -0.247 N 
ATOM      7  C   UNL     1      46.761 132.110  21.234  1.00  0.00     0.238 C 
ATOM      8  C   UNL     1      44.526 131.791  22.383  1.00  0.00     0.241 C 
ATOM      9  C   UNL     1      46.918 133.485  21.898  1.00  0.00     0.052 C 
ATOM     10  C   UNL     1      45.324 132.375  23.571  1.00  0.00     0.219 C 
ATOM     11  C   UNL     1      46.025 133.679  23.151  1.00  0.00     0.029 C 
ATOM     12  F   UNL     1      44.460 132.626  24.625  1.00  0.00    -0.242 F 
ATOM     13  C   UNL     1      46.835 134.264  24.318  1.00  0.00     0.011 C 
BRANCH   8  14
ATOM     14  C   UNL     1      43.993 130.422  22.769  1.00  0.00    -0.001 A 
ATOM     15  C   UNL     1      42.677 130.260  23.231  1.00  0.00     0.009 A 
ATOM     16  C   UNL     1      44.809 129.289  22.628  1.00  0.00     0.009 A 
ATOM     17  C   UNL     1      42.200 128.995  23.586  1.00  0.00     0.012 A 
ATOM     18  C   UNL     1      44.330 128.022  22.972  1.00  0.00     0.012 A 
ATOM     19  C   UNL     1      43.023 127.859  23.468  1.00  0.00     0.017 A 
BRANCH  19  20
ATOM     20  C   UNL     1      42.538 126.507  23.855  1.00  0.00     0.159 C 
ATOM     21  O   UNL     1      41.328 126.342  24.169  1.00  0.00    -0.295 OA
ATOM     22  C   UNL     1      43.449 125.317  23.883  1.00  0.00     0.093 C 
ENDBRANCH  19  20
ENDBRANCH   8  14
ENDBRANCH   1   6
BRANCH   2  23
ATOM     23  C   UNL     1      45.265 130.418  17.661  1.00  0.00     0.262 C 
BRANCH  23  24
ATOM     24  C   UNL     1      45.397 131.807  17.036  1.00  0.00     0.205 C 
BRANCH  24  25
ATOM     25  O   UNL     1      44.474 131.932  15.975  1.00  0.00    -0.381 OA
ATOM     26  C   UNL     1      45.052 131.437  14.790  1.00  0.00     0.195 C 
ENDBRANCH  24  25
ENDBRANCH  23  24
ENDBRANCH   2  23
TORSDOF 7
ENDMDL
MODEL 3
REMARK VINA RESULT:      -3.1      5.113      7.853
REMARK SMILES COCCN/C(S)=[N+]1/CC[C@H](C)[C@@H](F)[C@@H]1c1ccc(C(C)=O)cc1
REMARK SMILES IDX 6 1 5 2 7 4 8 6 9 7 15 8 10 9 13 10 11 11 14 12 12 13 16 14
REMARK SMILES IDX 17 15 24 16 18 17 23 18 19 19 20 20 22 21 21 22 4 23 3 24
REMARK SMILES IDX 2 25 1 26
REMARK H PARENT 5 3 7 5
ROOT
ATOM      1  C   UNL     1      44.069 131.829  19.983  1.00  0.00     0.303 C 
ATOM      2  N   UNL     1      44.509 131.214  18.753  1.00  0.00    -0.267 N 
ATOM      3  H   UNL     1      45.343 130.587  18.748  1.00  0.00     0.305 HD
ENDROOT
BRANCH   1   4
ATOM      4  S   UNL     1      42.323 132.296  20.089  1.00  0.00    -0.056 SA
ATOM      5  H   UNL     1      42.588 133.254  21.086  1.00  0.00     0.116 HD
ENDBRANCH   1   4
BRANCH   1   6
ATOM      6  N   UNL     1      44.917 132.064  20.974  1.00  0.00    -0.247 N 
ATOM      7  C   UNL     1      46.371 132.229  20.738  1.00  0.00     0.238 C 
ATOM      8  C   UNL     1      44.455 132.103  22.389  1.00  0.00     0.241 C 
ATOM      9  C   UNL     1      46.897 133.494  21.429  1.00  0.00     0.052 C 
ATOM     10  C   UNL     1      45.595 132.448  23.373  1.00  0.00     0.219 C 
ATOM     11  C   UNL     1      46.372 133.680  22.876  1.00  0.00     0.029 C 
ATOM     12  F   UNL     1      45.058 132.706  24.625  1.00  0.00    -0.242 F 
ATOM     13  C   UNL     1      47.519 134.027  23.837  1.00  0.00     0.011 C 
BRANCH   8  14
ATOM     14  C   UNL     1      43.820 130.788  22.808  1.00  0.00    -0.001 A 
ATOM     15  C   UNL     1      42.509 130.741  23.309  1.00  0.00     0.009 A 
ATOM     16  C   UNL     1      44.534 129.588  22.657  1.00  0.00     0.009 A 
ATOM     17  C   UNL     1      41.939 129.525  23.693  1.00  0.00     0.012 A 
ATOM     18  C   UNL     1      43.961 128.370  23.031  1.00  0.00     0.012 A 
ATOM     19  C   UNL     1      42.660 128.323  23.566  1.00  0.00     0.017 A 
BRANCH  19  20
ATOM     20  C   UNL     1      42.075 127.020  23.983  1.00  0.00     0.159 C 
ATOM     21  O   UNL     1      42.835 126.076  24.331  1.00  0.00    -0.295 OA
ATOM     22  C   UNL     1      40.594 126.787  24.006  1.00  0.00     0.093 C 
ENDBRANCH  19  20
ENDBRANCH   8  14
ENDBRANCH   1   6
BRANCH   2  23
ATOM     23  C   UNL     1      43.809 131.441  17.486  1.00  0.00     0.262 C 
BRANCH  23  24
ATOM     24  C   UNL     1      44.793 131.589  16.327  1.00  0.00     0.205 C 
BRANCH  24  25
ATOM     25  O   UNL     1      45.049 130.318  15.766  1.00  0.00    -0.381 OA
ATOM     26  C   UNL     1      46.306 129.857  16.206  1.00  0.00     0.195 C 
ENDBRANCH  24  25
ENDBRANCH  23  24
ENDBRANCH   2  23
TORSDOF 7
ENDMDL
MODEL 4
REMARK VINA RESULT:      -2.8      4.785      7.808
REMARK SMILES COCCN/C(S)=[N+]1/CC[C@H](C)[C@@H](F)[C@@H]1c1ccc(C(C)=O)cc1
REMARK SMILES IDX 6 1 5 2 7 4 8 6 9 7 15 8 10 9 13 10 11 11 14 12 12 13 16 14
REMARK SMILES IDX 17 15 24 16 18 17 23 18 19 19 20 20 22 21 21 22 4 23 3 24
REMARK SMILES IDX 2 25 1 26
REMARK H PARENT 5 3 7 5
ROOT
ATOM      1  C   UNL     1      44.917 131.343  19.968  1.00  0.00     0.303 C 
ATOM      2  N   UNL     1      45.678 130.456  19.122  1.00  0.00    -0.267 N 
ATOM      3  H   UNL     1      46.393 129.819  19.537  1.00  0.00     0.305 HD
ENDROOT
BRANCH   1   4
ATOM      4  S   UNL     1      43.297 131.874  19.355  1.00  0.00    -0.056 SA
ATOM      5  H   UNL     1      42.785 130.565  19.427  1.00  0.00     0.116 HD
ENDBRANCH   1   4
BRANCH   1   6
ATOM      6  N   UNL     1      45.400 131.770  21.126  1.00  0.00    -0.247 N 
ATOM      7  C   UNL     1      46.809 132.205  21.274  1.00  0.00     0.238 C 
ATOM      8  C   UNL     1      44.563 131.764  22.358  1.00  0.00     0.241 C 
ATOM      9  C   UNL     1      46.889 133.570  21.971  1.00  0.00     0.052 C 
ATOM     10  C   UNL     1      45.305 132.355  23.579  1.00  0.00     0.219 C 
ATOM     11  C   UNL     1      45.958 133.697  23.205  1.00  0.00     0.029 C 
ATOM     12  F   UNL     1      44.404 132.544  24.615  1.00  0.00    -0.242 F 
ATOM     13  C   UNL     1      46.712 134.289  24.405  1.00  0.00     0.011 C 
BRANCH   8  14
ATOM     14  C   UNL     1      44.080 130.365  22.701  1.00  0.00    -0.001 A 
ATOM     15  C   UNL     1      44.892 129.242  22.475  1.00  0.00     0.009 A 
ATOM     16  C   UNL     1      42.820 130.185  23.292  1.00  0.00     0.009 A 
ATOM     17  C   UNL     1      44.435 127.960  22.793  1.00  0.00     0.012 A 
ATOM     18  C   UNL     1      42.366 128.905  23.619  1.00  0.00     0.012 A 
ATOM     19  C   UNL     1      43.162 127.773  23.363  1.00  0.00     0.017 A 
BRANCH  19  20
ATOM     20  C   UNL     1      42.652 126.416  23.694  1.00  0.00     0.159 C 
ATOM     21  O   UNL     1      41.580 126.291  24.346  1.00  0.00    -0.295 OA
ATOM     22  C   UNL     1      43.377 125.173  23.273  1.00  0.00     0.093 C 
ENDBRANCH  19  20
ENDBRANCH   8  14
ENDBRANCH   1   6
BRANCH   2  23
ATOM     23  C   UNL     1      45.476 130.413  17.672  1.00  0.00     0.262 C 
BRANCH  23  24
ATOM     24  C   UNL     1      44.838 131.704  17.162  1.00  0.00     0.205 C 
BRANCH  24  25
ATOM     25  O   UNL     1      44.882 131.721  15.750  1.00  0.00    -0.381 OA
ATOM     26  C   UNL     1      44.792 130.402  15.263  1.00  0.00     0.195 C 
ENDBRANCH  24  25
ENDBRANCH  23  24
ENDBRANCH   2  23
TORSDOF 7
ENDMDL
MODEL 5
REMARK VINA RESULT:      -2.6      4.508      7.238
REMARK SMILES COCCN/C(S)=[N+]1/CC[C@H](C)[C@@H](F)[C@@H]1c1ccc(C(C)=O)cc1
REMARK SMILES IDX 6 1 5 2 7 4 8 6 9 7 15 8 10 9 13 10 11 11 14 12 12 13 16 14
REMARK SMILES IDX 17 15 24 16 18 17 23 18 19 19 20 20 22 21 21 22 4 23 3 24
REMARK SMILES IDX 2 25 1 26
REMARK H PARENT 5 3 7 5
ROOT
ATOM      1  C   UNL     1      51.305 125.003  22.801  1.00  0.00     0.303 C 
ATOM      2  N   UNL     1      50.886 126.285  23.313  1.00  0.00    -0.267 N 
ATOM      3  H   UNL     1      50.079 126.786  22.880  1.00  0.00     0.305 HD
ENDROOT
BRANCH   1   4
ATOM      4  S   UNL     1      52.179 123.906  23.947  1.00  0.00    -0.056 SA
ATOM      5  H   UNL     1      53.024 123.430  22.926  1.00  0.00     0.116 HD
ENDBRANCH   1   4
BRANCH   1   6
ATOM      6  N   UNL     1      51.083 124.661  21.539  1.00  0.00    -0.247 N 
ATOM      7  C   UNL     1      51.880 125.223  20.424  1.00  0.00     0.238 C 
ATOM      8  C   UNL     1      49.967 123.745  21.176  1.00  0.00     0.241 C 
ATOM      9  C   UNL     1      52.394 124.109  19.503  1.00  0.00     0.052 C 
ATOM     10  C   UNL     1      49.925 123.438  19.661  1.00  0.00     0.219 C 
ATOM     11  C   UNL     1      51.325 123.038  19.161  1.00  0.00     0.029 C 
ATOM     12  F   UNL     1      49.031 122.404  19.428  1.00  0.00    -0.242 F 
ATOM     13  C   UNL     1      51.302 122.744  17.654  1.00  0.00     0.011 C 
BRANCH   8  14
ATOM     14  C   UNL     1      48.620 124.304  21.604  1.00  0.00    -0.001 A 
ATOM     15  C   UNL     1      48.531 125.329  22.560  1.00  0.00     0.009 A 
ATOM     16  C   UNL     1      47.443 123.822  21.012  1.00  0.00     0.009 A 
ATOM     17  C   UNL     1      47.286 125.833  22.947  1.00  0.00     0.012 A 
ATOM     18  C   UNL     1      46.198 124.331  21.391  1.00  0.00     0.012 A 
ATOM     19  C   UNL     1      46.102 125.335  22.373  1.00  0.00     0.017 A 
BRANCH  19  20
ATOM     20  C   UNL     1      44.767 125.847  22.783  1.00  0.00     0.159 C 
ATOM     21  O   UNL     1      44.406 127.004  22.435  1.00  0.00    -0.295 OA
ATOM     22  C   UNL     1      43.821 125.025  23.605  1.00  0.00     0.093 C 
ENDBRANCH  19  20
ENDBRANCH   8  14
ENDBRANCH   1   6
BRANCH   2  23
ATOM     23  C   UNL     1      51.564 126.921  24.445  1.00  0.00     0.262 C 
BRANCH  23  24
ATOM     24  C   UNL     1      51.908 128.378  24.139  1.00  0.00     0.205 C 
BRANCH  24  25
ATOM     25  O   UNL     1      53.281 128.477  23.822  1.00  0.00    -0.381 OA
ATOM     26  C   UNL     1      53.621 127.474  22.894  1.00  0.00     0.195 C 
ENDBRANCH  24  25
ENDBRANCH  23  24
ENDBRANCH   2  23
TORSDOF 7
ENDMDL
MODEL 6
REMARK VINA RESULT:      -2.2      7.392     10.222
REMARK SMILES COCCN/C(S)=[N+]1/CC[C@H](C)[C@@H](F)[C@@H]1c1ccc(C(C)=O)cc1
REMARK SMILES IDX 6 1 5 2 7 4 8 6 9 7 15 8 10 9 13 10 11 11 14 12 12 13 16 14
REMARK SMILES IDX 17 15 24 16 18 17 23 18 19 19 20 20 22 21 21 22 4 23 3 24
REMARK SMILES IDX 2 25 1 26
REMARK H PARENT 5 3 7 5
ROOT
ATOM      1  C   UNL     1      46.090 131.931  20.739  1.00  0.00     0.303 C 
ATOM      2  N   UNL     1      46.528 132.934  21.680  1.00  0.00    -0.267 N 
ATOM      3  H   UNL     1      45.873 133.294  22.408  1.00  0.00     0.305 HD
ENDROOT
BRANCH   1   4
ATOM      4  S   UNL     1      47.369 130.878  20.006  1.00  0.00    -0.056 SA
ATOM      5  H   UNL     1      46.757 129.708  20.495  1.00  0.00     0.116 HD
ENDBRANCH   1   4
BRANCH   1   6
ATOM      6  N   UNL     1      44.812 131.810  20.410  1.00  0.00    -0.247 N 
ATOM      7  C   UNL     1      43.848 131.084  21.268  1.00  0.00     0.238 C 
ATOM      8  C   UNL     1      44.297 132.342  19.117  1.00  0.00     0.241 C 
ATOM      9  C   UNL     1      42.588 131.926  21.511  1.00  0.00     0.052 C 
ATOM     10  C   UNL     1      42.772 132.143  18.963  1.00  0.00     0.219 C 
ATOM     11  C   UNL     1      42.043 132.617  20.233  1.00  0.00     0.029 C 
ATOM     12  F   UNL     1      42.324 132.866  17.868  1.00  0.00    -0.242 F 
ATOM     13  C   UNL     1      40.527 132.413  20.101  1.00  0.00     0.011 C 
BRANCH   8  14
ATOM     14  C   UNL     1      45.002 131.707  17.930  1.00  0.00    -0.001 A 
ATOM     15  C   UNL     1      45.258 130.327  17.891  1.00  0.00     0.009 A 
ATOM     16  C   UNL     1      45.370 132.498  16.831  1.00  0.00     0.009 A 
ATOM     17  C   UNL     1      45.909 129.756  16.794  1.00  0.00     0.012 A 
ATOM     18  C   UNL     1      46.012 131.928  15.729  1.00  0.00     0.012 A 
ATOM     19  C   UNL     1      46.301 130.551  15.700  1.00  0.00     0.017 A 
BRANCH  19  20
ATOM     20  C   UNL     1      47.009 129.964  14.531  1.00  0.00     0.159 C 
ATOM     21  O   UNL     1      47.282 128.733  14.517  1.00  0.00    -0.295 OA
ATOM     22  C   UNL     1      47.413 130.796  13.350  1.00  0.00     0.093 C 
ENDBRANCH  19  20
ENDBRANCH   8  14
ENDBRANCH   1   6
BRANCH   2  23
ATOM     23  C   UNL     1      47.889 133.474  21.650  1.00  0.00     0.262 C 
BRANCH  23  24
ATOM     24  C   UNL     1      47.887 134.996  21.786  1.00  0.00     0.205 C 
BRANCH  24  25
ATOM     25  O   UNL     1      49.189 135.488  21.552  1.00  0.00    -0.381 OA
ATOM     26  C   UNL     1      49.115 136.662  20.776  1.00  0.00     0.195 C 
ENDBRANCH  24  25
ENDBRANCH  23  24
ENDBRANCH   2  23
TORSDOF 7
ENDMDL
MODEL 7
REMARK VINA RESULT:      -2.1      2.916      5.607
REMARK SMILES COCCN/C(S)=[N+]1/CC[C@H](C)[C@@H](F)[C@@H]1c1ccc(C(C)=O)cc1
REMARK SMILES IDX 6 1 5 2 7 4 8 6 9 7 15 8 10 9 13 10 11 11 14 12 12 13 16 14
REMARK SMILES IDX 17 15 24 16 18 17 23 18 19 19 20 20 22 21 21 22 4 23 3 24
REMARK SMILES IDX 2 25 1 26
REMARK H PARENT 5 3 7 5
ROOT
ATOM      1  C   UNL     1      44.036 125.003  24.073  1.00  0.00     0.303 C 
ATOM      2  N   UNL     1      45.028 126.007  24.375  1.00  0.00    -0.267 N 
ATOM      3  H   UNL     1      44.738 126.937  24.749  1.00  0.00     0.305 HD
ENDROOT
BRANCH   1   4
ATOM      4  S   UNL     1      44.578 123.275  24.109  1.00  0.00    -0.056 SA
ATOM      5  H   UNL     1      45.805 123.620  24.707  1.00  0.00     0.116 HD
ENDBRANCH   1   4
BRANCH   1   6
ATOM      6  N   UNL     1      42.793 125.339  23.756  1.00  0.00    -0.247 N 
ATOM      7  C   UNL     1      41.900 124.421  23.012  1.00  0.00     0.238 C 
ATOM      8  C   UNL     1      42.258 126.692  24.074  1.00  0.00     0.241 C 
ATOM      9  C   UNL     1      40.539 124.298  23.710  1.00  0.00     0.052 C 
ATOM     10  C   UNL     1      40.775 126.850  23.668  1.00  0.00     0.219 C 
ATOM     11  C   UNL     1      39.953 125.655  24.182  1.00  0.00     0.029 C 
ATOM     12  F   UNL     1      40.276 128.027  24.204  1.00  0.00    -0.242 F 
ATOM     13  C   UNL     1      38.479 125.790  23.774  1.00  0.00     0.011 C 
BRANCH   8  14
ATOM     14  C   UNL     1      43.073 127.788  23.407  1.00  0.00    -0.001 A 
ATOM     15  C   UNL     1      43.094 129.093  23.924  1.00  0.00     0.009 A 
ATOM     16  C   UNL     1      43.853 127.491  22.278  1.00  0.00     0.009 A 
ATOM     17  C   UNL     1      43.846 130.092  23.299  1.00  0.00     0.012 A 
ATOM     18  C   UNL     1      44.612 128.486  21.659  1.00  0.00     0.012 A 
ATOM     19  C   UNL     1      44.610 129.803  22.153  1.00  0.00     0.017 A 
BRANCH  19  20
ATOM     20  C   UNL     1      45.404 130.857  21.466  1.00  0.00     0.159 C 
ATOM     21  O   UNL     1      45.647 131.944  22.056  1.00  0.00    -0.295 OA
ATOM     22  C   UNL     1      45.936 130.668  20.076  1.00  0.00     0.093 C 
ENDBRANCH  19  20
ENDBRANCH   8  14
ENDBRANCH   1   6
BRANCH   2  23
ATOM     23  C   UNL     1      46.458 125.760  24.173  1.00  0.00     0.262 C 
BRANCH  23  24
ATOM     24  C   UNL     1      46.954 126.397  22.876  1.00  0.00     0.205 C 
BRANCH  24  25
ATOM     25  O   UNL     1      47.780 125.478  22.191  1.00  0.00    -0.381 OA
ATOM     26  C   UNL     1      49.078 125.519  22.736  1.00  0.00     0.195 C 
ENDBRANCH  24  25
ENDBRANCH  23  24
ENDBRANCH   2  23
TORSDOF 7
ENDMDL
MODEL 8
REMARK VINA RESULT:      -1.9      7.339      9.997
REMARK SMILES COCCN/C(S)=[N+]1/CC[C@H](C)[C@@H](F)[C@@H]1c1ccc(C(C)=O)cc1
REMARK SMILES IDX 6 1 5 2 7 4 8 6 9 7 15 8 10 9 13 10 11 11 14 12 12 13 16 14
REMARK SMILES IDX 17 15 24 16 18 17 23 18 19 19 20 20 22 21 21 22 4 23 3 24
REMARK SMILES IDX 2 25 1 26
REMARK H PARENT 5 3 7 5
ROOT
ATOM      1  C   UNL     1      46.082 131.898  20.708  1.00  0.00     0.303 C 
ATOM      2  N   UNL     1      46.549 132.948  21.582  1.00  0.00    -0.267 N 
ATOM      3  H   UNL     1      45.903 133.376  22.281  1.00  0.00     0.305 HD
ENDROOT
BRANCH   1   4
ATOM      4  S   UNL     1      47.329 130.759  20.054  1.00  0.00    -0.056 SA
ATOM      5  H   UNL     1      48.384 131.587  20.482  1.00  0.00     0.116 HD
ENDBRANCH   1   4
BRANCH   1   6
ATOM      6  N   UNL     1      44.802 131.797  20.380  1.00  0.00    -0.247 N 
ATOM      7  C   UNL     1      43.830 131.078  21.236  1.00  0.00     0.238 C 
ATOM      8  C   UNL     1      44.293 132.343  19.091  1.00  0.00     0.241 C 
ATOM      9  C   UNL     1      42.582 131.936  21.485  1.00  0.00     0.052 C 
ATOM     10  C   UNL     1      42.765 132.166  18.939  1.00  0.00     0.219 C 
ATOM     11  C   UNL     1      42.044 132.642  20.213  1.00  0.00     0.029 C 
ATOM     12  F   UNL     1      42.325 132.901  17.849  1.00  0.00    -0.242 F 
ATOM     13  C   UNL     1      40.525 132.458  20.081  1.00  0.00     0.011 C 
BRANCH   8  14
ATOM     14  C   UNL     1      44.987 131.706  17.899  1.00  0.00    -0.001 A 
ATOM     15  C   UNL     1      45.226 130.323  17.853  1.00  0.00     0.009 A 
ATOM     16  C   UNL     1      45.362 132.498  16.803  1.00  0.00     0.009 A 
ATOM     17  C   UNL     1      45.868 129.750  16.751  1.00  0.00     0.012 A 
ATOM     18  C   UNL     1      45.995 131.926  15.697  1.00  0.00     0.012 A 
ATOM     19  C   UNL     1      46.267 130.546  15.661  1.00  0.00     0.017 A 
BRANCH  19  20
ATOM     20  C   UNL     1      46.965 129.957  14.486  1.00  0.00     0.159 C 
ATOM     21  O   UNL     1      47.268 128.733  14.487  1.00  0.00    -0.295 OA
ATOM     22  C   UNL     1      47.324 130.778  13.284  1.00  0.00     0.093 C 
ENDBRANCH  19  20
ENDBRANCH   8  14
ENDBRANCH   1   6
BRANCH   2  23
ATOM     23  C   UNL     1      47.927 133.441  21.524  1.00  0.00     0.262 C 
BRANCH  23  24
ATOM     24  C   UNL     1      48.125 134.646  22.442  1.00  0.00     0.205 C 
BRANCH  24  25
ATOM     25  O   UNL     1      48.298 134.199  23.771  1.00  0.00    -0.381 OA
ATOM     26  C   UNL     1      49.662 133.931  24.001  1.00  0.00     0.195 C 
ENDBRANCH  24  25
ENDBRANCH  23  24
ENDBRANCH   2  23
TORSDOF 7
ENDMDL
MODEL 9
REMARK VINA RESULT:      -1.9      6.408      8.981
REMARK SMILES COCCN/C(S)=[N+]1/CC[C@H](C)[C@@H](F)[C@@H]1c1ccc(C(C)=O)cc1
REMARK SMILES IDX 6 1 5 2 7 4 8 6 9 7 15 8 10 9 13 10 11 11 14 12 12 13 16 14
REMARK SMILES IDX 17 15 24 16 18 17 23 18 19 19 20 20 22 21 21 22 4 23 3 24
REMARK SMILES IDX 2 25 1 26
REMARK H PARENT 5 3 7 5
ROOT
ATOM      1  C   UNL     1      45.706 132.629  22.910  1.00  0.00     0.303 C 
ATOM      2  N   UNL     1      46.536 132.882  21.757  1.00  0.00    -0.267 N 
ATOM      3  H   UNL     1      46.233 132.563  20.811  1.00  0.00     0.305 HD
ENDROOT
BRANCH   1   4
ATOM      4  S   UNL     1      45.898 133.748  24.321  1.00  0.00    -0.056 SA
ATOM      5  H   UNL     1      45.333 132.810  25.206  1.00  0.00     0.116 HD
ENDBRANCH   1   4
BRANCH   1   6
ATOM      6  N   UNL     1      44.865 131.605  22.939  1.00  0.00    -0.247 N 
ATOM      7  C   UNL     1      44.997 130.512  23.930  1.00  0.00     0.238 C 
ATOM      8  C   UNL     1      43.784 131.469  21.924  1.00  0.00     0.241 C 
ATOM      9  C   UNL     1      43.656 130.238  24.625  1.00  0.00     0.052 C 
ATOM     10  C   UNL     1      42.888 130.236  22.179  1.00  0.00     0.219 C 
ATOM     11  C   UNL     1      42.448 130.194  23.653  1.00  0.00     0.029 C 
ATOM     12  F   UNL     1      41.772 130.302  21.359  1.00  0.00    -0.242 F 
ATOM     13  C   UNL     1      41.568 128.965  23.925  1.00  0.00     0.011 C 
BRANCH   8  14
ATOM     14  C   UNL     1      44.345 131.391  20.514  1.00  0.00    -0.001 A 
ATOM     15  C   UNL     1      43.907 132.268  19.509  1.00  0.00     0.009 A 
ATOM     16  C   UNL     1      45.347 130.456  20.212  1.00  0.00     0.009 A 
ATOM     17  C   UNL     1      44.429 132.183  18.216  1.00  0.00     0.012 A 
ATOM     18  C   UNL     1      45.878 130.376  18.922  1.00  0.00     0.012 A 
ATOM     19  C   UNL     1      45.418 131.231  17.903  1.00  0.00     0.017 A 
BRANCH  19  20
ATOM     20  C   UNL     1      45.975 131.115  16.528  1.00  0.00     0.159 C 
ATOM     21  O   UNL     1      45.939 132.108  15.752  1.00  0.00    -0.295 OA
ATOM     22  C   UNL     1      46.589 129.842  16.027  1.00  0.00     0.093 C 
ENDBRANCH  19  20
ENDBRANCH   8  14
ENDBRANCH   1   6
BRANCH   2  23
ATOM     23  C   UNL     1      47.815 133.589  21.869  1.00  0.00     0.262 C 
BRANCH  23  24
ATOM     24  C   UNL     1      47.613 135.103  21.879  1.00  0.00     0.205 C 
BRANCH  24  25
ATOM     25  O   UNL     1      48.317 135.676  20.798  1.00  0.00    -0.381 OA
ATOM     26  C   UNL     1      49.566 136.148  21.249  1.00  0.00     0.195 C 
ENDBRANCH  24  25
ENDBRANCH  23  24
ENDBRANCH   2  23
TORSDOF 7
ENDMDL


