MODEL 1
REMARK VINA RESULT:      -9.2      0.000      0.000
REMARK SMILES NNc1cc(F)c(F)cc1[NH2+]c1ccc(F)cc1
REMARK SMILES IDX 3 1 4 2 5 3 6 4 7 5 8 6 9 7 10 8 2 9 1 11 11 14 12 17 13 18
REMARK SMILES IDX 18 19 14 20 17 21 15 22 16 23
REMARK H PARENT 2 10 1 12 1 13 11 15 11 16
ROOT
ATOM      1  C   UNL     1      42.921 131.740  19.188  1.00  0.00     0.114 A 
ATOM      2  C   UNL     1      43.185 131.569  20.561  1.00  0.00     0.075 A 
ATOM      3  C   UNL     1      44.478 131.300  21.014  1.00  0.00     0.161 A 
ATOM      4  F   UNL     1      44.709 131.135  22.340  1.00  0.00    -0.204 F 
ATOM      5  C   UNL     1      45.529 131.203  20.105  1.00  0.00     0.164 A 
ATOM      6  F   UNL     1      46.786 130.945  20.545  1.00  0.00    -0.204 F 
ATOM      7  C   UNL     1      45.293 131.374  18.741  1.00  0.00     0.112 A 
ATOM      8  C   UNL     1      43.996 131.645  18.259  1.00  0.00     0.162 A 
ENDROOT
BRANCH   1   9
ATOM      9  N   UNL     1      41.575 132.003  18.754  1.00  0.00    -0.319 N 
ATOM     10  H   UNL     1      40.771 131.464  19.142  1.00  0.00     0.181 HD
BRANCH   9  11
ATOM     11  N   UNL     1      41.296 133.028  17.837  1.00  0.00    -0.250 NA
ATOM     12  H   UNL     1      41.108 133.894  18.391  1.00  0.00     0.143 HD
ATOM     13  H   UNL     1      40.405 132.773  17.353  1.00  0.00     0.143 HD
ENDBRANCH   9  11
ENDBRANCH   1   9
BRANCH   8  14
ATOM     14  N   UNL     1      43.807 131.871  16.841  1.00  0.00    -0.280 N 
ATOM     15  H   UNL     1      42.877 131.504  16.530  1.00  0.00     0.358 HD
ATOM     16  H   UNL     1      43.783 132.898  16.645  1.00  0.00     0.358 HD
BRANCH  14  17
ATOM     17  C   UNL     1      44.831 131.200  16.075  1.00  0.00     0.134 A 
ATOM     18  C   UNL     1      44.855 129.794  15.994  1.00  0.00     0.071 A 
ATOM     19  C   UNL     1      45.791 131.939  15.357  1.00  0.00     0.071 A 
ATOM     20  C   UNL     1      45.839 129.144  15.243  1.00  0.00     0.045 A 
ATOM     21  C   UNL     1      46.772 131.284  14.608  1.00  0.00     0.045 A 
ATOM     22  C   UNL     1      46.799 129.888  14.554  1.00  0.00     0.123 A 
ATOM     23  F   UNL     1      47.751 129.255  13.824  1.00  0.00    -0.207 F 
ENDBRANCH  14  17
ENDBRANCH   8  14
TORSDOF 4
ENDMDL
MODEL 2
REMARK VINA RESULT:      -9.1      0.032      1.142
REMARK SMILES NNc1cc(F)c(F)cc1[NH2+]c1ccc(F)cc1
REMARK SMILES IDX 3 1 4 2 5 3 6 4 7 5 8 6 9 7 10 8 2 9 1 11 11 14 12 17 13 18
REMARK SMILES IDX 18 19 14 20 17 21 15 22 16 23
REMARK H PARENT 2 10 1 12 1 13 11 15 11 16
ROOT
ATOM      1  C   UNL     1      42.940 131.734  19.176  1.00  0.00     0.114 A 
ATOM      2  C   UNL     1      43.210 131.551  20.546  1.00  0.00     0.075 A 
ATOM      3  C   UNL     1      44.503 131.274  20.990  1.00  0.00     0.161 A 
ATOM      4  F   UNL     1      44.740 131.097  22.314  1.00  0.00    -0.204 F 
ATOM      5  C   UNL     1      45.550 131.178  20.076  1.00  0.00     0.164 A 
ATOM      6  F   UNL     1      46.807 130.912  20.507  1.00  0.00    -0.204 F 
ATOM      7  C   UNL     1      45.307 131.361  18.714  1.00  0.00     0.112 A 
ATOM      8  C   UNL     1      44.009 131.641  18.240  1.00  0.00     0.162 A 
ENDROOT
BRANCH   1   9
ATOM      9  N   UNL     1      41.592 132.006  18.751  1.00  0.00    -0.319 N 
ATOM     10  H   UNL     1      40.788 131.468  19.139  1.00  0.00     0.181 HD
BRANCH   9  11
ATOM     11  N   UNL     1      41.313 133.038  17.842  1.00  0.00    -0.250 NA
ATOM     12  H   UNL     1      40.778 132.615  17.051  1.00  0.00     0.143 HD
ATOM     13  H   UNL     1      42.228 133.363  17.455  1.00  0.00     0.143 HD
ENDBRANCH   9  11
ENDBRANCH   1   9
BRANCH   8  14
ATOM     14  N   UNL     1      43.814 131.880  16.826  1.00  0.00    -0.280 N 
ATOM     15  H   UNL     1      42.877 131.529  16.519  1.00  0.00     0.358 HD
ATOM     16  H   UNL     1      43.805 132.908  16.636  1.00  0.00     0.358 HD
BRANCH  14  17
ATOM     17  C   UNL     1      44.822 131.197  16.048  1.00  0.00     0.134 A 
ATOM     18  C   UNL     1      45.815 131.930  15.367  1.00  0.00     0.071 A 
ATOM     19  C   UNL     1      44.859 129.791  15.996  1.00  0.00     0.071 A 
ATOM     20  C   UNL     1      46.798 131.270  14.624  1.00  0.00     0.045 A 
ATOM     21  C   UNL     1      45.844 129.136  15.251  1.00  0.00     0.045 A 
ATOM     22  C   UNL     1      46.810 129.874  14.562  1.00  0.00     0.123 A 
ATOM     23  F   UNL     1      47.766 129.236  13.842  1.00  0.00    -0.207 F 
ENDBRANCH  14  17
ENDBRANCH   8  14
TORSDOF 4
ENDMDL
MODEL 3
REMARK VINA RESULT:      -8.1      2.708      3.324
REMARK SMILES NNc1cc(F)c(F)cc1[NH2+]c1ccc(F)cc1
REMARK SMILES IDX 3 1 4 2 5 3 6 4 7 5 8 6 9 7 10 8 2 9 1 11 11 14 12 17 13 18
REMARK SMILES IDX 18 19 14 20 17 21 15 22 16 23
REMARK H PARENT 2 10 1 12 1 13 11 15 11 16
ROOT
ATOM      1  C   UNL     1      44.284 131.421  20.534  1.00  0.00     0.114 A 
ATOM      2  C   UNL     1      43.109 132.075  20.953  1.00  0.00     0.075 A 
ATOM      3  C   UNL     1      42.176 132.536  20.024  1.00  0.00     0.161 A 
ATOM      4  F   UNL     1      41.054 133.167  20.449  1.00  0.00    -0.204 F 
ATOM      5  C   UNL     1      42.397 132.347  18.660  1.00  0.00     0.164 A 
ATOM      6  F   UNL     1      41.488 132.792  17.757  1.00  0.00    -0.204 F 
ATOM      7  C   UNL     1      43.550 131.697  18.222  1.00  0.00     0.112 A 
ATOM      8  C   UNL     1      44.509 131.224  19.142  1.00  0.00     0.162 A 
ENDROOT
BRANCH   1   9
ATOM      9  N   UNL     1      45.232 130.970  21.518  1.00  0.00    -0.319 N 
ATOM     10  H   UNL     1      46.244 130.877  21.285  1.00  0.00     0.181 HD
BRANCH   9  11
ATOM     11  N   UNL     1      44.834 130.692  22.834  1.00  0.00    -0.250 NA
ATOM     12  H   UNL     1      45.677 130.804  23.441  1.00  0.00     0.143 HD
ATOM     13  H   UNL     1      44.564 129.682  22.867  1.00  0.00     0.143 HD
ENDBRANCH   9  11
ENDBRANCH   1   9
BRANCH   8  14
ATOM     14  N   UNL     1      45.663 130.504  18.644  1.00  0.00    -0.280 N 
ATOM     15  H   UNL     1      46.543 130.889  19.060  1.00  0.00     0.358 HD
ATOM     16  H   UNL     1      45.619 129.506  18.952  1.00  0.00     0.358 HD
BRANCH  14  17
ATOM     17  C   UNL     1      45.760 130.622  17.208  1.00  0.00     0.134 A 
ATOM     18  C   UNL     1      45.835 131.890  16.599  1.00  0.00     0.071 A 
ATOM     19  C   UNL     1      45.828 129.473  16.396  1.00  0.00     0.071 A 
ATOM     20  C   UNL     1      45.940 132.005  15.210  1.00  0.00     0.045 A 
ATOM     21  C   UNL     1      45.933 129.594  15.008  1.00  0.00     0.045 A 
ATOM     22  C   UNL     1      45.985 130.858  14.415  1.00  0.00     0.123 A 
ATOM     23  F   UNL     1      46.089 130.971  13.067  1.00  0.00    -0.207 F 
ENDBRANCH  14  17
ENDBRANCH   8  14
TORSDOF 4
ENDMDL
MODEL 4
REMARK VINA RESULT:      -8.1      2.707      3.146
REMARK SMILES NNc1cc(F)c(F)cc1[NH2+]c1ccc(F)cc1
REMARK SMILES IDX 3 1 4 2 5 3 6 4 7 5 8 6 9 7 10 8 2 9 1 11 11 14 12 17 13 18
REMARK SMILES IDX 18 19 14 20 17 21 15 22 16 23
REMARK H PARENT 2 10 1 12 1 13 11 15 11 16
ROOT
ATOM      1  C   UNL     1      44.284 131.434  20.464  1.00  0.00     0.114 A 
ATOM      2  C   UNL     1      43.098 132.077  20.868  1.00  0.00     0.075 A 
ATOM      3  C   UNL     1      42.168 132.521  19.928  1.00  0.00     0.161 A 
ATOM      4  F   UNL     1      41.034 133.142  20.339  1.00  0.00    -0.204 F 
ATOM      5  C   UNL     1      42.403 132.327  18.568  1.00  0.00     0.164 A 
ATOM      6  F   UNL     1      41.498 132.756  17.654  1.00  0.00    -0.204 F 
ATOM      7  C   UNL     1      43.568 131.688  18.145  1.00  0.00     0.112 A 
ATOM      8  C   UNL     1      44.524 131.231  19.076  1.00  0.00     0.162 A 
ENDROOT
BRANCH   1   9
ATOM      9  N   UNL     1      45.227 131.000  21.460  1.00  0.00    -0.319 N 
ATOM     10  H   UNL     1      46.235 130.874  21.225  1.00  0.00     0.181 HD
BRANCH   9  11
ATOM     11  N   UNL     1      44.832 130.783  22.789  1.00  0.00    -0.250 NA
ATOM     12  H   UNL     1      45.335 129.931  23.125  1.00  0.00     0.143 HD
ATOM     13  H   UNL     1      43.813 130.551  22.773  1.00  0.00     0.143 HD
ENDBRANCH   9  11
ENDBRANCH   1   9
BRANCH   8  14
ATOM     14  N   UNL     1      45.691 130.522  18.594  1.00  0.00    -0.280 N 
ATOM     15  H   UNL     1      46.562 130.917  19.017  1.00  0.00     0.358 HD
ATOM     16  H   UNL     1      45.654 129.525  18.904  1.00  0.00     0.358 HD
BRANCH  14  17
ATOM     17  C   UNL     1      45.801 130.636  17.158  1.00  0.00     0.134 A 
ATOM     18  C   UNL     1      45.860 129.480  16.353  1.00  0.00     0.071 A 
ATOM     19  C   UNL     1      45.805 131.899  16.535  1.00  0.00     0.071 A 
ATOM     20  C   UNL     1      45.955 129.589  14.963  1.00  0.00     0.045 A 
ATOM     21  C   UNL     1      45.901 132.001  15.145  1.00  0.00     0.045 A 
ATOM     22  C   UNL     1      45.980 130.849  14.359  1.00  0.00     0.123 A 
ATOM     23  F   UNL     1      46.071 130.952  13.010  1.00  0.00    -0.207 F 
ENDBRANCH  14  17
ENDBRANCH   8  14
TORSDOF 4
ENDMDL
MODEL 5
REMARK VINA RESULT:      -7.4      2.836      3.532
REMARK SMILES NNc1cc(F)c(F)cc1[NH2+]c1ccc(F)cc1
REMARK SMILES IDX 3 1 4 2 5 3 6 4 7 5 8 6 9 7 10 8 2 9 1 11 11 14 12 17 13 18
REMARK SMILES IDX 18 19 14 20 17 21 15 22 16 23
REMARK H PARENT 2 10 1 12 1 13 11 15 11 16
ROOT
ATOM      1  C   UNL     1      45.215 130.911  19.041  1.00  0.00     0.114 A 
ATOM      2  C   UNL     1      44.057 131.601  19.447  1.00  0.00     0.075 A 
ATOM      3  C   UNL     1      43.104 132.012  18.515  1.00  0.00     0.161 A 
ATOM      4  F   UNL     1      41.998 132.679  18.928  1.00  0.00    -0.204 F 
ATOM      5  C   UNL     1      43.288 131.738  17.161  1.00  0.00     0.164 A 
ATOM      6  F   UNL     1      42.360 132.135  16.255  1.00  0.00    -0.204 F 
ATOM      7  C   UNL     1      44.425 131.051  16.736  1.00  0.00     0.112 A 
ATOM      8  C   UNL     1      45.403 130.627  17.658  1.00  0.00     0.162 A 
ENDROOT
BRANCH   1   9
ATOM      9  N   UNL     1      46.184 130.513  20.027  1.00  0.00    -0.319 N 
ATOM     10  H   UNL     1      47.197 130.722  19.898  1.00  0.00     0.181 HD
BRANCH   9  11
ATOM     11  N   UNL     1      45.791 129.879  21.215  1.00  0.00    -0.250 NA
ATOM     12  H   UNL     1      45.997 130.540  21.999  1.00  0.00     0.143 HD
ATOM     13  H   UNL     1      46.413 129.049  21.342  1.00  0.00     0.143 HD
ENDBRANCH   9  11
ENDBRANCH   1   9
BRANCH   8  14
ATOM     14  N   UNL     1      46.539 129.867  17.178  1.00  0.00    -0.280 N 
ATOM     15  H   UNL     1      47.390 130.078  17.749  1.00  0.00     0.358 HD
ATOM     16  H   UNL     1      46.362 128.845  17.304  1.00  0.00     0.358 HD
BRANCH  14  17
ATOM     17  C   UNL     1      46.830 130.198  15.802  1.00  0.00     0.134 A 
ATOM     18  C   UNL     1      46.526 131.477  15.296  1.00  0.00     0.071 A 
ATOM     19  C   UNL     1      47.465 129.266  14.959  1.00  0.00     0.071 A 
ATOM     20  C   UNL     1      46.819 131.801  13.968  1.00  0.00     0.045 A 
ATOM     21  C   UNL     1      47.755 129.595  13.632  1.00  0.00     0.045 A 
ATOM     22  C   UNL     1      47.429 130.860  13.135  1.00  0.00     0.123 A 
ATOM     23  F   UNL     1      47.714 131.178  11.848  1.00  0.00    -0.207 F 
ENDBRANCH  14  17
ENDBRANCH   8  14
TORSDOF 4
ENDMDL
MODEL 6
REMARK VINA RESULT:      -7.3      2.820      3.382
REMARK SMILES NNc1cc(F)c(F)cc1[NH2+]c1ccc(F)cc1
REMARK SMILES IDX 3 1 4 2 5 3 6 4 7 5 8 6 9 7 10 8 2 9 1 11 11 14 12 17 13 18
REMARK SMILES IDX 18 19 14 20 17 21 15 22 16 23
REMARK H PARENT 2 10 1 12 1 13 11 15 11 16
ROOT
ATOM      1  C   UNL     1      45.218 130.926  19.159  1.00  0.00     0.114 A 
ATOM      2  C   UNL     1      44.077 131.632  19.587  1.00  0.00     0.075 A 
ATOM      3  C   UNL     1      43.107 132.045  18.674  1.00  0.00     0.161 A 
ATOM      4  F   UNL     1      42.018 132.728  19.107  1.00  0.00    -0.204 F 
ATOM      5  C   UNL     1      43.255 131.757  17.318  1.00  0.00     0.164 A 
ATOM      6  F   UNL     1      42.310 132.157  16.431  1.00  0.00    -0.204 F 
ATOM      7  C   UNL     1      44.374 131.055  16.872  1.00  0.00     0.112 A 
ATOM      8  C   UNL     1      45.370 130.627  17.774  1.00  0.00     0.162 A 
ENDROOT
BRANCH   1   9
ATOM      9  N   UNL     1      46.207 130.526  20.125  1.00  0.00    -0.319 N 
ATOM     10  H   UNL     1      47.150 130.969  20.142  1.00  0.00     0.181 HD
BRANCH   9  11
ATOM     11  N   UNL     1      45.914 129.566  21.106  1.00  0.00    -0.250 NA
ATOM     12  H   UNL     1      46.380 128.677  20.816  1.00  0.00     0.143 HD
ATOM     13  H   UNL     1      44.883 129.398  21.074  1.00  0.00     0.143 HD
ENDBRANCH   9  11
ENDBRANCH   1   9
BRANCH   8  14
ATOM     14  N   UNL     1      46.485 129.852  17.274  1.00  0.00    -0.280 N 
ATOM     15  H   UNL     1      47.342 130.025  17.850  1.00  0.00     0.358 HD
ATOM     16  H   UNL     1      46.282 128.831  17.373  1.00  0.00     0.358 HD
BRANCH  14  17
ATOM     17  C   UNL     1      46.786 130.211  15.908  1.00  0.00     0.134 A 
ATOM     18  C   UNL     1      47.363 129.269  15.033  1.00  0.00     0.071 A 
ATOM     19  C   UNL     1      46.465 131.490  15.413  1.00  0.00     0.071 A 
ATOM     20  C   UNL     1      47.643 129.612  13.707  1.00  0.00     0.045 A 
ATOM     21  C   UNL     1      46.748 131.827  14.087  1.00  0.00     0.045 A 
ATOM     22  C   UNL     1      47.340 130.891  13.235  1.00  0.00     0.123 A 
ATOM     23  F   UNL     1      47.611 131.221  11.948  1.00  0.00    -0.207 F 
ENDBRANCH  14  17
ENDBRANCH   8  14
TORSDOF 4
ENDMDL
MODEL 7
REMARK VINA RESULT:      -6.8      3.120      6.169
REMARK SMILES NNc1cc(F)c(F)cc1[NH2+]c1ccc(F)cc1
REMARK SMILES IDX 3 1 4 2 5 3 6 4 7 5 8 6 9 7 10 8 2 9 1 11 11 14 12 17 13 18
REMARK SMILES IDX 18 19 14 20 17 21 15 22 16 23
REMARK H PARENT 2 10 1 12 1 13 11 15 11 16
ROOT
ATOM      1  C   UNL     1      43.187 131.922  20.170  1.00  0.00     0.114 A 
ATOM      2  C   UNL     1      43.004 131.937  18.773  1.00  0.00     0.075 A 
ATOM      3  C   UNL     1      44.009 131.488  17.915  1.00  0.00     0.161 A 
ATOM      4  F   UNL     1      43.814 131.516  16.573  1.00  0.00    -0.204 F 
ATOM      5  C   UNL     1      45.211 131.012  18.436  1.00  0.00     0.164 A 
ATOM      6  F   UNL     1      46.186 130.573  17.602  1.00  0.00    -0.204 F 
ATOM      7  C   UNL     1      45.412 130.983  19.816  1.00  0.00     0.112 A 
ATOM      8  C   UNL     1      44.413 131.432  20.704  1.00  0.00     0.162 A 
ENDROOT
BRANCH   1   9
ATOM      9  N   UNL     1      42.135 132.403  21.026  1.00  0.00    -0.319 N 
ATOM     10  H   UNL     1      42.065 132.089  22.017  1.00  0.00     0.181 HD
BRANCH   9  11
ATOM     11  N   UNL     1      41.205 133.350  20.570  1.00  0.00    -0.250 NA
ATOM     12  H   UNL     1      41.498 133.630  19.606  1.00  0.00     0.143 HD
ATOM     13  H   UNL     1      41.303 134.195  21.178  1.00  0.00     0.143 HD
ENDBRANCH   9  11
ENDBRANCH   1   9
BRANCH   8  14
ATOM     14  N   UNL     1      44.643 131.329  22.129  1.00  0.00    -0.280 N 
ATOM     15  H   UNL     1      45.666 131.378  22.341  1.00  0.00     0.358 HD
ATOM     16  H   UNL     1      44.215 132.148  22.619  1.00  0.00     0.358 HD
BRANCH  14  17
ATOM     17  C   UNL     1      44.141 130.075  22.640  1.00  0.00     0.134 A 
ATOM     18  C   UNL     1      42.867 130.007  23.240  1.00  0.00     0.071 A 
ATOM     19  C   UNL     1      44.892 128.892  22.505  1.00  0.00     0.071 A 
ATOM     20  C   UNL     1      42.376 128.791  23.724  1.00  0.00     0.045 A 
ATOM     21  C   UNL     1      44.396 127.679  22.991  1.00  0.00     0.045 A 
ATOM     22  C   UNL     1      43.141 127.629  23.603  1.00  0.00     0.123 A 
ATOM     23  F   UNL     1      42.661 126.450  24.072  1.00  0.00    -0.207 F 
ENDBRANCH  14  17
ENDBRANCH   8  14
TORSDOF 4
ENDMDL
MODEL 8
REMARK VINA RESULT:      -6.8      1.979      2.616
REMARK SMILES NNc1cc(F)c(F)cc1[NH2+]c1ccc(F)cc1
REMARK SMILES IDX 3 1 4 2 5 3 6 4 7 5 8 6 9 7 10 8 2 9 1 11 11 14 12 17 13 18
REMARK SMILES IDX 18 19 14 20 17 21 15 22 16 23
REMARK H PARENT 2 10 1 12 1 13 11 15 11 16
ROOT
ATOM      1  C   UNL     1      43.129 131.725  20.863  1.00  0.00     0.114 A 
ATOM      2  C   UNL     1      42.513 131.027  21.921  1.00  0.00     0.075 A 
ATOM      3  C   UNL     1      43.202 130.037  22.622  1.00  0.00     0.161 A 
ATOM      4  F   UNL     1      42.589 129.374  23.634  1.00  0.00    -0.204 F 
ATOM      5  C   UNL     1      44.518 129.729  22.283  1.00  0.00     0.164 A 
ATOM      6  F   UNL     1      45.189 128.768  22.966  1.00  0.00    -0.204 F 
ATOM      7  C   UNL     1      45.150 130.411  21.243  1.00  0.00     0.112 A 
ATOM      8  C   UNL     1      44.475 131.415  20.519  1.00  0.00     0.162 A 
ENDROOT
BRANCH   1   9
ATOM      9  N   UNL     1      42.386 132.732  20.153  1.00  0.00    -0.319 N 
ATOM     10  H   UNL     1      42.674 133.037  19.199  1.00  0.00     0.181 HD
BRANCH   9  11
ATOM     11  N   UNL     1      41.221 133.294  20.698  1.00  0.00    -0.250 NA
ATOM     12  H   UNL     1      41.340 134.332  20.674  1.00  0.00     0.143 HD
ATOM     13  H   UNL     1      41.185 133.011  21.704  1.00  0.00     0.143 HD
ENDBRANCH   9  11
ENDBRANCH   1   9
BRANCH   8  14
ATOM     14  N   UNL     1      45.189 132.135  19.485  1.00  0.00    -0.280 N 
ATOM     15  H   UNL     1      44.781 133.090  19.354  1.00  0.00     0.358 HD
ATOM     16  H   UNL     1      46.180 132.290  19.779  1.00  0.00     0.358 HD
BRANCH  14  17
ATOM     17  C   UNL     1      45.105 131.437  18.224  1.00  0.00     0.134 A 
ATOM     18  C   UNL     1      44.135 131.803  17.268  1.00  0.00     0.071 A 
ATOM     19  C   UNL     1      46.018 130.413  17.907  1.00  0.00     0.071 A 
ATOM     20  C   UNL     1      44.061 131.135  16.042  1.00  0.00     0.045 A 
ATOM     21  C   UNL     1      45.939 129.749  16.680  1.00  0.00     0.045 A 
ATOM     22  C   UNL     1      44.959 130.106  15.750  1.00  0.00     0.123 A 
ATOM     23  F   UNL     1      44.886 129.462  14.559  1.00  0.00    -0.207 F 
ENDBRANCH  14  17
ENDBRANCH   8  14
TORSDOF 4
ENDMDL
MODEL 9
REMARK VINA RESULT:      -6.8      2.252      5.751
REMARK SMILES NNc1cc(F)c(F)cc1[NH2+]c1ccc(F)cc1
REMARK SMILES IDX 3 1 4 2 5 3 6 4 7 5 8 6 9 7 10 8 2 9 1 11 11 14 12 17 13 18
REMARK SMILES IDX 18 19 14 20 17 21 15 22 16 23
REMARK H PARENT 2 10 1 12 1 13 11 15 11 16
ROOT
ATOM      1  C   UNL     1      43.672 131.791  18.362  1.00  0.00     0.114 A 
ATOM      2  C   UNL     1      43.568 131.315  17.041  1.00  0.00     0.075 A 
ATOM      3  C   UNL     1      44.628 130.637  16.438  1.00  0.00     0.161 A 
ATOM      4  F   UNL     1      44.508 130.191  15.163  1.00  0.00    -0.204 F 
ATOM      5  C   UNL     1      45.809 130.418  17.146  1.00  0.00     0.164 A 
ATOM      6  F   UNL     1      46.838 129.756  16.562  1.00  0.00    -0.204 F 
ATOM      7  C   UNL     1      45.932 130.875  18.457  1.00  0.00     0.112 A 
ATOM      8  C   UNL     1      44.876 131.564  19.088  1.00  0.00     0.162 A 
ENDROOT
BRANCH   1   9
ATOM      9  N   UNL     1      42.564 132.498  18.949  1.00  0.00    -0.319 N 
ATOM     10  H   UNL     1      42.541 132.706  19.970  1.00  0.00     0.181 HD
BRANCH   9  11
ATOM     11  N   UNL     1      41.509 132.976  18.158  1.00  0.00    -0.250 NA
ATOM     12  H   UNL     1      41.933 133.413  17.308  1.00  0.00     0.143 HD
ATOM     13  H   UNL     1      41.043 133.742  18.696  1.00  0.00     0.143 HD
ENDBRANCH   9  11
ENDBRANCH   1   9
BRANCH   8  14
ATOM     14  N   UNL     1      45.028 131.971  20.469  1.00  0.00    -0.280 N 
ATOM     15  H   UNL     1      46.039 132.110  20.703  1.00  0.00     0.358 HD
ATOM     16  H   UNL     1      44.574 132.901  20.618  1.00  0.00     0.358 HD
BRANCH  14  17
ATOM     17  C   UNL     1      44.498 130.965  21.360  1.00  0.00     0.134 A 
ATOM     18  C   UNL     1      45.203 129.764  21.580  1.00  0.00     0.071 A 
ATOM     19  C   UNL     1      43.295 131.185  22.058  1.00  0.00     0.071 A 
ATOM     20  C   UNL     1      44.696 128.795  22.451  1.00  0.00     0.045 A 
ATOM     21  C   UNL     1      42.794 130.212  22.927  1.00  0.00     0.045 A 
ATOM     22  C   UNL     1      43.491 129.017  23.121  1.00  0.00     0.123 A 
ATOM     23  F   UNL     1      43.003 128.076  23.967  1.00  0.00    -0.207 F 
ENDBRANCH  14  17
ENDBRANCH   8  14
TORSDOF 4
ENDMDL


