REMARK SMILES c1cc2c(c([NH2+]c3ccc4[nH]ccc4c3)c1)CCC2
REMARK SMILES IDX 7 1 8 2 9 3 10 4 11 5 12 6 13 7 14 8 15 9 6 11 5 14 1 15
REMARK SMILES IDX 2 16 16 17 3 18 4 19 19 20 17 21 18 22
REMARK H PARENT 11 10 6 12 6 13
ROOT
ATOM      1  C   UNL     1       0.471   0.835  -1.065  1.00  0.00     0.135 A 
ATOM      2  C   UNL     1       0.796  -0.070  -2.113  1.00  0.00     0.070 A 
ATOM      3  C   UNL     1      -0.021  -0.175  -3.253  1.00  0.00     0.033 A 
ATOM      4  C   UNL     1      -1.154   0.632  -3.320  1.00  0.00     0.046 A 
ATOM      5  N   UNL     1      -2.061   0.686  -4.309  1.00  0.00    -0.361 N 
ATOM      6  C   UNL     1      -2.972   1.609  -3.923  1.00  0.00     0.083 A 
ATOM      7  C   UNL     1      -2.640   2.142  -2.682  1.00  0.00     0.028 A 
ATOM      8  C   UNL     1      -1.476   1.504  -2.316  1.00  0.00     0.005 A 
ATOM      9  C   UNL     1      -0.691   1.635  -1.173  1.00  0.00     0.078 A 
ATOM     10  H   UNL     1      -2.065   0.132  -5.194  1.00  0.00     0.166 HD
ENDROOT
BRANCH   1  11
ATOM     11  N   UNL     1       1.302   0.915   0.112  1.00  0.00    -0.281 N 
ATOM     12  H   UNL     1       1.404   1.916   0.394  1.00  0.00     0.358 HD
ATOM     13  H   UNL     1       2.265   0.563  -0.098  1.00  0.00     0.358 HD
BRANCH  11  14
ATOM     14  C   UNL     1       0.734   0.118   1.175  1.00  0.00     0.138 A 
ATOM     15  C   UNL     1       0.198  -2.075   2.119  1.00  0.00     0.006 A 
ATOM     16  C   UNL     1      -0.379  -1.464   3.239  1.00  0.00     0.004 A 
ATOM     17  C   UNL     1       0.754  -1.292   1.095  1.00  0.00     0.068 A 
ATOM     18  C   UNL     1      -0.388  -0.071   3.316  1.00  0.00    -0.039 A 
ATOM     19  C   UNL     1       0.151   0.706   2.318  1.00  0.00     0.017 A 
ATOM     20  C   UNL     1      -0.927   0.735   4.435  1.00  0.00     0.036 C 
ATOM     21  C   UNL     1       0.058   2.151   2.651  1.00  0.00     0.042 C 
ATOM     22  C   UNL     1      -0.674   2.190   4.005  1.00  0.00     0.010 C 
ENDBRANCH  11  14
ENDBRANCH   1  11
TORSDOF 2


