MODEL 1
REMARK VINA RESULT:      -9.5      0.000      0.000
REMARK SMILES c1cc2cc(CN3CC[C@H]4CCC[C@H]43)ccc2[nH]1
REMARK SMILES IDX 1 1 2 2 3 3 4 4 5 5 15 6 16 7 17 8 18 9 6 11 7 12 8 13 14 14
REMARK SMILES IDX 9 15 13 16 10 17 12 18 11 19
REMARK H PARENT 18 10
ROOT
ATOM      1  C   UNL     1      48.185 130.157  13.011  1.00  0.00     0.083 A 
ATOM      2  C   UNL     1      47.556 131.356  13.329  1.00  0.00     0.028 A 
ATOM      3  C   UNL     1      46.851 131.097  14.483  1.00  0.00    -0.000 A 
ATOM      4  C   UNL     1      46.040 131.926  15.256  1.00  0.00     0.015 A 
ATOM      5  C   UNL     1      45.440 131.375  16.412  1.00  0.00    -0.033 A 
ATOM      6  C   UNL     1      45.675 130.018  16.748  1.00  0.00     0.007 A 
ATOM      7  C   UNL     1      46.500 129.211  15.945  1.00  0.00     0.027 A 
ATOM      8  C   UNL     1      47.073 129.788  14.814  1.00  0.00     0.045 A 
ATOM      9  N   UNL     1      47.888 129.202  13.921  1.00  0.00    -0.361 N 
ATOM     10  H   UNL     1      48.225 128.214  13.927  1.00  0.00     0.166 HD
ENDROOT
BRANCH   5  11
ATOM     11  C   UNL     1      44.573 132.228  17.300  1.00  0.00     0.120 C 
BRANCH  11  12
ATOM     12  N   UNL     1      44.034 131.425  18.417  1.00  0.00    -0.296 NA
ATOM     13  C   UNL     1      42.567 131.529  18.493  1.00  0.00     0.085 C 
ATOM     14  C   UNL     1      44.558 131.874  19.726  1.00  0.00     0.060 C 
ATOM     15  C   UNL     1      42.229 132.518  19.591  1.00  0.00     0.021 C 
ATOM     16  C   UNL     1      45.124 130.686  20.509  1.00  0.00     0.019 C 
ATOM     17  C   UNL     1      43.402 132.436  20.548  1.00  0.00     0.007 C 
ATOM     18  C   UNL     1      44.517 130.770  21.899  1.00  0.00     0.002 C 
ATOM     19  C   UNL     1      43.181 131.461  21.707  1.00  0.00     0.005 C 
ENDBRANCH  11  12
ENDBRANCH   5  11
TORSDOF 2
ENDMDL
MODEL 2
REMARK VINA RESULT:      -8.9      1.038      2.346
REMARK SMILES c1cc2cc(CN3CC[C@H]4CCC[C@H]43)ccc2[nH]1
REMARK SMILES IDX 1 1 2 2 3 3 4 4 5 5 15 6 16 7 17 8 18 9 6 11 7 12 8 13 14 14
REMARK SMILES IDX 9 15 13 16 10 17 12 18 11 19
REMARK H PARENT 18 10
ROOT
ATOM      1  C   UNL     1      47.877 130.289  13.060  1.00  0.00     0.083 A 
ATOM      2  C   UNL     1      47.767 129.426  14.146  1.00  0.00     0.028 A 
ATOM      3  C   UNL     1      47.012 130.110  15.073  1.00  0.00    -0.000 A 
ATOM      4  C   UNL     1      46.582 129.738  16.345  1.00  0.00     0.015 A 
ATOM      5  C   UNL     1      45.801 130.661  17.076  1.00  0.00    -0.033 A 
ATOM      6  C   UNL     1      45.481 131.920  16.507  1.00  0.00     0.007 A 
ATOM      7  C   UNL     1      45.932 132.262  15.220  1.00  0.00     0.027 A 
ATOM      8  C   UNL     1      46.699 131.327  14.530  1.00  0.00     0.045 A 
ATOM      9  N   UNL     1      47.223 131.448  13.299  1.00  0.00    -0.361 N 
ATOM     10  H   UNL     1      47.142 132.267  12.655  1.00  0.00     0.166 HD
ENDROOT
BRANCH   5  11
ATOM     11  C   UNL     1      45.286 130.307  18.447  1.00  0.00     0.120 C 
BRANCH  11  12
ATOM     12  N   UNL     1      44.706 131.497  19.103  1.00  0.00    -0.296 NA
ATOM     13  C   UNL     1      45.432 131.835  20.338  1.00  0.00     0.085 C 
ATOM     14  C   UNL     1      43.293 131.285  19.487  1.00  0.00     0.060 C 
ATOM     15  C   UNL     1      44.623 131.312  21.509  1.00  0.00     0.021 C 
ATOM     16  C   UNL     1      42.421 132.429  18.963  1.00  0.00     0.019 C 
ATOM     17  C   UNL     1      43.192 131.312  21.009  1.00  0.00     0.007 C 
ATOM     18  C   UNL     1      41.582 132.893  20.140  1.00  0.00     0.002 C 
ATOM     19  C   UNL     1      42.417 132.582  21.368  1.00  0.00     0.005 C 
ENDBRANCH  11  12
ENDBRANCH   5  11
TORSDOF 2
ENDMDL
MODEL 3
REMARK VINA RESULT:      -8.4      1.724      6.992
REMARK SMILES c1cc2cc(CN3CC[C@H]4CCC[C@H]43)ccc2[nH]1
REMARK SMILES IDX 1 1 2 2 3 3 4 4 5 5 15 6 16 7 17 8 18 9 6 11 7 12 8 13 14 14
REMARK SMILES IDX 9 15 13 16 10 17 12 18 11 19
REMARK H PARENT 18 10
ROOT
ATOM      1  C   UNL     1      42.787 131.530  23.772  1.00  0.00     0.083 A 
ATOM      2  C   UNL     1      44.041 131.081  23.369  1.00  0.00     0.028 A 
ATOM      3  C   UNL     1      44.073 131.282  22.007  1.00  0.00    -0.000 A 
ATOM      4  C   UNL     1      45.076 131.022  21.075  1.00  0.00     0.015 A 
ATOM      5  C   UNL     1      44.823 131.343  19.722  1.00  0.00    -0.033 A 
ATOM      6  C   UNL     1      43.576 131.911  19.354  1.00  0.00     0.007 A 
ATOM      7  C   UNL     1      42.586 132.159  20.321  1.00  0.00     0.027 A 
ATOM      8  C   UNL     1      42.872 131.830  21.644  1.00  0.00     0.045 A 
ATOM      9  N   UNL     1      42.077 131.986  22.716  1.00  0.00    -0.361 N 
ATOM     10  H   UNL     1      41.110 132.380  22.733  1.00  0.00     0.166 HD
ENDROOT
BRANCH   5  11
ATOM     11  C   UNL     1      45.877 131.109  18.673  1.00  0.00     0.120 C 
BRANCH  11  12
ATOM     12  N   UNL     1      45.263 130.600  17.429  1.00  0.00    -0.296 NA
ATOM     13  C   UNL     1      46.067 129.519  16.836  1.00  0.00     0.085 C 
ATOM     14  C   UNL     1      45.144 131.654  16.398  1.00  0.00     0.060 C 
ATOM     15  C   UNL     1      46.875 130.113  15.699  1.00  0.00     0.021 C 
ATOM     16  C   UNL     1      43.712 131.711  15.857  1.00  0.00     0.019 C 
ATOM     17  C   UNL     1      46.047 131.290  15.223  1.00  0.00     0.007 C 
ATOM     18  C   UNL     1      43.833 131.703  14.343  1.00  0.00     0.002 C 
ATOM     19  C   UNL     1      45.120 130.955  14.053  1.00  0.00     0.005 C 
ENDBRANCH  11  12
ENDBRANCH   5  11
TORSDOF 2
ENDMDL
MODEL 4
REMARK VINA RESULT:      -7.7      1.362      6.522
REMARK SMILES c1cc2cc(CN3CC[C@H]4CCC[C@H]43)ccc2[nH]1
REMARK SMILES IDX 1 1 2 2 3 3 4 4 5 5 15 6 16 7 17 8 18 9 6 11 7 12 8 13 14 14
REMARK SMILES IDX 9 15 13 16 10 17 12 18 11 19
REMARK H PARENT 18 10
ROOT
ATOM      1  C   UNL     1      41.850 132.997  19.798  1.00  0.00     0.083 A 
ATOM      2  C   UNL     1      41.925 132.370  18.557  1.00  0.00     0.028 A 
ATOM      3  C   UNL     1      43.139 131.720  18.556  1.00  0.00    -0.000 A 
ATOM      4  C   UNL     1      43.744 130.930  17.580  1.00  0.00     0.015 A 
ATOM      5  C   UNL     1      45.013 130.379  17.867  1.00  0.00    -0.033 A 
ATOM      6  C   UNL     1      45.628 130.640  19.118  1.00  0.00     0.007 A 
ATOM      7  C   UNL     1      44.989 131.442  20.079  1.00  0.00     0.027 A 
ATOM      8  C   UNL     1      43.738 131.968  19.761  1.00  0.00     0.045 A 
ATOM      9  N   UNL     1      42.960 132.748  20.529  1.00  0.00    -0.361 N 
ATOM     10  H   UNL     1      43.166 133.092  21.494  1.00  0.00     0.166 HD
ENDROOT
BRANCH   5  11
ATOM     11  C   UNL     1      45.706 129.498  16.861  1.00  0.00     0.120 C 
BRANCH  11  12
ATOM     12  N   UNL     1      46.601 130.300  16.002  1.00  0.00    -0.296 NA
ATOM     13  C   UNL     1      46.091 131.669  15.825  1.00  0.00     0.085 C 
ATOM     14  C   UNL     1      46.736 129.720  14.647  1.00  0.00     0.060 C 
ATOM     15  C   UNL     1      45.414 131.740  14.471  1.00  0.00     0.021 C 
ATOM     16  C   UNL     1      48.214 129.571  14.277  1.00  0.00     0.019 C 
ATOM     17  C   UNL     1      46.121 130.687  13.640  1.00  0.00     0.007 C 
ATOM     18  C   UNL     1      48.365 130.182  12.894  1.00  0.00     0.002 C 
ATOM     19  C   UNL     1      47.282 131.239  12.808  1.00  0.00     0.005 C 
ENDBRANCH  11  12
ENDBRANCH   5  11
TORSDOF 2
ENDMDL
MODEL 5
REMARK VINA RESULT:      -7.3      1.480      6.592
REMARK SMILES c1cc2cc(CN3CC[C@H]4CCC[C@H]43)ccc2[nH]1
REMARK SMILES IDX 1 1 2 2 3 3 4 4 5 5 15 6 16 7 17 8 18 9 6 11 7 12 8 13 14 14
REMARK SMILES IDX 9 15 13 16 10 17 12 18 11 19
REMARK H PARENT 18 10
ROOT
ATOM      1  C   UNL     1      44.100 131.544  22.428  1.00  0.00     0.083 A 
ATOM      2  C   UNL     1      44.956 131.288  21.361  1.00  0.00     0.028 A 
ATOM      3  C   UNL     1      44.189 131.475  20.233  1.00  0.00    -0.000 A 
ATOM      4  C   UNL     1      44.517 131.361  18.883  1.00  0.00     0.015 A 
ATOM      5  C   UNL     1      43.507 131.625  17.931  1.00  0.00    -0.033 A 
ATOM      6  C   UNL     1      42.207 131.991  18.365  1.00  0.00     0.007 A 
ATOM      7  C   UNL     1      41.911 132.096  19.736  1.00  0.00     0.027 A 
ATOM      8  C   UNL     1      42.933 131.829  20.645  1.00  0.00     0.045 A 
ATOM      9  N   UNL     1      42.866 131.874  21.986  1.00  0.00    -0.361 N 
ATOM     10  H   UNL     1      42.034 132.116  22.569  1.00  0.00     0.166 HD
ENDROOT
BRANCH   5  11
ATOM     11  C   UNL     1      43.808 131.542  16.458  1.00  0.00     0.120 C 
BRANCH  11  12
ATOM     12  N   UNL     1      45.213 131.139  16.240  1.00  0.00    -0.296 NA
ATOM     13  C   UNL     1      46.084 132.311  16.053  1.00  0.00     0.085 C 
ATOM     14  C   UNL     1      45.369 130.299  15.033  1.00  0.00     0.060 C 
ATOM     15  C   UNL     1      46.337 132.468  14.567  1.00  0.00     0.021 C 
ATOM     16  C   UNL     1      46.139 129.019  15.370  1.00  0.00     0.019 C 
ATOM     17  C   UNL     1      46.206 131.064  14.011  1.00  0.00     0.007 C 
ATOM     18  C   UNL     1      47.231 128.896  14.322  1.00  0.00     0.002 C 
ATOM     19  C   UNL     1      47.540 130.320  13.903  1.00  0.00     0.005 C 
ENDBRANCH  11  12
ENDBRANCH   5  11
TORSDOF 2
ENDMDL
MODEL 6
REMARK VINA RESULT:      -7.3      1.782      3.115
REMARK SMILES c1cc2cc(CN3CC[C@H]4CCC[C@H]43)ccc2[nH]1
REMARK SMILES IDX 1 1 2 2 3 3 4 4 5 5 15 6 16 7 17 8 18 9 6 11 7 12 8 13 14 14
REMARK SMILES IDX 9 15 13 16 10 17 12 18 11 19
REMARK H PARENT 18 10
ROOT
ATOM      1  C   UNL     1      46.011 129.733  14.871  1.00  0.00     0.083 A 
ATOM      2  C   UNL     1      46.619 129.721  16.123  1.00  0.00     0.028 A 
ATOM      3  C   UNL     1      45.760 130.417  16.945  1.00  0.00    -0.000 A 
ATOM      4  C   UNL     1      45.850 130.719  18.302  1.00  0.00     0.015 A 
ATOM      5  C   UNL     1      44.796 131.456  18.888  1.00  0.00    -0.033 A 
ATOM      6  C   UNL     1      43.694 131.863  18.093  1.00  0.00     0.007 A 
ATOM      7  C   UNL     1      43.637 131.541  16.725  1.00  0.00     0.027 A 
ATOM      8  C   UNL     1      44.694 130.813  16.184  1.00  0.00     0.045 A 
ATOM      9  N   UNL     1      44.836 130.401  14.913  1.00  0.00    -0.361 N 
ATOM     10  H   UNL     1      44.176 130.560  14.119  1.00  0.00     0.166 HD
ENDROOT
BRANCH   5  11
ATOM     11  C   UNL     1      44.824 131.792  20.356  1.00  0.00     0.120 C 
BRANCH  11  12
ATOM     12  N   UNL     1      44.018 130.819  21.123  1.00  0.00    -0.296 NA
ATOM     13  C   UNL     1      42.735 131.401  21.548  1.00  0.00     0.085 C 
ATOM     14  C   UNL     1      44.710 130.374  22.353  1.00  0.00     0.060 C 
ATOM     15  C   UNL     1      42.869 131.805  23.003  1.00  0.00     0.021 C 
ATOM     16  C   UNL     1      44.736 128.845  22.426  1.00  0.00     0.019 C 
ATOM     17  C   UNL     1      43.917 130.862  23.562  1.00  0.00     0.007 C 
ATOM     18  C   UNL     1      44.251 128.481  23.818  1.00  0.00     0.002 C 
ATOM     19  C   UNL     1      43.328 129.614  24.224  1.00  0.00     0.005 C 
ENDBRANCH  11  12
ENDBRANCH   5  11
TORSDOF 2
ENDMDL
MODEL 7
REMARK VINA RESULT:      -7.2      1.527      6.641
REMARK SMILES c1cc2cc(CN3CC[C@H]4CCC[C@H]43)ccc2[nH]1
REMARK SMILES IDX 1 1 2 2 3 3 4 4 5 5 15 6 16 7 17 8 18 9 6 11 7 12 8 13 14 14
REMARK SMILES IDX 9 15 13 16 10 17 12 18 11 19
REMARK H PARENT 18 10
ROOT
ATOM      1  C   UNL     1      43.388 131.266  23.371  1.00  0.00     0.083 A 
ATOM      2  C   UNL     1      42.615 131.634  22.274  1.00  0.00     0.028 A 
ATOM      3  C   UNL     1      43.441 131.477  21.183  1.00  0.00    -0.000 A 
ATOM      4  C   UNL     1      43.204 131.693  19.827  1.00  0.00     0.015 A 
ATOM      5  C   UNL     1      44.258 131.436  18.921  1.00  0.00    -0.033 A 
ATOM      6  C   UNL     1      45.508 130.974  19.407  1.00  0.00     0.007 A 
ATOM      7  C   UNL     1      45.712 130.768  20.783  1.00  0.00     0.027 A 
ATOM      8  C   UNL     1      44.650 131.032  21.645  1.00  0.00     0.045 A 
ATOM      9  N   UNL     1      44.630 130.899  22.981  1.00  0.00    -0.361 N 
ATOM     10  H   UNL     1      45.411 130.577  23.596  1.00  0.00     0.166 HD
ENDROOT
BRANCH   5  11
ATOM     11  C   UNL     1      44.055 131.627  17.441  1.00  0.00     0.120 C 
BRANCH  11  12
ATOM     12  N   UNL     1      45.329 131.439  16.717  1.00  0.00    -0.296 NA
ATOM     13  C   UNL     1      45.614 132.577  15.828  1.00  0.00     0.085 C 
ATOM     14  C   UNL     1      45.309 130.230  15.864  1.00  0.00     0.060 C 
ATOM     15  C   UNL     1      45.236 132.170  14.418  1.00  0.00     0.021 C 
ATOM     16  C   UNL     1      46.536 129.358  16.146  1.00  0.00     0.019 C 
ATOM     17  C   UNL     1      45.399 130.663  14.403  1.00  0.00     0.007 C 
ATOM     18  C   UNL     1      47.140 129.031  14.792  1.00  0.00     0.002 C 
ATOM     19  C   UNL     1      46.768 130.199  13.899  1.00  0.00     0.005 C 
ENDBRANCH  11  12
ENDBRANCH   5  11
TORSDOF 2
ENDMDL
MODEL 8
REMARK VINA RESULT:      -7.2      1.234      1.870
REMARK SMILES c1cc2cc(CN3CC[C@H]4CCC[C@H]43)ccc2[nH]1
REMARK SMILES IDX 1 1 2 2 3 3 4 4 5 5 15 6 16 7 17 8 18 9 6 11 7 12 8 13 14 14
REMARK SMILES IDX 9 15 13 16 10 17 12 18 11 19
REMARK H PARENT 18 10
ROOT
ATOM      1  C   UNL     1      46.464 130.877  13.815  1.00  0.00     0.083 A 
ATOM      2  C   UNL     1      45.909 131.951  14.503  1.00  0.00     0.028 A 
ATOM      3  C   UNL     1      45.785 131.518  15.805  1.00  0.00    -0.000 A 
ATOM      4  C   UNL     1      45.295 132.170  16.935  1.00  0.00     0.015 A 
ATOM      5  C   UNL     1      45.297 131.465  18.159  1.00  0.00    -0.033 A 
ATOM      6  C   UNL     1      45.787 130.135  18.206  1.00  0.00     0.007 A 
ATOM      7  C   UNL     1      46.274 129.508  17.045  1.00  0.00     0.027 A 
ATOM      8  C   UNL     1      46.257 130.235  15.857  1.00  0.00     0.045 A 
ATOM      9  N   UNL     1      46.675 129.831  14.646  1.00  0.00    -0.361 N 
ATOM     10  H   UNL     1      47.081 128.902  14.394  1.00  0.00     0.166 HD
ENDROOT
BRANCH   5  11
ATOM     11  C   UNL     1      44.803 132.124  19.419  1.00  0.00     0.120 C 
BRANCH  11  12
ATOM     12  N   UNL     1      44.035 131.163  20.238  1.00  0.00    -0.296 NA
ATOM     13  C   UNL     1      42.628 131.574  20.370  1.00  0.00     0.085 C 
ATOM     14  C   UNL     1      44.574 131.049  21.612  1.00  0.00     0.060 C 
ATOM     15  C   UNL     1      42.460 132.224  21.729  1.00  0.00     0.021 C 
ATOM     16  C   UNL     1      44.813 129.580  21.970  1.00  0.00     0.019 C 
ATOM     17  C   UNL     1      43.530 131.581  22.590  1.00  0.00     0.007 C 
ATOM     18  C   UNL     1      44.165 129.368  23.328  1.00  0.00     0.002 C 
ATOM     19  C   UNL     1      43.032 130.373  23.387  1.00  0.00     0.005 C 
ENDBRANCH  11  12
ENDBRANCH   5  11
TORSDOF 2
ENDMDL
MODEL 9
REMARK VINA RESULT:      -6.9      1.952      2.763
REMARK SMILES c1cc2cc(CN3CC[C@H]4CCC[C@H]43)ccc2[nH]1
REMARK SMILES IDX 1 1 2 2 3 3 4 4 5 5 15 6 16 7 17 8 18 9 6 11 7 12 8 13 14 14
REMARK SMILES IDX 9 15 13 16 10 17 12 18 11 19
REMARK H PARENT 18 10
ROOT
ATOM      1  C   UNL     1      44.386 130.944  14.120  1.00  0.00     0.083 A 
ATOM      2  C   UNL     1      43.790 131.744  15.090  1.00  0.00     0.028 A 
ATOM      3  C   UNL     1      44.416 131.405  16.269  1.00  0.00    -0.000 A 
ATOM      4  C   UNL     1      44.232 131.884  17.565  1.00  0.00     0.015 A 
ATOM      5  C   UNL     1      45.037 131.343  18.592  1.00  0.00    -0.033 A 
ATOM      6  C   UNL     1      45.995 130.343  18.284  1.00  0.00     0.007 A 
ATOM      7  C   UNL     1      46.154 129.882  16.965  1.00  0.00     0.027 A 
ATOM      8  C   UNL     1      45.342 130.439  15.979  1.00  0.00     0.045 A 
ATOM      9  N   UNL     1      45.333 130.149  14.667  1.00  0.00    -0.361 N 
ATOM     10  H   UNL     1      45.933 129.454  14.170  1.00  0.00     0.166 HD
ENDROOT
BRANCH   5  11
ATOM     11  C   UNL     1      44.901 131.838  20.008  1.00  0.00     0.120 C 
BRANCH  11  12
ATOM     12  N   UNL     1      44.059 130.916  20.798  1.00  0.00    -0.296 NA
ATOM     13  C   UNL     1      42.709 131.464  21.002  1.00  0.00     0.085 C 
ATOM     14  C   UNL     1      44.622 130.666  22.143  1.00  0.00     0.060 C 
ATOM     15  C   UNL     1      42.651 132.047  22.400  1.00  0.00     0.021 C 
ATOM     16  C   UNL     1      44.713 129.161  22.412  1.00  0.00     0.019 C 
ATOM     17  C   UNL     1      43.670 131.246  23.185  1.00  0.00     0.007 C 
ATOM     18  C   UNL     1      44.086 128.938  23.777  1.00  0.00     0.002 C 
ATOM     19  C   UNL     1      43.069 130.052  23.932  1.00  0.00     0.005 C 
ENDBRANCH  11  12
ENDBRANCH   5  11
TORSDOF 2
ENDMDL


