REMARK SMILES O=C(Nc1cc2cc(-c3nc[nH+]cc3F)[nH]c2cc1F)c1cc(F)c[nH]1
REMARK SMILES IDX 4 1 5 2 6 3 7 4 8 5 16 6 17 7 18 8 19 9 20 10 3 12 2 13 1 14
REMARK SMILES IDX 21 16 22 17 26 18 23 19 25 20 24 22 9 23 10 24 14 25 11 26
REMARK SMILES IDX 13 27 12 28 15 29
REMARK H PARENT 16 11 3 15 26 21 12 30
ROOT
ATOM      1  C   UNL     1       1.454   0.014  -0.078  1.00  0.00     0.078 A 
ATOM      2  C   UNL     1       0.345  -0.621  -0.676  1.00  0.00     0.039 A 
ATOM      3  C   UNL     1      -0.931  -0.226  -0.285  1.00  0.00     0.002 A 
ATOM      4  C   UNL     1      -2.170  -0.667  -0.695  1.00  0.00     0.041 A 
ATOM      5  C   UNL     1      -3.088   0.078   0.051  1.00  0.00     0.095 A 
ATOM      6  N   UNL     1      -2.440   0.927   0.888  1.00  0.00    -0.351 N 
ATOM      7  C   UNL     1      -1.130   0.734   0.667  1.00  0.00     0.049 A 
ATOM      8  C   UNL     1      -0.064   1.368   1.301  1.00  0.00     0.068 A 
ATOM      9  C   UNL     1       1.242   0.999   0.928  1.00  0.00     0.148 A 
ATOM     10  F   UNL     1       2.291   1.561   1.579  1.00  0.00    -0.205 F 
ATOM     11  H   UNL     1      -2.867   1.594   1.568  1.00  0.00     0.167 HD
ENDROOT
BRANCH   1  12
ATOM     12  N   UNL     1       2.779  -0.388  -0.460  1.00  0.00    -0.318 N 
ATOM     13  C   UNL     1       3.851   0.542  -0.677  1.00  0.00     0.272 C 
ATOM     14  O   UNL     1       3.601   1.769  -0.828  1.00  0.00    -0.267 OA
ATOM     15  H   UNL     1       2.921  -1.383  -0.745  1.00  0.00     0.170 HD
BRANCH  13  16
ATOM     16  C   UNL     1       5.248   0.076  -0.766  1.00  0.00     0.107 A 
ATOM     17  C   UNL     1       6.330   0.865  -1.118  1.00  0.00     0.072 A 
ATOM     18  N   UNL     1       5.656  -1.183  -0.493  1.00  0.00    -0.355 N 
ATOM     19  C   UNL     1       7.429   0.036  -1.057  1.00  0.00     0.141 A 
ATOM     20  C   UNL     1       6.989  -1.211  -0.671  1.00  0.00     0.122 A 
ATOM     21  H   UNL     1       5.068  -1.987  -0.184  1.00  0.00     0.166 HD
ATOM     22  F   UNL     1       8.711   0.386  -1.320  1.00  0.00    -0.205 F 
ENDBRANCH  13  16
ENDBRANCH   1  12
BRANCH   5  23
ATOM     23  C   UNL     1      -4.564  -0.038   0.013  1.00  0.00     0.237 A 
ATOM     24  N   UNL     1      -5.281   0.453   1.060  1.00  0.00    -0.044 NA
ATOM     25  C   UNL     1      -5.253  -0.621  -1.067  1.00  0.00     0.215 A 
ATOM     26  C   UNL     1      -6.636   0.379   1.093  1.00  0.00     0.449 A 
ATOM     27  C   UNL     1      -6.646  -0.688  -1.013  1.00  0.00     0.241 A 
ATOM     28  N   UNL     1      -7.312  -0.192   0.062  1.00  0.00    -0.247 N 
ATOM     29  F   UNL     1      -4.612  -1.079  -2.170  1.00  0.00    -0.198 F 
ATOM     30  H   UNL     1      -8.355  -0.244   0.093  1.00  0.00     0.311 HD
ENDBRANCH   5  23
TORSDOF 3


