MODEL 1
REMARK VINA RESULT:      -5.0      0.000      0.000
REMARK SMILES CC(F)(F)C[N-]/C(O)=C/CSc1ccc([C@H]2O[C@@H]2C(=O)c2ccc(F)cc2)cc1F
REMARK SMILES IDX 10 1 9 2 7 3 8 4 6 6 5 7 2 8 3 9 4 10 1 11 11 12 12 13 13 14
REMARK SMILES IDX 29 15 14 16 28 17 15 18 30 19 16 20 17 21 18 22 19 23 20 24
REMARK SMILES IDX 21 25 22 26 27 27 23 28 26 29 24 30 25 31
REMARK H PARENT 8 5
ROOT
ATOM      1  C   UNL     1      45.485 123.364  22.892  1.00  0.00     0.104 C 
ENDROOT
BRANCH   1   2
ATOM      2  C   UNL     1      46.546 124.132  22.156  1.00  0.00     0.005 C 
BRANCH   2   3
ATOM      3  C   UNL     1      47.809 124.223  22.596  1.00  0.00     0.007 C 
BRANCH   3   4
ATOM      4  O   UNL     1      48.281 123.311  23.537  1.00  0.00    -0.531 OA
ATOM      5  H   UNL     1      48.094 122.321  23.438  1.00  0.00     0.290 HD
ENDBRANCH   3   4
BRANCH   3   6
ATOM      6  N   UNL     1      48.705 125.232  22.105  1.00  0.00    -0.650 NA
BRANCH   6   7
ATOM      7  C   UNL     1      50.091 125.405  22.533  1.00  0.00    -0.040 C 
BRANCH   7   8
ATOM      8  C   UNL     1      50.182 125.438  24.061  1.00  0.00     0.229 C 
ATOM      9  F   UNL     1      49.093 126.135  24.558  1.00  0.00    -0.209 F 
ATOM     10  F   UNL     1      50.141 124.145  24.557  1.00  0.00    -0.209 F 
ATOM     11  C   UNL     1      51.465 126.121  24.535  1.00  0.00     0.085 C 
ENDBRANCH   7   8
ENDBRANCH   6   7
ENDBRANCH   3   6
ENDBRANCH   2   3
ENDBRANCH   1   2
BRANCH   1  12
ATOM     12  S   UNL     1      45.187 124.043  24.569  1.00  0.00    -0.119 SA
BRANCH  12  13
ATOM     13  C   UNL     1      44.688 125.679  24.009  1.00  0.00     0.043 A 
ATOM     14  C   UNL     1      45.243 126.814  24.615  1.00  0.00     0.018 A 
ATOM     15  C   UNL     1      43.728 125.829  23.000  1.00  0.00     0.137 A 
ATOM     16  C   UNL     1      44.800 128.089  24.259  1.00  0.00     0.008 A 
ATOM     17  C   UNL     1      43.291 127.108  22.634  1.00  0.00     0.047 A 
ATOM     18  C   UNL     1      43.804 128.242  23.284  1.00  0.00    -0.013 A 
ATOM     19  F   UNL     1      43.195 124.740  22.391  1.00  0.00    -0.206 F 
BRANCH  18  20
ATOM     20  C   UNL     1      43.327 129.621  22.936  1.00  0.00     0.186 C 
ATOM     21  O   UNL     1      44.189 130.633  23.407  1.00  0.00    -0.356 OA
ATOM     22  C   UNL     1      44.224 130.370  22.024  1.00  0.00     0.224 C 
BRANCH  22  23
ATOM     23  C   UNL     1      43.560 131.451  21.223  1.00  0.00     0.194 C 
ATOM     24  O   UNL     1      42.894 132.336  21.825  1.00  0.00    -0.291 OA
BRANCH  23  25
ATOM     25  C   UNL     1      43.697 131.504  19.745  1.00  0.00     0.021 A 
ATOM     26  C   UNL     1      42.605 131.847  18.921  1.00  0.00     0.015 A 
ATOM     27  C   UNL     1      44.933 131.204  19.139  1.00  0.00     0.015 A 
ATOM     28  C   UNL     1      42.751 131.894  17.533  1.00  0.00     0.040 A 
ATOM     29  C   UNL     1      45.070 131.249  17.748  1.00  0.00     0.040 A 
ATOM     30  C   UNL     1      43.982 131.595  16.945  1.00  0.00     0.123 A 
ATOM     31  F   UNL     1      44.120 131.644  15.598  1.00  0.00    -0.207 F 
ENDBRANCH  23  25
ENDBRANCH  22  23
ENDBRANCH  18  20
ENDBRANCH  12  13
ENDBRANCH   1  12
TORSDOF 11
ENDMDL
MODEL 2
REMARK VINA RESULT:      -3.2      6.122      7.360
REMARK SMILES CC(F)(F)C[N-]/C(O)=C/CSc1ccc([C@H]2O[C@@H]2C(=O)c2ccc(F)cc2)cc1F
REMARK SMILES IDX 10 1 9 2 7 3 8 4 6 6 5 7 2 8 3 9 4 10 1 11 11 12 12 13 13 14
REMARK SMILES IDX 29 15 14 16 28 17 15 18 30 19 16 20 17 21 18 22 19 23 20 24
REMARK SMILES IDX 21 25 22 26 27 27 23 28 26 29 24 30 25 31
REMARK H PARENT 8 5
ROOT
ATOM      1  C   UNL     1      45.683 132.681  23.852  1.00  0.00     0.104 C 
ENDROOT
BRANCH   1   2
ATOM      2  C   UNL     1      46.158 132.945  22.452  1.00  0.00     0.005 C 
BRANCH   2   3
ATOM      3  C   UNL     1      47.190 133.756  22.179  1.00  0.00     0.007 C 
BRANCH   3   4
ATOM      4  O   UNL     1      47.464 134.108  20.859  1.00  0.00    -0.531 OA
ATOM      5  H   UNL     1      46.714 134.256  20.197  1.00  0.00     0.290 HD
ENDBRANCH   3   4
BRANCH   3   6
ATOM      6  N   UNL     1      48.016 134.296  23.222  1.00  0.00    -0.650 NA
BRANCH   6   7
ATOM      7  C   UNL     1      49.356 133.823  23.562  1.00  0.00    -0.040 C 
BRANCH   7   8
ATOM      8  C   UNL     1      50.357 134.982  23.539  1.00  0.00     0.229 C 
ATOM      9  F   UNL     1      50.288 135.607  22.306  1.00  0.00    -0.209 F 
ATOM     10  F   UNL     1      50.025 135.902  24.520  1.00  0.00    -0.209 F 
ATOM     11  C   UNL     1      51.788 134.494  23.767  1.00  0.00     0.085 C 
ENDBRANCH   7   8
ENDBRANCH   6   7
ENDBRANCH   3   6
ENDBRANCH   2   3
ENDBRANCH   1   2
BRANCH   1  12
ATOM     12  S   UNL     1      44.463 131.312  23.916  1.00  0.00    -0.119 SA
BRANCH  12  13
ATOM     13  C   UNL     1      44.087 131.332  22.156  1.00  0.00     0.043 A 
ATOM     14  C   UNL     1      44.956 130.698  21.258  1.00  0.00     0.018 A 
ATOM     15  C   UNL     1      42.956 132.003  21.673  1.00  0.00     0.137 A 
ATOM     16  C   UNL     1      44.731 130.784  19.883  1.00  0.00     0.008 A 
ATOM     17  C   UNL     1      42.722 132.078  20.294  1.00  0.00     0.047 A 
ATOM     18  C   UNL     1      43.627 131.495  19.392  1.00  0.00    -0.013 A 
ATOM     19  F   UNL     1      42.095 132.605  22.532  1.00  0.00    -0.206 F 
BRANCH  18  20
ATOM     20  C   UNL     1      43.420 131.592  17.910  1.00  0.00     0.186 C 
ATOM     21  O   UNL     1      43.741 132.864  17.395  1.00  0.00    -0.356 OA
ATOM     22  C   UNL     1      44.657 131.827  17.128  1.00  0.00     0.224 C 
BRANCH  22  23
ATOM     23  C   UNL     1      44.604 131.375  15.699  1.00  0.00     0.194 C 
ATOM     24  O   UNL     1      43.523 131.493  15.061  1.00  0.00    -0.291 OA
BRANCH  23  25
ATOM     25  C   UNL     1      45.805 130.817  15.026  1.00  0.00     0.021 A 
ATOM     26  C   UNL     1      46.402 131.478  13.933  1.00  0.00     0.015 A 
ATOM     27  C   UNL     1      46.365 129.605  15.473  1.00  0.00     0.015 A 
ATOM     28  C   UNL     1      47.533 130.941  13.311  1.00  0.00     0.040 A 
ATOM     29  C   UNL     1      47.495 129.071  14.843  1.00  0.00     0.040 A 
ATOM     30  C   UNL     1      48.078 129.738  13.765  1.00  0.00     0.123 A 
ATOM     31  F   UNL     1      49.176 129.221  13.161  1.00  0.00    -0.207 F 
ENDBRANCH  23  25
ENDBRANCH  22  23
ENDBRANCH  18  20
ENDBRANCH  12  13
ENDBRANCH   1  12
TORSDOF 11
ENDMDL
MODEL 3
REMARK VINA RESULT:      -2.5      6.035      9.144
REMARK SMILES CC(F)(F)C[N-]/C(O)=C/CSc1ccc([C@H]2O[C@@H]2C(=O)c2ccc(F)cc2)cc1F
REMARK SMILES IDX 10 1 9 2 7 3 8 4 6 6 5 7 2 8 3 9 4 10 1 11 11 12 12 13 13 14
REMARK SMILES IDX 29 15 14 16 28 17 15 18 30 19 16 20 17 21 18 22 19 23 20 24
REMARK SMILES IDX 21 25 22 26 27 27 23 28 26 29 24 30 25 31
REMARK H PARENT 8 5
ROOT
ATOM      1  C   UNL     1      42.527 132.333  17.567  1.00  0.00     0.104 C 
ENDROOT
BRANCH   1   2
ATOM      2  C   UNL     1      43.292 131.209  16.928  1.00  0.00     0.005 C 
BRANCH   2   3
ATOM      3  C   UNL     1      44.405 131.410  16.209  1.00  0.00     0.007 C 
BRANCH   3   4
ATOM      4  O   UNL     1      45.509 132.021  16.799  1.00  0.00    -0.531 OA
ATOM      5  H   UNL     1      46.311 131.474  17.088  1.00  0.00     0.290 HD
ENDBRANCH   3   4
BRANCH   3   6
ATOM      6  N   UNL     1      44.501 130.989  14.839  1.00  0.00    -0.650 NA
BRANCH   6   7
ATOM      7  C   UNL     1      45.498 130.059  14.314  1.00  0.00    -0.040 C 
BRANCH   7   8
ATOM      8  C   UNL     1      46.802 130.794  13.991  1.00  0.00     0.229 C 
ATOM      9  F   UNL     1      46.781 131.176  12.661  1.00  0.00    -0.209 F 
ATOM     10  F   UNL     1      46.900 131.931  14.776  1.00  0.00    -0.209 F 
ATOM     11  C   UNL     1      48.023 129.906  14.232  1.00  0.00     0.085 C 
ENDBRANCH   7   8
ENDBRANCH   6   7
ENDBRANCH   3   6
ENDBRANCH   2   3
ENDBRANCH   1   2
BRANCH   1  12
ATOM     12  S   UNL     1      41.847 131.856  19.202  1.00  0.00    -0.119 SA
BRANCH  12  13
ATOM     13  C   UNL     1      43.386 132.087  20.106  1.00  0.00     0.043 A 
ATOM     14  C   UNL     1      44.268 133.102  19.716  1.00  0.00     0.018 A 
ATOM     15  C   UNL     1      43.725 131.241  21.170  1.00  0.00     0.137 A 
ATOM     16  C   UNL     1      45.508 133.236  20.344  1.00  0.00     0.008 A 
ATOM     17  C   UNL     1      44.963 131.382  21.809  1.00  0.00     0.047 A 
ATOM     18  C   UNL     1      45.873 132.361  21.376  1.00  0.00    -0.013 A 
ATOM     19  F   UNL     1      42.872 130.265  21.572  1.00  0.00    -0.206 F 
BRANCH  18  20
ATOM     20  C   UNL     1      47.219 132.510  22.020  1.00  0.00     0.186 C 
ATOM     21  O   UNL     1      48.262 132.653  21.081  1.00  0.00    -0.356 OA
ATOM     22  C   UNL     1      47.878 133.816  21.777  1.00  0.00     0.224 C 
BRANCH  22  23
ATOM     23  C   UNL     1      48.889 134.222  22.808  1.00  0.00     0.194 C 
ATOM     24  O   UNL     1      49.094 133.462  23.794  1.00  0.00    -0.291 OA
BRANCH  23  25
ATOM     25  C   UNL     1      49.661 135.483  22.671  1.00  0.00     0.021 A 
ATOM     26  C   UNL     1      50.736 135.779  23.535  1.00  0.00     0.015 A 
ATOM     27  C   UNL     1      49.323 136.411  21.667  1.00  0.00     0.015 A 
ATOM     28  C   UNL     1      51.453 136.970  23.391  1.00  0.00     0.040 A 
ATOM     29  C   UNL     1      50.044 137.603  21.532  1.00  0.00     0.040 A 
ATOM     30  C   UNL     1      51.108 137.882  22.392  1.00  0.00     0.123 A 
ATOM     31  F   UNL     1      51.807 139.034  22.254  1.00  0.00    -0.207 F 
ENDBRANCH  23  25
ENDBRANCH  22  23
ENDBRANCH  18  20
ENDBRANCH  12  13
ENDBRANCH   1  12
TORSDOF 11
ENDMDL
MODEL 4
REMARK VINA RESULT:      -2.3      6.262      7.897
REMARK SMILES CC(F)(F)C[N-]/C(O)=C/CSc1ccc([C@H]2O[C@@H]2C(=O)c2ccc(F)cc2)cc1F
REMARK SMILES IDX 10 1 9 2 7 3 8 4 6 6 5 7 2 8 3 9 4 10 1 11 11 12 12 13 13 14
REMARK SMILES IDX 29 15 14 16 28 17 15 18 30 19 16 20 17 21 18 22 19 23 20 24
REMARK SMILES IDX 21 25 22 26 27 27 23 28 26 29 24 30 25 31
REMARK H PARENT 8 5
ROOT
ATOM      1  C   UNL     1      46.856 134.498  23.910  1.00  0.00     0.104 C 
ENDROOT
BRANCH   1   2
ATOM      2  C   UNL     1      47.685 134.139  22.709  1.00  0.00     0.005 C 
BRANCH   2   3
ATOM      3  C   UNL     1      49.001 134.382  22.641  1.00  0.00     0.007 C 
BRANCH   3   4
ATOM      4  O   UNL     1      49.870 133.735  23.517  1.00  0.00    -0.531 OA
ATOM      5  H   UNL     1      50.308 134.238  24.278  1.00  0.00     0.290 HD
ENDBRANCH   3   4
BRANCH   3   6
ATOM      6  N   UNL     1      49.550 135.283  21.667  1.00  0.00    -0.650 NA
BRANCH   6   7
ATOM      7  C   UNL     1      49.987 136.650  21.939  1.00  0.00    -0.040 C 
BRANCH   7   8
ATOM      8  C   UNL     1      51.127 136.656  22.962  1.00  0.00     0.229 C 
ATOM      9  F   UNL     1      50.595 136.457  24.224  1.00  0.00    -0.209 F 
ATOM     10  F   UNL     1      52.005 135.620  22.685  1.00  0.00    -0.209 F 
ATOM     11  C   UNL     1      51.889 137.981  22.949  1.00  0.00     0.085 C 
ENDBRANCH   7   8
ENDBRANCH   6   7
ENDBRANCH   3   6
ENDBRANCH   2   3
ENDBRANCH   1   2
BRANCH   1  12
ATOM     12  S   UNL     1      45.866 133.075  24.510  1.00  0.00    -0.119 SA
BRANCH  12  13
ATOM     13  C   UNL     1      45.475 132.433  22.874  1.00  0.00     0.043 A 
ATOM     14  C   UNL     1      46.449 132.472  21.868  1.00  0.00     0.018 A 
ATOM     15  C   UNL     1      44.199 131.929  22.589  1.00  0.00     0.137 A 
ATOM     16  C   UNL     1      46.134 132.066  20.570  1.00  0.00     0.008 A 
ATOM     17  C   UNL     1      43.887 131.511  21.290  1.00  0.00     0.047 A 
ATOM     18  C   UNL     1      44.845 131.607  20.268  1.00  0.00    -0.013 A 
ATOM     19  F   UNL     1      43.252 131.868  23.558  1.00  0.00    -0.206 F 
BRANCH  18  20
ATOM     20  C   UNL     1      44.525 131.199  18.861  1.00  0.00     0.186 C 
ATOM     21  O   UNL     1      44.995 132.121  17.903  1.00  0.00    -0.356 OA
ATOM     22  C   UNL     1      45.710 130.913  18.017  1.00  0.00     0.224 C 
BRANCH  22  23
ATOM     23  C   UNL     1      45.461 129.993  16.859  1.00  0.00     0.194 C 
ATOM     24  O   UNL     1      44.643 129.044  16.998  1.00  0.00    -0.291 OA
BRANCH  23  25
ATOM     25  C   UNL     1      46.141 130.199  15.555  1.00  0.00     0.021 A 
ATOM     26  C   UNL     1      47.349 129.538  15.248  1.00  0.00     0.015 A 
ATOM     27  C   UNL     1      45.585 131.072  14.599  1.00  0.00     0.015 A 
ATOM     28  C   UNL     1      47.975 129.742  14.016  1.00  0.00     0.040 A 
ATOM     29  C   UNL     1      46.221 131.275  13.369  1.00  0.00     0.040 A 
ATOM     30  C   UNL     1      47.413 130.610  13.077  1.00  0.00     0.123 A 
ATOM     31  F   UNL     1      48.022 130.804  11.882  1.00  0.00    -0.207 F 
ENDBRANCH  23  25
ENDBRANCH  22  23
ENDBRANCH  18  20
ENDBRANCH  12  13
ENDBRANCH   1  12
TORSDOF 11
ENDMDL


