REMARK SMILES CO[C@H]1CCC[C@H](c2cc3cc(F)ccc3[nH]2)N1C(=O)c1ccc(Cl)c(C)c1
REMARK SMILES IDX 3 1 4 2 5 3 6 4 7 5 18 6 2 7 1 8 19 9 20 10 21 11 22 12
REMARK SMILES IDX 28 13 23 14 26 15 24 16 27 17 25 18 8 19 9 20 17 21 10 22
REMARK SMILES IDX 16 23 11 24 15 25 12 26 14 27 13 29
REMARK H PARENT 17 28
ROOT
ATOM      1  C   UNL     1      -1.928  -0.879   0.999  1.00  0.00     0.217 C 
ATOM      2  C   UNL     1      -3.404  -0.472   0.897  1.00  0.00     0.055 C 
ATOM      3  C   UNL     1      -3.560   0.839   0.132  1.00  0.00     0.007 C 
ATOM      4  C   UNL     1      -2.779   1.966   0.810  1.00  0.00     0.032 C 
ATOM      5  C   UNL     1      -1.306   1.610   1.113  1.00  0.00     0.135 C 
ATOM      6  N   UNL     1      -1.149   0.225   1.595  1.00  0.00    -0.304 N 
ENDROOT
BRANCH   1   7
ATOM      7  O   UNL     1      -1.835  -2.031   1.823  1.00  0.00    -0.362 OA
ATOM      8  C   UNL     1      -1.760  -3.205   1.043  1.00  0.00     0.197 C 
ENDBRANCH   1   7
BRANCH   6   9
ATOM      9  C   UNL     1      -0.067  -0.052   2.505  1.00  0.00     0.256 C 
ATOM     10  O   UNL     1      -0.027   0.554   3.610  1.00  0.00    -0.269 OA
BRANCH   9  11
ATOM     11  C   UNL     1       1.000  -1.025   2.170  1.00  0.00     0.040 A 
ATOM     12  C   UNL     1       1.691  -1.694   3.192  1.00  0.00     0.015 A 
ATOM     13  C   UNL     1       1.350  -1.276   0.833  1.00  0.00     0.018 A 
ATOM     14  C   UNL     1       2.697  -2.611   2.883  1.00  0.00     0.021 A 
ATOM     15  C   UNL     1       2.363  -2.193   0.514  1.00  0.00    -0.032 A 
ATOM     16  C   UNL     1       3.036  -2.867   1.551  1.00  0.00     0.044 A 
ATOM     17  C   UNL     1       2.713  -2.449  -0.926  1.00  0.00     0.046 C 
ATOM     18  Cl  UNL     1       4.308  -4.038   1.215  1.00  0.00    -0.084 Cl
ENDBRANCH   9  11
ENDBRANCH   6   9
BRANCH   5  19
ATOM     19  C   UNL     1      -0.376   1.881  -0.047  1.00  0.00     0.039 A 
ATOM     20  C   UNL     1      -0.428   1.293  -1.314  1.00  0.00     0.034 A 
ATOM     21  N   UNL     1       0.714   2.680   0.062  1.00  0.00    -0.357 N 
ATOM     22  C   UNL     1       0.682   1.768  -1.975  1.00  0.00     0.003 A 
ATOM     23  C   UNL     1       1.348   2.602  -1.118  1.00  0.00     0.046 A 
ATOM     24  C   UNL     1       1.159   1.494  -3.255  1.00  0.00     0.049 A 
ATOM     25  C   UNL     1       2.541   3.225  -1.482  1.00  0.00     0.029 A 
ATOM     26  C   UNL     1       2.359   2.112  -3.654  1.00  0.00     0.123 A 
ATOM     27  C   UNL     1       3.047   2.974  -2.770  1.00  0.00     0.041 A 
ATOM     28  H   UNL     1       1.019   3.220   0.902  1.00  0.00     0.166 HD
ATOM     29  F   UNL     1       2.861   1.873  -4.891  1.00  0.00    -0.207 F 
ENDBRANCH   5  19
TORSDOF 4


