REMARK SMILES Cc1cc(N)c([O-])c(-n2nc3ccccc3n2)c1F
REMARK SMILES IDX 1 1 2 2 3 3 4 4 6 5 7 6 8 7 18 8 19 9 5 10 9 13 10 14 17 15
REMARK SMILES IDX 11 16 16 17 12 18 15 19 13 20 14 21
REMARK H PARENT 5 11 5 12
ROOT
ATOM      1  C   UNL     1       1.634   3.108  -1.680  1.00  0.00     0.048 C 
ATOM      2  C   UNL     1       1.649   1.836  -0.880  1.00  0.00    -0.011 A 
ATOM      3  C   UNL     1       2.801   1.458  -0.181  1.00  0.00     0.031 A 
ATOM      4  C   UNL     1       2.834   0.262   0.545  1.00  0.00     0.026 A 
ATOM      5  C   UNL     1       1.703  -0.573   0.566  1.00  0.00    -0.054 A 
ATOM      6  O   UNL     1       1.737  -1.747   1.312  1.00  0.00    -0.870 OA
ATOM      7  C   UNL     1       0.539  -0.216  -0.150  1.00  0.00     0.116 A 
ATOM      8  C   UNL     1       0.525   0.994  -0.874  1.00  0.00     0.153 A 
ATOM      9  F   UNL     1      -0.569   1.347  -1.598  1.00  0.00    -0.204 F 
ENDROOT
BRANCH   4  10
ATOM     10  N   UNL     1       4.021  -0.097   1.262  1.00  0.00    -0.399 N 
ATOM     11  H   UNL     1       4.079  -0.983   1.811  1.00  0.00     0.156 HD
ATOM     12  H   UNL     1       4.861   0.524   1.248  1.00  0.00     0.156 HD
ENDBRANCH   4  10
BRANCH   7  13
ATOM     13  N   UNL     1      -0.623  -1.073  -0.145  1.00  0.00    -0.148 N 
ATOM     14  N   UNL     1      -0.578  -2.382   0.105  1.00  0.00    -0.148 NA
ATOM     15  N   UNL     1      -1.859  -0.642  -0.399  1.00  0.00    -0.148 NA
ATOM     16  C   UNL     1      -1.849  -2.798   0.006  1.00  0.00     0.113 A 
ATOM     17  C   UNL     1      -2.633  -1.732  -0.302  1.00  0.00     0.113 A 
ATOM     18  C   UNL     1      -2.367  -4.079   0.174  1.00  0.00     0.032 A 
ATOM     19  C   UNL     1      -4.009  -1.847  -0.472  1.00  0.00     0.032 A 
ATOM     20  C   UNL     1      -3.757  -4.239   0.010  1.00  0.00     0.002 A 
ATOM     21  C   UNL     1      -4.575  -3.128  -0.311  1.00  0.00     0.002 A 
ENDBRANCH   7  13
TORSDOF 2


