REMARK SMILES C[C@@H](CC(=O)[O-])[N-]C(=O)N(N)c1ccc2cc3ccccc3cc2c1
REMARK SMILES IDX 7 1 2 2 1 3 3 4 4 5 5 6 6 7 8 8 9 9 10 10 11 11 12 14 13 15
REMARK SMILES IDX 25 16 14 17 24 18 15 19 23 20 16 21 22 22 17 23 21 24 18 25
REMARK SMILES IDX 20 26 19 27
REMARK H PARENT 11 12 11 13
ROOT
ATOM      1  N   UNL     1      -1.096  -0.733   2.161  1.00  0.00    -0.426 NA
ENDROOT
BRANCH   1   2
ATOM      2  C   UNL     1      -1.196  -2.128   2.579  1.00  0.00    -0.004 C 
ATOM      3  C   UNL     1      -1.818  -2.960   1.449  1.00  0.00     0.007 C 
BRANCH   2   4
ATOM      4  C   UNL     1       0.209  -2.635   2.942  1.00  0.00     0.055 C 
BRANCH   4   5
ATOM      5  C   UNL     1       0.166  -3.989   3.582  1.00  0.00     0.042 C 
ATOM      6  O   UNL     1       0.475  -5.014   2.918  1.00  0.00    -0.550 OA
ATOM      7  O   UNL     1      -0.244  -4.122   4.902  1.00  0.00    -0.550 OA
ENDBRANCH   4   5
ENDBRANCH   2   4
ENDBRANCH   1   2
BRANCH   1   8
ATOM      8  C   UNL     1      -2.214   0.159   2.063  1.00  0.00     0.170 C 
ATOM      9  O   UNL     1      -3.352  -0.213   2.459  1.00  0.00    -0.297 OA
BRANCH   8  10
ATOM     10  N   UNL     1      -2.035   1.493   1.548  1.00  0.00    -0.359 N 
BRANCH  10  11
ATOM     11  N   UNL     1      -3.030   2.465   1.760  1.00  0.00    -0.312 NA
ATOM     12  H   UNL     1      -3.907   2.130   1.300  1.00  0.00     0.122 HD
ATOM     13  H   UNL     1      -3.207   2.524   2.789  1.00  0.00     0.122 HD
ENDBRANCH  10  11
BRANCH  10  14
ATOM     14  C   UNL     1      -0.843   1.871   0.837  1.00  0.00    -0.026 A 
ATOM     15  C   UNL     1      -0.245   3.117   1.083  1.00  0.00     0.005 A 
ATOM     16  C   UNL     1      -0.285   1.022  -0.135  1.00  0.00     0.013 A 
ATOM     17  C   UNL     1       0.908   3.502   0.395  1.00  0.00     0.009 A 
ATOM     18  C   UNL     1       0.874   1.398  -0.830  1.00  0.00    -0.017 A 
ATOM     19  C   UNL     1       1.478   2.649  -0.561  1.00  0.00    -0.018 A 
ATOM     20  C   UNL     1       1.436   0.544  -1.791  1.00  0.00     0.017 A 
ATOM     21  C   UNL     1       2.637   3.029  -1.254  1.00  0.00     0.017 A 
ATOM     22  C   UNL     1       2.596   0.923  -2.483  1.00  0.00    -0.018 A 
ATOM     23  C   UNL     1       3.201   2.174  -2.213  1.00  0.00    -0.018 A 
ATOM     24  C   UNL     1       3.164   0.071  -3.444  1.00  0.00     0.009 A 
ATOM     25  C   UNL     1       4.361   2.549  -2.909  1.00  0.00     0.009 A 
ATOM     26  C   UNL     1       4.319   0.457  -4.129  1.00  0.00     0.001 A 
ATOM     27  C   UNL     1       4.916   1.691  -3.862  1.00  0.00     0.001 A 
ENDBRANCH  10  14
ENDBRANCH   8  10
ENDBRANCH   1   8
TORSDOF 7


