REMARK SMILES O=C([N-]c1ccc(Br)[nH+]c1Cl)N(c1cc2ccccc2[nH]1)c1cn2ccccc2[nH+]1
REMARK SMILES IDX 1 1 2 2 3 3 4 4 5 5 10 6 6 7 9 8 7 9 11 10 8 12 12 13 13 14
REMARK SMILES IDX 14 15 21 16 15 17 20 18 16 19 19 20 17 21 18 22 22 24 23 25
REMARK SMILES IDX 30 26 24 27 29 28 25 29 28 30 26 31 27 32
REMARK H PARENT 9 11 21 23 30 33
ROOT
ATOM      1  O   UNL     1       2.201  -3.022   1.115  1.00  0.00    -0.254 OA
ATOM      2  C   UNL     1       1.319  -2.129   1.225  1.00  0.00     0.312 C 
ENDROOT
BRANCH   2   3
ATOM      3  N   UNL     1       0.589  -2.026   2.454  1.00  0.00    -0.360 NA
BRANCH   3   4
ATOM      4  C   UNL     1      -0.712  -1.437   2.600  1.00  0.00     0.050 A 
ATOM      5  C   UNL     1      -1.658  -1.493   1.565  1.00  0.00     0.019 A 
ATOM      6  C   UNL     1      -1.062  -0.802   3.802  1.00  0.00     0.277 A 
ATOM      7  C   UNL     1      -2.904  -0.888   1.725  1.00  0.00     0.088 A 
ATOM      8  N   UNL     1      -2.287  -0.219   3.935  1.00  0.00    -0.189 N 
ATOM      9  C   UNL     1      -3.203  -0.244   2.927  1.00  0.00     0.247 A 
ATOM     10  Cl  UNL     1       0.086  -0.711   5.131  1.00  0.00    -0.011 Cl
ATOM     11  H   UNL     1      -2.528   0.264   4.829  1.00  0.00     0.456 HD
ATOM     12  Br  UNL     1      -4.902   0.599   3.157  1.00  0.00     0.027 Br
ENDBRANCH   3   4
ENDBRANCH   2   3
BRANCH   2  13
ATOM     13  N   UNL     1       1.097  -1.207   0.139  1.00  0.00    -0.176 N 
BRANCH  13  14
ATOM     14  C   UNL     1       1.155  -1.671  -1.223  1.00  0.00     0.178 A 
ATOM     15  C   UNL     1       0.869  -2.971  -1.639  1.00  0.00     0.073 A 
ATOM     16  N   UNL     1       1.492  -0.882  -2.272  1.00  0.00    -0.328 N 
ATOM     17  C   UNL     1       1.044  -2.947  -3.005  1.00  0.00     0.003 A 
ATOM     18  C   UNL     1       1.420  -1.675  -3.353  1.00  0.00     0.048 A 
ATOM     19  C   UNL     1       0.897  -3.956  -3.955  1.00  0.00     0.010 A 
ATOM     20  C   UNL     1       1.678  -1.325  -4.678  1.00  0.00     0.027 A 
ATOM     21  C   UNL     1       1.149  -3.632  -5.301  1.00  0.00     0.001 A 
ATOM     22  C   UNL     1       1.539  -2.322  -5.661  1.00  0.00     0.002 A 
ATOM     23  H   UNL     1       1.767   0.126  -2.250  1.00  0.00     0.169 HD
ENDBRANCH  13  14
BRANCH  13  24
ATOM     24  C   UNL     1       0.826   0.180   0.413  1.00  0.00     0.267 A 
ATOM     25  C   UNL     1       1.287   0.898   1.510  1.00  0.00     0.249 A 
ATOM     26  N   UNL     1      -0.033   0.940  -0.307  1.00  0.00    -0.243 N 
ATOM     27  N   UNL     1       0.702   2.106   1.456  1.00  0.00    -0.233 N 
ATOM     28  C   UNL     1      -0.082   2.106   0.364  1.00  0.00     0.230 A 
ATOM     29  C   UNL     1       0.795   3.156   2.310  1.00  0.00     0.168 A 
ATOM     30  C   UNL     1      -0.862   3.214   0.041  1.00  0.00     0.081 A 
ATOM     31  C   UNL     1       0.037   4.303   2.032  1.00  0.00     0.035 A 
ATOM     32  C   UNL     1      -0.792   4.328   0.893  1.00  0.00     0.010 A 
ATOM     33  H   UNL     1      -0.580   0.667  -1.153  1.00  0.00     0.267 HD
ENDBRANCH  13  24
ENDBRANCH   2  13
TORSDOF 5


