REMARK SMILES Cc1ccc(-c2ccc(O[C@H](CO)Cn3nnnc3-c3ccccc3)cc2)c2c[n-]nc12
REMARK SMILES IDX 10 1 9 2 6 3 7 4 27 5 8 6 26 7 5 8 2 9 3 10 32 11 4 12 31 13
REMARK SMILES IDX 28 14 30 15 29 16 1 17 11 18 12 19 13 20 14 22 15 23 16 24
REMARK SMILES IDX 19 25 17 26 18 27 20 28 21 29 25 30 22 31 24 32 23 33
REMARK H PARENT 13 21
ROOT
ATOM      1  O   UNL     1       0.705   2.089   0.678  1.00  0.00    -0.486 OA
ENDROOT
BRANCH   1   2
ATOM      2  C   UNL     1       0.383   1.011  -0.163  1.00  0.00     0.119 A 
ATOM      3  C   UNL     1      -0.219  -1.232  -1.763  1.00  0.00    -0.018 A 
ATOM      4  C   UNL     1       0.501  -1.381  -0.567  1.00  0.00     0.012 A 
ATOM      5  C   UNL     1      -0.647   0.049  -2.147  1.00  0.00     0.012 A 
ATOM      6  C   UNL     1       0.801  -0.267   0.220  1.00  0.00     0.047 A 
ATOM      7  C   UNL     1      -0.347   1.163  -1.357  1.00  0.00     0.047 A 
BRANCH   3   8
ATOM      8  C   UNL     1      -0.545  -2.416  -2.590  1.00  0.00    -0.011 A 
ATOM      9  C   UNL     1      -1.183  -4.700  -4.184  1.00  0.00    -0.027 A 
ATOM     10  C   UNL     1      -1.419  -4.705  -2.793  1.00  0.00     0.006 A 
ATOM     11  C   UNL     1      -0.640  -3.538  -4.739  1.00  0.00     0.050 A 
ATOM     12  C   UNL     1      -1.095  -3.579  -2.004  1.00  0.00     0.010 A 
ATOM     13  N   UNL     1      -0.320  -3.311  -6.025  1.00  0.00    -0.367 NA
ATOM     14  C   UNL     1      -0.333  -2.446  -3.976  1.00  0.00    -0.014 A 
ATOM     15  N   UNL     1       0.198  -2.089  -6.095  1.00  0.00    -0.581 NA
ATOM     16  C   UNL     1       0.208  -1.537  -4.859  1.00  0.00    -0.113 A 
ATOM     17  C   UNL     1      -1.542  -5.878  -5.041  1.00  0.00     0.046 C 
ENDBRANCH   3   8
ENDBRANCH   1   2
BRANCH   1  18
ATOM     18  C   UNL     1       0.512   3.474   0.382  1.00  0.00     0.220 C 
BRANCH  18  19
ATOM     19  C   UNL     1       1.565   3.947  -0.634  1.00  0.00     0.203 C 
BRANCH  19  20
ATOM     20  O   UNL     1       2.862   3.667  -0.178  1.00  0.00    -0.392 OA
ATOM     21  H   UNL     1       3.149   4.443   0.371  1.00  0.00     0.210 HD
ENDBRANCH  19  20
ENDBRANCH  18  19
BRANCH  18  22
ATOM     22  C   UNL     1       0.601   4.281   1.687  1.00  0.00     0.196 C 
BRANCH  22  23
ATOM     23  N   UNL     1      -0.587   4.057   2.514  1.00  0.00    -0.222 N 
ATOM     24  N   UNL     1      -1.672   4.808   2.447  1.00  0.00    -0.045 NA
ATOM     25  C   UNL     1      -0.913   3.003   3.293  1.00  0.00     0.182 A 
ATOM     26  N   UNL     1      -2.629   4.248   3.171  1.00  0.00    -0.023 NA
ATOM     27  N   UNL     1      -2.191   3.117   3.704  1.00  0.00    -0.108 NA
BRANCH  25  28
ATOM     28  C   UNL     1      -0.059   1.844   3.614  1.00  0.00     0.021 A 
ATOM     29  C   UNL     1      -0.580   0.545   3.492  1.00  0.00     0.012 A 
ATOM     30  C   UNL     1       1.250   2.017   4.092  1.00  0.00     0.012 A 
ATOM     31  C   UNL     1       0.210  -0.564   3.807  1.00  0.00     0.001 A 
ATOM     32  C   UNL     1       2.039   0.905   4.402  1.00  0.00     0.001 A 
ATOM     33  C   UNL     1       1.522  -0.385   4.255  1.00  0.00     0.000 A 
ENDBRANCH  25  28
ENDBRANCH  22  23
ENDBRANCH  18  22
ENDBRANCH   1  18
TORSDOF 8


