REMARK SMILES CC(=O)c1ccc(/C(O)=N/[C@@H]2C=CCC2)c(F)c1O
REMARK SMILES IDX 7 1 6 2 5 3 4 4 18 5 16 6 17 7 8 8 9 9 10 11 11 12 12 13
REMARK SMILES IDX 15 14 13 15 14 16 19 17 2 19 3 20 1 21
REMARK H PARENT 9 10 19 18
ROOT
ATOM      1  C   UNL     1      -0.699  -0.082   0.347  1.00  0.00     0.076 A 
ATOM      2  C   UNL     1      -1.609   0.962   0.110  1.00  0.00     0.018 A 
ATOM      3  C   UNL     1      -2.843   0.713  -0.490  1.00  0.00     0.017 A 
ATOM      4  C   UNL     1      -3.210  -0.588  -0.875  1.00  0.00     0.062 A 
ATOM      5  C   UNL     1      -2.300  -1.645  -0.646  1.00  0.00     0.163 A 
ATOM      6  C   UNL     1      -1.058  -1.390  -0.037  1.00  0.00     0.178 A 
ATOM      7  F   UNL     1      -0.207  -2.428   0.170  1.00  0.00    -0.202 F 
ENDROOT
BRANCH   1   8
ATOM      8  C   UNL     1       0.614   0.202   0.991  1.00  0.00     0.217 C 
BRANCH   8   9
ATOM      9  O   UNL     1       1.513  -0.847   1.214  1.00  0.00    -0.493 OA
ATOM     10  H   UNL     1       2.419  -0.723   1.645  1.00  0.00     0.295 HD
ENDBRANCH   8   9
BRANCH   8  11
ATOM     11  N   UNL     1       0.908   1.425   1.337  1.00  0.00    -0.244 NA
BRANCH  11  12
ATOM     12  C   UNL     1       2.150   1.865   1.969  1.00  0.00     0.132 C 
ATOM     13  C   UNL     1       2.015   3.289   2.373  1.00  0.00    -0.005 C 
ATOM     14  C   UNL     1       3.324   1.868   0.972  1.00  0.00     0.036 C 
ATOM     15  C   UNL     1       2.881   4.075   1.759  1.00  0.00    -0.029 C 
ATOM     16  C   UNL     1       3.760   3.329   0.824  1.00  0.00     0.029 C 
ENDBRANCH  11  12
ENDBRANCH   8  11
ENDBRANCH   1   8
BRANCH   5  17
ATOM     17  O   UNL     1      -2.625  -2.946  -1.033  1.00  0.00    -0.504 OA
ATOM     18  H   UNL     1      -1.997  -3.728  -0.889  1.00  0.00     0.293 HD
ENDBRANCH   5  17
BRANCH   4  19
ATOM     19  C   UNL     1      -4.538  -0.835  -1.507  1.00  0.00     0.163 C 
ATOM     20  O   UNL     1      -5.024  -1.998  -1.527  1.00  0.00    -0.294 OA
ATOM     21  C   UNL     1      -5.349   0.280  -2.098  1.00  0.00     0.093 C 
ENDBRANCH   4  19
TORSDOF 6


