REMARK SMILES Cc1c(F)cc([NH2+]c2cccc(N)c2[O-])c2cc(-c3[nH+]c[nH+]cc3F)[nH]c12
REMARK SMILES IDX 7 1 6 4 2 5 3 6 27 7 5 8 26 9 16 10 18 11 17 12 1 13 4 14
REMARK SMILES IDX 19 16 20 17 24 18 21 19 23 20 22 21 25 23 8 25 9 26 14 27
REMARK SMILES IDX 10 28 12 29 11 30 15 31 13 32
REMARK H PARENT 7 2 7 3 26 15 20 22 22 24 13 33 13 34
ROOT
ATOM      1  N   UNL     1      -1.419   1.042  -2.653  1.00  0.00    -0.281 N 
ATOM      2  H   UNL     1      -2.335   0.802  -2.209  1.00  0.00     0.358 HD
ATOM      3  H   UNL     1      -1.606   1.109  -3.680  1.00  0.00     0.358 HD
ENDROOT
BRANCH   1   4
ATOM      4  C   UNL     1      -0.443   0.006  -2.410  1.00  0.00     0.147 A 
ATOM      5  C   UNL     1       1.537  -1.987  -1.889  1.00  0.00     0.009 A 
ATOM      6  C   UNL     1       1.656  -1.126  -3.003  1.00  0.00     0.134 A 
ATOM      7  C   UNL     1       0.416  -1.825  -1.064  1.00  0.00     0.058 A 
ATOM      8  C   UNL     1       0.677  -0.144  -3.258  1.00  0.00     0.108 A 
ATOM      9  N   UNL     1       0.108  -2.529   0.041  1.00  0.00    -0.349 N 
ATOM     10  C   UNL     1      -0.536  -0.866  -1.313  1.00  0.00     0.062 A 
ATOM     11  C   UNL     1      -1.059  -2.016   0.498  1.00  0.00     0.116 A 
ATOM     12  C   UNL     1      -1.491  -0.976  -0.319  1.00  0.00     0.049 A 
ATOM     13  C   UNL     1       2.567  -3.040  -1.591  1.00  0.00     0.050 C 
ATOM     14  F   UNL     1       2.715  -1.228  -3.845  1.00  0.00    -0.206 F 
ATOM     15  H   UNL     1       0.678  -3.289   0.475  1.00  0.00     0.167 HD
BRANCH  11  16
ATOM     16  C   UNL     1      -1.757  -2.483   1.718  1.00  0.00     0.274 A 
ATOM     17  N   UNL     1      -2.482  -1.600   2.467  1.00  0.00    -0.151 N 
ATOM     18  C   UNL     1      -1.698  -3.828   2.119  1.00  0.00     0.260 A 
ATOM     19  C   UNL     1      -3.131  -2.000   3.593  1.00  0.00     0.629 A 
ATOM     20  C   UNL     1      -2.374  -4.213   3.276  1.00  0.00     0.358 A 
ATOM     21  N   UNL     1      -3.074  -3.296   3.992  1.00  0.00    -0.159 N 
ATOM     22  H   UNL     1      -2.535  -0.593   2.196  1.00  0.00     0.460 HD
ATOM     23  F   UNL     1      -1.045  -4.764   1.386  1.00  0.00    -0.193 F 
ATOM     24  H   UNL     1      -3.578  -3.593   4.858  1.00  0.00     0.459 HD
ENDBRANCH  11  16
ENDBRANCH   1   4
BRANCH   1  25
ATOM     25  C   UNL     1      -0.940   2.301  -2.132  1.00  0.00     0.128 A 
ATOM     26  C   UNL     1      -1.090   2.597  -0.765  1.00  0.00     0.067 A 
ATOM     27  C   UNL     1      -0.289   3.238  -2.967  1.00  0.00    -0.021 A 
ATOM     28  C   UNL     1      -0.607   3.796  -0.239  1.00  0.00     0.008 A 
ATOM     29  C   UNL     1       0.198   4.446  -2.433  1.00  0.00     0.029 A 
ATOM     30  C   UNL     1       0.035   4.716  -1.068  1.00  0.00     0.025 A 
ATOM     31  O   UNL     1      -0.132   2.973  -4.324  1.00  0.00    -0.867 OA
BRANCH  29  32
ATOM     32  N   UNL     1       0.859   5.401  -3.270  1.00  0.00    -0.399 N 
ATOM     33  H   UNL     1       0.997   5.228  -4.290  1.00  0.00     0.156 HD
ATOM     34  H   UNL     1       1.220   6.297  -2.873  1.00  0.00     0.156 HD
ENDBRANCH  29  32
ENDBRANCH   1  25
TORSDOF 4


