MODEL 1
REMARK VINA RESULT:      -9.7      0.000      0.000
REMARK SMILES C=Cc1cccc(-c2ccc3c(c2)[C@@H](N)CC3)c1
REMARK SMILES IDX 8 1 9 2 10 3 11 4 12 5 13 6 14 7 16 8 17 9 7 10 3 11 4 12
REMARK SMILES IDX 18 13 5 14 6 15 2 16 1 17 15 18
REMARK H PARENT 15 19 15 20
ROOT
ATOM      1  C   UNL     1      44.219 131.380  17.723  1.00  0.00    -0.018 A 
ATOM      2  C   UNL     1      42.868 131.751  17.924  1.00  0.00     0.009 A 
ATOM      3  C   UNL     1      42.371 131.955  19.219  1.00  0.00     0.005 A 
ATOM      4  C   UNL     1      43.229 131.785  20.306  1.00  0.00    -0.043 A 
ATOM      5  C   UNL     1      44.541 131.433  20.125  1.00  0.00    -0.027 A 
ATOM      6  C   UNL     1      45.061 131.219  18.845  1.00  0.00     0.014 A 
ATOM      7  C   UNL     1      45.271 131.312  21.414  1.00  0.00     0.081 C 
ATOM      8  C   UNL     1      44.164 131.512  22.477  1.00  0.00     0.028 C 
ATOM      9  C   UNL     1      42.886 131.950  21.736  1.00  0.00     0.038 C 
ENDROOT
BRANCH   1  10
ATOM     10  C   UNL     1      44.744 131.163  16.351  1.00  0.00    -0.018 A 
ATOM     11  C   UNL     1      46.463 130.266  14.851  1.00  0.00    -0.026 A 
ATOM     12  C   UNL     1      45.743 130.766  13.754  1.00  0.00     0.008 A 
ATOM     13  C   UNL     1      45.960 130.481  16.151  1.00  0.00     0.016 A 
ATOM     14  C   UNL     1      44.536 131.443  13.945  1.00  0.00     0.001 A 
ATOM     15  C   UNL     1      44.037 131.638  15.234  1.00  0.00     0.009 A 
BRANCH  11  16
ATOM     16  C   UNL     1      47.743 129.564  14.595  1.00  0.00     0.000 C 
ATOM     17  C   UNL     1      48.397 129.599  13.433  1.00  0.00     0.009 C 
ENDBRANCH  11  16
ENDBRANCH   1  10
BRANCH   7  18
ATOM     18  N   UNL     1      46.291 132.354  21.522  1.00  0.00    -0.324 NA
ATOM     19  H   UNL     1      45.904 133.134  22.103  1.00  0.00     0.119 HD
ATOM     20  H   UNL     1      46.442 132.759  20.569  1.00  0.00     0.119 HD
ENDBRANCH   7  18
TORSDOF 3
ENDMDL
MODEL 2
REMARK VINA RESULT:      -8.7      2.131      6.675
REMARK SMILES C=Cc1cccc(-c2ccc3c(c2)[C@@H](N)CC3)c1
REMARK SMILES IDX 8 1 9 2 10 3 11 4 12 5 13 6 14 7 16 8 17 9 7 10 3 11 4 12
REMARK SMILES IDX 18 13 5 14 6 15 2 16 1 17 15 18
REMARK H PARENT 15 19 15 20
ROOT
ATOM      1  C   UNL     1      45.232 131.085  17.046  1.00  0.00    -0.018 A 
ATOM      2  C   UNL     1      44.263 131.628  16.168  1.00  0.00     0.009 A 
ATOM      3  C   UNL     1      44.496 131.664  14.786  1.00  0.00     0.005 A 
ATOM      4  C   UNL     1      45.697 131.156  14.290  1.00  0.00    -0.043 A 
ATOM      5  C   UNL     1      46.641 130.622  15.128  1.00  0.00    -0.027 A 
ATOM      6  C   UNL     1      46.436 130.578  16.511  1.00  0.00     0.014 A 
ATOM      7  C   UNL     1      47.837 130.139  14.389  1.00  0.00     0.081 C 
ATOM      8  C   UNL     1      47.564 130.582  12.931  1.00  0.00     0.028 C 
ATOM      9  C   UNL     1      46.120 131.113  12.872  1.00  0.00     0.038 C 
ENDROOT
BRANCH   1  10
ATOM     10  C   UNL     1      44.986 131.049  18.510  1.00  0.00    -0.018 A 
ATOM     11  C   UNL     1      43.621 131.663  20.451  1.00  0.00    -0.026 A 
ATOM     12  C   UNL     1      44.532 130.992  21.282  1.00  0.00     0.008 A 
ATOM     13  C   UNL     1      43.864 131.697  19.062  1.00  0.00     0.016 A 
ATOM     14  C   UNL     1      45.647 130.348  20.742  1.00  0.00     0.001 A 
ATOM     15  C   UNL     1      45.872 130.373  19.364  1.00  0.00     0.009 A 
BRANCH  11  16
ATOM     16  C   UNL     1      42.459 132.339  21.076  1.00  0.00     0.000 C 
ATOM     17  C   UNL     1      41.604 133.121  20.415  1.00  0.00     0.009 C 
ENDBRANCH  11  16
ENDBRANCH   1  10
BRANCH   7  18
ATOM     18  N   UNL     1      47.939 128.683  14.481  1.00  0.00    -0.324 NA
ATOM     19  H   UNL     1      48.368 128.441  15.404  1.00  0.00     0.119 HD
ATOM     20  H   UNL     1      48.622 128.361  13.757  1.00  0.00     0.119 HD
ENDBRANCH   7  18
TORSDOF 3
ENDMDL
MODEL 3
REMARK VINA RESULT:      -8.6      1.410      2.032
REMARK SMILES C=Cc1cccc(-c2ccc3c(c2)[C@@H](N)CC3)c1
REMARK SMILES IDX 8 1 9 2 10 3 11 4 12 5 13 6 14 7 16 8 17 9 7 10 3 11 4 12
REMARK SMILES IDX 18 13 5 14 6 15 2 16 1 17 15 18
REMARK H PARENT 15 19 15 20
ROOT
ATOM      1  C   UNL     1      45.177 130.920  18.186  1.00  0.00    -0.018 A 
ATOM      2  C   UNL     1      45.970 130.151  19.071  1.00  0.00     0.009 A 
ATOM      3  C   UNL     1      45.725 130.175  20.451  1.00  0.00     0.005 A 
ATOM      4  C   UNL     1      44.687 130.970  20.938  1.00  0.00    -0.043 A 
ATOM      5  C   UNL     1      43.906 131.714  20.092  1.00  0.00    -0.027 A 
ATOM      6  C   UNL     1      44.133 131.711  18.712  1.00  0.00     0.014 A 
ATOM      7  C   UNL     1      42.861 132.478  20.822  1.00  0.00     0.081 C 
ATOM      8  C   UNL     1      43.189 132.208  22.310  1.00  0.00     0.028 C 
ATOM      9  C   UNL     1      44.283 131.126  22.354  1.00  0.00     0.038 C 
ENDROOT
BRANCH   1  10
ATOM     10  C   UNL     1      45.439 130.896  16.724  1.00  0.00    -0.018 A 
ATOM     11  C   UNL     1      46.744 130.090  14.812  1.00  0.00    -0.026 A 
ATOM     12  C   UNL     1      45.941 130.864  13.960  1.00  0.00     0.008 A 
ATOM     13  C   UNL     1      46.492 130.122  16.200  1.00  0.00     0.016 A 
ATOM     14  C   UNL     1      44.896 131.634  14.473  1.00  0.00     0.001 A 
ATOM     15  C   UNL     1      44.643 131.648  15.846  1.00  0.00     0.009 A 
BRANCH  11  16
ATOM     16  C   UNL     1      47.847 129.298  14.219  1.00  0.00     0.000 C 
ATOM     17  C   UNL     1      48.537 129.668  13.138  1.00  0.00     0.009 C 
ENDBRANCH  11  16
ENDBRANCH   1  10
BRANCH   7  18
ATOM     18  N   UNL     1      41.531 131.975  20.481  1.00  0.00    -0.324 NA
ATOM     19  H   UNL     1      41.608 130.950  20.286  1.00  0.00     0.119 HD
ATOM     20  H   UNL     1      41.240 132.415  19.578  1.00  0.00     0.119 HD
ENDBRANCH   7  18
TORSDOF 3
ENDMDL
MODEL 4
REMARK VINA RESULT:      -8.0      1.858      6.370
REMARK SMILES C=Cc1cccc(-c2ccc3c(c2)[C@@H](N)CC3)c1
REMARK SMILES IDX 8 1 9 2 10 3 11 4 12 5 13 6 14 7 16 8 17 9 7 10 3 11 4 12
REMARK SMILES IDX 18 13 5 14 6 15 2 16 1 17 15 18
REMARK H PARENT 15 19 15 20
ROOT
ATOM      1  C   UNL     1      44.312 131.513  16.786  1.00  0.00    -0.018 A 
ATOM      2  C   UNL     1      43.515 131.752  15.641  1.00  0.00     0.009 A 
ATOM      3  C   UNL     1      44.048 131.585  14.355  1.00  0.00     0.005 A 
ATOM      4  C   UNL     1      45.377 131.180  14.222  1.00  0.00    -0.043 A 
ATOM      5  C   UNL     1      46.157 130.937  15.323  1.00  0.00    -0.027 A 
ATOM      6  C   UNL     1      45.652 131.101  16.616  1.00  0.00     0.014 A 
ATOM      7  C   UNL     1      47.533 130.513  14.951  1.00  0.00     0.081 C 
ATOM      8  C   UNL     1      47.551 130.657  13.410  1.00  0.00     0.028 C 
ATOM      9  C   UNL     1      46.111 130.957  12.957  1.00  0.00     0.038 C 
ENDROOT
BRANCH   1  10
ATOM     10  C   UNL     1      43.747 131.692  18.147  1.00  0.00    -0.018 A 
ATOM     11  C   UNL     1      44.001 131.596  20.583  1.00  0.00    -0.026 A 
ATOM     12  C   UNL     1      42.670 132.018  20.722  1.00  0.00     0.008 A 
ATOM     13  C   UNL     1      44.530 131.423  19.287  1.00  0.00     0.016 A 
ATOM     14  C   UNL     1      41.888 132.286  19.597  1.00  0.00     0.001 A 
ATOM     15  C   UNL     1      42.422 132.128  18.317  1.00  0.00     0.009 A 
BRANCH  11  16
ATOM     16  C   UNL     1      44.786 131.315  21.809  1.00  0.00     0.000 C 
ATOM     17  C   UNL     1      44.255 130.885  22.956  1.00  0.00     0.009 C 
ENDBRANCH  11  16
ENDBRANCH   1  10
BRANCH   7  18
ATOM     18  N   UNL     1      47.762 129.125  15.348  1.00  0.00    -0.324 NA
ATOM     19  H   UNL     1      46.882 128.756  15.778  1.00  0.00     0.119 HD
ATOM     20  H   UNL     1      48.475 129.121  16.113  1.00  0.00     0.119 HD
ENDBRANCH   7  18
TORSDOF 3
ENDMDL
MODEL 5
REMARK VINA RESULT:      -7.5      1.076      1.487
REMARK SMILES C=Cc1cccc(-c2ccc3c(c2)[C@@H](N)CC3)c1
REMARK SMILES IDX 8 1 9 2 10 3 11 4 12 5 13 6 14 7 16 8 17 9 7 10 3 11 4 12
REMARK SMILES IDX 18 13 5 14 6 15 2 16 1 17 15 18
REMARK H PARENT 15 19 15 20
ROOT
ATOM      1  C   UNL     1      44.549 131.010  17.623  1.00  0.00    -0.018 A 
ATOM      2  C   UNL     1      43.287 131.621  17.430  1.00  0.00     0.009 A 
ATOM      3  C   UNL     1      42.559 132.113  18.522  1.00  0.00     0.005 A 
ATOM      4  C   UNL     1      43.099 131.991  19.803  1.00  0.00    -0.043 A 
ATOM      5  C   UNL     1      44.324 131.409  20.003  1.00  0.00    -0.027 A 
ATOM      6  C   UNL     1      45.068 130.906  18.932  1.00  0.00     0.014 A 
ATOM      7  C   UNL     1      44.705 131.389  21.440  1.00  0.00     0.081 C 
ATOM      8  C   UNL     1      43.447 131.937  22.156  1.00  0.00     0.028 C 
ATOM      9  C   UNL     1      42.481 132.444  21.069  1.00  0.00     0.038 C 
ENDROOT
BRANCH   1  10
ATOM     10  C   UNL     1      45.318 130.487  16.465  1.00  0.00    -0.018 A 
ATOM     11  C   UNL     1      46.770 130.874  14.529  1.00  0.00    -0.026 A 
ATOM     12  C   UNL     1      46.760 129.495  14.267  1.00  0.00     0.008 A 
ATOM     13  C   UNL     1      46.033 131.364  15.627  1.00  0.00     0.016 A 
ATOM     14  C   UNL     1      46.053 128.620  15.094  1.00  0.00     0.001 A 
ATOM     15  C   UNL     1      45.339 129.110  16.188  1.00  0.00     0.009 A 
BRANCH  11  16
ATOM     16  C   UNL     1      47.528 131.762  13.615  1.00  0.00     0.000 C 
ATOM     17  C   UNL     1      48.073 131.362  12.465  1.00  0.00     0.009 C 
ENDBRANCH  11  16
ENDBRANCH   1  10
BRANCH   7  18
ATOM     18  N   UNL     1      45.858 132.258  21.674  1.00  0.00    -0.324 NA
ATOM     19  H   UNL     1      46.133 132.691  20.761  1.00  0.00     0.119 HD
ATOM     20  H   UNL     1      46.665 131.656  21.956  1.00  0.00     0.119 HD
ENDBRANCH   7  18
TORSDOF 3
ENDMDL
MODEL 6
REMARK VINA RESULT:      -7.4      2.039      6.596
REMARK SMILES C=Cc1cccc(-c2ccc3c(c2)[C@@H](N)CC3)c1
REMARK SMILES IDX 8 1 9 2 10 3 11 4 12 5 13 6 14 7 16 8 17 9 7 10 3 11 4 12
REMARK SMILES IDX 18 13 5 14 6 15 2 16 1 17 15 18
REMARK H PARENT 15 19 15 20
ROOT
ATOM      1  C   UNL     1      43.652 131.347  19.925  1.00  0.00    -0.018 A 
ATOM      2  C   UNL     1      42.510 131.734  19.183  1.00  0.00     0.009 A 
ATOM      3  C   UNL     1      42.585 131.893  17.792  1.00  0.00     0.005 A 
ATOM      4  C   UNL     1      43.803 131.663  17.151  1.00  0.00    -0.043 A 
ATOM      5  C   UNL     1      44.914 131.280  17.856  1.00  0.00    -0.027 A 
ATOM      6  C   UNL     1      44.868 131.119  19.244  1.00  0.00     0.014 A 
ATOM      7  C   UNL     1      46.096 131.087  16.976  1.00  0.00     0.081 C 
ATOM      8  C   UNL     1      45.592 131.548  15.587  1.00  0.00     0.028 C 
ATOM      9  C   UNL     1      44.074 131.785  15.701  1.00  0.00     0.038 C 
ENDROOT
BRANCH   1  10
ATOM     10  C   UNL     1      43.573 131.181  21.398  1.00  0.00    -0.018 A 
ATOM     11  C   UNL     1      44.140 129.932  23.430  1.00  0.00    -0.026 A 
ATOM     12  C   UNL     1      43.408 130.861  24.185  1.00  0.00     0.008 A 
ATOM     13  C   UNL     1      44.206 130.093  22.030  1.00  0.00     0.016 A 
ATOM     14  C   UNL     1      42.777 131.941  23.566  1.00  0.00     0.001 A 
ATOM     15  C   UNL     1      42.860 132.103  22.182  1.00  0.00     0.009 A 
BRANCH  11  16
ATOM     16  C   UNL     1      44.782 128.797  24.134  1.00  0.00     0.000 C 
ATOM     17  C   UNL     1      45.013 127.605  23.580  1.00  0.00     0.009 C 
ENDBRANCH  11  16
ENDBRANCH   1  10
BRANCH   7  18
ATOM     18  N   UNL     1      46.485 129.678  16.947  1.00  0.00    -0.324 NA
ATOM     19  H   UNL     1      45.790 129.157  16.363  1.00  0.00     0.119 HD
ATOM     20  H   UNL     1      46.385 129.295  17.916  1.00  0.00     0.119 HD
ENDBRANCH   7  18
TORSDOF 3
ENDMDL
MODEL 7
REMARK VINA RESULT:      -7.4      2.234      6.446
REMARK SMILES C=Cc1cccc(-c2ccc3c(c2)[C@@H](N)CC3)c1
REMARK SMILES IDX 8 1 9 2 10 3 11 4 12 5 13 6 14 7 16 8 17 9 7 10 3 11 4 12
REMARK SMILES IDX 18 13 5 14 6 15 2 16 1 17 15 18
REMARK H PARENT 15 19 15 20
ROOT
ATOM      1  C   UNL     1      45.025 131.436  17.868  1.00  0.00    -0.018 A 
ATOM      2  C   UNL     1      45.150 132.619  17.101  1.00  0.00     0.009 A 
ATOM      3  C   UNL     1      45.781 132.593  15.850  1.00  0.00     0.005 A 
ATOM      4  C   UNL     1      46.284 131.381  15.373  1.00  0.00    -0.043 A 
ATOM      5  C   UNL     1      46.163 130.227  16.102  1.00  0.00    -0.027 A 
ATOM      6  C   UNL     1      45.542 130.227  17.355  1.00  0.00     0.014 A 
ATOM      7  C   UNL     1      46.762 129.059  15.404  1.00  0.00     0.081 C 
ATOM      8  C   UNL     1      47.420 129.685  14.151  1.00  0.00     0.028 C 
ATOM      9  C   UNL     1      46.981 131.160  14.086  1.00  0.00     0.038 C 
ENDROOT
BRANCH   1  10
ATOM     10  C   UNL     1      44.359 131.465  19.195  1.00  0.00    -0.018 A 
ATOM     11  C   UNL     1      44.262 130.760  21.540  1.00  0.00    -0.026 A 
ATOM     12  C   UNL     1      43.086 131.510  21.700  1.00  0.00     0.008 A 
ATOM     13  C   UNL     1      44.887 130.733  20.276  1.00  0.00     0.016 A 
ATOM     14  C   UNL     1      42.558 132.238  20.633  1.00  0.00     0.001 A 
ATOM     15  C   UNL     1      43.190 132.220  19.388  1.00  0.00     0.009 A 
BRANCH  11  16
ATOM     16  C   UNL     1      44.777 129.997  22.702  1.00  0.00     0.000 C 
ATOM     17  C   UNL     1      44.461 128.727  22.963  1.00  0.00     0.009 C 
ENDBRANCH  11  16
ENDBRANCH   1  10
BRANCH   7  18
ATOM     18  N   UNL     1      45.722 128.104  15.024  1.00  0.00    -0.324 NA
ATOM     19  H   UNL     1      46.086 127.518  14.237  1.00  0.00     0.119 HD
ATOM     20  H   UNL     1      44.918 128.642  14.629  1.00  0.00     0.119 HD
ENDBRANCH   7  18
TORSDOF 3
ENDMDL
MODEL 8
REMARK VINA RESULT:      -7.1      2.125      6.505
REMARK SMILES C=Cc1cccc(-c2ccc3c(c2)[C@@H](N)CC3)c1
REMARK SMILES IDX 8 1 9 2 10 3 11 4 12 5 13 6 14 7 16 8 17 9 7 10 3 11 4 12
REMARK SMILES IDX 18 13 5 14 6 15 2 16 1 17 15 18
REMARK H PARENT 15 19 15 20
ROOT
ATOM      1  C   UNL     1      45.217 131.486  16.924  1.00  0.00    -0.018 A 
ATOM      2  C   UNL     1      45.248 132.569  16.013  1.00  0.00     0.009 A 
ATOM      3  C   UNL     1      46.003 132.487  14.835  1.00  0.00     0.005 A 
ATOM      4  C   UNL     1      46.725 131.321  14.575  1.00  0.00    -0.043 A 
ATOM      5  C   UNL     1      46.698 130.263  15.445  1.00  0.00    -0.027 A 
ATOM      6  C   UNL     1      45.957 130.320  16.630  1.00  0.00     0.014 A 
ATOM      7  C   UNL     1      47.531 129.127  14.970  1.00  0.00     0.081 C 
ATOM      8  C   UNL     1      48.218 129.688  13.702  1.00  0.00     0.028 C 
ATOM      9  C   UNL     1      47.577 131.054  13.395  1.00  0.00     0.038 C 
ENDROOT
BRANCH   1  10
ATOM     10  C   UNL     1      44.419 131.575  18.173  1.00  0.00    -0.018 A 
ATOM     11  C   UNL     1      44.271 131.429  20.615  1.00  0.00    -0.026 A 
ATOM     12  C   UNL     1      42.902 131.728  20.534  1.00  0.00     0.008 A 
ATOM     13  C   UNL     1      45.022 131.342  19.425  1.00  0.00     0.016 A 
ATOM     14  C   UNL     1      42.298 131.960  19.296  1.00  0.00     0.001 A 
ATOM     15  C   UNL     1      43.051 131.888  18.123  1.00  0.00     0.009 A 
BRANCH  11  16
ATOM     16  C   UNL     1      44.862 131.181  21.952  1.00  0.00     0.000 C 
ATOM     17  C   UNL     1      44.152 130.870  23.039  1.00  0.00     0.009 C 
ENDBRANCH  11  16
ENDBRANCH   1  10
BRANCH   7  18
ATOM     18  N   UNL     1      46.687 127.979  14.641  1.00  0.00    -0.324 NA
ATOM     19  H   UNL     1      45.850 128.326  14.118  1.00  0.00     0.119 HD
ATOM     20  H   UNL     1      46.319 127.582  15.536  1.00  0.00     0.119 HD
ENDBRANCH   7  18
TORSDOF 3
ENDMDL
MODEL 9
REMARK VINA RESULT:      -7.1      1.920      6.674
REMARK SMILES C=Cc1cccc(-c2ccc3c(c2)[C@@H](N)CC3)c1
REMARK SMILES IDX 8 1 9 2 10 3 11 4 12 5 13 6 14 7 16 8 17 9 7 10 3 11 4 12
REMARK SMILES IDX 18 13 5 14 6 15 2 16 1 17 15 18
REMARK H PARENT 15 19 15 20
ROOT
ATOM      1  C   UNL     1      44.498 131.493  18.459  1.00  0.00    -0.018 A 
ATOM      2  C   UNL     1      43.275 131.710  17.780  1.00  0.00     0.009 A 
ATOM      3  C   UNL     1      43.215 131.640  16.381  1.00  0.00     0.005 A 
ATOM      4  C   UNL     1      44.380 131.353  15.669  1.00  0.00    -0.043 A 
ATOM      5  C   UNL     1      45.569 131.134  16.314  1.00  0.00    -0.027 A 
ATOM      6  C   UNL     1      45.658 131.203  17.708  1.00  0.00     0.014 A 
ATOM      7  C   UNL     1      46.675 130.842  15.365  1.00  0.00     0.081 C 
ATOM      8  C   UNL     1      46.023 131.048  13.976  1.00  0.00     0.028 C 
ATOM      9  C   UNL     1      44.512 131.243  14.199  1.00  0.00     0.038 C 
ENDROOT
BRANCH   1  10
ATOM     10  C   UNL     1      44.562 131.570  19.940  1.00  0.00    -0.018 A 
ATOM     11  C   UNL     1      43.494 131.300  22.130  1.00  0.00    -0.026 A 
ATOM     12  C   UNL     1      44.681 131.731  22.743  1.00  0.00     0.008 A 
ATOM     13  C   UNL     1      43.439 131.235  20.722  1.00  0.00     0.016 A 
ATOM     14  C   UNL     1      45.797 132.066  21.974  1.00  0.00     0.001 A 
ATOM     15  C   UNL     1      45.741 131.983  20.582  1.00  0.00     0.009 A 
BRANCH  11  16
ATOM     16  C   UNL     1      42.334 130.966  22.991  1.00  0.00     0.000 C 
ATOM     17  C   UNL     1      42.305 129.941  23.844  1.00  0.00     0.009 C 
ENDBRANCH  11  16
ENDBRANCH   1  10
BRANCH   7  18
ATOM     18  N   UNL     1      47.134 129.463  15.525  1.00  0.00    -0.324 NA
ATOM     19  H   UNL     1      47.608 129.381  16.455  1.00  0.00     0.119 HD
ATOM     20  H   UNL     1      47.877 129.284  14.811  1.00  0.00     0.119 HD
ENDBRANCH   7  18
TORSDOF 3
ENDMDL


