REMARK SMILES Cc1ccc(-c2ccc(NC3CC(=O)C3)c(C=O)c2)cc1
REMARK SMILES IDX 6 1 7 2 8 3 9 4 16 5 19 6 5 7 2 8 3 9 21 10 4 11 20 12 1 13
REMARK SMILES IDX 17 14 18 15 10 16 11 18 12 19 15 20 13 21 14 22
REMARK H PARENT 10 17
ROOT
ATOM      1  C   UNL     1      -0.165  -0.185  -1.456  1.00  0.00    -0.018 A 
ATOM      2  C   UNL     1      -1.459  -0.519  -1.032  1.00  0.00     0.011 A 
ATOM      3  C   UNL     1      -1.694  -0.907   0.287  1.00  0.00     0.027 A 
ATOM      4  C   UNL     1      -0.643  -0.967   1.220  1.00  0.00     0.045 A 
ATOM      5  C   UNL     1       0.663  -0.596   0.810  1.00  0.00     0.038 A 
ATOM      6  C   UNL     1       0.888  -0.229  -0.528  1.00  0.00     0.022 A 
ENDROOT
BRANCH   1   7
ATOM      7  C   UNL     1       0.087   0.217  -2.864  1.00  0.00    -0.018 A 
ATOM      8  C   UNL     1       0.573   0.988  -5.533  1.00  0.00    -0.051 A 
ATOM      9  C   UNL     1       1.466   0.135  -4.870  1.00  0.00     0.004 A 
ATOM     10  C   UNL     1      -0.576   1.435  -4.866  1.00  0.00     0.004 A 
ATOM     11  C   UNL     1       1.230  -0.242  -3.545  1.00  0.00     0.009 A 
ATOM     12  C   UNL     1      -0.815   1.058  -3.541  1.00  0.00     0.009 A 
ATOM     13  C   UNL     1       0.808   1.361  -6.967  1.00  0.00     0.044 C 
ENDBRANCH   1   7
BRANCH   5  14
ATOM     14  C   UNL     1       1.811  -0.525   1.741  1.00  0.00     0.262 C 
ATOM     15  O   UNL     1       1.650  -0.414   2.985  1.00  0.00    -0.298 OA
ENDBRANCH   5  14
BRANCH   4  16
ATOM     16  N   UNL     1      -0.893  -1.459   2.550  1.00  0.00    -0.381 N 
ATOM     17  H   UNL     1      -0.159  -2.044   3.010  1.00  0.00     0.160 HD
BRANCH  16  18
ATOM     18  C   UNL     1      -2.179  -1.284   3.236  1.00  0.00     0.094 C 
ATOM     19  C   UNL     1      -2.509   0.158   3.491  1.00  0.00     0.100 C 
ATOM     20  C   UNL     1      -2.079  -1.437   4.727  1.00  0.00     0.100 C 
ATOM     21  C   UNL     1      -2.424   0.016   4.999  1.00  0.00     0.137 C 
ATOM     22  O   UNL     1      -2.566   0.734   5.975  1.00  0.00    -0.300 OA
ENDBRANCH  16  18
ENDBRANCH   4  16
TORSDOF 4


