REMARK SMILES COC(=O)C[C](C)Oc1ccc([C@H]2O[C@@H]2C(=O)c2ccc(F)cc2)cc1F
REMARK SMILES IDX 8 1 6 2 7 3 5 4 3 5 4 6 2 7 1 8 9 9 10 10 26 11 11 12 25 13
REMARK SMILES IDX 12 14 27 15 13 16 14 17 15 18 16 19 17 20 18 21 19 22 24 23
REMARK SMILES IDX 20 24 23 25 21 26 22 27
REMARK H PARENT
ROOT
ATOM      1  O   UNL     1      -3.513   1.378  -1.832  1.00  0.00    -0.480 OA
ENDROOT
BRANCH   1   2
ATOM      2  C   UNL     1      -4.152   2.652  -1.883  1.00  0.00     0.156 C 
ATOM      3  C   UNL     1      -3.639   3.448  -3.081  1.00  0.00     0.062 C 
BRANCH   2   4
ATOM      4  C   UNL     1      -5.670   2.476  -1.938  1.00  0.00     0.175 C 
BRANCH   4   5
ATOM      5  C   UNL     1      -6.161   1.826  -0.685  1.00  0.00     0.309 C 
ATOM      6  O   UNL     1      -6.754   0.714  -0.746  1.00  0.00    -0.252 OA
BRANCH   5   7
ATOM      7  O   UNL     1      -5.959   2.461   0.544  1.00  0.00    -0.469 OA
ATOM      8  C   UNL     1      -6.388   1.895   1.777  1.00  0.00     0.282 C 
ENDBRANCH   5   7
ENDBRANCH   4   5
ENDBRANCH   2   4
ENDBRANCH   1   2
BRANCH   1   9
ATOM      9  C   UNL     1      -2.280   1.151  -1.205  1.00  0.00     0.156 A 
ATOM     10  C   UNL     1      -1.610   2.158  -0.485  1.00  0.00     0.050 A 
ATOM     11  C   UNL     1      -1.706  -0.123  -1.296  1.00  0.00     0.165 A 
ATOM     12  C   UNL     1      -0.384   1.888   0.129  1.00  0.00     0.010 A 
ATOM     13  C   UNL     1      -0.479  -0.392  -0.682  1.00  0.00     0.049 A 
ATOM     14  C   UNL     1       0.182   0.607   0.047  1.00  0.00    -0.013 A 
ATOM     15  F   UNL     1      -2.338  -1.104  -1.988  1.00  0.00    -0.203 F 
BRANCH  14  16
ATOM     16  C   UNL     1       1.517   0.330   0.675  1.00  0.00     0.186 C 
ATOM     17  O   UNL     1       1.535   0.734   2.025  1.00  0.00    -0.356 OA
ATOM     18  C   UNL     1       1.532  -0.655   1.786  1.00  0.00     0.224 C 
BRANCH  18  19
ATOM     19  C   UNL     1       2.869  -1.262   2.096  1.00  0.00     0.194 C 
ATOM     20  O   UNL     1       3.532  -0.801   3.066  1.00  0.00    -0.291 OA
BRANCH  19  21
ATOM     21  C   UNL     1       3.410  -2.396   1.305  1.00  0.00     0.021 A 
ATOM     22  C   UNL     1       2.609  -3.080   0.371  1.00  0.00     0.015 A 
ATOM     23  C   UNL     1       4.746  -2.807   1.482  1.00  0.00     0.015 A 
ATOM     24  C   UNL     1       3.134  -4.143  -0.371  1.00  0.00     0.040 A 
ATOM     25  C   UNL     1       5.266  -3.869   0.737  1.00  0.00     0.040 A 
ATOM     26  C   UNL     1       4.462  -4.537  -0.189  1.00  0.00     0.123 A 
ATOM     27  F   UNL     1       4.970  -5.565  -0.913  1.00  0.00    -0.207 F 
ENDBRANCH  19  21
ENDBRANCH  18  19
ENDBRANCH  14  16
ENDBRANCH   1   9
TORSDOF 8


