MODEL 1
REMARK VINA RESULT:      -4.4      0.000      0.000
REMARK SMILES O=C(N(c1ccc2cc[nH]c2c1)c1ccc([O-])cc1F)C1(CF)CNC1
REMARK SMILES IDX 1 1 2 2 3 3 4 4 5 5 12 6 6 7 11 8 7 9 10 10 8 11 9 12 13 14
REMARK SMILES IDX 14 15 19 16 15 17 18 18 16 19 20 20 17 21 21 22 24 23 26 24
REMARK SMILES IDX 25 25 22 27 23 28
REMARK H PARENT 10 13 25 26
ROOT
ATOM      1  O   UNL     1      45.324 122.909  23.933  1.00  0.00    -0.273 OA
ATOM      2  C   UNL     1      44.828 124.019  23.598  1.00  0.00     0.243 C 
ENDROOT
BRANCH   2   3
ATOM      3  N   UNL     1      45.694 125.160  23.451  1.00  0.00    -0.277 N 
BRANCH   3   4
ATOM      4  C   UNL     1      45.145 126.489  23.446  1.00  0.00     0.051 A 
ATOM      5  C   UNL     1      44.286 126.911  24.492  1.00  0.00     0.027 A 
ATOM      6  C   UNL     1      45.502 127.395  22.422  1.00  0.00     0.053 A 
ATOM      7  C   UNL     1      43.761 128.215  24.507  1.00  0.00     0.012 A 
ATOM      8  C   UNL     1      44.964 128.679  22.467  1.00  0.00     0.047 A 
ATOM      9  C   UNL     1      44.122 129.073  23.472  1.00  0.00    -0.000 A 
ATOM     10  N   UNL     1      45.166 129.680  21.594  1.00  0.00    -0.361 N 
ATOM     11  C   UNL     1      43.773 130.384  23.228  1.00  0.00     0.028 A 
ATOM     12  C   UNL     1      44.441 130.724  22.055  1.00  0.00     0.083 A 
ATOM     13  H   UNL     1      45.761 129.660  20.736  1.00  0.00     0.166 HD
ENDBRANCH   3   4
BRANCH   3  14
ATOM     14  C   UNL     1      47.125 124.976  23.407  1.00  0.00     0.085 A 
ATOM     15  C   UNL     1      47.946 125.565  24.386  1.00  0.00     0.029 A 
ATOM     16  C   UNL     1      47.725 124.216  22.382  1.00  0.00     0.146 A 
ATOM     17  C   UNL     1      49.332 125.394  24.348  1.00  0.00    -0.006 A 
ATOM     18  C   UNL     1      49.114 124.048  22.349  1.00  0.00     0.033 A 
ATOM     19  C   UNL     1      49.916 124.634  23.331  1.00  0.00    -0.106 A 
ATOM     20  F   UNL     1      46.973 123.665  21.396  1.00  0.00    -0.205 F 
ATOM     21  O   UNL     1      51.295 124.464  23.294  1.00  0.00    -0.872 OA
ENDBRANCH   3  14
ENDBRANCH   2   3
BRANCH   2  22
ATOM     22  C   UNL     1      43.332 124.115  23.359  1.00  0.00     0.103 C 
ATOM     23  C   UNL     1      42.925 124.955  22.147  1.00  0.00     0.102 C 
ATOM     24  C   UNL     1      42.778 122.946  22.542  1.00  0.00     0.102 C 
ATOM     25  N   UNL     1      42.397 123.801  21.417  1.00  0.00    -0.314 NA
ATOM     26  H   UNL     1      43.037 123.596  20.613  1.00  0.00     0.122 HD
BRANCH  22  27
ATOM     27  C   UNL     1      42.511 124.412  24.625  1.00  0.00     0.234 C 
ATOM     28  F   UNL     1      41.227 124.801  24.284  1.00  0.00    -0.250 F 
ENDBRANCH  22  27
ENDBRANCH   2  22
TORSDOF 5
ENDMDL
MODEL 2
REMARK VINA RESULT:      -2.1      4.683      7.351
REMARK SMILES O=C(N(c1ccc2cc[nH]c2c1)c1ccc([O-])cc1F)C1(CF)CNC1
REMARK SMILES IDX 1 1 2 2 3 3 4 4 5 5 12 6 6 7 11 8 7 9 10 10 8 11 9 12 13 14
REMARK SMILES IDX 14 15 19 16 15 17 18 18 16 19 20 20 17 21 21 22 24 23 26 24
REMARK SMILES IDX 25 25 22 27 23 28
REMARK H PARENT 10 13 25 26
ROOT
ATOM      1  O   UNL     1      45.577 128.675  21.480  1.00  0.00    -0.273 OA
ATOM      2  C   UNL     1      44.891 129.660  21.866  1.00  0.00     0.243 C 
ENDROOT
BRANCH   2   3
ATOM      3  N   UNL     1      45.094 130.944  21.245  1.00  0.00    -0.277 N 
BRANCH   3   4
ATOM      4  C   UNL     1      45.796 131.984  21.946  1.00  0.00     0.051 A 
ATOM      5  C   UNL     1      45.313 132.457  23.193  1.00  0.00     0.027 A 
ATOM      6  C   UNL     1      46.999 132.502  21.417  1.00  0.00     0.053 A 
ATOM      7  C   UNL     1      46.005 133.459  23.896  1.00  0.00     0.012 A 
ATOM      8  C   UNL     1      47.659 133.494  22.140  1.00  0.00     0.047 A 
ATOM      9  C   UNL     1      47.177 133.956  23.334  1.00  0.00    -0.000 A 
ATOM     10  N   UNL     1      48.801 134.121  21.811  1.00  0.00    -0.361 N 
ATOM     11  C   UNL     1      48.051 134.920  23.787  1.00  0.00     0.028 A 
ATOM     12  C   UNL     1      49.045 134.993  22.816  1.00  0.00     0.083 A 
ATOM     13  H   UNL     1      49.384 133.967  20.958  1.00  0.00     0.166 HD
ENDBRANCH   3   4
BRANCH   3  14
ATOM     14  C   UNL     1      44.678 131.156  19.879  1.00  0.00     0.085 A 
ATOM     15  C   UNL     1      45.507 130.754  18.815  1.00  0.00     0.029 A 
ATOM     16  C   UNL     1      43.445 131.775  19.587  1.00  0.00     0.146 A 
ATOM     17  C   UNL     1      45.112 130.959  17.491  1.00  0.00    -0.006 A 
ATOM     18  C   UNL     1      43.056 131.977  18.258  1.00  0.00     0.033 A 
ATOM     19  C   UNL     1      43.886 131.568  17.211  1.00  0.00    -0.106 A 
ATOM     20  F   UNL     1      42.636 132.213  20.583  1.00  0.00    -0.205 F 
ATOM     21  O   UNL     1      43.495 131.771  15.894  1.00  0.00    -0.872 OA
ENDBRANCH   3  14
ENDBRANCH   2   3
BRANCH   2  22
ATOM     22  C   UNL     1      43.872 129.460  22.972  1.00  0.00     0.103 C 
ATOM     23  C   UNL     1      43.543 128.000  23.291  1.00  0.00     0.102 C 
ATOM     24  C   UNL     1      44.494 129.464  24.370  1.00  0.00     0.102 C 
ATOM     25  N   UNL     1      44.142 128.067  24.625  1.00  0.00    -0.314 NA
ATOM     26  H   UNL     1      45.021 127.497  24.624  1.00  0.00     0.122 HD
BRANCH  22  27
ATOM     27  C   UNL     1      42.634 130.365  22.858  1.00  0.00     0.234 C 
ATOM     28  F   UNL     1      41.797 130.173  23.944  1.00  0.00    -0.250 F 
ENDBRANCH  22  27
ENDBRANCH   2  22
TORSDOF 5
ENDMDL
MODEL 3
REMARK VINA RESULT:      -2.0      5.191      7.930
REMARK SMILES O=C(N(c1ccc2cc[nH]c2c1)c1ccc([O-])cc1F)C1(CF)CNC1
REMARK SMILES IDX 1 1 2 2 3 3 4 4 5 5 12 6 6 7 11 8 7 9 10 10 8 11 9 12 13 14
REMARK SMILES IDX 14 15 19 16 15 17 18 18 16 19 20 20 17 21 21 22 24 23 26 24
REMARK SMILES IDX 25 25 22 27 23 28
REMARK H PARENT 10 13 25 26
ROOT
ATOM      1  O   UNL     1      45.707 129.131  21.132  1.00  0.00    -0.273 OA
ATOM      2  C   UNL     1      45.176 130.253  21.353  1.00  0.00     0.243 C 
ENDROOT
BRANCH   2   3
ATOM      3  N   UNL     1      45.479 131.357  20.479  1.00  0.00    -0.277 N 
BRANCH   3   4
ATOM      4  C   UNL     1      46.305 132.440  20.940  1.00  0.00     0.051 A 
ATOM      5  C   UNL     1      45.942 133.783  20.665  1.00  0.00     0.027 A 
ATOM      6  C   UNL     1      47.456 132.167  21.712  1.00  0.00     0.053 A 
ATOM      7  C   UNL     1      46.734 134.848  21.129  1.00  0.00     0.012 A 
ATOM      8  C   UNL     1      48.217 133.246  22.156  1.00  0.00     0.047 A 
ATOM      9  C   UNL     1      47.869 134.539  21.872  1.00  0.00    -0.000 A 
ATOM     10  N   UNL     1      49.343 133.205  22.889  1.00  0.00    -0.361 N 
ATOM     11  C   UNL     1      48.814 135.358  22.450  1.00  0.00     0.028 A 
ATOM     12  C   UNL     1      49.711 134.494  23.071  1.00  0.00     0.083 A 
ATOM     13  H   UNL     1      49.833 132.356  23.246  1.00  0.00     0.166 HD
ENDBRANCH   3   4
BRANCH   3  14
ATOM     14  C   UNL     1      45.032 131.331  19.106  1.00  0.00     0.085 A 
ATOM     15  C   UNL     1      45.862 130.800  18.102  1.00  0.00     0.029 A 
ATOM     16  C   UNL     1      43.769 131.843  18.747  1.00  0.00     0.146 A 
ATOM     17  C   UNL     1      45.438 130.774  16.771  1.00  0.00    -0.006 A 
ATOM     18  C   UNL     1      43.350 131.814  17.412  1.00  0.00     0.033 A 
ATOM     19  C   UNL     1      44.181 131.279  16.426  1.00  0.00    -0.106 A 
ATOM     20  F   UNL     1      42.956 132.401  19.679  1.00  0.00    -0.205 F 
ATOM     21  O   UNL     1      43.761 131.252  15.102  1.00  0.00    -0.872 OA
ENDBRANCH   3  14
ENDBRANCH   2   3
BRANCH   2  22
ATOM     22  C   UNL     1      44.234 130.403  22.533  1.00  0.00     0.103 C 
ATOM     23  C   UNL     1      43.991 131.845  22.985  1.00  0.00     0.102 C 
ATOM     24  C   UNL     1      42.760 130.445  22.124  1.00  0.00     0.102 C 
ATOM     25  N   UNL     1      42.582 131.822  22.587  1.00  0.00    -0.314 NA
ATOM     26  H   UNL     1      42.464 132.441  21.750  1.00  0.00     0.122 HD
BRANCH  22  27
ATOM     27  C   UNL     1      44.514 129.429  23.690  1.00  0.00     0.234 C 
ATOM     28  F   UNL     1      44.228 128.131  23.304  1.00  0.00    -0.250 F 
ENDBRANCH  22  27
ENDBRANCH   2  22
TORSDOF 5
ENDMDL
MODEL 4
REMARK VINA RESULT:      -2.0      5.350      8.493
REMARK SMILES O=C(N(c1ccc2cc[nH]c2c1)c1ccc([O-])cc1F)C1(CF)CNC1
REMARK SMILES IDX 1 1 2 2 3 3 4 4 5 5 12 6 6 7 11 8 7 9 10 10 8 11 9 12 13 14
REMARK SMILES IDX 14 15 19 16 15 17 18 18 16 19 20 20 17 21 21 22 24 23 26 24
REMARK SMILES IDX 25 25 22 27 23 28
REMARK H PARENT 10 13 25 26
ROOT
ATOM      1  O   UNL     1      45.329 134.017  19.943  1.00  0.00    -0.273 OA
ATOM      2  C   UNL     1      45.539 132.991  20.645  1.00  0.00     0.243 C 
ENDROOT
BRANCH   2   3
ATOM      3  N   UNL     1      44.941 131.739  20.256  1.00  0.00    -0.277 N 
BRANCH   3   4
ATOM      4  C   UNL     1      44.906 131.353  18.872  1.00  0.00     0.051 A 
ATOM      5  C   UNL     1      43.805 131.718  18.056  1.00  0.00     0.027 A 
ATOM      6  C   UNL     1      45.995 130.650  18.309  1.00  0.00     0.053 A 
ATOM      7  C   UNL     1      43.772 131.363  16.696  1.00  0.00     0.012 A 
ATOM      8  C   UNL     1      45.929 130.314  16.959  1.00  0.00     0.047 A 
ATOM      9  C   UNL     1      44.855 130.656  16.182  1.00  0.00    -0.000 A 
ATOM     10  N   UNL     1      46.844 129.645  16.238  1.00  0.00    -0.361 N 
ATOM     11  C   UNL     1      45.098 130.185  14.910  1.00  0.00     0.028 A 
ATOM     12  C   UNL     1      46.341 129.564  14.985  1.00  0.00     0.083 A 
ATOM     13  H   UNL     1      47.758 129.266  16.573  1.00  0.00     0.166 HD
ENDBRANCH   3   4
BRANCH   3  14
ATOM     14  C   UNL     1      44.465 130.826  21.267  1.00  0.00     0.085 A 
ATOM     15  C   UNL     1      45.210 129.678  21.593  1.00  0.00     0.029 A 
ATOM     16  C   UNL     1      43.246 131.060  21.936  1.00  0.00     0.146 A 
ATOM     17  C   UNL     1      44.753 128.787  22.568  1.00  0.00    -0.006 A 
ATOM     18  C   UNL     1      42.794 130.164  22.912  1.00  0.00     0.033 A 
ATOM     19  C   UNL     1      43.546 129.031  23.229  1.00  0.00    -0.106 A 
ATOM     20  F   UNL     1      42.478 132.134  21.623  1.00  0.00    -0.205 F 
ATOM     21  O   UNL     1      43.094 128.145  24.199  1.00  0.00    -0.872 OA
ENDBRANCH   3  14
ENDBRANCH   2   3
BRANCH   2  22
ATOM     22  C   UNL     1      46.417 133.109  21.877  1.00  0.00     0.103 C 
ATOM     23  C   UNL     1      47.791 132.447  21.755  1.00  0.00     0.102 C 
ATOM     24  C   UNL     1      47.219 134.412  21.921  1.00  0.00     0.102 C 
ATOM     25  N   UNL     1      48.506 133.723  21.816  1.00  0.00    -0.314 NA
ATOM     26  H   UNL     1      48.913 133.921  20.872  1.00  0.00     0.122 HD
BRANCH  22  27
ATOM     27  C   UNL     1      45.693 132.799  23.198  1.00  0.00     0.234 C 
ATOM     28  F   UNL     1      46.173 133.611  24.210  1.00  0.00    -0.250 F 
ENDBRANCH  22  27
ENDBRANCH   2  22
TORSDOF 5
ENDMDL
MODEL 5
REMARK VINA RESULT:      -1.8      5.907      8.020
REMARK SMILES O=C(N(c1ccc2cc[nH]c2c1)c1ccc([O-])cc1F)C1(CF)CNC1
REMARK SMILES IDX 1 1 2 2 3 3 4 4 5 5 12 6 6 7 11 8 7 9 10 10 8 11 9 12 13 14
REMARK SMILES IDX 14 15 19 16 15 17 18 18 16 19 20 20 17 21 21 22 24 23 26 24
REMARK SMILES IDX 25 25 22 27 23 28
REMARK H PARENT 10 13 25 26
ROOT
ATOM      1  O   UNL     1      42.444 131.966  20.518  1.00  0.00    -0.273 OA
ATOM      2  C   UNL     1      43.575 131.648  20.975  1.00  0.00     0.243 C 
ENDROOT
BRANCH   2   3
ATOM      3  N   UNL     1      44.750 131.902  20.180  1.00  0.00    -0.277 N 
BRANCH   3   4
ATOM      4  C   UNL     1      44.789 131.505  18.799  1.00  0.00     0.051 A 
ATOM      5  C   UNL     1      43.768 131.920  17.907  1.00  0.00     0.027 A 
ATOM      6  C   UNL     1      45.875 130.741  18.316  1.00  0.00     0.053 A 
ATOM      7  C   UNL     1      43.809 131.554  16.551  1.00  0.00     0.012 A 
ATOM      8  C   UNL     1      45.884 130.396  16.967  1.00  0.00     0.047 A 
ATOM      9  C   UNL     1      44.885 130.786  16.116  1.00  0.00    -0.000 A 
ATOM     10  N   UNL     1      46.809 129.672  16.315  1.00  0.00    -0.361 N 
ATOM     11  C   UNL     1      45.189 130.290  14.867  1.00  0.00     0.028 A 
ATOM     12  C   UNL     1      46.389 129.605  15.031  1.00  0.00     0.083 A 
ATOM     13  H   UNL     1      47.677 129.249  16.714  1.00  0.00     0.166 HD
ENDBRANCH   3   4
BRANCH   3  14
ATOM     14  C   UNL     1      45.853 132.643  20.744  1.00  0.00     0.085 A 
ATOM     15  C   UNL     1      45.728 134.023  20.989  1.00  0.00     0.029 A 
ATOM     16  C   UNL     1      47.073 132.004  21.048  1.00  0.00     0.146 A 
ATOM     17  C   UNL     1      46.792 134.747  21.532  1.00  0.00    -0.006 A 
ATOM     18  C   UNL     1      48.135 132.736  21.591  1.00  0.00     0.033 A 
ATOM     19  C   UNL     1      47.995 134.104  21.835  1.00  0.00    -0.106 A 
ATOM     20  F   UNL     1      47.249 130.684  20.789  1.00  0.00    -0.205 F 
ATOM     21  O   UNL     1      49.053 134.826  22.375  1.00  0.00    -0.872 OA
ENDBRANCH   3  14
ENDBRANCH   2   3
BRANCH   2  22
ATOM     22  C   UNL     1      43.663 131.010  22.349  1.00  0.00     0.103 C 
ATOM     23  C   UNL     1      44.288 131.891  23.431  1.00  0.00     0.102 C 
ATOM     24  C   UNL     1      42.382 131.174  23.170  1.00  0.00     0.102 C 
ATOM     25  N   UNL     1      43.037 132.002  24.184  1.00  0.00    -0.314 NA
ATOM     26  H   UNL     1      42.680 132.983  24.092  1.00  0.00     0.122 HD
BRANCH  22  27
ATOM     27  C   UNL     1      44.195 129.567  22.339  1.00  0.00     0.234 C 
ATOM     28  F   UNL     1      45.198 129.431  21.395  1.00  0.00    -0.250 F 
ENDBRANCH  22  27
ENDBRANCH   2  22
TORSDOF 5
ENDMDL
MODEL 6
REMARK VINA RESULT:      -1.8      5.805      7.917
REMARK SMILES O=C(N(c1ccc2cc[nH]c2c1)c1ccc([O-])cc1F)C1(CF)CNC1
REMARK SMILES IDX 1 1 2 2 3 3 4 4 5 5 12 6 6 7 11 8 7 9 10 10 8 11 9 12 13 14
REMARK SMILES IDX 14 15 19 16 15 17 18 18 16 19 20 20 17 21 21 22 24 23 26 24
REMARK SMILES IDX 25 25 22 27 23 28
REMARK H PARENT 10 13 25 26
ROOT
ATOM      1  O   UNL     1      42.349 131.716  20.307  1.00  0.00    -0.273 OA
ATOM      2  C   UNL     1      43.478 131.539  20.839  1.00  0.00     0.243 C 
ENDROOT
BRANCH   2   3
ATOM      3  N   UNL     1      44.667 131.803  20.069  1.00  0.00    -0.277 N 
BRANCH   3   4
ATOM      4  C   UNL     1      44.728 131.430  18.682  1.00  0.00     0.051 A 
ATOM      5  C   UNL     1      43.714 131.850  17.784  1.00  0.00     0.027 A 
ATOM      6  C   UNL     1      45.828 130.684  18.201  1.00  0.00     0.053 A 
ATOM      7  C   UNL     1      43.776 131.507  16.422  1.00  0.00     0.012 A 
ATOM      8  C   UNL     1      45.857 130.362  16.846  1.00  0.00     0.047 A 
ATOM      9  C   UNL     1      44.866 130.757  15.989  1.00  0.00    -0.000 A 
ATOM     10  N   UNL     1      46.799 129.659  16.195  1.00  0.00    -0.361 N 
ATOM     11  C   UNL     1      45.191 130.285  14.736  1.00  0.00     0.028 A 
ATOM     12  C   UNL     1      46.396 129.610  14.905  1.00  0.00     0.083 A 
ATOM     13  H   UNL     1      47.665 129.237  16.598  1.00  0.00     0.166 HD
ENDBRANCH   3   4
BRANCH   3  14
ATOM     14  C   UNL     1      45.762 132.532  20.664  1.00  0.00     0.085 A 
ATOM     15  C   UNL     1      45.636 133.908  20.930  1.00  0.00     0.029 A 
ATOM     16  C   UNL     1      46.975 131.884  20.978  1.00  0.00     0.146 A 
ATOM     17  C   UNL     1      46.693 134.620  21.503  1.00  0.00    -0.006 A 
ATOM     18  C   UNL     1      48.029 132.604  21.552  1.00  0.00     0.033 A 
ATOM     19  C   UNL     1      47.889 133.968  21.815  1.00  0.00    -0.106 A 
ATOM     20  F   UNL     1      47.151 130.568  20.700  1.00  0.00    -0.205 F 
ATOM     21  O   UNL     1      48.939 134.678  22.385  1.00  0.00    -0.872 OA
ENDBRANCH   3  14
ENDBRANCH   2   3
BRANCH   2  22
ATOM     22  C   UNL     1      43.548 131.055  22.276  1.00  0.00     0.103 C 
ATOM     23  C   UNL     1      42.520 129.984  22.647  1.00  0.00     0.102 C 
ATOM     24  C   UNL     1      44.566 129.930  22.482  1.00  0.00     0.102 C 
ATOM     25  N   UNL     1      43.540 128.952  22.843  1.00  0.00    -0.314 NA
ATOM     26  H   UNL     1      43.459 128.253  22.066  1.00  0.00     0.122 HD
BRANCH  22  27
ATOM     27  C   UNL     1      43.673 132.182  23.315  1.00  0.00     0.234 C 
ATOM     28  F   UNL     1      44.870 132.071  24.001  1.00  0.00    -0.250 F 
ENDBRANCH  22  27
ENDBRANCH   2  22
TORSDOF 5
ENDMDL
MODEL 7
REMARK VINA RESULT:      -1.4      5.438      7.522
REMARK SMILES O=C(N(c1ccc2cc[nH]c2c1)c1ccc([O-])cc1F)C1(CF)CNC1
REMARK SMILES IDX 1 1 2 2 3 3 4 4 5 5 12 6 6 7 11 8 7 9 10 10 8 11 9 12 13 14
REMARK SMILES IDX 14 15 19 16 15 17 18 18 16 19 20 20 17 21 21 22 24 23 26 24
REMARK SMILES IDX 25 25 22 27 23 28
REMARK H PARENT 10 13 25 26
ROOT
ATOM      1  O   UNL     1      42.673 132.245  22.479  1.00  0.00    -0.273 OA
ATOM      2  C   UNL     1      43.604 131.424  22.260  1.00  0.00     0.243 C 
ENDROOT
BRANCH   2   3
ATOM      3  N   UNL     1      44.701 131.816  21.411  1.00  0.00    -0.277 N 
BRANCH   3   4
ATOM      4  C   UNL     1      44.664 131.528  20.003  1.00  0.00     0.051 A 
ATOM      5  C   UNL     1      43.520 131.862  19.235  1.00  0.00     0.027 A 
ATOM      6  C   UNL     1      45.791 130.955  19.372  1.00  0.00     0.053 A 
ATOM      7  C   UNL     1      43.484 131.603  17.853  1.00  0.00     0.012 A 
ATOM      8  C   UNL     1      45.721 130.712  18.002  1.00  0.00     0.047 A 
ATOM      9  C   UNL     1      44.606 131.023  17.271  1.00  0.00    -0.000 A 
ATOM     10  N   UNL     1      46.669 130.170  17.219  1.00  0.00    -0.361 N 
ATOM     11  C   UNL     1      44.856 130.663  15.964  1.00  0.00     0.028 A 
ATOM     12  C   UNL     1      46.145 130.139  15.973  1.00  0.00     0.083 A 
ATOM     13  H   UNL     1      47.616 129.841  17.510  1.00  0.00     0.166 HD
ENDBRANCH   3   4
BRANCH   3  14
ATOM     14  C   UNL     1      45.793 132.585  21.957  1.00  0.00     0.085 A 
ATOM     15  C   UNL     1      46.830 133.036  21.119  1.00  0.00     0.029 A 
ATOM     16  C   UNL     1      45.846 132.889  23.333  1.00  0.00     0.146 A 
ATOM     17  C   UNL     1      47.892 133.779  21.642  1.00  0.00    -0.006 A 
ATOM     18  C   UNL     1      46.913 133.633  23.849  1.00  0.00     0.033 A 
ATOM     19  C   UNL     1      47.933 134.079  23.006  1.00  0.00    -0.106 A 
ATOM     20  F   UNL     1      44.888 132.438  24.181  1.00  0.00    -0.205 F 
ATOM     21  O   UNL     1      48.990 134.818  23.523  1.00  0.00    -0.872 OA
ENDBRANCH   3  14
ENDBRANCH   2   3
BRANCH   2  22
ATOM     22  C   UNL     1      43.540 130.049  22.899  1.00  0.00     0.103 C 
ATOM     23  C   UNL     1      43.673 130.039  24.423  1.00  0.00     0.102 C 
ATOM     24  C   UNL     1      42.110 129.579  23.173  1.00  0.00     0.102 C 
ATOM     25  N   UNL     1      42.299 129.576  24.625  1.00  0.00    -0.314 NA
ATOM     26  H   UNL     1      41.741 130.361  25.034  1.00  0.00     0.122 HD
BRANCH  22  27
ATOM     27  C   UNL     1      44.401 128.987  22.193  1.00  0.00     0.234 C 
ATOM     28  F   UNL     1      45.641 129.510  21.872  1.00  0.00    -0.250 F 
ENDBRANCH  22  27
ENDBRANCH   2  22
TORSDOF 5
ENDMDL


