REMARK SMILES N/N=c1\cc(-c2ccc3[nH]ccc3c2)[n-][nH]c1=O
REMARK SMILES IDX 5 1 15 2 16 3 17 5 18 6 3 7 4 8 6 9 7 10 8 11 14 12 9 13
REMARK SMILES IDX 13 14 10 15 12 16 11 17 2 19 1 20
REMARK H PARENT 16 4 10 18 1 21 1 22
ROOT
ATOM      1  C   UNL     1      -1.986  -1.830   0.178  1.00  0.00    -0.115 A 
ATOM      2  N   UNL     1      -2.242  -3.154   0.357  1.00  0.00    -0.594 NA
ATOM      3  N   UNL     1      -3.199  -3.585   1.178  1.00  0.00    -0.424 N 
ATOM      4  H   UNL     1      -3.351  -4.614   1.276  1.00  0.00     0.144 HD
ATOM      5  C   UNL     1      -3.971  -2.718   1.885  1.00  0.00     0.258 A 
ATOM      6  O   UNL     1      -4.866  -3.164   2.654  1.00  0.00    -0.269 OA
ATOM      7  C   UNL     1      -3.769  -1.336   1.754  1.00  0.00     0.145 A 
ATOM      8  C   UNL     1      -2.764  -0.892   0.874  1.00  0.00     0.021 A 
ENDROOT
BRANCH   1   9
ATOM      9  C   UNL     1      -0.912  -1.418  -0.761  1.00  0.00    -0.039 A 
ATOM     10  C   UNL     1      -0.581  -2.254  -1.862  1.00  0.00     0.009 A 
ATOM     11  C   UNL     1       0.437  -1.894  -2.763  1.00  0.00     0.027 A 
ATOM     12  C   UNL     1      -0.188  -0.214  -0.564  1.00  0.00     0.017 A 
ATOM     13  C   UNL     1       1.114  -0.699  -2.538  1.00  0.00     0.045 A 
ATOM     14  C   UNL     1       0.813   0.108  -1.477  1.00  0.00    -0.000 A 
ATOM     15  N   UNL     1       2.115  -0.178  -3.267  1.00  0.00    -0.361 N 
ATOM     16  C   UNL     1       1.662   1.192  -1.530  1.00  0.00     0.028 A 
ATOM     17  C   UNL     1       2.453   0.979  -2.654  1.00  0.00     0.083 A 
ATOM     18  H   UNL     1       2.548  -0.582  -4.127  1.00  0.00     0.166 HD
ENDBRANCH   1   9
BRANCH   7  19
ATOM     19  N   UNL     1      -4.529  -0.521   2.437  1.00  0.00    -0.178 NA
BRANCH  19  20
ATOM     20  N   UNL     1      -4.428   0.881   2.457  1.00  0.00    -0.323 N 
ATOM     21  H   UNL     1      -5.150   1.430   2.972  1.00  0.00     0.179 HD
ATOM     22  H   UNL     1      -3.601   1.398   2.090  1.00  0.00     0.179 HD
ENDBRANCH  19  20
ENDBRANCH   7  19
TORSDOF 3


