MODEL 1
REMARK VINA RESULT:      -6.6      0.000      0.000
REMARK SMILES Cc1cc2ccc([C@@H]3O[C@H](C)NN3C(O)=C3C[NH2+]C3)cc2[nH]1
REMARK SMILES IDX 8 1 9 2 10 3 11 4 12 5 13 6 7 8 2 9 3 10 22 11 4 12 21 13
REMARK SMILES IDX 5 14 20 15 6 16 1 17 14 19 15 20 16 22 17 23 19 24 18 25
REMARK H PARENT 12 7 22 18 15 21 18 26 18 27
ROOT
ATOM      1  C   UNL     1      43.230 131.174  22.567  1.00  0.00     0.267 C 
ATOM      2  O   UNL     1      43.342 132.449  23.144  1.00  0.00    -0.333 OA
ATOM      3  C   UNL     1      43.909 132.270  24.431  1.00  0.00     0.204 C 
ATOM      4  C   UNL     1      45.065 133.244  24.622  1.00  0.00     0.058 C 
ATOM      5  N   UNL     1      44.392 130.895  24.591  1.00  0.00    -0.201 NA
ATOM      6  N   UNL     1      43.922 130.262  23.444  1.00  0.00    -0.243 N 
ATOM      7  H   UNL     1      43.895 130.467  25.407  1.00  0.00     0.151 HD
ENDROOT
BRANCH   1   8
ATOM      8  C   UNL     1      43.851 131.182  21.191  1.00  0.00     0.005 A 
ATOM      9  C   UNL     1      44.071 131.542  16.699  1.00  0.00     0.013 A 
ATOM     10  C   UNL     1      45.294 131.287  17.314  1.00  0.00     0.031 A 
ATOM     11  N   UNL     1      43.075 131.636  17.612  1.00  0.00    -0.359 N 
ATOM     12  C   UNL     1      45.003 131.208  18.659  1.00  0.00    -0.000 A 
ATOM     13  C   UNL     1      43.658 131.424  18.804  1.00  0.00     0.046 A 
ATOM     14  C   UNL     1      45.832 130.976  19.752  1.00  0.00     0.011 A 
ATOM     15  C   UNL     1      43.046 131.422  20.055  1.00  0.00     0.035 A 
ATOM     16  C   UNL     1      45.246 130.964  21.030  1.00  0.00     0.009 A 
ATOM     17  C   UNL     1      43.881 131.779  15.237  1.00  0.00     0.064 C 
ATOM     18  H   UNL     1      42.068 131.841  17.430  1.00  0.00     0.166 HD
ENDBRANCH   1   8
BRANCH   6  19
ATOM     19  C   UNL     1      44.049 128.849  23.204  1.00  0.00     0.214 C 
BRANCH  19  20
ATOM     20  O   UNL     1      45.177 128.368  22.541  1.00  0.00    -0.493 OA
ATOM     21  H   UNL     1      46.108 128.707  22.752  1.00  0.00     0.295 HD
ENDBRANCH  19  20
BRANCH  19  22
ATOM     22  C   UNL     1      43.112 127.994  23.620  1.00  0.00     0.099 C 
ATOM     23  C   UNL     1      41.984 127.913  24.623  1.00  0.00     0.304 C 
ATOM     24  C   UNL     1      42.668 126.580  23.321  1.00  0.00     0.304 C 
ATOM     25  N   UNL     1      41.604 126.555  24.299  1.00  0.00    -0.339 N 
ATOM     26  H   UNL     1      40.656 126.496  23.861  1.00  0.00     0.346 HD
ATOM     27  H   UNL     1      41.792 125.886  25.083  1.00  0.00     0.346 HD
ENDBRANCH  19  22
ENDBRANCH   6  19
TORSDOF 4
ENDMDL
MODEL 2
REMARK VINA RESULT:      -5.8      1.625      2.130
REMARK SMILES Cc1cc2ccc([C@@H]3O[C@H](C)NN3C(O)=C3C[NH2+]C3)cc2[nH]1
REMARK SMILES IDX 8 1 9 2 10 3 11 4 12 5 13 6 7 8 2 9 3 10 22 11 4 12 21 13
REMARK SMILES IDX 5 14 20 15 6 16 1 17 14 19 15 20 16 22 17 23 19 24 18 25
REMARK H PARENT 12 7 22 18 15 21 18 26 18 27
ROOT
ATOM      1  C   UNL     1      42.833 131.598  22.884  1.00  0.00     0.267 C 
ATOM      2  O   UNL     1      43.432 132.705  23.507  1.00  0.00    -0.333 OA
ATOM      3  C   UNL     1      44.150 132.209  24.625  1.00  0.00     0.204 C 
ATOM      4  C   UNL     1      45.560 132.784  24.624  1.00  0.00     0.058 C 
ATOM      5  N   UNL     1      44.214 130.745  24.583  1.00  0.00    -0.201 NA
ATOM      6  N   UNL     1      43.368 130.423  23.526  1.00  0.00    -0.243 N 
ATOM      7  H   UNL     1      43.774 130.372  25.457  1.00  0.00     0.151 HD
ENDROOT
BRANCH   1   8
ATOM      8  C   UNL     1      43.156 131.608  21.410  1.00  0.00     0.005 A 
ATOM      9  C   UNL     1      45.476 130.790  17.626  1.00  0.00     0.013 A 
ATOM     10  C   UNL     1      44.275 131.469  17.428  1.00  0.00     0.031 A 
ATOM     11  N   UNL     1      45.670 130.516  18.938  1.00  0.00    -0.359 N 
ATOM     12  C   UNL     1      43.743 131.619  18.690  1.00  0.00    -0.000 A 
ATOM     13  C   UNL     1      44.607 131.033  19.576  1.00  0.00     0.046 A 
ATOM     14  C   UNL     1      42.556 132.217  19.106  1.00  0.00     0.011 A 
ATOM     15  C   UNL     1      44.347 131.005  20.944  1.00  0.00     0.035 A 
ATOM     16  C   UNL     1      42.264 132.209  20.481  1.00  0.00     0.009 A 
ATOM     17  C   UNL     1      46.391 130.333  16.538  1.00  0.00     0.064 C 
ATOM     18  H   UNL     1      46.473 130.001  19.364  1.00  0.00     0.166 HD
ENDBRANCH   1   8
BRANCH   6  19
ATOM     19  C   UNL     1      43.013 129.075  23.170  1.00  0.00     0.214 C 
BRANCH  19  20
ATOM     20  O   UNL     1      41.711 128.800  22.754  1.00  0.00    -0.493 OA
ATOM     21  H   UNL     1      41.197 127.996  23.095  1.00  0.00     0.295 HD
ENDBRANCH  19  20
BRANCH  19  22
ATOM     22  C   UNL     1      43.913 128.090  23.217  1.00  0.00     0.099 C 
ATOM     23  C   UNL     1      45.333 127.844  23.673  1.00  0.00     0.304 C 
ATOM     24  C   UNL     1      44.015 126.640  22.804  1.00  0.00     0.304 C 
ATOM     25  N   UNL     1      45.377 126.460  23.254  1.00  0.00    -0.339 N 
ATOM     26  H   UNL     1      45.450 125.797  24.060  1.00  0.00     0.346 HD
ATOM     27  H   UNL     1      46.045 126.299  22.463  1.00  0.00     0.346 HD
ENDBRANCH  19  22
ENDBRANCH   6  19
TORSDOF 4
ENDMDL
MODEL 3
REMARK VINA RESULT:      -5.5      1.079      1.655
REMARK SMILES Cc1cc2ccc([C@@H]3O[C@H](C)NN3C(O)=C3C[NH2+]C3)cc2[nH]1
REMARK SMILES IDX 8 1 9 2 10 3 11 4 12 5 13 6 7 8 2 9 3 10 22 11 4 12 21 13
REMARK SMILES IDX 5 14 20 15 6 16 1 17 14 19 15 20 16 22 17 23 19 24 18 25
REMARK H PARENT 12 7 22 18 15 21 18 26 18 27
ROOT
ATOM      1  C   UNL     1      43.087 130.950  22.747  1.00  0.00     0.267 C 
ATOM      2  O   UNL     1      43.130 132.174  23.435  1.00  0.00    -0.333 OA
ATOM      3  C   UNL     1      43.980 131.987  24.555  1.00  0.00     0.204 C 
ATOM      4  C   UNL     1      44.992 133.123  24.625  1.00  0.00     0.058 C 
ATOM      5  N   UNL     1      44.683 130.705  24.455  1.00  0.00    -0.201 NA
ATOM      6  N   UNL     1      44.078 130.099  23.358  1.00  0.00    -0.243 N 
ATOM      7  H   UNL     1      44.442 130.132  25.297  1.00  0.00     0.151 HD
ENDROOT
BRANCH   1   8
ATOM      8  C   UNL     1      43.391 131.178  21.286  1.00  0.00     0.005 A 
ATOM      9  C   UNL     1      45.642 130.905  17.385  1.00  0.00     0.013 A 
ATOM     10  C   UNL     1      44.452 131.625  17.311  1.00  0.00     0.031 A 
ATOM     11  N   UNL     1      45.849 130.432  18.637  1.00  0.00    -0.359 N 
ATOM     12  C   UNL     1      43.940 131.591  18.590  1.00  0.00    -0.000 A 
ATOM     13  C   UNL     1      44.805 130.864  19.364  1.00  0.00     0.046 A 
ATOM     14  C   UNL     1      42.771 132.138  19.111  1.00  0.00     0.011 A 
ATOM     15  C   UNL     1      44.563 130.633  20.716  1.00  0.00     0.035 A 
ATOM     16  C   UNL     1      42.497 131.927  20.474  1.00  0.00     0.009 A 
ATOM     17  C   UNL     1      46.533 130.603  16.226  1.00  0.00     0.064 C 
ATOM     18  H   UNL     1      46.648 129.845  18.967  1.00  0.00     0.166 HD
ENDBRANCH   1   8
BRANCH   6  19
ATOM     19  C   UNL     1      44.358 128.752  22.935  1.00  0.00     0.214 C 
BRANCH  19  20
ATOM     20  O   UNL     1      45.282 128.536  21.912  1.00  0.00    -0.493 OA
ATOM     21  H   UNL     1      44.997 128.433  20.945  1.00  0.00     0.295 HD
ENDBRANCH  19  20
BRANCH  19  22
ATOM     22  C   UNL     1      43.761 127.710  23.516  1.00  0.00     0.099 C 
ATOM     23  C   UNL     1      42.470 126.926  23.438  1.00  0.00     0.304 C 
ATOM     24  C   UNL     1      44.048 126.724  24.625  1.00  0.00     0.304 C 
ATOM     25  N   UNL     1      42.796 126.012  24.509  1.00  0.00    -0.339 N 
ATOM     26  H   UNL     1      42.921 125.028  24.176  1.00  0.00     0.346 HD
ATOM     27  H   UNL     1      42.181 126.139  25.348  1.00  0.00     0.346 HD
ENDBRANCH  19  22
ENDBRANCH   6  19
TORSDOF 4
ENDMDL
MODEL 4
REMARK VINA RESULT:      -4.5      7.264      9.551
REMARK SMILES Cc1cc2ccc([C@@H]3O[C@H](C)NN3C(O)=C3C[NH2+]C3)cc2[nH]1
REMARK SMILES IDX 8 1 9 2 10 3 11 4 12 5 13 6 7 8 2 9 3 10 22 11 4 12 21 13
REMARK SMILES IDX 5 14 20 15 6 16 1 17 14 19 15 20 16 22 17 23 19 24 18 25
REMARK H PARENT 12 7 22 18 15 21 18 26 18 27
ROOT
ATOM      1  C   UNL     1      49.824 123.419  22.328  1.00  0.00     0.267 C 
ATOM      2  O   UNL     1      50.533 124.037  23.370  1.00  0.00    -0.333 OA
ATOM      3  C   UNL     1      51.594 124.764  22.772  1.00  0.00     0.204 C 
ATOM      4  C   UNL     1      51.625 126.180  23.332  1.00  0.00     0.058 C 
ATOM      5  N   UNL     1      51.423 124.812  21.316  1.00  0.00    -0.201 NA
ATOM      6  N   UNL     1      50.354 123.950  21.096  1.00  0.00    -0.243 N 
ATOM      7  H   UNL     1      52.267 124.379  20.873  1.00  0.00     0.151 HD
ENDROOT
BRANCH   1   8
ATOM      8  C   UNL     1      48.352 123.725  22.464  1.00  0.00     0.005 A 
ATOM      9  C   UNL     1      44.627 126.204  23.043  1.00  0.00     0.013 A 
ATOM     10  C   UNL     1      44.387 124.846  22.847  1.00  0.00     0.031 A 
ATOM     11  N   UNL     1      45.952 126.476  23.004  1.00  0.00    -0.359 N 
ATOM     12  C   UNL     1      45.637 124.285  22.702  1.00  0.00    -0.000 A 
ATOM     13  C   UNL     1      46.558 125.294  22.801  1.00  0.00     0.046 A 
ATOM     14  C   UNL     1      46.016 122.964  22.479  1.00  0.00     0.011 A 
ATOM     15  C   UNL     1      47.924 125.054  22.683  1.00  0.00     0.035 A 
ATOM     16  C   UNL     1      47.388 122.686  22.359  1.00  0.00     0.009 A 
ATOM     17  C   UNL     1      43.569 127.249  23.184  1.00  0.00     0.064 C 
ATOM     18  H   UNL     1      46.409 127.411  23.099  1.00  0.00     0.166 HD
ENDBRANCH   1   8
BRANCH   6  19
ATOM     19  C   UNL     1      49.886 123.577  19.788  1.00  0.00     0.214 C 
BRANCH  19  20
ATOM     20  O   UNL     1      48.522 123.364  19.586  1.00  0.00    -0.493 OA
ATOM     21  H   UNL     1      48.157 122.465  19.296  1.00  0.00     0.295 HD
ENDBRANCH  19  20
BRANCH  19  22
ATOM     22  C   UNL     1      50.733 123.447  18.765  1.00  0.00     0.099 C 
ATOM     23  C   UNL     1      51.279 122.378  17.845  1.00  0.00     0.304 C 
ATOM     24  C   UNL     1      51.660 124.324  17.955  1.00  0.00     0.304 C 
ATOM     25  N   UNL     1      52.152 123.263  17.105  1.00  0.00    -0.339 N 
ATOM     26  H   UNL     1      51.858 123.377  16.107  1.00  0.00     0.346 HD
ATOM     27  H   UNL     1      53.166 123.054  17.265  1.00  0.00     0.346 HD
ENDBRANCH  19  22
ENDBRANCH   6  19
TORSDOF 4
ENDMDL
MODEL 5
REMARK VINA RESULT:      -4.5      2.981      4.733
REMARK SMILES Cc1cc2ccc([C@@H]3O[C@H](C)NN3C(O)=C3C[NH2+]C3)cc2[nH]1
REMARK SMILES IDX 8 1 9 2 10 3 11 4 12 5 13 6 7 8 2 9 3 10 22 11 4 12 21 13
REMARK SMILES IDX 5 14 20 15 6 16 1 17 14 19 15 20 16 22 17 23 19 24 18 25
REMARK H PARENT 12 7 22 18 15 21 18 26 18 27
ROOT
ATOM      1  C   UNL     1      44.617 127.161  24.289  1.00  0.00     0.267 C 
ATOM      2  O   UNL     1      45.969 126.984  24.624  1.00  0.00    -0.333 OA
ATOM      3  C   UNL     1      46.249 125.601  24.489  1.00  0.00     0.204 C 
ATOM      4  C   UNL     1      47.522 125.413  23.674  1.00  0.00     0.058 C 
ATOM      5  N   UNL     1      45.135 124.916  23.827  1.00  0.00    -0.201 NA
ATOM      6  N   UNL     1      44.155 125.901  23.760  1.00  0.00    -0.243 N 
ATOM      7  H   UNL     1      44.780 124.170  24.470  1.00  0.00     0.151 HD
ENDROOT
BRANCH   1   8
ATOM      8  C   UNL     1      44.487 128.262  23.264  1.00  0.00     0.005 A 
ATOM      9  C   UNL     1      42.730 131.859  21.182  1.00  0.00     0.013 A 
ATOM     10  C   UNL     1      43.905 131.381  20.607  1.00  0.00     0.031 A 
ATOM     11  N   UNL     1      42.382 131.124  22.265  1.00  0.00    -0.359 N 
ATOM     12  C   UNL     1      44.260 130.296  21.380  1.00  0.00    -0.000 A 
ATOM     13  C   UNL     1      43.322 130.169  22.370  1.00  0.00     0.046 A 
ATOM     14  C   UNL     1      45.346 129.431  21.281  1.00  0.00     0.011 A 
ATOM     15  C   UNL     1      43.404 129.167  23.333  1.00  0.00     0.035 A 
ATOM     16  C   UNL     1      45.457 128.405  22.235  1.00  0.00     0.009 A 
ATOM     17  C   UNL     1      41.992 133.077  20.734  1.00  0.00     0.064 C 
ATOM     18  H   UNL     1      41.562 131.273  22.894  1.00  0.00     0.166 HD
ENDBRANCH   1   8
BRANCH   6  19
ATOM     19  C   UNL     1      42.816 125.665  23.289  1.00  0.00     0.214 C 
BRANCH  19  20
ATOM     20  O   UNL     1      41.837 126.636  23.501  1.00  0.00    -0.493 OA
ATOM     21  H   UNL     1      41.111 126.521  24.199  1.00  0.00     0.295 HD
ENDBRANCH  19  20
BRANCH  19  22
ATOM     22  C   UNL     1      42.503 124.543  22.639  1.00  0.00     0.099 C 
ATOM     23  C   UNL     1      42.608 123.044  22.805  1.00  0.00     0.304 C 
ATOM     24  C   UNL     1      41.871 124.143  21.325  1.00  0.00     0.304 C 
ATOM     25  N   UNL     1      42.000 122.718  21.533  1.00  0.00    -0.339 N 
ATOM     26  H   UNL     1      41.075 122.242  21.639  1.00  0.00     0.346 HD
ATOM     27  H   UNL     1      42.674 122.272  20.867  1.00  0.00     0.346 HD
ENDBRANCH  19  22
ENDBRANCH   6  19
TORSDOF 4
ENDMDL
MODEL 6
REMARK VINA RESULT:      -4.5      2.814      4.164
REMARK SMILES Cc1cc2ccc([C@@H]3O[C@H](C)NN3C(O)=C3C[NH2+]C3)cc2[nH]1
REMARK SMILES IDX 8 1 9 2 10 3 11 4 12 5 13 6 7 8 2 9 3 10 22 11 4 12 21 13
REMARK SMILES IDX 5 14 20 15 6 16 1 17 14 19 15 20 16 22 17 23 19 24 18 25
REMARK H PARENT 12 7 22 18 15 21 18 26 18 27
ROOT
ATOM      1  C   UNL     1      43.555 130.709  18.789  1.00  0.00     0.267 C 
ATOM      2  O   UNL     1      42.439 131.552  18.664  1.00  0.00    -0.333 OA
ATOM      3  C   UNL     1      42.279 132.210  19.910  1.00  0.00     0.204 C 
ATOM      4  C   UNL     1      42.108 133.706  19.681  1.00  0.00     0.058 C 
ATOM      5  N   UNL     1      43.445 131.973  20.767  1.00  0.00    -0.201 NA
ATOM      6  N   UNL     1      44.173 131.026  20.052  1.00  0.00    -0.243 N 
ATOM      7  H   UNL     1      43.117 131.512  21.647  1.00  0.00     0.151 HD
ENDROOT
BRANCH   1   8
ATOM      8  C   UNL     1      44.505 130.952  17.641  1.00  0.00     0.005 A 
ATOM      9  C   UNL     1      47.451 129.977  14.365  1.00  0.00     0.013 A 
ATOM     10  C   UNL     1      47.140 131.331  14.472  1.00  0.00     0.031 A 
ATOM     11  N   UNL     1      46.774 129.247  15.283  1.00  0.00    -0.359 N 
ATOM     12  C   UNL     1      46.247 131.405  15.520  1.00  0.00    -0.000 A 
ATOM     13  C   UNL     1      46.048 130.133  15.985  1.00  0.00     0.046 A 
ATOM     14  C   UNL     1      45.595 132.502  16.076  1.00  0.00     0.011 A 
ATOM     15  C   UNL     1      45.182 129.866  17.042  1.00  0.00     0.035 A 
ATOM     16  C   UNL     1      44.716 132.268  17.148  1.00  0.00     0.009 A 
ATOM     17  C   UNL     1      48.336 129.382  13.320  1.00  0.00     0.064 C 
ATOM     18  H   UNL     1      46.802 128.211  15.412  1.00  0.00     0.166 HD
ENDBRANCH   1   8
BRANCH   6  19
ATOM     19  C   UNL     1      45.360 130.386  20.554  1.00  0.00     0.214 C 
BRANCH  19  20
ATOM     20  O   UNL     1      46.609 130.819  20.109  1.00  0.00    -0.493 OA
ATOM     21  H   UNL     1      47.455 130.657  20.643  1.00  0.00     0.295 HD
ENDBRANCH  19  20
BRANCH  19  22
ATOM     22  C   UNL     1      45.284 129.399  21.449  1.00  0.00     0.099 C 
ATOM     23  C   UNL     1      45.755 127.976  21.643  1.00  0.00     0.304 C 
ATOM     24  C   UNL     1      44.642 129.149  22.795  1.00  0.00     0.304 C 
ATOM     25  N   UNL     1      45.116 127.790  22.927  1.00  0.00    -0.339 N 
ATOM     26  H   UNL     1      45.804 127.677  23.707  1.00  0.00     0.346 HD
ATOM     27  H   UNL     1      44.340 127.086  22.892  1.00  0.00     0.346 HD
ENDBRANCH  19  22
ENDBRANCH   6  19
TORSDOF 4
ENDMDL
MODEL 7
REMARK VINA RESULT:      -4.5      2.055      5.963
REMARK SMILES Cc1cc2ccc([C@@H]3O[C@H](C)NN3C(O)=C3C[NH2+]C3)cc2[nH]1
REMARK SMILES IDX 8 1 9 2 10 3 11 4 12 5 13 6 7 8 2 9 3 10 22 11 4 12 21 13
REMARK SMILES IDX 5 14 20 15 6 16 1 17 14 19 15 20 16 22 17 23 19 24 18 25
REMARK H PARENT 12 7 22 18 15 21 18 26 18 27
ROOT
ATOM      1  C   UNL     1      44.756 130.184  23.327  1.00  0.00     0.267 C 
ATOM      2  O   UNL     1      44.084 130.783  24.404  1.00  0.00    -0.333 OA
ATOM      3  C   UNL     1      43.501 131.979  23.912  1.00  0.00     0.204 C 
ATOM      4  C   UNL     1      42.041 132.049  24.337  1.00  0.00     0.058 C 
ATOM      5  N   UNL     1      43.593 132.028  22.450  1.00  0.00    -0.201 NA
ATOM      6  N   UNL     1      44.395 130.932  22.148  1.00  0.00    -0.243 N 
ATOM      7  H   UNL     1      44.129 132.887  22.183  1.00  0.00     0.151 HD
ENDROOT
BRANCH   1   8
ATOM      8  C   UNL     1      44.334 128.739  23.205  1.00  0.00     0.005 A 
ATOM      9  C   UNL     1      44.714 124.322  22.369  1.00  0.00     0.013 A 
ATOM     10  C   UNL     1      43.453 124.715  22.810  1.00  0.00     0.031 A 
ATOM     11  N   UNL     1      45.559 125.378  22.301  1.00  0.00    -0.359 N 
ATOM     12  C   UNL     1      43.553 126.077  22.995  1.00  0.00    -0.000 A 
ATOM     13  C   UNL     1      44.835 126.444  22.680  1.00  0.00     0.046 A 
ATOM     14  C   UNL     1      42.609 127.004  23.428  1.00  0.00     0.011 A 
ATOM     15  C   UNL     1      45.264 127.766  22.776  1.00  0.00     0.035 A 
ATOM     16  C   UNL     1      43.008 128.347  23.533  1.00  0.00     0.009 A 
ATOM     17  C   UNL     1      45.124 122.912  22.096  1.00  0.00     0.064 C 
ATOM     18  H   UNL     1      46.566 125.366  22.023  1.00  0.00     0.166 HD
ENDBRANCH   1   8
BRANCH   6  19
ATOM     19  C   UNL     1      44.869 130.630  20.823  1.00  0.00     0.214 C 
BRANCH  19  20
ATOM     20  O   UNL     1      45.963 129.780  20.667  1.00  0.00    -0.493 OA
ATOM     21  H   UNL     1      45.887 128.891  20.186  1.00  0.00     0.295 HD
ENDBRANCH  19  20
BRANCH  19  22
ATOM     22  C   UNL     1      44.268 131.137  19.745  1.00  0.00     0.099 C 
ATOM     23  C   UNL     1      44.562 131.443  18.294  1.00  0.00     0.304 C 
ATOM     24  C   UNL     1      42.925 131.727  19.379  1.00  0.00     0.304 C 
ATOM     25  N   UNL     1      43.261 132.001  18.001  1.00  0.00    -0.339 N 
ATOM     26  H   UNL     1      42.713 131.416  17.328  1.00  0.00     0.346 HD
ATOM     27  H   UNL     1      43.300 133.027  17.791  1.00  0.00     0.346 HD
ENDBRANCH  19  22
ENDBRANCH   6  19
TORSDOF 4
ENDMDL
MODEL 8
REMARK VINA RESULT:      -4.4      4.670      7.571
REMARK SMILES Cc1cc2ccc([C@@H]3O[C@H](C)NN3C(O)=C3C[NH2+]C3)cc2[nH]1
REMARK SMILES IDX 8 1 9 2 10 3 11 4 12 5 13 6 7 8 2 9 3 10 22 11 4 12 21 13
REMARK SMILES IDX 5 14 20 15 6 16 1 17 14 19 15 20 16 22 17 23 19 24 18 25
REMARK H PARENT 12 7 22 18 15 21 18 26 18 27
ROOT
ATOM      1  C   UNL     1      45.158 125.185  24.117  1.00  0.00     0.267 C 
ATOM      2  O   UNL     1      44.768 123.836  24.120  1.00  0.00    -0.333 OA
ATOM      3  C   UNL     1      43.560 123.755  23.382  1.00  0.00     0.204 C 
ATOM      4  C   UNL     1      43.657 122.627  22.363  1.00  0.00     0.058 C 
ATOM      5  N   UNL     1      43.296 125.022  22.692  1.00  0.00    -0.201 NA
ATOM      6  N   UNL     1      44.277 125.867  23.201  1.00  0.00    -0.243 N 
ATOM      7  H   UNL     1      42.371 125.387  23.020  1.00  0.00     0.151 HD
ENDROOT
BRANCH   1   8
ATOM      8  C   UNL     1      46.597 125.298  23.674  1.00  0.00     0.005 A 
ATOM      9  C   UNL     1      50.940 126.512  23.820  1.00  0.00     0.013 A 
ATOM     10  C   UNL     1      50.597 125.740  22.712  1.00  0.00     0.031 A 
ATOM     11  N   UNL     1      49.869 126.716  24.623  1.00  0.00    -0.359 N 
ATOM     12  C   UNL     1      49.250 125.491  22.859  1.00  0.00    -0.000 A 
ATOM     13  C   UNL     1      48.842 126.093  24.020  1.00  0.00     0.046 A 
ATOM     14  C   UNL     1      48.370 124.769  22.058  1.00  0.00     0.011 A 
ATOM     15  C   UNL     1      47.524 126.015  24.463  1.00  0.00     0.035 A 
ATOM     16  C   UNL     1      47.031 124.674  22.473  1.00  0.00     0.009 A 
ATOM     17  C   UNL     1      52.321 126.978  24.144  1.00  0.00     0.064 C 
ATOM     18  H   UNL     1      49.846 127.240  25.526  1.00  0.00     0.166 HD
ENDBRANCH   1   8
BRANCH   6  19
ATOM     19  C   UNL     1      44.352 127.273  22.904  1.00  0.00     0.214 C 
BRANCH  19  20
ATOM     20  O   UNL     1      45.339 127.736  22.035  1.00  0.00    -0.493 OA
ATOM     21  H   UNL     1      46.094 127.140  21.715  1.00  0.00     0.295 HD
ENDBRANCH  19  20
BRANCH  19  22
ATOM     22  C   UNL     1      43.482 128.136  23.434  1.00  0.00     0.099 C 
ATOM     23  C   UNL     1      43.069 129.585  23.309  1.00  0.00     0.304 C 
ATOM     24  C   UNL     1      42.413 128.141  24.503  1.00  0.00     0.304 C 
ATOM     25  N   UNL     1      42.060 129.534  24.344  1.00  0.00    -0.339 N 
ATOM     26  H   UNL     1      41.092 129.664  23.971  1.00  0.00     0.346 HD
ATOM     27  H   UNL     1      42.313 130.112  25.181  1.00  0.00     0.346 HD
ENDBRANCH  19  22
ENDBRANCH   6  19
TORSDOF 4
ENDMDL
MODEL 9
REMARK VINA RESULT:      -4.3      8.235     10.369
REMARK SMILES Cc1cc2ccc([C@@H]3O[C@H](C)NN3C(O)=C3C[NH2+]C3)cc2[nH]1
REMARK SMILES IDX 8 1 9 2 10 3 11 4 12 5 13 6 7 8 2 9 3 10 22 11 4 12 21 13
REMARK SMILES IDX 5 14 20 15 6 16 1 17 14 19 15 20 16 22 17 23 19 24 18 25
REMARK H PARENT 12 7 22 18 15 21 18 26 18 27
ROOT
ATOM      1  C   UNL     1      51.640 123.712  22.275  1.00  0.00     0.267 C 
ATOM      2  O   UNL     1      52.260 124.669  23.095  1.00  0.00    -0.333 OA
ATOM      3  C   UNL     1      53.088 125.457  22.256  1.00  0.00     0.204 C 
ATOM      4  C   UNL     1      52.836 126.934  22.530  1.00  0.00     0.058 C 
ATOM      5  N   UNL     1      52.813 125.163  20.846  1.00  0.00    -0.201 NA
ATOM      6  N   UNL     1      51.953 124.072  20.914  1.00  0.00    -0.243 N 
ATOM      7  H   UNL     1      53.701 124.831  20.402  1.00  0.00     0.151 HD
ENDROOT
BRANCH   1   8
ATOM      8  C   UNL     1      50.150 123.728  22.513  1.00  0.00     0.005 A 
ATOM      9  C   UNL     1      45.924 125.310  22.501  1.00  0.00     0.013 A 
ATOM     10  C   UNL     1      46.054 124.027  23.028  1.00  0.00     0.031 A 
ATOM     11  N   UNL     1      47.121 125.794  22.094  1.00  0.00    -0.359 N 
ATOM     12  C   UNL     1      47.401 123.747  22.945  1.00  0.00    -0.000 A 
ATOM     13  C   UNL     1      48.015 124.832  22.377  1.00  0.00     0.046 A 
ATOM     14  C   UNL     1      48.114 122.611  23.318  1.00  0.00     0.011 A 
ATOM     15  C   UNL     1      49.387 124.859  22.142  1.00  0.00     0.035 A 
ATOM     16  C   UNL     1      49.502 122.606  23.098  1.00  0.00     0.009 A 
ATOM     17  C   UNL     1      44.630 126.030  22.313  1.00  0.00     0.064 C 
ATOM     18  H   UNL     1      47.310 126.718  21.645  1.00  0.00     0.166 HD
ENDBRANCH   1   8
BRANCH   6  19
ATOM     19  C   UNL     1      51.495 123.344  19.760  1.00  0.00     0.214 C 
BRANCH  19  20
ATOM     20  O   UNL     1      50.504 122.375  19.914  1.00  0.00    -0.493 OA
ATOM     21  H   UNL     1      50.690 121.389  19.772  1.00  0.00     0.295 HD
ENDBRANCH  19  20
BRANCH  19  22
ATOM     22  C   UNL     1      51.991 123.593  18.547  1.00  0.00     0.099 C 
ATOM     23  C   UNL     1      52.706 124.692  17.794  1.00  0.00     0.304 C 
ATOM     24  C   UNL     1      52.092 122.897  17.209  1.00  0.00     0.304 C 
ATOM     25  N   UNL     1      52.772 123.981  16.536  1.00  0.00    -0.339 N 
ATOM     26  H   UNL     1      53.751 123.734  16.263  1.00  0.00     0.346 HD
ATOM     27  H   UNL     1      52.183 124.425  15.791  1.00  0.00     0.346 HD
ENDBRANCH  19  22
ENDBRANCH   6  19
TORSDOF 4
ENDMDL


