REMARK SMILES CC(=O)c1c(-c2cccc3ncoc23)cc(C(=O)N[C@@H]2C=CCC2)c(F)c1O
REMARK SMILES IDX 4 1 5 2 15 3 16 4 25 5 26 6 27 7 2 8 1 9 3 10 6 11 7 12
REMARK SMILES IDX 14 13 8 14 13 15 10 16 9 17 12 18 11 19 28 20 17 22 19 23
REMARK SMILES IDX 18 24 20 26 21 27 24 28 22 29 23 30
REMARK H PARENT 28 21 19 25
ROOT
ATOM      1  C   UNL     1      -0.269   0.947  -1.357  1.00  0.00     0.070 A 
ATOM      2  C   UNL     1      -1.131  -0.008  -0.761  1.00  0.00     0.001 A 
ATOM      3  C   UNL     1      -0.964  -0.343   0.591  1.00  0.00     0.026 A 
ATOM      4  C   UNL     1       0.031   0.264   1.370  1.00  0.00     0.080 A 
ATOM      5  C   UNL     1       0.852   1.246   0.790  1.00  0.00     0.178 A 
ATOM      6  F   UNL     1       1.766   1.908   1.544  1.00  0.00    -0.202 F 
ATOM      7  C   UNL     1       0.710   1.581  -0.566  1.00  0.00     0.163 A 
ENDROOT
BRANCH   1   8
ATOM      8  C   UNL     1      -0.346   1.272  -2.802  1.00  0.00     0.164 C 
ATOM      9  C   UNL     1      -0.341   0.198  -3.847  1.00  0.00     0.093 C 
ATOM     10  O   UNL     1      -0.402   2.477  -3.167  1.00  0.00    -0.294 OA
ENDBRANCH   1   8
BRANCH   2  11
ATOM     11  C   UNL     1      -2.250  -0.629  -1.505  1.00  0.00     0.028 A 
ATOM     12  C   UNL     1      -3.258   0.154  -2.112  1.00  0.00     0.013 A 
ATOM     13  C   UNL     1      -2.371  -2.017  -1.616  1.00  0.00     0.162 A 
ATOM     14  C   UNL     1      -4.322  -0.461  -2.810  1.00  0.00     0.003 A 
ATOM     15  O   UNL     1      -1.587  -2.953  -1.151  1.00  0.00    -0.443 OA
ATOM     16  C   UNL     1      -3.397  -2.608  -2.287  1.00  0.00     0.110 A 
ATOM     17  C   UNL     1      -4.399  -1.863  -2.904  1.00  0.00     0.032 A 
ATOM     18  C   UNL     1      -2.126  -4.100  -1.528  1.00  0.00     0.309 A 
ATOM     19  N   UNL     1      -3.268  -3.944  -2.248  1.00  0.00    -0.217 NA
ENDBRANCH   2  11
BRANCH   7  20
ATOM     20  O   UNL     1       1.551   2.538  -1.139  1.00  0.00    -0.504 OA
ATOM     21  H   UNL     1       2.272   3.011  -0.608  1.00  0.00     0.293 HD
ENDBRANCH   7  20
BRANCH   4  22
ATOM     22  C   UNL     1       0.173  -0.114   2.794  1.00  0.00     0.254 C 
ATOM     23  N   UNL     1       1.468  -0.180   3.414  1.00  0.00    -0.346 N 
ATOM     24  O   UNL     1      -0.856  -0.409   3.461  1.00  0.00    -0.269 OA
ATOM     25  H   UNL     1       2.316  -0.130   2.806  1.00  0.00     0.164 HD
BRANCH  23  26
ATOM     26  C   UNL     1       1.621  -0.332   4.865  1.00  0.00     0.105 C 
ATOM     27  C   UNL     1       1.331   0.964   5.540  1.00  0.00    -0.007 C 
ATOM     28  C   UNL     1       3.079  -0.630   5.260  1.00  0.00     0.033 C 
ATOM     29  C   UNL     1       2.410   1.500   6.083  1.00  0.00    -0.029 C 
ATOM     30  C   UNL     1       3.619   0.661   5.880  1.00  0.00     0.029 C 
ENDBRANCH  23  26
ENDBRANCH   4  22
TORSDOF 5


