MODEL 1
REMARK VINA RESULT:      -9.5      0.000      0.000
REMARK SMILES c1cc(-c2ccc3[nH]ccc3c2)cc([C@@H]2CO2)c1
REMARK SMILES IDX 4 1 5 2 6 3 7 4 8 5 9 6 10 7 11 8 12 9 3 11 1 12 2 13 18 14
REMARK SMILES IDX 14 15 13 16 15 17 16 18 17 19
REMARK H PARENT 8 10
ROOT
ATOM      1  C   UNL     1      44.770 131.235  18.595  1.00  0.00    -0.018 A 
ATOM      2  C   UNL     1      45.843 130.713  19.368  1.00  0.00     0.011 A 
ATOM      3  C   UNL     1      45.769 130.676  20.772  1.00  0.00     0.027 A 
ATOM      4  C   UNL     1      44.615 131.165  21.377  1.00  0.00     0.045 A 
ATOM      5  N   UNL     1      44.343 131.219  22.691  1.00  0.00    -0.361 N 
ATOM      6  C   UNL     1      43.109 131.767  22.790  1.00  0.00     0.083 A 
ATOM      7  C   UNL     1      42.598 132.062  21.530  1.00  0.00     0.028 A 
ATOM      8  C   UNL     1      43.577 131.669  20.643  1.00  0.00    -0.000 A 
ATOM      9  C   UNL     1      43.615 131.722  19.252  1.00  0.00     0.019 A 
ATOM     10  H   UNL     1      44.953 130.903  23.478  1.00  0.00     0.166 HD
ENDROOT
BRANCH   1  11
ATOM     11  C   UNL     1      44.858 131.269  17.113  1.00  0.00    -0.018 A 
ATOM     12  C   UNL     1      43.810 131.603  14.942  1.00  0.00     0.001 A 
ATOM     13  C   UNL     1      43.726 131.577  16.336  1.00  0.00     0.009 A 
ATOM     14  C   UNL     1      45.021 131.327  14.306  1.00  0.00     0.006 A 
ATOM     15  C   UNL     1      46.164 131.035  15.063  1.00  0.00    -0.016 A 
ATOM     16  C   UNL     1      46.075 130.991  16.463  1.00  0.00     0.015 A 
BRANCH  15  17
ATOM     17  C   UNL     1      47.458 130.701  14.382  1.00  0.00     0.174 C 
ATOM     18  C   UNL     1      47.544 131.043  12.943  1.00  0.00     0.198 C 
ATOM     19  O   UNL     1      47.283 129.729  13.378  1.00  0.00    -0.368 OA
ENDBRANCH  15  17
ENDBRANCH   1  11
TORSDOF 2
ENDMDL
MODEL 2
REMARK VINA RESULT:      -9.3      3.558      6.787
REMARK SMILES c1cc(-c2ccc3[nH]ccc3c2)cc([C@@H]2CO2)c1
REMARK SMILES IDX 4 1 5 2 6 3 7 4 8 5 9 6 10 7 11 8 12 9 3 11 1 12 2 13 18 14
REMARK SMILES IDX 14 15 13 16 15 17 16 18 17 19
REMARK H PARENT 8 10
ROOT
ATOM      1  C   UNL     1      45.361 131.310  16.768  1.00  0.00    -0.018 A 
ATOM      2  C   UNL     1      45.623 132.441  15.947  1.00  0.00     0.011 A 
ATOM      3  C   UNL     1      46.427 132.328  14.798  1.00  0.00     0.027 A 
ATOM      4  C   UNL     1      46.954 131.076  14.492  1.00  0.00     0.045 A 
ATOM      5  N   UNL     1      47.737 130.753  13.450  1.00  0.00    -0.361 N 
ATOM      6  C   UNL     1      47.990 129.429  13.576  1.00  0.00     0.083 A 
ATOM      7  C   UNL     1      47.364 128.912  14.705  1.00  0.00     0.028 A 
ATOM      8  C   UNL     1      46.708 129.982  15.275  1.00  0.00    -0.000 A 
ATOM      9  C   UNL     1      45.919 130.056  16.419  1.00  0.00     0.019 A 
ATOM     10  H   UNL     1      48.080 131.387  12.695  1.00  0.00     0.166 HD
ENDROOT
BRANCH   1  11
ATOM     11  C   UNL     1      44.511 131.441  17.978  1.00  0.00    -0.018 A 
ATOM     12  C   UNL     1      42.350 131.893  19.003  1.00  0.00     0.001 A 
ATOM     13  C   UNL     1      43.147 131.765  17.863  1.00  0.00     0.009 A 
ATOM     14  C   UNL     1      42.901 131.694  20.270  1.00  0.00     0.006 A 
ATOM     15  C   UNL     1      44.254 131.353  20.405  1.00  0.00    -0.016 A 
ATOM     16  C   UNL     1      45.058 131.244  19.260  1.00  0.00     0.015 A 
BRANCH  15  17
ATOM     17  C   UNL     1      44.857 131.176  21.766  1.00  0.00     0.174 C 
ATOM     18  C   UNL     1      44.380 130.009  22.544  1.00  0.00     0.198 C 
ATOM     19  O   UNL     1      43.894 131.308  22.786  1.00  0.00    -0.368 OA
ENDBRANCH  15  17
ENDBRANCH   1  11
TORSDOF 2
ENDMDL
MODEL 3
REMARK VINA RESULT:      -9.3      3.529      6.734
REMARK SMILES c1cc(-c2ccc3[nH]ccc3c2)cc([C@@H]2CO2)c1
REMARK SMILES IDX 4 1 5 2 6 3 7 4 8 5 9 6 10 7 11 8 12 9 3 11 1 12 2 13 18 14
REMARK SMILES IDX 14 15 13 16 15 17 16 18 17 19
REMARK H PARENT 8 10
ROOT
ATOM      1  C   UNL     1      45.080 130.833  16.754  1.00  0.00    -0.018 A 
ATOM      2  C   UNL     1      45.185 129.444  16.471  1.00  0.00     0.011 A 
ATOM      3  C   UNL     1      45.956 128.984  15.388  1.00  0.00     0.027 A 
ATOM      4  C   UNL     1      46.610 129.931  14.605  1.00  0.00     0.045 A 
ATOM      5  N   UNL     1      47.391 129.708  13.536  1.00  0.00    -0.361 N 
ATOM      6  C   UNL     1      47.799 130.927  13.115  1.00  0.00     0.083 A 
ATOM      7  C   UNL     1      47.272 131.930  13.924  1.00  0.00     0.028 A 
ATOM      8  C   UNL     1      46.516 131.270  14.869  1.00  0.00    -0.000 A 
ATOM      9  C   UNL     1      45.763 131.762  15.931  1.00  0.00     0.019 A 
ATOM     10  H   UNL     1      47.637 128.785  13.113  1.00  0.00     0.166 HD
ENDROOT
BRANCH   1  11
ATOM     11  C   UNL     1      44.265 131.308  17.901  1.00  0.00    -0.018 A 
ATOM     12  C   UNL     1      42.210 132.276  18.773  1.00  0.00     0.001 A 
ATOM     13  C   UNL     1      42.973 131.826  17.694  1.00  0.00     0.009 A 
ATOM     14  C   UNL     1      42.722 132.212  20.071  1.00  0.00     0.006 A 
ATOM     15  C   UNL     1      43.999 131.683  20.299  1.00  0.00    -0.016 A 
ATOM     16  C   UNL     1      44.773 131.248  19.212  1.00  0.00     0.015 A 
BRANCH  15  17
ATOM     17  C   UNL     1      44.567 131.647  21.687  1.00  0.00     0.174 C 
ATOM     18  C   UNL     1      44.323 130.406  22.458  1.00  0.00     0.198 C 
ATOM     19  O   UNL     1      43.554 131.567  22.663  1.00  0.00    -0.368 OA
ENDBRANCH  15  17
ENDBRANCH   1  11
TORSDOF 2
ENDMDL
MODEL 4
REMARK VINA RESULT:      -9.2      3.468      6.778
REMARK SMILES c1cc(-c2ccc3[nH]ccc3c2)cc([C@@H]2CO2)c1
REMARK SMILES IDX 4 1 5 2 6 3 7 4 8 5 9 6 10 7 11 8 12 9 3 11 1 12 2 13 18 14
REMARK SMILES IDX 14 15 13 16 15 17 16 18 17 19
REMARK H PARENT 8 10
ROOT
ATOM      1  C   UNL     1      44.465 131.347  16.981  1.00  0.00    -0.018 A 
ATOM      2  C   UNL     1      43.841 131.782  15.780  1.00  0.00     0.011 A 
ATOM      3  C   UNL     1      44.438 131.544  14.529  1.00  0.00     0.027 A 
ATOM      4  C   UNL     1      45.657 130.871  14.506  1.00  0.00     0.045 A 
ATOM      5  N   UNL     1      46.389 130.544  13.429  1.00  0.00    -0.361 N 
ATOM      6  C   UNL     1      47.480 129.902  13.905  1.00  0.00     0.083 A 
ATOM      7  C   UNL     1      47.439 129.822  15.294  1.00  0.00     0.028 A 
ATOM      8  C   UNL     1      46.266 130.448  15.655  1.00  0.00    -0.000 A 
ATOM      9  C   UNL     1      45.704 130.666  16.911  1.00  0.00     0.019 A 
ATOM     10  H   UNL     1      46.165 130.741  12.428  1.00  0.00     0.166 HD
ENDROOT
BRANCH   1  11
ATOM     11  C   UNL     1      43.825 131.602  18.296  1.00  0.00    -0.018 A 
ATOM     12  C   UNL     1      41.928 132.385  19.605  1.00  0.00     0.001 A 
ATOM     13  C   UNL     1      42.527 132.141  18.367  1.00  0.00     0.009 A 
ATOM     14  C   UNL     1      42.613 132.091  20.786  1.00  0.00     0.006 A 
ATOM     15  C   UNL     1      43.900 131.537  20.736  1.00  0.00    -0.016 A 
ATOM     16  C   UNL     1      44.508 131.310  19.491  1.00  0.00     0.015 A 
BRANCH  15  17
ATOM     17  C   UNL     1      44.652 131.255  22.002  1.00  0.00     0.174 C 
ATOM     18  C   UNL     1      44.382 129.947  22.643  1.00  0.00     0.198 C 
ATOM     19  O   UNL     1      43.787 131.136  23.108  1.00  0.00    -0.368 OA
ENDBRANCH  15  17
ENDBRANCH   1  11
TORSDOF 2
ENDMDL
MODEL 5
REMARK VINA RESULT:      -9.1      0.978      1.714
REMARK SMILES c1cc(-c2ccc3[nH]ccc3c2)cc([C@@H]2CO2)c1
REMARK SMILES IDX 4 1 5 2 6 3 7 4 8 5 9 6 10 7 11 8 12 9 3 11 1 12 2 13 18 14
REMARK SMILES IDX 14 15 13 16 15 17 16 18 17 19
REMARK H PARENT 8 10
ROOT
ATOM      1  C   UNL     1      44.014 131.473  18.021  1.00  0.00    -0.018 A 
ATOM      2  C   UNL     1      42.684 131.925  18.238  1.00  0.00     0.011 A 
ATOM      3  C   UNL     1      42.185 132.098  19.542  1.00  0.00     0.027 A 
ATOM      4  C   UNL     1      43.033 131.812  20.608  1.00  0.00     0.045 A 
ATOM      5  N   UNL     1      42.758 131.910  21.919  1.00  0.00    -0.361 N 
ATOM      6  C   UNL     1      43.886 131.530  22.562  1.00  0.00     0.083 A 
ATOM      7  C   UNL     1      44.882 131.189  21.652  1.00  0.00     0.028 A 
ATOM      8  C   UNL     1      44.314 131.376  20.410  1.00  0.00    -0.000 A 
ATOM      9  C   UNL     1      44.843 131.194  19.135  1.00  0.00     0.019 A 
ATOM     10  H   UNL     1      41.861 132.217  22.356  1.00  0.00     0.166 HD
ENDROOT
BRANCH   1  11
ATOM     11  C   UNL     1      44.532 131.295  16.641  1.00  0.00    -0.018 A 
ATOM     12  C   UNL     1      44.240 131.499  14.233  1.00  0.00     0.001 A 
ATOM     13  C   UNL     1      43.754 131.672  15.531  1.00  0.00     0.009 A 
ATOM     14  C   UNL     1      45.509 130.954  14.026  1.00  0.00     0.006 A 
ATOM     15  C   UNL     1      46.306 130.589  15.119  1.00  0.00    -0.016 A 
ATOM     16  C   UNL     1      45.809 130.746  16.422  1.00  0.00     0.015 A 
BRANCH  15  17
ATOM     17  C   UNL     1      47.654 129.969  14.899  1.00  0.00     0.174 C 
ATOM     18  C   UNL     1      48.155 129.977  13.504  1.00  0.00     0.198 C 
ATOM     19  O   UNL     1      47.575 128.828  14.076  1.00  0.00    -0.368 OA
ENDBRANCH  15  17
ENDBRANCH   1  11
TORSDOF 2
ENDMDL
MODEL 6
REMARK VINA RESULT:      -8.7      3.360      6.859
REMARK SMILES c1cc(-c2ccc3[nH]ccc3c2)cc([C@@H]2CO2)c1
REMARK SMILES IDX 4 1 5 2 6 3 7 4 8 5 9 6 10 7 11 8 12 9 3 11 1 12 2 13 18 14
REMARK SMILES IDX 14 15 13 16 15 17 16 18 17 19
REMARK H PARENT 8 10
ROOT
ATOM      1  C   UNL     1      45.809 131.038  17.073  1.00  0.00    -0.018 A 
ATOM      2  C   UNL     1      45.527 132.169  16.259  1.00  0.00     0.011 A 
ATOM      3  C   UNL     1      45.972 132.228  14.926  1.00  0.00     0.027 A 
ATOM      4  C   UNL     1      46.695 131.146  14.432  1.00  0.00     0.045 A 
ATOM      5  N   UNL     1      47.205 131.000  13.199  1.00  0.00    -0.361 N 
ATOM      6  C   UNL     1      47.816 129.793  13.192  1.00  0.00     0.083 A 
ATOM      7  C   UNL     1      47.691 129.170  14.430  1.00  0.00     0.028 A 
ATOM      8  C   UNL     1      46.972 130.053  15.206  1.00  0.00    -0.000 A 
ATOM      9  C   UNL     1      46.548 129.960  16.529  1.00  0.00     0.019 A 
ATOM     10  H   UNL     1      47.145 131.676  12.405  1.00  0.00     0.166 HD
ENDROOT
BRANCH   1  11
ATOM     11  C   UNL     1      45.334 130.986  18.479  1.00  0.00    -0.018 A 
ATOM     12  C   UNL     1      45.606 130.222  20.774  1.00  0.00     0.001 A 
ATOM     13  C   UNL     1      46.058 130.274  19.453  1.00  0.00     0.009 A 
ATOM     14  C   UNL     1      44.432 130.881  21.140  1.00  0.00     0.006 A 
ATOM     15  C   UNL     1      43.707 131.611  20.189  1.00  0.00    -0.016 A 
ATOM     16  C   UNL     1      44.151 131.647  18.858  1.00  0.00     0.015 A 
BRANCH  15  17
ATOM     17  C   UNL     1      42.425 132.290  20.571  1.00  0.00     0.174 C 
ATOM     18  C   UNL     1      41.410 132.417  19.500  1.00  0.00     0.198 C 
ATOM     19  O   UNL     1      42.241 133.494  19.863  1.00  0.00    -0.368 OA
ENDBRANCH  15  17
ENDBRANCH   1  11
TORSDOF 2
ENDMDL
MODEL 7
REMARK VINA RESULT:      -8.4      3.529      6.832
REMARK SMILES c1cc(-c2ccc3[nH]ccc3c2)cc([C@@H]2CO2)c1
REMARK SMILES IDX 4 1 5 2 6 3 7 4 8 5 9 6 10 7 11 8 12 9 3 11 1 12 2 13 18 14
REMARK SMILES IDX 14 15 13 16 15 17 16 18 17 19
REMARK H PARENT 8 10
ROOT
ATOM      1  C   UNL     1      44.520 131.233  18.029  1.00  0.00    -0.018 A 
ATOM      2  C   UNL     1      45.666 130.416  18.232  1.00  0.00     0.011 A 
ATOM      3  C   UNL     1      46.462 130.006  17.146  1.00  0.00     0.027 A 
ATOM      4  C   UNL     1      46.091 130.426  15.872  1.00  0.00     0.045 A 
ATOM      5  N   UNL     1      46.707 130.152  14.711  1.00  0.00    -0.361 N 
ATOM      6  C   UNL     1      45.984 130.777  13.752  1.00  0.00     0.083 A 
ATOM      7  C   UNL     1      44.903 131.451  14.311  1.00  0.00     0.028 A 
ATOM      8  C   UNL     1      44.991 131.212  15.666  1.00  0.00    -0.000 A 
ATOM      9  C   UNL     1      44.180 131.637  16.715  1.00  0.00     0.019 A 
ATOM     10  H   UNL     1      47.568 129.578  14.571  1.00  0.00     0.166 HD
ENDROOT
BRANCH   1  11
ATOM     11  C   UNL     1      43.688 131.661  19.182  1.00  0.00    -0.018 A 
ATOM     12  C   UNL     1      41.719 132.787  20.063  1.00  0.00     0.001 A 
ATOM     13  C   UNL     1      42.497 132.381  18.977  1.00  0.00     0.009 A 
ATOM     14  C   UNL     1      42.115 132.476  21.365  1.00  0.00     0.006 A 
ATOM     15  C   UNL     1      43.289 131.744  21.589  1.00  0.00    -0.016 A 
ATOM     16  C   UNL     1      44.080 131.353  20.498  1.00  0.00     0.015 A 
BRANCH  15  17
ATOM     17  C   UNL     1      43.737 131.442  22.988  1.00  0.00     0.174 C 
ATOM     18  C   UNL     1      43.048 130.317  23.664  1.00  0.00     0.198 C 
ATOM     19  O   UNL     1      42.706 131.658  23.924  1.00  0.00    -0.368 OA
ENDBRANCH  15  17
ENDBRANCH   1  11
TORSDOF 2
ENDMDL
MODEL 8
REMARK VINA RESULT:      -7.9      3.255      6.625
REMARK SMILES c1cc(-c2ccc3[nH]ccc3c2)cc([C@@H]2CO2)c1
REMARK SMILES IDX 4 1 5 2 6 3 7 4 8 5 9 6 10 7 11 8 12 9 3 11 1 12 2 13 18 14
REMARK SMILES IDX 14 15 13 16 15 17 16 18 17 19
REMARK H PARENT 8 10
ROOT
ATOM      1  C   UNL     1      45.030 131.176  16.198  1.00  0.00    -0.018 A 
ATOM      2  C   UNL     1      44.534 131.670  14.961  1.00  0.00     0.011 A 
ATOM      3  C   UNL     1      45.225 131.432  13.759  1.00  0.00     0.027 A 
ATOM      4  C   UNL     1      46.406 130.698  13.821  1.00  0.00     0.045 A 
ATOM      5  N   UNL     1      47.211 130.360  12.801  1.00  0.00    -0.361 N 
ATOM      6  C   UNL     1      48.225 129.651  13.350  1.00  0.00     0.083 A 
ATOM      7  C   UNL     1      48.060 129.541  14.728  1.00  0.00     0.028 A 
ATOM      8  C   UNL     1      46.892 130.218  15.005  1.00  0.00    -0.000 A 
ATOM      9  C   UNL     1      46.236 130.434  16.214  1.00  0.00     0.019 A 
ATOM     10  H   UNL     1      47.084 130.591  11.791  1.00  0.00     0.166 HD
ENDROOT
BRANCH   1  11
ATOM     11  C   UNL     1      44.292 131.432  17.460  1.00  0.00    -0.018 A 
ATOM     12  C   UNL     1      42.234 132.010  18.624  1.00  0.00     0.001 A 
ATOM     13  C   UNL     1      42.925 131.764  17.435  1.00  0.00     0.009 A 
ATOM     14  C   UNL     1      42.894 131.924  19.851  1.00  0.00     0.006 A 
ATOM     15  C   UNL     1      44.252 131.578  19.898  1.00  0.00    -0.016 A 
ATOM     16  C   UNL     1      44.950 131.349  18.702  1.00  0.00     0.015 A 
BRANCH  15  17
ATOM     17  C   UNL     1      44.973 131.522  21.211  1.00  0.00     0.174 C 
ATOM     18  C   UNL     1      46.014 132.554  21.427  1.00  0.00     0.198 C 
ATOM     19  O   UNL     1      46.344 131.240  21.042  1.00  0.00    -0.368 OA
ENDBRANCH  15  17
ENDBRANCH   1  11
TORSDOF 2
ENDMDL
MODEL 9
REMARK VINA RESULT:      -7.1      3.472      7.130
REMARK SMILES c1cc(-c2ccc3[nH]ccc3c2)cc([C@@H]2CO2)c1
REMARK SMILES IDX 4 1 5 2 6 3 7 4 8 5 9 6 10 7 11 8 12 9 3 11 1 12 2 13 18 14
REMARK SMILES IDX 14 15 13 16 15 17 16 18 17 19
REMARK H PARENT 8 10
ROOT
ATOM      1  C   UNL     1      45.071 130.904  17.769  1.00  0.00    -0.018 A 
ATOM      2  C   UNL     1      44.096 131.637  17.039  1.00  0.00     0.011 A 
ATOM      3  C   UNL     1      44.210 131.802  15.647  1.00  0.00     0.027 A 
ATOM      4  C   UNL     1      45.304 131.224  15.010  1.00  0.00     0.045 A 
ATOM      5  N   UNL     1      45.599 131.259  13.700  1.00  0.00    -0.361 N 
ATOM      6  C   UNL     1      46.750 130.560  13.562  1.00  0.00     0.083 A 
ATOM      7  C   UNL     1      47.186 130.080  14.793  1.00  0.00     0.028 A 
ATOM      8  C   UNL     1      46.248 130.516  15.703  1.00  0.00    -0.000 A 
ATOM      9  C   UNL     1      46.168 130.333  17.081  1.00  0.00     0.019 A 
ATOM     10  H   UNL     1      45.055 131.726  12.941  1.00  0.00     0.166 HD
ENDROOT
BRANCH   1  11
ATOM     11  C   UNL     1      44.940 130.736  19.239  1.00  0.00    -0.018 A 
ATOM     12  C   UNL     1      45.683 129.722  21.323  1.00  0.00     0.001 A 
ATOM     13  C   UNL     1      45.810 129.883  19.942  1.00  0.00     0.009 A 
ATOM     14  C   UNL     1      44.690 130.412  22.021  1.00  0.00     0.006 A 
ATOM     15  C   UNL     1      43.824 131.280  21.341  1.00  0.00    -0.016 A 
ATOM     16  C   UNL     1      43.941 131.427  19.951  1.00  0.00     0.015 A 
BRANCH  15  17
ATOM     17  C   UNL     1      42.733 131.994  22.082  1.00  0.00     0.174 C 
ATOM     18  C   UNL     1      42.970 132.228  23.526  1.00  0.00     0.198 C 
ATOM     19  O   UNL     1      42.152 131.176  23.071  1.00  0.00    -0.368 OA
ENDBRANCH  15  17
ENDBRANCH   1  11
TORSDOF 2
ENDMDL


