REMARK SMILES Cc1cc(N)c([O-])c(-n2nc3ccccc3[nH+]2)c1
REMARK SMILES IDX 1 1 2 2 3 3 4 4 6 5 7 6 8 7 18 8 5 9 9 12 10 13 17 14 11 15
REMARK SMILES IDX 16 16 12 17 15 18 13 19 14 20
REMARK H PARENT 5 10 5 11 17 21
ROOT
ATOM      1  C   UNL     1      -3.915  -0.821  -1.769  1.00  0.00     0.044 C 
ATOM      2  C   UNL     1      -3.028  -0.428  -0.624  1.00  0.00    -0.047 A 
ATOM      3  C   UNL     1      -3.587  -0.041   0.600  1.00  0.00     0.028 A 
ATOM      4  C   UNL     1      -2.766   0.356   1.663  1.00  0.00     0.026 A 
ATOM      5  C   UNL     1      -1.370   0.382   1.495  1.00  0.00    -0.053 A 
ATOM      6  O   UNL     1      -0.559   0.796   2.548  1.00  0.00    -0.869 OA
ATOM      7  C   UNL     1      -0.796   0.011   0.261  1.00  0.00     0.122 A 
ATOM      8  C   UNL     1      -1.637  -0.386  -0.793  1.00  0.00     0.037 A 
ENDROOT
BRANCH   4   9
ATOM      9  N   UNL     1      -3.359   0.740   2.909  1.00  0.00    -0.399 N 
ATOM     10  H   UNL     1      -2.775   1.042   3.720  1.00  0.00     0.156 HD
ATOM     11  H   UNL     1      -4.396   0.724   3.033  1.00  0.00     0.156 HD
ENDBRANCH   4   9
BRANCH   7  12
ATOM     12  N   UNL     1       0.633   0.029   0.075  1.00  0.00    -0.013 N 
ATOM     13  N   UNL     1       1.510  -0.181   1.058  1.00  0.00     0.053 NA
ATOM     14  N   UNL     1       1.238   0.244  -1.093  1.00  0.00    -0.161 N 
ATOM     15  C   UNL     1       2.718  -0.092   0.476  1.00  0.00     0.249 A 
ATOM     16  C   UNL     1       2.552   0.171  -0.849  1.00  0.00     0.198 A 
ATOM     17  C   UNL     1       3.978  -0.223   1.051  1.00  0.00     0.064 A 
ATOM     18  C   UNL     1       3.626   0.330  -1.719  1.00  0.00     0.058 A 
ATOM     19  C   UNL     1       5.095  -0.072   0.204  1.00  0.00     0.005 A 
ATOM     20  C   UNL     1       4.919   0.203  -1.175  1.00  0.00     0.005 A 
ATOM     21  H   UNL     1       0.774   0.457  -2.004  1.00  0.00     0.340 HD
ENDBRANCH   7  12
TORSDOF 2


