REMARK SMILES Cc1cc(-c2c([NH2+]c3cccc4c3CCC4)ccc3[nH]ccc23)cc([O-])c1F
REMARK SMILES IDX 5 1 6 2 17 3 18 4 19 5 20 6 21 7 22 8 23 9 4 11 2 12 3 13
REMARK SMILES IDX 27 14 25 15 24 16 1 17 28 18 26 19 7 20 8 23 9 24 13 25
REMARK SMILES IDX 10 26 12 27 14 28 11 29 16 30 15 31
REMARK H PARENT 20 10 7 21 7 22
ROOT
ATOM      1  C   UNL     1       1.734   0.074   1.474  1.00  0.00     0.052 A 
ATOM      2  C   UNL     1       1.466   1.475   1.440  1.00  0.00     0.143 A 
ATOM      3  C   UNL     1       1.646   2.245   2.622  1.00  0.00     0.071 A 
ATOM      4  C   UNL     1       2.083   1.651   3.816  1.00  0.00     0.033 A 
ATOM      5  C   UNL     1       2.336   0.284   3.811  1.00  0.00     0.046 A 
ATOM      6  N   UNL     1       2.753  -0.469   4.842  1.00  0.00    -0.361 N 
ATOM      7  C   UNL     1       2.853  -1.729   4.364  1.00  0.00     0.083 A 
ATOM      8  C   UNL     1       2.496  -1.776   3.022  1.00  0.00     0.029 A 
ATOM      9  C   UNL     1       2.168  -0.477   2.685  1.00  0.00     0.013 A 
ATOM     10  H   UNL     1       2.959  -0.150   5.815  1.00  0.00     0.166 HD
ENDROOT
BRANCH   1  11
ATOM     11  C   UNL     1       1.557  -0.791   0.295  1.00  0.00    -0.012 A 
ATOM     12  C   UNL     1       0.136  -2.208  -1.082  1.00  0.00    -0.015 A 
ATOM     13  C   UNL     1       0.319  -1.403   0.053  1.00  0.00     0.015 A 
ATOM     14  C   UNL     1       1.223  -2.449  -1.940  1.00  0.00     0.118 A 
ATOM     15  C   UNL     1       2.466  -1.860  -1.682  1.00  0.00    -0.071 A 
ATOM     16  C   UNL     1       2.632  -1.029  -0.570  1.00  0.00     0.003 A 
ATOM     17  C   UNL     1      -1.199  -2.840  -1.349  1.00  0.00     0.047 C 
ATOM     18  F   UNL     1       1.074  -3.250  -3.027  1.00  0.00    -0.207 F 
ATOM     19  O   UNL     1       3.538  -2.096  -2.534  1.00  0.00    -0.870 OA
ENDBRANCH   1  11
BRANCH   2  20
ATOM     20  N   UNL     1       1.007   2.125   0.230  1.00  0.00    -0.281 N 
ATOM     21  H   UNL     1       1.058   3.166   0.325  1.00  0.00     0.358 HD
ATOM     22  H   UNL     1       1.655   1.863  -0.547  1.00  0.00     0.358 HD
BRANCH  20  23
ATOM     23  C   UNL     1      -0.364   1.772  -0.074  1.00  0.00     0.138 A 
ATOM     24  C   UNL     1      -1.379   1.908   0.901  1.00  0.00     0.068 A 
ATOM     25  C   UNL     1      -0.746   1.335  -1.361  1.00  0.00     0.017 A 
ATOM     26  C   UNL     1      -2.706   1.554   0.608  1.00  0.00     0.006 A 
ATOM     27  C   UNL     1      -2.047   0.989  -1.636  1.00  0.00    -0.039 A 
ATOM     28  C   UNL     1       0.112   1.201  -2.568  1.00  0.00     0.042 C 
ATOM     29  C   UNL     1      -3.045   1.085  -0.666  1.00  0.00     0.004 A 
ATOM     30  C   UNL     1      -2.233   0.551  -3.038  1.00  0.00     0.036 C 
ATOM     31  C   UNL     1      -0.814   0.579  -3.628  1.00  0.00     0.010 C 
ENDBRANCH  20  23
ENDBRANCH   2  20
TORSDOF 3


