REMARK SMILES C/C=C(C)/C(O)=[N+]1\C[C@H](c2ccc3c(C)[nH]nc3c2)[C@@H](C)C[C@H]1F
REMARK SMILES IDX 5 1 6 2 3 4 4 5 2 6 1 7 7 8 8 9 23 10 9 11 22 12 20 13 24 14
REMARK SMILES IDX 21 15 10 16 11 17 19 18 12 19 18 20 13 21 17 22 14 23 16 24
REMARK SMILES IDX 15 25
REMARK H PARENT 6 3 16 26
ROOT
ATOM      1  C   UNL     1       0.511   1.538   1.793  1.00  0.00     0.365 C 
ENDROOT
BRANCH   1   2
ATOM      2  O   UNL     1       1.593   2.419   1.860  1.00  0.00    -0.460 OA
ATOM      3  H   UNL     1       2.349   2.277   2.520  1.00  0.00     0.300 HD
ENDBRANCH   1   2
BRANCH   1   4
ATOM      4  C   UNL     1       0.512   0.381   2.718  1.00  0.00     0.056 C 
ATOM      5  C   UNL     1      -0.452   0.370   3.874  1.00  0.00     0.055 C 
BRANCH   4   6
ATOM      6  C   UNL     1       1.421  -0.592   2.537  1.00  0.00    -0.017 C 
ATOM      7  C   UNL     1       1.516  -1.802   3.415  1.00  0.00     0.036 C 
ENDBRANCH   4   6
ENDBRANCH   1   4
BRANCH   1   8
ATOM      8  N   UNL     1      -0.453   1.746   0.919  1.00  0.00    -0.166 N 
ATOM      9  C   UNL     1      -1.606   0.833   0.763  1.00  0.00     0.366 C 
ATOM     10  C   UNL     1      -0.393   2.945   0.055  1.00  0.00     0.445 C 
ATOM     11  C   UNL     1      -1.781   0.392  -0.711  1.00  0.00     0.088 C 
ATOM     12  C   UNL     1      -1.438   2.902  -1.071  1.00  0.00     0.119 C 
ATOM     13  C   UNL     1      -1.430   1.517  -1.736  1.00  0.00     0.009 C 
ATOM     14  F   UNL     1      -0.587   4.083   0.819  1.00  0.00    -0.175 F 
ATOM     15  C   UNL     1      -2.385   1.490  -2.938  1.00  0.00     0.009 C 
BRANCH  11  16
ATOM     16  C   UNL     1      -0.989  -0.876  -0.987  1.00  0.00    -0.036 A 
ATOM     17  C   UNL     1      -1.671  -2.082  -1.311  1.00  0.00     0.005 A 
ATOM     18  C   UNL     1       0.424  -0.884  -0.879  1.00  0.00     0.035 A 
ATOM     19  C   UNL     1      -0.961  -3.279  -1.520  1.00  0.00     0.012 A 
ATOM     20  C   UNL     1       1.093  -2.085  -1.090  1.00  0.00     0.093 A 
ATOM     21  C   UNL     1       0.424  -3.236  -1.399  1.00  0.00     0.023 A 
ATOM     22  N   UNL     1       2.417  -2.314  -1.009  1.00  0.00    -0.175 NA
ATOM     23  C   UNL     1       1.403  -4.196  -1.518  1.00  0.00     0.040 A 
ATOM     24  N   UNL     1       2.594  -3.606  -1.267  1.00  0.00    -0.282 N 
ATOM     25  C   UNL     1       1.210  -5.654  -1.783  1.00  0.00     0.067 C 
ATOM     26  H   UNL     1       3.526  -4.078  -1.263  1.00  0.00     0.190 HD
ENDBRANCH  11  16
ENDBRANCH   1   8
TORSDOF 5


