REMARK SMILES c1cc(-c2ccc3cc[nH]c3c2)cc([C@H]2CO2)c1
REMARK SMILES IDX 4 1 5 2 6 3 7 4 8 5 9 6 10 7 11 8 12 9 3 11 1 12 2 13 18 14
REMARK SMILES IDX 14 15 13 16 15 17 16 18 17 19
REMARK H PARENT 10 10
ROOT
ATOM      1  C   UNL     1       0.198  -0.263   0.214  1.00  0.00    -0.016 A 
ATOM      2  C   UNL     1      -0.804   0.444   0.932  1.00  0.00     0.009 A 
ATOM      3  C   UNL     1      -0.540   0.972   2.209  1.00  0.00     0.011 A 
ATOM      4  C   UNL     1       0.730   0.779   2.742  1.00  0.00    -0.001 A 
ATOM      5  C   UNL     1       1.268   1.177   3.947  1.00  0.00     0.028 A 
ATOM      6  C   UNL     1       2.577   0.705   3.933  1.00  0.00     0.083 A 
ATOM      7  N   UNL     1       2.838   0.049   2.779  1.00  0.00    -0.361 N 
ATOM      8  C   UNL     1       1.704   0.100   2.062  1.00  0.00     0.046 A 
ATOM      9  C   UNL     1       1.477  -0.436   0.796  1.00  0.00     0.035 A 
ATOM     10  H   UNL     1       3.739  -0.404   2.506  1.00  0.00     0.166 HD
ENDROOT
BRANCH   1  11
ATOM     11  C   UNL     1      -0.092  -0.815  -1.134  1.00  0.00    -0.018 A 
ATOM     12  C   UNL     1       0.122  -2.598  -2.776  1.00  0.00     0.001 A 
ATOM     13  C   UNL     1       0.390  -2.083  -1.505  1.00  0.00     0.009 A 
ATOM     14  C   UNL     1      -0.633  -1.859  -3.689  1.00  0.00     0.006 A 
ATOM     15  C   UNL     1      -1.136  -0.601  -3.331  1.00  0.00    -0.016 A 
ATOM     16  C   UNL     1      -0.851  -0.076  -2.061  1.00  0.00     0.015 A 
BRANCH  15  17
ATOM     17  C   UNL     1      -1.913   0.207  -4.327  1.00  0.00     0.174 C 
ATOM     18  C   UNL     1      -3.220  -0.353  -4.744  1.00  0.00     0.198 C 
ATOM     19  O   UNL     1      -3.128   0.675  -3.786  1.00  0.00    -0.368 OA
ENDBRANCH  15  17
ENDBRANCH   1  11
TORSDOF 2


