MODEL 1
REMARK VINA RESULT:      -4.6      0.000      0.000
REMARK SMILES C[C@H](COC(=O)[N-]c1cc(F)cnc1Nc1c[nH]c2nccc-2c1)c1ccccc1[N+](=O)[O-]
REMARK SMILES IDX 4 1 3 2 2 3 1 4 25 5 26 6 30 7 27 8 29 9 28 10 31 11 32 12
REMARK SMILES IDX 33 13 5 14 6 15 7 16 8 17 9 18 14 19 10 20 13 21 12 22 11 23
REMARK SMILES IDX 15 24 16 26 17 27 24 28 18 29 23 30 19 31 22 32 20 33 21 34
REMARK H PARENT 15 25 18 35
ROOT
ATOM      1  O   UNL     1      47.673 132.579  20.854  1.00  0.00    -0.477 OA
ENDROOT
BRANCH   1   2
ATOM      2  C   UNL     1      48.422 132.942  22.010  1.00  0.00     0.239 C 
BRANCH   2   3
ATOM      3  C   UNL     1      48.209 134.433  22.326  1.00  0.00     0.061 C 
ATOM      4  C   UNL     1      47.159 134.639  23.425  1.00  0.00     0.016 C 
BRANCH   3   5
ATOM      5  C   UNL     1      49.498 135.197  22.634  1.00  0.00     0.036 A 
ATOM      6  C   UNL     1      50.197 134.850  23.808  1.00  0.00     0.011 A 
ATOM      7  C   UNL     1      50.030 136.234  21.812  1.00  0.00     0.272 A 
ATOM      8  C   UNL     1      51.358 135.530  24.182  1.00  0.00     0.001 A 
ATOM      9  C   UNL     1      51.193 136.911  22.207  1.00  0.00     0.086 A 
ATOM     10  C   UNL     1      51.851 136.563  23.386  1.00  0.00     0.007 A 
BRANCH   7  11
ATOM     11  N   UNL     1      49.410 136.630  20.587  1.00  0.00     0.063 N 
ATOM     12  O   UNL     1      49.995 136.418  19.506  1.00  0.00    -0.258 OA
ATOM     13  O   UNL     1      48.388 137.551  20.622  1.00  0.00    -0.258 OA
ENDBRANCH   7  11
ENDBRANCH   3   5
ENDBRANCH   2   3
ENDBRANCH   1   2
BRANCH   1  14
ATOM     14  C   UNL     1      46.389 132.037  20.915  1.00  0.00     0.232 C 
ATOM     15  O   UNL     1      46.220 130.836  21.262  1.00  0.00    -0.274 OA
BRANCH  14  16
ATOM     16  N   UNL     1      45.282 132.855  20.523  1.00  0.00    -0.588 NA
BRANCH  16  17
ATOM     17  C   UNL     1      44.047 132.448  19.905  1.00  0.00    -0.085 A 
ATOM     18  C   UNL     1      42.805 132.992  20.283  1.00  0.00     0.029 A 
ATOM     19  C   UNL     1      44.085 131.547  18.820  1.00  0.00     0.115 A 
ATOM     20  C   UNL     1      41.642 132.624  19.598  1.00  0.00     0.140 A 
ATOM     21  N   UNL     1      42.935 131.235  18.153  1.00  0.00    -0.237 NA
ATOM     22  C   UNL     1      41.728 131.738  18.521  1.00  0.00     0.152 A 
ATOM     23  F   UNL     1      40.441 133.144  19.957  1.00  0.00    -0.205 F 
BRANCH  19  24
ATOM     24  N   UNL     1      45.327 130.991  18.364  1.00  0.00    -0.340 N 
ATOM     25  H   UNL     1      45.911 130.464  19.072  1.00  0.00     0.168 HD
BRANCH  24  26
ATOM     26  C   UNL     1      45.788 131.077  17.002  1.00  0.00     0.057 A 
ATOM     27  C   UNL     1      45.507 132.223  16.195  1.00  0.00     0.110 A 
ATOM     28  C   UNL     1      46.560 130.019  16.468  1.00  0.00     0.039 A 
ATOM     29  N   UNL     1      45.953 132.316  14.902  1.00  0.00    -0.344 N 
ATOM     30  C   UNL     1      46.994 130.141  15.156  1.00  0.00     0.021 A 
ATOM     31  C   UNL     1      46.683 131.299  14.387  1.00  0.00     0.137 A 
ATOM     32  C   UNL     1      47.746 129.337  14.337  1.00  0.00     0.032 A 
ATOM     33  N   UNL     1      47.213 131.234  13.154  1.00  0.00    -0.239 NA
ATOM     34  C   UNL     1      47.857 130.036  13.131  1.00  0.00     0.114 A 
ATOM     35  H   UNL     1      45.738 133.161  14.325  1.00  0.00     0.168 HD
ENDBRANCH  24  26
ENDBRANCH  19  24
ENDBRANCH  16  17
ENDBRANCH  14  16
ENDBRANCH   1  14
TORSDOF 9
ENDMDL
MODEL 2
REMARK VINA RESULT:      -4.1      4.462      7.312
REMARK SMILES C[C@H](COC(=O)[N-]c1cc(F)cnc1Nc1c[nH]c2nccc-2c1)c1ccccc1[N+](=O)[O-]
REMARK SMILES IDX 4 1 3 2 2 3 1 4 25 5 26 6 30 7 27 8 29 9 28 10 31 11 32 12
REMARK SMILES IDX 33 13 5 14 6 15 7 16 8 17 9 18 14 19 10 20 13 21 12 22 11 23
REMARK SMILES IDX 15 24 16 26 17 27 24 28 18 29 23 30 19 31 22 32 20 33 21 34
REMARK H PARENT 15 25 18 35
ROOT
ATOM      1  O   UNL     1      45.782 128.795  21.391  1.00  0.00    -0.477 OA
ENDROOT
BRANCH   1   2
ATOM      2  C   UNL     1      44.811 127.796  21.689  1.00  0.00     0.239 C 
BRANCH   2   3
ATOM      3  C   UNL     1      44.601 127.707  23.211  1.00  0.00     0.061 C 
ATOM      4  C   UNL     1      44.921 129.034  23.909  1.00  0.00     0.016 C 
BRANCH   3   5
ATOM      5  C   UNL     1      43.226 127.176  23.623  1.00  0.00     0.036 A 
ATOM      6  C   UNL     1      42.244 128.120  23.985  1.00  0.00     0.011 A 
ATOM      7  C   UNL     1      42.883 125.793  23.665  1.00  0.00     0.272 A 
ATOM      8  C   UNL     1      40.979 127.714  24.414  1.00  0.00     0.001 A 
ATOM      9  C   UNL     1      41.609 125.403  24.105  1.00  0.00     0.086 A 
ATOM     10  C   UNL     1      40.664 126.357  24.481  1.00  0.00     0.007 A 
BRANCH   7  11
ATOM     11  N   UNL     1      43.801 124.766  23.284  1.00  0.00     0.063 N 
ATOM     12  O   UNL     1      44.925 124.719  23.820  1.00  0.00    -0.258 OA
ATOM     13  O   UNL     1      43.597 124.092  22.102  1.00  0.00    -0.258 OA
ENDBRANCH   7  11
ENDBRANCH   3   5
ENDBRANCH   2   3
ENDBRANCH   1   2
BRANCH   1  14
ATOM     14  C   UNL     1      45.471 130.149  21.266  1.00  0.00     0.232 C 
ATOM     15  O   UNL     1      46.356 130.977  20.918  1.00  0.00    -0.274 OA
BRANCH  14  16
ATOM     16  N   UNL     1      44.146 130.580  21.594  1.00  0.00    -0.588 NA
BRANCH  16  17
ATOM     17  C   UNL     1      43.258 131.404  20.816  1.00  0.00    -0.085 A 
ATOM     18  C   UNL     1      42.253 132.190  21.410  1.00  0.00     0.029 A 
ATOM     19  C   UNL     1      43.460 131.508  19.424  1.00  0.00     0.115 A 
ATOM     20  C   UNL     1      41.469 133.038  20.619  1.00  0.00     0.140 A 
ATOM     21  N   UNL     1      42.697 132.369  18.687  1.00  0.00    -0.237 NA
ATOM     22  C   UNL     1      41.711 133.118  19.246  1.00  0.00     0.152 A 
ATOM     23  F   UNL     1      40.497 133.798  21.184  1.00  0.00    -0.205 F 
BRANCH  19  24
ATOM     24  N   UNL     1      44.495 130.761  18.768  1.00  0.00    -0.340 N 
ATOM     25  H   UNL     1      45.016 130.044  19.347  1.00  0.00     0.168 HD
BRANCH  24  26
ATOM     26  C   UNL     1      44.825 130.907  17.374  1.00  0.00     0.057 A 
ATOM     27  C   UNL     1      43.955 131.602  16.476  1.00  0.00     0.110 A 
ATOM     28  C   UNL     1      46.046 130.381  16.896  1.00  0.00     0.039 A 
ATOM     29  N   UNL     1      44.269 131.754  15.149  1.00  0.00    -0.344 N 
ATOM     30  C   UNL     1      46.334 130.549  15.549  1.00  0.00     0.021 A 
ATOM     31  C   UNL     1      45.433 131.241  14.689  1.00  0.00     0.137 A 
ATOM     32  C   UNL     1      47.398 130.185  14.763  1.00  0.00     0.032 A 
ATOM     33  N   UNL     1      45.904 131.316  13.433  1.00  0.00    -0.239 NA
ATOM     34  C   UNL     1      47.100 130.669  13.486  1.00  0.00     0.114 A 
ATOM     35  H   UNL     1      43.622 132.264  14.505  1.00  0.00     0.168 HD
ENDBRANCH  24  26
ENDBRANCH  19  24
ENDBRANCH  16  17
ENDBRANCH  14  16
ENDBRANCH   1  14
TORSDOF 9
ENDMDL
MODEL 3
REMARK VINA RESULT:      -3.4      4.975      7.427
REMARK SMILES C[C@H](COC(=O)[N-]c1cc(F)cnc1Nc1c[nH]c2nccc-2c1)c1ccccc1[N+](=O)[O-]
REMARK SMILES IDX 4 1 3 2 2 3 1 4 25 5 26 6 30 7 27 8 29 9 28 10 31 11 32 12
REMARK SMILES IDX 33 13 5 14 6 15 7 16 8 17 9 18 14 19 10 20 13 21 12 22 11 23
REMARK SMILES IDX 15 24 16 26 17 27 24 28 18 29 23 30 19 31 22 32 20 33 21 34
REMARK H PARENT 15 25 18 35
ROOT
ATOM      1  O   UNL     1      44.307 128.763  22.814  1.00  0.00    -0.477 OA
ENDROOT
BRANCH   1   2
ATOM      2  C   UNL     1      45.385 127.935  22.386  1.00  0.00     0.239 C 
BRANCH   2   3
ATOM      3  C   UNL     1      45.456 126.673  23.264  1.00  0.00     0.061 C 
ATOM      4  C   UNL     1      44.083 126.298  23.835  1.00  0.00     0.016 C 
BRANCH   3   5
ATOM      5  C   UNL     1      46.126 125.477  22.586  1.00  0.00     0.036 A 
ATOM      6  C   UNL     1      47.499 125.586  22.281  1.00  0.00     0.011 A 
ATOM      7  C   UNL     1      45.452 124.269  22.244  1.00  0.00     0.272 A 
ATOM      8  C   UNL     1      48.174 124.556  21.623  1.00  0.00     0.001 A 
ATOM      9  C   UNL     1      46.144 123.247  21.576  1.00  0.00     0.086 A 
ATOM     10  C   UNL     1      47.496 123.391  21.265  1.00  0.00     0.007 A 
BRANCH   7  11
ATOM     11  N   UNL     1      44.071 124.054  22.544  1.00  0.00     0.063 N 
ATOM     12  O   UNL     1      43.199 124.523  21.786  1.00  0.00    -0.258 OA
ATOM     13  O   UNL     1      43.714 123.677  23.817  1.00  0.00    -0.258 OA
ENDBRANCH   7  11
ENDBRANCH   3   5
ENDBRANCH   2   3
ENDBRANCH   1   2
BRANCH   1  14
ATOM     14  C   UNL     1      44.410 130.150  22.931  1.00  0.00     0.232 C 
ATOM     15  O   UNL     1      44.258 130.707  24.052  1.00  0.00    -0.274 OA
BRANCH  14  16
ATOM     16  N   UNL     1      44.634 130.922  21.747  1.00  0.00    -0.588 NA
BRANCH  16  17
ATOM     17  C   UNL     1      43.658 131.515  20.871  1.00  0.00    -0.085 A 
ATOM     18  C   UNL     1      42.765 132.511  21.308  1.00  0.00     0.029 A 
ATOM     19  C   UNL     1      43.655 131.161  19.505  1.00  0.00     0.115 A 
ATOM     20  C   UNL     1      41.890 133.115  20.399  1.00  0.00     0.140 A 
ATOM     21  N   UNL     1      42.809 131.794  18.639  1.00  0.00    -0.237 NA
ATOM     22  C   UNL     1      41.929 132.742  19.053  1.00  0.00     0.152 A 
ATOM     23  F   UNL     1      41.025 134.076  20.813  1.00  0.00    -0.205 F 
BRANCH  19  24
ATOM     24  N   UNL     1      44.569 130.180  18.993  1.00  0.00    -0.340 N 
ATOM     25  H   UNL     1      44.736 129.318  19.584  1.00  0.00     0.168 HD
BRANCH  24  26
ATOM     26  C   UNL     1      45.227 130.291  17.717  1.00  0.00     0.057 A 
ATOM     27  C   UNL     1      46.571 129.839  17.534  1.00  0.00     0.110 A 
ATOM     28  C   UNL     1      44.516 130.829  16.620  1.00  0.00     0.039 A 
ATOM     29  N   UNL     1      47.199 129.932  16.319  1.00  0.00    -0.344 N 
ATOM     30  C   UNL     1      45.180 130.912  15.404  1.00  0.00     0.021 A 
ATOM     31  C   UNL     1      46.522 130.456  15.271  1.00  0.00     0.137 A 
ATOM     32  C   UNL     1      44.810 131.360  14.161  1.00  0.00     0.032 A 
ATOM     33  N   UNL     1      46.974 130.601  14.013  1.00  0.00    -0.239 NA
ATOM     34  C   UNL     1      45.927 131.154  13.345  1.00  0.00     0.114 A 
ATOM     35  H   UNL     1      48.183 129.597  16.202  1.00  0.00     0.168 HD
ENDBRANCH  24  26
ENDBRANCH  19  24
ENDBRANCH  16  17
ENDBRANCH  14  16
ENDBRANCH   1  14
TORSDOF 9
ENDMDL
MODEL 4
REMARK VINA RESULT:      -3.1      4.609      8.123
REMARK SMILES C[C@H](COC(=O)[N-]c1cc(F)cnc1Nc1c[nH]c2nccc-2c1)c1ccccc1[N+](=O)[O-]
REMARK SMILES IDX 4 1 3 2 2 3 1 4 25 5 26 6 30 7 27 8 29 9 28 10 31 11 32 12
REMARK SMILES IDX 33 13 5 14 6 15 7 16 8 17 9 18 14 19 10 20 13 21 12 22 11 23
REMARK SMILES IDX 15 24 16 26 17 27 24 28 18 29 23 30 19 31 22 32 20 33 21 34
REMARK H PARENT 15 25 18 35
ROOT
ATOM      1  O   UNL     1      45.962 130.621  17.979  1.00  0.00    -0.477 OA
ENDROOT
BRANCH   1   2
ATOM      2  C   UNL     1      45.069 130.006  17.056  1.00  0.00     0.239 C 
BRANCH   2   3
ATOM      3  C   UNL     1      45.849 129.068  16.117  1.00  0.00     0.061 C 
ATOM      4  C   UNL     1      44.960 127.951  15.558  1.00  0.00     0.016 C 
BRANCH   3   5
ATOM      5  C   UNL     1      46.609 129.790  15.003  1.00  0.00     0.036 A 
ATOM      6  C   UNL     1      47.645 129.083  14.357  1.00  0.00     0.011 A 
ATOM      7  C   UNL     1      46.338 131.125  14.583  1.00  0.00     0.272 A 
ATOM      8  C   UNL     1      48.415 129.687  13.360  1.00  0.00     0.001 A 
ATOM      9  C   UNL     1      47.126 131.717  13.585  1.00  0.00     0.086 A 
ATOM     10  C   UNL     1      48.160 131.004  12.980  1.00  0.00     0.007 A 
BRANCH   7  11
ATOM     11  N   UNL     1      45.286 131.906  15.156  1.00  0.00     0.063 N 
ATOM     12  O   UNL     1      44.175 131.946  14.592  1.00  0.00    -0.258 OA
ATOM     13  O   UNL     1      45.600 132.876  16.078  1.00  0.00    -0.258 OA
ENDBRANCH   7  11
ENDBRANCH   3   5
ENDBRANCH   2   3
ENDBRANCH   1   2
BRANCH   1  14
ATOM     14  C   UNL     1      45.864 130.457  19.361  1.00  0.00     0.232 C 
ATOM     15  O   UNL     1      46.904 130.392  20.071  1.00  0.00    -0.274 OA
BRANCH  14  16
ATOM     16  N   UNL     1      44.564 130.311  19.942  1.00  0.00    -0.588 NA
BRANCH  16  17
ATOM     17  C   UNL     1      43.573 131.328  20.178  1.00  0.00    -0.085 A 
ATOM     18  C   UNL     1      42.838 131.916  19.132  1.00  0.00     0.029 A 
ATOM     19  C   UNL     1      43.253 131.681  21.507  1.00  0.00     0.115 A 
ATOM     20  C   UNL     1      41.828 132.841  19.419  1.00  0.00     0.140 A 
ATOM     21  N   UNL     1      42.240 132.563  21.752  1.00  0.00    -0.237 NA
ATOM     22  C   UNL     1      41.537 133.152  20.750  1.00  0.00     0.152 A 
ATOM     23  F   UNL     1      41.117 133.413  18.416  1.00  0.00    -0.205 F 
BRANCH  19  24
ATOM     24  N   UNL     1      43.941 131.085  22.616  1.00  0.00    -0.340 N 
ATOM     25  H   UNL     1      44.608 131.700  23.161  1.00  0.00     0.168 HD
BRANCH  24  26
ATOM     26  C   UNL     1      43.739 129.724  23.043  1.00  0.00     0.057 A 
ATOM     27  C   UNL     1      42.457 129.098  22.943  1.00  0.00     0.110 A 
ATOM     28  C   UNL     1      44.838 128.987  23.539  1.00  0.00     0.039 A 
ATOM     29  N   UNL     1      42.261 127.800  23.338  1.00  0.00    -0.344 N 
ATOM     30  C   UNL     1      44.607 127.676  23.932  1.00  0.00     0.021 A 
ATOM     31  C   UNL     1      43.311 127.097  23.822  1.00  0.00     0.137 A 
ATOM     32  C   UNL     1      45.417 126.692  24.440  1.00  0.00     0.032 A 
ATOM     33  N   UNL     1      43.302 125.817  24.232  1.00  0.00    -0.239 NA
ATOM     34  C   UNL     1      44.587 125.579  24.608  1.00  0.00     0.114 A 
ATOM     35  H   UNL     1      41.317 127.357  23.259  1.00  0.00     0.168 HD
ENDBRANCH  24  26
ENDBRANCH  19  24
ENDBRANCH  16  17
ENDBRANCH  14  16
ENDBRANCH   1  14
TORSDOF 9
ENDMDL
MODEL 5
REMARK VINA RESULT:      -2.1      4.594      8.624
REMARK SMILES C[C@H](COC(=O)[N-]c1cc(F)cnc1Nc1c[nH]c2nccc-2c1)c1ccccc1[N+](=O)[O-]
REMARK SMILES IDX 4 1 3 2 2 3 1 4 25 5 26 6 30 7 27 8 29 9 28 10 31 11 32 12
REMARK SMILES IDX 33 13 5 14 6 15 7 16 8 17 9 18 14 19 10 20 13 21 12 22 11 23
REMARK SMILES IDX 15 24 16 26 17 27 24 28 18 29 23 30 19 31 22 32 20 33 21 34
REMARK H PARENT 15 25 18 35
ROOT
ATOM      1  O   UNL     1      45.870 128.854  21.012  1.00  0.00    -0.477 OA
ENDROOT
BRANCH   1   2
ATOM      2  C   UNL     1      44.662 128.693  21.750  1.00  0.00     0.239 C 
BRANCH   2   3
ATOM      3  C   UNL     1      44.941 127.908  23.045  1.00  0.00     0.061 C 
ATOM      4  C   UNL     1      44.504 128.689  24.290  1.00  0.00     0.016 C 
BRANCH   3   5
ATOM      5  C   UNL     1      44.375 126.487  23.048  1.00  0.00     0.036 A 
ATOM      6  C   UNL     1      42.972 126.344  23.036  1.00  0.00     0.011 A 
ATOM      7  C   UNL     1      45.174 125.307  23.066  1.00  0.00     0.272 A 
ATOM      8  C   UNL     1      42.376 125.082  23.082  1.00  0.00     0.001 A 
ATOM      9  C   UNL     1      44.559 124.047  23.119  1.00  0.00     0.086 A 
ATOM     10  C   UNL     1      43.169 123.936  23.131  1.00  0.00     0.007 A 
BRANCH   7  11
ATOM     11  N   UNL     1      46.602 125.352  23.045  1.00  0.00     0.063 N 
ATOM     12  O   UNL     1      47.229 125.447  24.119  1.00  0.00    -0.258 OA
ATOM     13  O   UNL     1      47.245 125.664  21.870  1.00  0.00    -0.258 OA
ENDBRANCH   7  11
ENDBRANCH   3   5
ENDBRANCH   2   3
ENDBRANCH   1   2
BRANCH   1  14
ATOM     14  C   UNL     1      46.059 129.865  20.069  1.00  0.00     0.232 C 
ATOM     15  O   UNL     1      46.882 130.796  20.289  1.00  0.00    -0.274 OA
BRANCH  14  16
ATOM     16  N   UNL     1      45.263 129.849  18.880  1.00  0.00    -0.588 NA
BRANCH  16  17
ATOM     17  C   UNL     1      45.450 130.608  17.671  1.00  0.00    -0.085 A 
ATOM     18  C   UNL     1      46.433 130.274  16.721  1.00  0.00     0.029 A 
ATOM     19  C   UNL     1      44.560 131.662  17.376  1.00  0.00     0.115 A 
ATOM     20  C   UNL     1      46.522 130.992  15.523  1.00  0.00     0.140 A 
ATOM     21  N   UNL     1      44.655 132.321  16.183  1.00  0.00    -0.237 NA
ATOM     22  C   UNL     1      45.612 132.021  15.267  1.00  0.00     0.152 A 
ATOM     23  F   UNL     1      47.468 130.676  14.603  1.00  0.00    -0.205 F 
BRANCH  19  24
ATOM     24  N   UNL     1      43.513 132.023  18.289  1.00  0.00    -0.340 N 
ATOM     25  H   UNL     1      42.555 132.212  17.879  1.00  0.00     0.168 HD
BRANCH  24  26
ATOM     26  C   UNL     1      43.689 132.098  19.717  1.00  0.00     0.057 A 
ATOM     27  C   UNL     1      44.873 132.659  20.289  1.00  0.00     0.110 A 
ATOM     28  C   UNL     1      42.655 131.636  20.563  1.00  0.00     0.039 A 
ATOM     29  N   UNL     1      45.041 132.744  21.647  1.00  0.00    -0.344 N 
ATOM     30  C   UNL     1      42.857 131.732  21.932  1.00  0.00     0.021 A 
ATOM     31  C   UNL     1      44.056 132.292  22.458  1.00  0.00     0.137 A 
ATOM     32  C   UNL     1      42.090 131.398  23.020  1.00  0.00     0.032 A 
ATOM     33  N   UNL     1      44.046 132.316  23.802  1.00  0.00    -0.239 NA
ATOM     34  C   UNL     1      42.847 131.768  24.136  1.00  0.00     0.114 A 
ATOM     35  H   UNL     1      45.913 133.156  22.050  1.00  0.00     0.168 HD
ENDBRANCH  24  26
ENDBRANCH  19  24
ENDBRANCH  16  17
ENDBRANCH  14  16
ENDBRANCH   1  14
TORSDOF 9
ENDMDL


