REMARK SMILES C=C[C@@H](Oc1nc[nH+]c(C)c1C)c1cc(-c2c[n-]c3nccc-3c2)cc2c1CC(=O)[N-]2
REMARK SMILES IDX 3 1 2 2 1 3 4 4 5 5 6 6 11 7 7 8 9 9 8 10 12 11 10 12 13 14
REMARK SMILES IDX 14 15 27 16 15 17 26 18 28 19 25 20 31 21 29 22 30 23 16 24
REMARK SMILES IDX 17 25 24 26 18 27 23 28 19 29 22 30 20 31 21 32
REMARK H PARENT 8 13
ROOT
ATOM      1  C   UNL     1       0.389  -1.394  -1.277  1.00  0.00     0.230 C 
ENDROOT
BRANCH   1   2
ATOM      2  C   UNL     1       0.753  -2.807  -1.644  1.00  0.00     0.014 C 
ATOM      3  C   UNL     1       1.666  -3.496  -0.951  1.00  0.00     0.008 C 
ENDBRANCH   1   2
BRANCH   1   4
ATOM      4  O   UNL     1      -0.367  -0.813  -2.339  1.00  0.00    -0.447 OA
BRANCH   4   5
ATOM      5  C   UNL     1      -0.713   0.544  -2.393  1.00  0.00     0.335 A 
ATOM      6  N   UNL     1      -0.230   1.409  -1.461  1.00  0.00    -0.010 NA
ATOM      7  C   UNL     1      -1.564   1.017  -3.408  1.00  0.00     0.080 A 
ATOM      8  C   UNL     1      -0.554   2.723  -1.482  1.00  0.00     0.453 A 
ATOM      9  C   UNL     1      -1.907   2.388  -3.400  1.00  0.00     0.108 A 
ATOM     10  N   UNL     1      -1.384   3.206  -2.442  1.00  0.00    -0.247 N 
ATOM     11  C   UNL     1      -2.139   0.072  -4.435  1.00  0.00     0.057 C 
ATOM     12  C   UNL     1      -2.828   2.967  -4.441  1.00  0.00     0.093 C 
ATOM     13  H   UNL     1      -1.619   4.224  -2.429  1.00  0.00     0.311 HD
ENDBRANCH   4   5
ENDBRANCH   1   4
BRANCH   1  14
ATOM     14  C   UNL     1      -0.407  -1.373   0.012  1.00  0.00    -0.001 A 
ATOM     15  C   UNL     1       0.172  -0.863   1.193  1.00  0.00     0.016 A 
ATOM     16  C   UNL     1      -1.722  -1.865   0.085  1.00  0.00    -0.050 A 
ATOM     17  C   UNL     1      -0.550  -0.836   2.410  1.00  0.00    -0.020 A 
ATOM     18  C   UNL     1      -2.423  -1.848   1.272  1.00  0.00    -0.130 A 
ATOM     19  C   UNL     1      -2.566  -2.456  -0.997  1.00  0.00     0.089 C 
ATOM     20  C   UNL     1      -1.867  -1.341   2.443  1.00  0.00    -0.007 A 
ATOM     21  N   UNL     1      -3.729  -2.388   1.155  1.00  0.00    -0.626 NA
ATOM     22  C   UNL     1      -3.808  -2.757  -0.218  1.00  0.00     0.059 C 
ATOM     23  O   UNL     1      -4.836  -3.282  -0.719  1.00  0.00    -0.320 OA
BRANCH  17  24
ATOM     24  C   UNL     1       0.070  -0.280   3.639  1.00  0.00    -0.022 A 
ATOM     25  C   UNL     1      -0.130  -0.917   4.899  1.00  0.00    -0.014 A 
ATOM     26  C   UNL     1       0.857   0.895   3.567  1.00  0.00     0.016 A 
ATOM     27  N   UNL     1       0.423  -0.421   6.048  1.00  0.00    -0.442 NA
ATOM     28  C   UNL     1       1.402   1.373   4.747  1.00  0.00    -0.026 A 
ATOM     29  C   UNL     1       1.173   0.702   5.980  1.00  0.00    -0.052 A 
ATOM     30  C   UNL     1       2.186   2.456   5.049  1.00  0.00     0.003 A 
ATOM     31  N   UNL     1       1.777   1.323   7.004  1.00  0.00    -0.442 NA
ATOM     32  C   UNL     1       2.393   2.390   6.430  1.00  0.00    -0.022 A 
ENDBRANCH  17  24
ENDBRANCH   1  14
TORSDOF 5


