MODEL 1
REMARK VINA RESULT:      -6.6      0.000      0.000
REMARK SMILES Cc1c(Br)cccc1[NH2+]/C(S)=[N+]1/CCC[C@@H](c2ccc3cc(F)ccc3n2)[C@H]1F
REMARK SMILES IDX 10 1 11 2 12 4 13 5 28 6 14 7 16 8 15 9 29 10 17 11 27 12
REMARK SMILES IDX 18 13 26 14 19 15 25 16 20 17 24 18 21 19 22 20 23 21 9 22
REMARK SMILES IDX 8 25 7 26 2 27 6 28 3 29 5 30 1 31 4 32
REMARK H PARENT 11 3 9 23 9 24
ROOT
ATOM      1  C   UNL     1      44.130 128.274  23.645  1.00  0.00     0.401 C 
ENDROOT
BRANCH   1   2
ATOM      2  S   UNL     1      42.528 127.425  23.746  1.00  0.00    -0.010 SA
ATOM      3  H   UNL     1      41.892 128.528  24.342  1.00  0.00     0.120 HD
ENDBRANCH   1   2
BRANCH   1   4
ATOM      4  N   UNL     1      44.244 129.487  23.139  1.00  0.00    -0.144 N 
ATOM      5  C   UNL     1      44.456 130.662  23.998  1.00  0.00     0.360 C 
ATOM      6  C   UNL     1      44.384 129.721  21.695  1.00  0.00     0.457 C 
ATOM      7  C   UNL     1      43.566 131.830  23.563  1.00  0.00     0.074 C 
ATOM      8  C   UNL     1      43.495 130.894  21.239  1.00  0.00     0.142 C 
ATOM      9  C   UNL     1      43.769 132.147  22.083  1.00  0.00     0.026 C 
ATOM     10  F   UNL     1      45.714 129.976  21.400  1.00  0.00    -0.174 F 
BRANCH   8  11
ATOM     11  C   UNL     1      43.687 131.162  19.763  1.00  0.00     0.054 A 
ATOM     12  N   UNL     1      44.813 130.727  19.130  1.00  0.00    -0.252 NA
ATOM     13  C   UNL     1      42.672 131.781  19.016  1.00  0.00     0.025 A 
ATOM     14  C   UNL     1      45.004 130.899  17.794  1.00  0.00     0.071 A 
ATOM     15  C   UNL     1      42.839 131.972  17.644  1.00  0.00     0.012 A 
ATOM     16  C   UNL     1      46.181 130.444  17.189  1.00  0.00     0.032 A 
ATOM     17  C   UNL     1      44.010 131.532  17.017  1.00  0.00     0.003 A 
ATOM     18  C   UNL     1      46.372 130.620  15.814  1.00  0.00     0.041 A 
ATOM     19  C   UNL     1      44.209 131.705  15.638  1.00  0.00     0.049 A 
ATOM     20  C   UNL     1      45.390 131.249  15.041  1.00  0.00     0.123 A 
ATOM     21  F   UNL     1      45.581 131.415  13.710  1.00  0.00    -0.207 F 
ENDBRANCH   8  11
ENDBRANCH   1   4
BRANCH   1  22
ATOM     22  N   UNL     1      45.281 127.504  24.093  1.00  0.00    -0.220 N 
ATOM     23  H   UNL     1      46.128 127.801  23.555  1.00  0.00     0.364 HD
ATOM     24  H   UNL     1      45.461 127.762  25.087  1.00  0.00     0.364 HD
BRANCH  22  25
ATOM     25  C   UNL     1      45.133 126.071  23.885  1.00  0.00     0.143 A 
ATOM     26  C   UNL     1      44.155 125.353  24.605  1.00  0.00     0.069 A 
ATOM     27  C   UNL     1      45.907 125.379  22.907  1.00  0.00     0.025 A 
ATOM     28  C   UNL     1      44.024 123.974  24.457  1.00  0.00     0.007 A 
ATOM     29  C   UNL     1      45.790 123.970  22.804  1.00  0.00     0.026 A 
ATOM     30  C   UNL     1      44.851 123.285  23.578  1.00  0.00     0.016 A 
ATOM     31  C   UNL     1      46.866 126.128  22.010  1.00  0.00     0.052 C 
ATOM     32  Br  UNL     1      46.893 122.914  21.639  1.00  0.00    -0.050 Br
ENDBRANCH  22  25
ENDBRANCH   1  22
TORSDOF 5
ENDMDL
MODEL 2
REMARK VINA RESULT:      -5.9      1.961      2.980
REMARK SMILES Cc1c(Br)cccc1[NH2+]/C(S)=[N+]1/CCC[C@@H](c2ccc3cc(F)ccc3n2)[C@H]1F
REMARK SMILES IDX 10 1 11 2 12 4 13 5 28 6 14 7 16 8 15 9 29 10 17 11 27 12
REMARK SMILES IDX 18 13 26 14 19 15 25 16 20 17 24 18 21 19 22 20 23 21 9 22
REMARK SMILES IDX 8 25 7 26 2 27 6 28 3 29 5 30 1 31 4 32
REMARK H PARENT 11 3 9 23 9 24
ROOT
ATOM      1  C   UNL     1      43.435 131.330  22.450  1.00  0.00     0.401 C 
ENDROOT
BRANCH   1   2
ATOM      2  S   UNL     1      42.239 131.120  23.800  1.00  0.00    -0.010 SA
ATOM      3  H   UNL     1      42.011 132.502  23.918  1.00  0.00     0.120 HD
ENDBRANCH   1   2
BRANCH   1   4
ATOM      4  N   UNL     1      43.117 131.944  21.327  1.00  0.00    -0.144 N 
ATOM      5  C   UNL     1      42.154 133.055  21.304  1.00  0.00     0.360 C 
ATOM      6  C   UNL     1      43.851 131.711  20.074  1.00  0.00     0.457 C 
ATOM      7  C   UNL     1      41.174 132.911  20.135  1.00  0.00     0.074 C 
ATOM      8  C   UNL     1      42.880 131.564  18.887  1.00  0.00     0.142 C 
ATOM      9  C   UNL     1      41.923 132.763  18.813  1.00  0.00     0.026 C 
ATOM     10  F   UNL     1      44.728 132.763  19.857  1.00  0.00    -0.174 F 
BRANCH   8  11
ATOM     11  C   UNL     1      43.646 131.380  17.596  1.00  0.00     0.054 A 
ATOM     12  N   UNL     1      44.885 130.813  17.611  1.00  0.00    -0.252 NA
ATOM     13  C   UNL     1      43.054 131.711  16.366  1.00  0.00     0.025 A 
ATOM     14  C   UNL     1      45.588 130.580  16.470  1.00  0.00     0.071 A 
ATOM     15  C   UNL     1      43.750 131.484  15.178  1.00  0.00     0.012 A 
ATOM     16  C   UNL     1      46.861 130.003  16.534  1.00  0.00     0.032 A 
ATOM     17  C   UNL     1      45.028 130.915  15.218  1.00  0.00     0.003 A 
ATOM     18  C   UNL     1      47.579 129.762  15.358  1.00  0.00     0.041 A 
ATOM     19  C   UNL     1      45.755 130.670  14.042  1.00  0.00     0.049 A 
ATOM     20  C   UNL     1      47.029 130.095  14.116  1.00  0.00     0.123 A 
ATOM     21  F   UNL     1      47.729 129.858  12.980  1.00  0.00    -0.207 F 
ENDBRANCH   8  11
ENDBRANCH   1   4
BRANCH   1  22
ATOM     22  N   UNL     1      44.738 130.717  22.662  1.00  0.00    -0.220 N 
ATOM     23  H   UNL     1      45.283 130.744  21.770  1.00  0.00     0.364 HD
ATOM     24  H   UNL     1      45.258 131.316  23.339  1.00  0.00     0.364 HD
BRANCH  22  25
ATOM     25  C   UNL     1      44.661 129.322  23.066  1.00  0.00     0.143 A 
ATOM     26  C   UNL     1      43.893 128.955  24.192  1.00  0.00     0.069 A 
ATOM     27  C   UNL     1      45.286 128.292  22.301  1.00  0.00     0.025 A 
ATOM     28  C   UNL     1      43.840 127.633  24.624  1.00  0.00     0.007 A 
ATOM     29  C   UNL     1      45.257 126.959  22.783  1.00  0.00     0.026 A 
ATOM     30  C   UNL     1      44.535 126.645  23.936  1.00  0.00     0.016 A 
ATOM     31  C   UNL     1      45.998 128.615  21.008  1.00  0.00     0.052 C 
ATOM     32  Br  UNL     1      46.195 125.519  21.925  1.00  0.00    -0.050 Br
ENDBRANCH  22  25
ENDBRANCH   1  22
TORSDOF 5
ENDMDL
MODEL 3
REMARK VINA RESULT:      -4.2      1.749      2.714
REMARK SMILES Cc1c(Br)cccc1[NH2+]/C(S)=[N+]1/CCC[C@@H](c2ccc3cc(F)ccc3n2)[C@H]1F
REMARK SMILES IDX 10 1 11 2 12 4 13 5 28 6 14 7 16 8 15 9 29 10 17 11 27 12
REMARK SMILES IDX 18 13 26 14 19 15 25 16 20 17 24 18 21 19 22 20 23 21 9 22
REMARK SMILES IDX 8 25 7 26 2 27 6 28 3 29 5 30 1 31 4 32
REMARK H PARENT 11 3 9 23 9 24
ROOT
ATOM      1  C   UNL     1      43.637 130.216  22.842  1.00  0.00     0.401 C 
ENDROOT
BRANCH   1   2
ATOM      2  S   UNL     1      44.840 130.442  24.183  1.00  0.00    -0.010 SA
ATOM      3  H   UNL     1      45.832 130.933  23.317  1.00  0.00     0.120 HD
ENDBRANCH   1   2
BRANCH   1   4
ATOM      4  N   UNL     1      43.617 131.006  21.785  1.00  0.00    -0.144 N 
ATOM      5  C   UNL     1      42.918 132.299  21.805  1.00  0.00     0.360 C 
ATOM      6  C   UNL     1      44.456 130.754  20.605  1.00  0.00     0.457 C 
ATOM      7  C   UNL     1      42.106 132.508  20.523  1.00  0.00     0.074 C 
ATOM      8  C   UNL     1      43.655 130.959  19.305  1.00  0.00     0.142 C 
ATOM      9  C   UNL     1      42.988 132.342  19.287  1.00  0.00     0.026 C 
ATOM     10  F   UNL     1      45.554 131.600  20.638  1.00  0.00    -0.174 F 
BRANCH   8  11
ATOM     11  C   UNL     1      44.542 130.751  18.097  1.00  0.00     0.054 A 
ATOM     12  N   UNL     1      44.153 131.215  16.876  1.00  0.00    -0.252 NA
ATOM     13  C   UNL     1      45.807 130.159  18.240  1.00  0.00     0.025 A 
ATOM     14  C   UNL     1      44.941 131.097  15.774  1.00  0.00     0.071 A 
ATOM     15  C   UNL     1      46.638 130.025  17.127  1.00  0.00     0.012 A 
ATOM     16  C   UNL     1      44.497 131.580  14.538  1.00  0.00     0.032 A 
ATOM     17  C   UNL     1      46.213 130.493  15.879  1.00  0.00     0.003 A 
ATOM     18  C   UNL     1      45.312 131.460  13.407  1.00  0.00     0.041 A 
ATOM     19  C   UNL     1      47.025 130.377  14.740  1.00  0.00     0.049 A 
ATOM     20  C   UNL     1      46.571 130.860  13.507  1.00  0.00     0.123 A 
ATOM     21  F   UNL     1      47.356 130.748  12.408  1.00  0.00    -0.207 F 
ENDBRANCH   8  11
ENDBRANCH   1   4
BRANCH   1  22
ATOM     22  N   UNL     1      42.660 129.156  23.043  1.00  0.00    -0.220 N 
ATOM     23  H   UNL     1      42.036 129.408  23.844  1.00  0.00     0.364 HD
ATOM     24  H   UNL     1      42.052 129.129  22.196  1.00  0.00     0.364 HD
BRANCH  22  25
ATOM     25  C   UNL     1      43.261 127.871  23.365  1.00  0.00     0.143 A 
ATOM     26  C   UNL     1      42.612 126.995  24.262  1.00  0.00     0.069 A 
ATOM     27  C   UNL     1      44.464 127.435  22.734  1.00  0.00     0.025 A 
ATOM     28  C   UNL     1      43.189 125.779  24.619  1.00  0.00     0.007 A 
ATOM     29  C   UNL     1      45.057 126.215  23.146  1.00  0.00     0.026 A 
ATOM     30  C   UNL     1      44.414 125.402  24.081  1.00  0.00     0.016 A 
ATOM     31  C   UNL     1      45.121 128.273  21.661  1.00  0.00     0.052 C 
ATOM     32  Br  UNL     1      46.754 125.604  22.485  1.00  0.00    -0.050 Br
ENDBRANCH  22  25
ENDBRANCH   1  22
TORSDOF 5
ENDMDL
MODEL 4
REMARK VINA RESULT:      -3.7      2.226      3.303
REMARK SMILES Cc1c(Br)cccc1[NH2+]/C(S)=[N+]1/CCC[C@@H](c2ccc3cc(F)ccc3n2)[C@H]1F
REMARK SMILES IDX 10 1 11 2 12 4 13 5 28 6 14 7 16 8 15 9 29 10 17 11 27 12
REMARK SMILES IDX 18 13 26 14 19 15 25 16 20 17 24 18 21 19 22 20 23 21 9 22
REMARK SMILES IDX 8 25 7 26 2 27 6 28 3 29 5 30 1 31 4 32
REMARK H PARENT 11 3 9 23 9 24
ROOT
ATOM      1  C   UNL     1      44.734 128.348  22.928  1.00  0.00     0.401 C 
ENDROOT
BRANCH   1   2
ATOM      2  S   UNL     1      45.571 126.836  22.371  1.00  0.00    -0.010 SA
ATOM      3  H   UNL     1      44.776 126.005  23.178  1.00  0.00     0.120 HD
ENDBRANCH   1   2
BRANCH   1   4
ATOM      4  N   UNL     1      44.717 129.445  22.194  1.00  0.00    -0.144 N 
ATOM      5  C   UNL     1      44.320 130.743  22.760  1.00  0.00     0.360 C 
ATOM      6  C   UNL     1      45.289 129.488  20.841  1.00  0.00     0.457 C 
ATOM      7  C   UNL     1      43.380 131.494  21.811  1.00  0.00     0.074 C 
ATOM      8  C   UNL     1      44.357 130.241  19.872  1.00  0.00     0.142 C 
ATOM      9  C   UNL     1      44.003 131.630  20.424  1.00  0.00     0.026 C 
ATOM     10  F   UNL     1      46.533 130.100  20.892  1.00  0.00    -0.174 F 
BRANCH   8  11
ATOM     11  C   UNL     1      44.980 130.329  18.497  1.00  0.00     0.054 A 
ATOM     12  N   UNL     1      44.240 130.763  17.437  1.00  0.00    -0.252 NA
ATOM     13  C   UNL     1      46.343 130.047  18.317  1.00  0.00     0.025 A 
ATOM     14  C   UNL     1      44.773 130.908  16.195  1.00  0.00     0.071 A 
ATOM     15  C   UNL     1      46.919 130.186  17.053  1.00  0.00     0.012 A 
ATOM     16  C   UNL     1      43.973 131.348  15.135  1.00  0.00     0.032 A 
ATOM     17  C   UNL     1      46.137 130.618  15.976  1.00  0.00     0.003 A 
ATOM     18  C   UNL     1      44.525 131.498  13.858  1.00  0.00     0.041 A 
ATOM     19  C   UNL     1      46.684 130.771  14.692  1.00  0.00     0.049 A 
ATOM     20  C   UNL     1      45.876 131.211  13.637  1.00  0.00     0.123 A 
ATOM     21  F   UNL     1      46.405 131.359  12.398  1.00  0.00    -0.207 F 
ENDBRANCH   8  11
ENDBRANCH   1   4
BRANCH   1  22
ATOM     22  N   UNL     1      44.149 128.292  24.259  1.00  0.00    -0.220 N 
ATOM     23  H   UNL     1      44.705 127.636  24.855  1.00  0.00     0.364 HD
ATOM     24  H   UNL     1      44.256 129.236  24.687  1.00  0.00     0.364 HD
BRANCH  22  25
ATOM     25  C   UNL     1      42.777 127.806  24.265  1.00  0.00     0.143 A 
ATOM     26  C   UNL     1      41.706 128.718  24.151  1.00  0.00     0.069 A 
ATOM     27  C   UNL     1      42.485 126.410  24.308  1.00  0.00     0.025 A 
ATOM     28  C   UNL     1      40.385 128.281  24.200  1.00  0.00     0.007 A 
ATOM     29  C   UNL     1      41.134 125.990  24.402  1.00  0.00     0.026 A 
ATOM     30  C   UNL     1      40.101 126.928  24.346  1.00  0.00     0.016 A 
ATOM     31  C   UNL     1      43.597 125.387  24.285  1.00  0.00     0.052 C 
ATOM     32  Br  UNL     1      40.626 124.151  24.625  1.00  0.00    -0.050 Br
ENDBRANCH  22  25
ENDBRANCH   1  22
TORSDOF 5
ENDMDL
MODEL 5
REMARK VINA RESULT:      -3.7      5.041      7.233
REMARK SMILES Cc1c(Br)cccc1[NH2+]/C(S)=[N+]1/CCC[C@@H](c2ccc3cc(F)ccc3n2)[C@H]1F
REMARK SMILES IDX 10 1 11 2 12 4 13 5 28 6 14 7 16 8 15 9 29 10 17 11 27 12
REMARK SMILES IDX 18 13 26 14 19 15 25 16 20 17 24 18 21 19 22 20 23 21 9 22
REMARK SMILES IDX 8 25 7 26 2 27 6 28 3 29 5 30 1 31 4 32
REMARK H PARENT 11 3 9 23 9 24
ROOT
ATOM      1  C   UNL     1      46.916 133.474  23.120  1.00  0.00     0.401 C 
ENDROOT
BRANCH   1   2
ATOM      2  S   UNL     1      46.647 134.455  24.624  1.00  0.00    -0.010 SA
ATOM      3  H   UNL     1      45.770 133.507  25.180  1.00  0.00     0.120 HD
ENDBRANCH   1   2
BRANCH   1   4
ATOM      4  N   UNL     1      45.931 132.827  22.525  1.00  0.00    -0.144 N 
ATOM      5  C   UNL     1      44.679 132.516  23.229  1.00  0.00     0.360 C 
ATOM      6  C   UNL     1      45.929 132.568  21.078  1.00  0.00     0.457 C 
ATOM      7  C   UNL     1      44.232 131.078  22.950  1.00  0.00     0.074 C 
ATOM      8  C   UNL     1      45.481 131.125  20.778  1.00  0.00     0.142 C 
ATOM      9  C   UNL     1      44.134 130.821  21.448  1.00  0.00     0.026 C 
ATOM     10  F   UNL     1      45.089 133.478  20.453  1.00  0.00    -0.174 F 
BRANCH   8  11
ATOM     11  C   UNL     1      45.429 130.886  19.285  1.00  0.00     0.054 A 
ATOM     12  N   UNL     1      44.456 131.472  18.532  1.00  0.00    -0.252 NA
ATOM     13  C   UNL     1      46.430 130.131  18.652  1.00  0.00     0.025 A 
ATOM     14  C   UNL     1      44.402 131.328  17.181  1.00  0.00     0.071 A 
ATOM     15  C   UNL     1      46.401 129.965  17.267  1.00  0.00     0.012 A 
ATOM     16  C   UNL     1      43.379 131.942  16.450  1.00  0.00     0.032 A 
ATOM     17  C   UNL     1      45.383 130.563  16.515  1.00  0.00     0.003 A 
ATOM     18  C   UNL     1      43.328 131.794  15.059  1.00  0.00     0.041 A 
ATOM     19  C   UNL     1      45.326 130.419  15.120  1.00  0.00     0.049 A 
ATOM     20  C   UNL     1      44.298 131.034  14.396  1.00  0.00     0.123 A 
ATOM     21  F   UNL     1      44.244 130.895  13.049  1.00  0.00    -0.207 F 
ENDBRANCH   8  11
ENDBRANCH   1   4
BRANCH   1  22
ATOM     22  N   UNL     1      48.294 133.392  22.658  1.00  0.00    -0.220 N 
ATOM     23  H   UNL     1      48.904 133.068  23.443  1.00  0.00     0.364 HD
ATOM     24  H   UNL     1      48.334 132.647  21.930  1.00  0.00     0.364 HD
BRANCH  22  25
ATOM     25  C   UNL     1      48.828 134.669  22.210  1.00  0.00     0.143 A 
ATOM     26  C   UNL     1      48.104 135.450  21.283  1.00  0.00     0.069 A 
ATOM     27  C   UNL     1      50.042 135.194  22.744  1.00  0.00     0.025 A 
ATOM     28  C   UNL     1      48.616 136.654  20.806  1.00  0.00     0.007 A 
ATOM     29  C   UNL     1      50.568 136.398  22.212  1.00  0.00     0.026 A 
ATOM     30  C   UNL     1      49.850 137.114  21.252  1.00  0.00     0.016 A 
ATOM     31  C   UNL     1      50.781 134.465  23.843  1.00  0.00     0.052 C 
ATOM     32  Br  UNL     1      52.270 137.117  22.739  1.00  0.00    -0.050 Br
ENDBRANCH  22  25
ENDBRANCH   1  22
TORSDOF 5
ENDMDL


