REMARK SMILES CC(=O)c1ccc(-c2ccc(OC(=O)[C@@H]3C[C@H]3C=O)cc2)c2c[nH]nc12
REMARK SMILES IDX 12 1 11 2 8 3 9 4 21 5 10 6 20 7 7 8 4 9 5 10 26 11 6 12
REMARK SMILES IDX 25 13 22 14 24 15 23 16 2 18 1 19 3 20 13 21 14 22 15 23
REMARK SMILES IDX 16 24 17 25 18 26 19 27
REMARK H PARENT 24 17
ROOT
ATOM      1  O   UNL     1       1.099   2.216  -2.449  1.00  0.00    -0.426 OA
ENDROOT
BRANCH   1   2
ATOM      2  C   UNL     1       0.794   1.394  -1.353  1.00  0.00     0.130 A 
ATOM      3  C   UNL     1       0.274  -0.235   0.888  1.00  0.00    -0.017 A 
ATOM      4  C   UNL     1       1.216   0.804   0.964  1.00  0.00     0.012 A 
ATOM      5  C   UNL     1      -0.407  -0.452  -0.321  1.00  0.00     0.012 A 
ATOM      6  C   UNL     1       1.478   1.604  -0.151  1.00  0.00     0.048 A 
ATOM      7  C   UNL     1      -0.144   0.349  -1.436  1.00  0.00     0.048 A 
BRANCH   3   8
ATOM      8  C   UNL     1      -0.015  -1.081   2.069  1.00  0.00    -0.007 A 
ATOM      9  C   UNL     1      -0.584  -2.707   4.364  1.00  0.00     0.045 A 
ATOM     10  C   UNL     1      -1.626  -2.124   3.602  1.00  0.00     0.015 A 
ATOM     11  C   UNL     1       0.727  -2.450   3.933  1.00  0.00     0.103 A 
ATOM     12  C   UNL     1      -1.345  -1.328   2.471  1.00  0.00     0.010 A 
ATOM     13  N   UNL     1       1.876  -2.913   4.462  1.00  0.00    -0.175 NA
ATOM     14  C   UNL     1       0.997  -1.671   2.835  1.00  0.00     0.028 A 
ATOM     15  N   UNL     1       2.864  -2.442   3.710  1.00  0.00    -0.284 N 
ATOM     16  C   UNL     1       2.369  -1.687   2.706  1.00  0.00     0.114 A 
ATOM     17  H   UNL     1       3.874  -2.645   3.879  1.00  0.00     0.189 HD
BRANCH   9  18
ATOM     18  C   UNL     1      -0.867  -3.553   5.556  1.00  0.00     0.162 C 
ATOM     19  C   UNL     1      -2.269  -3.849   5.998  1.00  0.00     0.093 C 
ATOM     20  O   UNL     1       0.085  -4.039   6.224  1.00  0.00    -0.294 OA
ENDBRANCH   9  18
ENDBRANCH   3   8
ENDBRANCH   1   2
BRANCH   1  21
ATOM     21  C   UNL     1       0.224   2.526  -3.497  1.00  0.00     0.315 C 
ATOM     22  O   UNL     1      -1.022   2.383  -3.367  1.00  0.00    -0.251 OA
BRANCH  21  23
ATOM     23  C   UNL     1       0.767   3.136  -4.748  1.00  0.00     0.110 C 
ATOM     24  C   UNL     1       0.494   2.327  -6.010  1.00  0.00     0.028 C 
ATOM     25  C   UNL     1       1.890   2.340  -5.403  1.00  0.00     0.068 C 
BRANCH  25  26
ATOM     26  C   UNL     1       2.884   3.185  -6.138  1.00  0.00     0.228 C 
ATOM     27  O   UNL     1       3.696   3.852  -5.518  1.00  0.00    -0.303 OA
ENDBRANCH  25  26
ENDBRANCH  21  23
ENDBRANCH   1  21
TORSDOF 6


