REMARK SMILES Cc1ccc([C@@H]2CC[C@@H]3CC=N[C@]3(C=O)C2)c(F)c1F
REMARK SMILES IDX 6 1 7 2 8 3 9 4 10 5 11 6 12 7 13 8 16 9 5 10 2 11 3 12
REMARK SMILES IDX 19 13 4 14 17 15 1 16 20 17 18 18 14 19 15 20
REMARK H PARENT
ROOT
ATOM      1  C   UNL     1      -0.103   0.686  -0.108  1.00  0.00     0.025 C 
ATOM      2  C   UNL     1      -0.589   0.923   1.328  1.00  0.00     0.009 C 
ATOM      3  C   UNL     1      -2.004   1.503   1.318  1.00  0.00     0.007 C 
ATOM      4  C   UNL     1      -3.011   0.652   0.516  1.00  0.00     0.029 C 
ATOM      5  C   UNL     1      -3.550  -0.571   1.264  1.00  0.00     0.054 C 
ATOM      6  C   UNL     1      -3.823  -1.505   0.139  1.00  0.00     0.079 C 
ATOM      7  N   UNL     1      -3.283  -1.145  -0.965  1.00  0.00    -0.283 NA
ATOM      8  C   UNL     1      -2.502   0.061  -0.830  1.00  0.00     0.119 C 
ATOM      9  C   UNL     1      -1.002  -0.347  -0.808  1.00  0.00     0.047 C 
ENDROOT
BRANCH   1  10
ATOM     10  C   UNL     1       1.363   0.276  -0.151  1.00  0.00    -0.006 A 
ATOM     11  C   UNL     1       4.099  -0.417  -0.280  1.00  0.00    -0.012 A 
ATOM     12  C   UNL     1       3.626   0.727  -0.937  1.00  0.00     0.007 A 
ATOM     13  C   UNL     1       3.197  -1.228   0.426  1.00  0.00     0.162 A 
ATOM     14  C   UNL     1       2.274   1.071  -0.870  1.00  0.00     0.007 A 
ATOM     15  C   UNL     1       1.842  -0.886   0.495  1.00  0.00     0.162 A 
ATOM     16  C   UNL     1       5.548  -0.801  -0.374  1.00  0.00     0.047 C 
ATOM     17  F   UNL     1       3.632  -2.354   1.047  1.00  0.00    -0.203 F 
ATOM     18  F   UNL     1       1.007  -1.698   1.190  1.00  0.00    -0.203 F 
ENDBRANCH   1  10
BRANCH   8  19
ATOM     19  C   UNL     1      -2.797   0.982  -1.991  1.00  0.00     0.254 C 
ATOM     20  O   UNL     1      -2.366   2.125  -2.008  1.00  0.00    -0.301 OA
ENDBRANCH   8  19
TORSDOF 2


