REMARK SMILES C=c1cc/c(=C(/O)CC([O-])=C2CCC2)c(F)c1
REMARK SMILES IDX 6 1 7 2 5 4 4 5 15 6 3 7 17 8 2 9 16 10 1 11 8 12 9 13 10 14
REMARK SMILES IDX 11 15 12 16 14 17 13 18
REMARK H PARENT 7 3
ROOT
ATOM      1  C   UNL     1       1.337   0.212   1.694  1.00  0.00     0.106 C 
ENDROOT
BRANCH   1   2
ATOM      2  O   UNL     1       1.586  -0.346   2.951  1.00  0.00    -0.511 OA
ATOM      3  H   UNL     1       1.231   0.069   3.804  1.00  0.00     0.293 HD
ENDBRANCH   1   2
BRANCH   1   4
ATOM      4  C   UNL     1       1.836  -0.389   0.576  1.00  0.00     0.048 A 
ATOM      5  C   UNL     1       1.625   0.155  -0.714  1.00  0.00     0.015 A 
ATOM      6  C   UNL     1       2.589  -1.590   0.665  1.00  0.00     0.134 A 
ATOM      7  C   UNL     1       2.134  -0.467  -1.857  1.00  0.00     0.008 A 
ATOM      8  C   UNL     1       3.095  -2.206  -0.485  1.00  0.00     0.047 A 
ATOM      9  C   UNL     1       2.872  -1.652  -1.752  1.00  0.00    -0.030 A 
ATOM     10  F   UNL     1       2.845  -2.191   1.855  1.00  0.00    -0.206 F 
ATOM     11  C   UNL     1       3.358  -2.247  -2.847  1.00  0.00     0.017 C 
ENDBRANCH   1   4
BRANCH   1  12
ATOM     12  C   UNL     1       0.499   1.477   1.659  1.00  0.00     0.093 C 
BRANCH  12  13
ATOM     13  C   UNL     1      -0.894   1.211   1.159  1.00  0.00    -0.126 C 
ATOM     14  O   UNL     1      -1.312   1.778  -0.039  1.00  0.00    -0.875 OA
BRANCH  13  15
ATOM     15  C   UNL     1      -1.747   0.457   1.850  1.00  0.00    -0.082 C 
ATOM     16  C   UNL     1      -3.182  -0.010   1.696  1.00  0.00     0.030 C 
ATOM     17  C   UNL     1      -1.764  -0.329   3.148  1.00  0.00     0.030 C 
ATOM     18  C   UNL     1      -3.181  -0.773   2.981  1.00  0.00     0.009 C 
ENDBRANCH  13  15
ENDBRANCH  12  13
ENDBRANCH   1  12
TORSDOF 5


