MODEL 1
REMARK VINA RESULT:      -7.4      0.000      0.000
REMARK SMILES CC(C)c1ccc(/N=C(\O)N(N)c2ccccc2-c2[nH]c3ccccc3[nH+]2)cc1
REMARK SMILES IDX 9 1 10 2 8 4 7 5 6 6 28 7 5 8 29 9 4 10 2 11 1 12 3 13 11 14
REMARK SMILES IDX 13 15 14 16 18 17 15 18 17 19 16 20 19 21 20 22 27 23 21 24
REMARK SMILES IDX 26 25 22 26 25 27 23 28 24 29 12 32
REMARK H PARENT 10 3 20 30 27 31 12 33 12 34
ROOT
ATOM      1  C   UNL     1      45.395 131.003  20.663  1.00  0.00     0.309 C 
ENDROOT
BRANCH   1   2
ATOM      2  O   UNL     1      46.411 131.880  21.056  1.00  0.00    -0.479 OA
ATOM      3  H   UNL     1      46.659 132.041  22.023  1.00  0.00     0.297 HD
ENDBRANCH   1   2
BRANCH   1   4
ATOM      4  N   UNL     1      44.785 131.134  19.518  1.00  0.00    -0.196 NA
BRANCH   4   5
ATOM      5  C   UNL     1      45.382 131.050  18.217  1.00  0.00     0.069 A 
ATOM      6  C   UNL     1      46.057 129.894  17.797  1.00  0.00     0.029 A 
ATOM      7  C   UNL     1      45.196 132.103  17.315  1.00  0.00     0.029 A 
ATOM      8  C   UNL     1      46.592 129.819  16.507  1.00  0.00     0.006 A 
ATOM      9  C   UNL     1      45.731 132.033  16.026  1.00  0.00     0.006 A 
ATOM     10  C   UNL     1      46.442 130.890  15.610  1.00  0.00    -0.045 A 
BRANCH  10  11
ATOM     11  C   UNL     1      47.029 130.800  14.213  1.00  0.00     0.013 C 
ATOM     12  C   UNL     1      45.951 131.022  13.146  1.00  0.00     0.012 C 
ATOM     13  C   UNL     1      47.748 129.462  14.003  1.00  0.00     0.012 C 
ENDBRANCH  10  11
ENDBRANCH   4   5
ENDBRANCH   1   4
BRANCH   1  14
ATOM     14  N   UNL     1      44.995 129.955  21.570  1.00  0.00    -0.231 N 
BRANCH  14  15
ATOM     15  C   UNL     1      43.993 130.169  22.581  1.00  0.00     0.078 A 
ATOM     16  C   UNL     1      43.276 131.376  22.576  1.00  0.00     0.029 A 
ATOM     17  C   UNL     1      43.727 129.207  23.591  1.00  0.00     0.089 A 
ATOM     18  C   UNL     1      42.337 131.650  23.571  1.00  0.00     0.002 A 
ATOM     19  C   UNL     1      42.791 129.508  24.596  1.00  0.00     0.019 A 
ATOM     20  C   UNL     1      42.101 130.721  24.584  1.00  0.00     0.001 A 
BRANCH  17  21
ATOM     21  C   UNL     1      44.396 127.887  23.615  1.00  0.00     0.287 A 
ATOM     22  N   UNL     1      45.566 127.637  24.258  1.00  0.00    -0.236 N 
ATOM     23  N   UNL     1      43.882 126.782  23.015  1.00  0.00    -0.236 N 
ATOM     24  C   UNL     1      45.771 126.325  24.066  1.00  0.00     0.172 A 
ATOM     25  C   UNL     1      44.755 125.809  23.317  1.00  0.00     0.172 A 
ATOM     26  C   UNL     1      46.817 125.535  24.538  1.00  0.00     0.056 A 
ATOM     27  C   UNL     1      44.696 124.458  22.983  1.00  0.00     0.056 A 
ATOM     28  C   UNL     1      46.794 124.164  24.216  1.00  0.00     0.005 A 
ATOM     29  C   UNL     1      45.737 123.628  23.442  1.00  0.00     0.005 A 
ATOM     30  H   UNL     1      46.173 128.306  24.782  1.00  0.00     0.312 HD
ATOM     31  H   UNL     1      42.990 126.694  22.478  1.00  0.00     0.312 HD
ENDBRANCH  17  21
ENDBRANCH  14  15
BRANCH  14  32
ATOM     32  N   UNL     1      45.506 128.656  21.403  1.00  0.00    -0.239 NA
ATOM     33  H   UNL     1      46.405 128.728  20.875  1.00  0.00     0.144 HD
ATOM     34  H   UNL     1      44.828 128.119  20.814  1.00  0.00     0.144 HD
ENDBRANCH  14  32
ENDBRANCH   1  14
TORSDOF 8
ENDMDL
MODEL 2
REMARK VINA RESULT:      -6.5      4.185      7.704
REMARK SMILES CC(C)c1ccc(/N=C(\O)N(N)c2ccccc2-c2[nH]c3ccccc3[nH+]2)cc1
REMARK SMILES IDX 9 1 10 2 8 4 7 5 6 6 28 7 5 8 29 9 4 10 2 11 1 12 3 13 11 14
REMARK SMILES IDX 13 15 14 16 18 17 15 18 17 19 16 20 19 21 20 22 27 23 21 24
REMARK SMILES IDX 26 25 22 26 25 27 23 28 24 29 12 32
REMARK H PARENT 10 3 20 30 27 31 12 33 12 34
ROOT
ATOM      1  C   UNL     1      47.035 132.038  20.933  1.00  0.00     0.309 C 
ENDROOT
BRANCH   1   2
ATOM      2  O   UNL     1      48.276 131.630  20.434  1.00  0.00    -0.479 OA
ATOM      3  H   UNL     1      48.939 131.089  20.973  1.00  0.00     0.297 HD
ENDBRANCH   1   2
BRANCH   1   4
ATOM      4  N   UNL     1      46.889 133.174  21.555  1.00  0.00    -0.196 NA
BRANCH   4   5
ATOM      5  C   UNL     1      47.926 134.108  21.887  1.00  0.00     0.069 A 
ATOM      6  C   UNL     1      48.855 133.836  22.902  1.00  0.00     0.029 A 
ATOM      7  C   UNL     1      48.073 135.264  21.113  1.00  0.00     0.029 A 
ATOM      8  C   UNL     1      49.885 134.741  23.177  1.00  0.00     0.006 A 
ATOM      9  C   UNL     1      49.099 136.172  21.386  1.00  0.00     0.006 A 
ATOM     10  C   UNL     1      50.013 135.923  22.428  1.00  0.00    -0.045 A 
BRANCH  10  11
ATOM     11  C   UNL     1      51.132 136.901  22.737  1.00  0.00     0.013 C 
ATOM     12  C   UNL     1      51.253 137.142  24.246  1.00  0.00     0.012 C 
ATOM     13  C   UNL     1      50.938 138.219  21.980  1.00  0.00     0.012 C 
ENDBRANCH  10  11
ENDBRANCH   4   5
ENDBRANCH   1   4
BRANCH   1  14
ATOM     14  N   UNL     1      45.904 131.156  20.781  1.00  0.00    -0.231 N 
BRANCH  14  15
ATOM     15  C   UNL     1      44.568 131.659  20.602  1.00  0.00     0.078 A 
ATOM     16  C   UNL     1      43.827 132.023  21.738  1.00  0.00     0.029 A 
ATOM     17  C   UNL     1      43.974 131.777  19.317  1.00  0.00     0.089 A 
ATOM     18  C   UNL     1      42.507 132.460  21.615  1.00  0.00     0.002 A 
ATOM     19  C   UNL     1      42.638 132.202  19.215  1.00  0.00     0.019 A 
ATOM     20  C   UNL     1      41.912 132.542  20.357  1.00  0.00     0.001 A 
BRANCH  17  21
ATOM     21  C   UNL     1      44.722 131.478  18.076  1.00  0.00     0.287 A 
ATOM     22  N   UNL     1      44.902 132.366  17.063  1.00  0.00    -0.236 N 
ATOM     23  N   UNL     1      45.332 130.287  17.842  1.00  0.00    -0.236 N 
ATOM     24  C   UNL     1      45.667 131.705  16.181  1.00  0.00     0.172 A 
ATOM     25  C   UNL     1      45.928 130.451  16.652  1.00  0.00     0.172 A 
ATOM     26  C   UNL     1      46.177 132.160  14.967  1.00  0.00     0.056 A 
ATOM     27  C   UNL     1      46.725 129.550  15.950  1.00  0.00     0.056 A 
ATOM     28  C   UNL     1      46.983 131.273  14.227  1.00  0.00     0.005 A 
ATOM     29  C   UNL     1      47.256 129.974  14.717  1.00  0.00     0.005 A 
ATOM     30  H   UNL     1      44.531 133.339  16.980  1.00  0.00     0.312 HD
ATOM     31  H   UNL     1      45.368 129.447  18.463  1.00  0.00     0.312 HD
ENDBRANCH  17  21
ENDBRANCH  14  15
BRANCH  14  32
ATOM     32  N   UNL     1      46.110 129.767  20.690  1.00  0.00    -0.239 NA
ATOM     33  H   UNL     1      45.199 129.293  20.884  1.00  0.00     0.144 HD
ATOM     34  H   UNL     1      46.782 129.494  21.444  1.00  0.00     0.144 HD
ENDBRANCH  14  32
ENDBRANCH   1  14
TORSDOF 8
ENDMDL
MODEL 3
REMARK VINA RESULT:      -6.5      2.060      7.915
REMARK SMILES CC(C)c1ccc(/N=C(\O)N(N)c2ccccc2-c2[nH]c3ccccc3[nH+]2)cc1
REMARK SMILES IDX 9 1 10 2 8 4 7 5 6 6 28 7 5 8 29 9 4 10 2 11 1 12 3 13 11 14
REMARK SMILES IDX 13 15 14 16 18 17 15 18 17 19 16 20 19 21 20 22 27 23 21 24
REMARK SMILES IDX 26 25 22 26 25 27 23 28 24 29 12 32
REMARK H PARENT 10 3 20 30 27 31 12 33 12 34
ROOT
ATOM      1  C   UNL     1      45.693 130.564  20.700  1.00  0.00     0.309 C 
ENDROOT
BRANCH   1   2
ATOM      2  O   UNL     1      46.490 129.655  19.997  1.00  0.00    -0.479 OA
ATOM      3  H   UNL     1      46.110 128.917  19.421  1.00  0.00     0.297 HD
ENDBRANCH   1   2
BRANCH   1   4
ATOM      4  N   UNL     1      45.280 130.317  21.912  1.00  0.00    -0.196 NA
BRANCH   4   5
ATOM      5  C   UNL     1      44.597 129.139  22.359  1.00  0.00     0.069 A 
ATOM      6  C   UNL     1      45.194 127.872  22.272  1.00  0.00     0.029 A 
ATOM      7  C   UNL     1      43.353 129.270  22.986  1.00  0.00     0.029 A 
ATOM      8  C   UNL     1      44.527 126.743  22.756  1.00  0.00     0.006 A 
ATOM      9  C   UNL     1      42.682 128.144  23.469  1.00  0.00     0.006 A 
ATOM     10  C   UNL     1      43.259 126.865  23.353  1.00  0.00    -0.045 A 
BRANCH  10  11
ATOM     11  C   UNL     1      42.542 125.633  23.872  1.00  0.00     0.013 C 
ATOM     12  C   UNL     1      42.401 124.573  22.773  1.00  0.00     0.012 C 
ATOM     13  C   UNL     1      41.177 125.998  24.466  1.00  0.00     0.012 C 
ENDBRANCH  10  11
ENDBRANCH   4   5
ENDBRANCH   1   4
BRANCH   1  14
ATOM     14  N   UNL     1      45.295 131.786  20.044  1.00  0.00    -0.231 N 
BRANCH  14  15
ATOM     15  C   UNL     1      43.935 132.016  19.630  1.00  0.00     0.078 A 
ATOM     16  C   UNL     1      43.002 132.442  20.588  1.00  0.00     0.029 A 
ATOM     17  C   UNL     1      43.511 131.803  18.292  1.00  0.00     0.089 A 
ATOM     18  C   UNL     1      41.661 132.621  20.244  1.00  0.00     0.002 A 
ATOM     19  C   UNL     1      42.153 131.970  17.968  1.00  0.00     0.019 A 
ATOM     20  C   UNL     1      41.236 132.378  18.939  1.00  0.00     0.001 A 
BRANCH  17  21
ATOM     21  C   UNL     1      44.456 131.422  17.219  1.00  0.00     0.287 A 
ATOM     22  N   UNL     1      44.727 132.194  16.134  1.00  0.00    -0.236 N 
ATOM     23  N   UNL     1      45.171 130.268  17.232  1.00  0.00    -0.236 N 
ATOM     24  C   UNL     1      45.659 131.500  15.464  1.00  0.00     0.172 A 
ATOM     25  C   UNL     1      45.928 130.338  16.126  1.00  0.00     0.172 A 
ATOM     26  C   UNL     1      46.315 131.847  14.284  1.00  0.00     0.056 A 
ATOM     27  C   UNL     1      46.880 129.430  15.669  1.00  0.00     0.056 A 
ATOM     28  C   UNL     1      47.280 130.950  13.788  1.00  0.00     0.005 A 
ATOM     29  C   UNL     1      47.562 129.747  14.478  1.00  0.00     0.005 A 
ATOM     30  H   UNL     1      44.310 133.115  15.873  1.00  0.00     0.312 HD
ATOM     31  H   UNL     1      45.169 129.514  17.956  1.00  0.00     0.312 HD
ENDBRANCH  17  21
ENDBRANCH  14  15
BRANCH  14  32
ATOM     32  N   UNL     1      46.221 132.834  19.899  1.00  0.00    -0.239 NA
ATOM     33  H   UNL     1      47.165 132.467  20.155  1.00  0.00     0.144 HD
ATOM     34  H   UNL     1      45.968 133.581  20.586  1.00  0.00     0.144 HD
ENDBRANCH  14  32
ENDBRANCH   1  14
TORSDOF 8
ENDMDL
MODEL 4
REMARK VINA RESULT:      -4.9      1.140      1.456
REMARK SMILES CC(C)c1ccc(/N=C(\O)N(N)c2ccccc2-c2[nH]c3ccccc3[nH+]2)cc1
REMARK SMILES IDX 9 1 10 2 8 4 7 5 6 6 28 7 5 8 29 9 4 10 2 11 1 12 3 13 11 14
REMARK SMILES IDX 13 15 14 16 18 17 15 18 17 19 16 20 19 21 20 22 27 23 21 24
REMARK SMILES IDX 26 25 22 26 25 27 23 28 24 29 12 32
REMARK H PARENT 10 3 20 30 27 31 12 33 12 34
ROOT
ATOM      1  C   UNL     1      44.733 131.286  19.759  1.00  0.00     0.309 C 
ENDROOT
BRANCH   1   2
ATOM      2  O   UNL     1      44.747 132.684  19.808  1.00  0.00    -0.479 OA
ATOM      3  H   UNL     1      44.328 133.216  20.559  1.00  0.00     0.297 HD
ENDBRANCH   1   2
BRANCH   1   4
ATOM      4  N   UNL     1      44.481 130.644  18.653  1.00  0.00    -0.196 NA
BRANCH   4   5
ATOM      5  C   UNL     1      45.236 130.708  17.436  1.00  0.00     0.069 A 
ATOM      6  C   UNL     1      45.463 131.929  16.782  1.00  0.00     0.029 A 
ATOM      7  C   UNL     1      45.840 129.545  16.948  1.00  0.00     0.029 A 
ATOM      8  C   UNL     1      46.240 131.972  15.620  1.00  0.00     0.006 A 
ATOM      9  C   UNL     1      46.615 129.584  15.786  1.00  0.00     0.006 A 
ATOM     10  C   UNL     1      46.818 130.799  15.105  1.00  0.00    -0.045 A 
BRANCH  10  11
ATOM     11  C   UNL     1      47.656 130.857  13.841  1.00  0.00     0.013 C 
ATOM     12  C   UNL     1      46.833 131.377  12.656  1.00  0.00     0.012 C 
ATOM     13  C   UNL     1      48.276 129.491  13.526  1.00  0.00     0.012 C 
ENDBRANCH  10  11
ENDBRANCH   4   5
ENDBRANCH   1   4
BRANCH   1  14
ATOM     14  N   UNL     1      44.969 130.549  20.977  1.00  0.00    -0.231 N 
BRANCH  14  15
ATOM     15  C   UNL     1      44.082 130.647  22.106  1.00  0.00     0.078 A 
ATOM     16  C   UNL     1      43.425 131.864  22.345  1.00  0.00     0.029 A 
ATOM     17  C   UNL     1      43.871 129.557  22.992  1.00  0.00     0.089 A 
ATOM     18  C   UNL     1      42.602 132.022  23.461  1.00  0.00     0.002 A 
ATOM     19  C   UNL     1      43.052 129.740  24.120  1.00  0.00     0.019 A 
ATOM     20  C   UNL     1      42.422 130.963  24.351  1.00  0.00     0.001 A 
BRANCH  17  21
ATOM     21  C   UNL     1      44.475 128.226  22.759  1.00  0.00     0.287 A 
ATOM     22  N   UNL     1      45.742 128.034  22.308  1.00  0.00    -0.236 N 
ATOM     23  N   UNL     1      43.824 127.060  23.006  1.00  0.00    -0.236 N 
ATOM     24  C   UNL     1      45.885 126.700  22.296  1.00  0.00     0.172 A 
ATOM     25  C   UNL     1      44.729 126.112  22.717  1.00  0.00     0.172 A 
ATOM     26  C   UNL     1      47.008 125.954  21.943  1.00  0.00     0.056 A 
ATOM     27  C   UNL     1      44.600 124.730  22.828  1.00  0.00     0.056 A 
ATOM     28  C   UNL     1      46.913 124.552  22.038  1.00  0.00     0.005 A 
ATOM     29  C   UNL     1      45.715 123.942  22.479  1.00  0.00     0.005 A 
ATOM     30  H   UNL     1      46.448 128.752  22.031  1.00  0.00     0.312 HD
ATOM     31  H   UNL     1      42.856 126.926  23.377  1.00  0.00     0.312 HD
ENDBRANCH  17  21
ENDBRANCH  14  15
BRANCH  14  32
ATOM     32  N   UNL     1      46.025 129.623  21.038  1.00  0.00    -0.239 NA
ATOM     33  H   UNL     1      45.949 128.992  20.208  1.00  0.00     0.144 HD
ATOM     34  H   UNL     1      45.891 129.042  21.897  1.00  0.00     0.144 HD
ENDBRANCH  14  32
ENDBRANCH   1  14
TORSDOF 8
ENDMDL
MODEL 5
REMARK VINA RESULT:      -4.9      1.839      7.672
REMARK SMILES CC(C)c1ccc(/N=C(\O)N(N)c2ccccc2-c2[nH]c3ccccc3[nH+]2)cc1
REMARK SMILES IDX 9 1 10 2 8 4 7 5 6 6 28 7 5 8 29 9 4 10 2 11 1 12 3 13 11 14
REMARK SMILES IDX 13 15 14 16 18 17 15 18 17 19 16 20 19 21 20 22 27 23 21 24
REMARK SMILES IDX 26 25 22 26 25 27 23 28 24 29 12 32
REMARK H PARENT 10 3 20 30 27 31 12 33 12 34
ROOT
ATOM      1  C   UNL     1      44.831 129.778  22.438  1.00  0.00     0.309 C 
ENDROOT
BRANCH   1   2
ATOM      2  O   UNL     1      44.178 130.102  23.632  1.00  0.00    -0.479 OA
ATOM      3  H   UNL     1      44.048 129.443  24.388  1.00  0.00     0.297 HD
ENDBRANCH   1   2
BRANCH   1   4
ATOM      4  N   UNL     1      45.494 128.664  22.302  1.00  0.00    -0.196 NA
BRANCH   4   5
ATOM      5  C   UNL     1      44.999 127.340  22.541  1.00  0.00     0.069 A 
ATOM      6  C   UNL     1      43.715 127.124  23.064  1.00  0.00     0.029 A 
ATOM      7  C   UNL     1      45.774 126.243  22.149  1.00  0.00     0.029 A 
ATOM      8  C   UNL     1      43.237 125.823  23.247  1.00  0.00     0.006 A 
ATOM      9  C   UNL     1      45.301 124.941  22.332  1.00  0.00     0.006 A 
ATOM     10  C   UNL     1      44.028 124.717  22.890  1.00  0.00    -0.045 A 
BRANCH  10  11
ATOM     11  C   UNL     1      43.501 123.309  23.096  1.00  0.00     0.013 C 
ATOM     12  C   UNL     1      43.799 122.425  21.879  1.00  0.00     0.012 C 
ATOM     13  C   UNL     1      42.002 123.322  23.416  1.00  0.00     0.012 C 
ENDBRANCH  10  11
ENDBRANCH   4   5
ENDBRANCH   1   4
BRANCH   1  14
ATOM     14  N   UNL     1      44.795 130.726  21.351  1.00  0.00    -0.231 N 
BRANCH  14  15
ATOM     15  C   UNL     1      43.631 131.531  21.085  1.00  0.00     0.078 A 
ATOM     16  C   UNL     1      42.861 131.981  22.169  1.00  0.00     0.029 A 
ATOM     17  C   UNL     1      43.233 131.863  19.764  1.00  0.00     0.089 A 
ATOM     18  C   UNL     1      41.692 132.714  21.956  1.00  0.00     0.002 A 
ATOM     19  C   UNL     1      42.044 132.587  19.567  1.00  0.00     0.019 A 
ATOM     20  C   UNL     1      41.281 133.010  20.657  1.00  0.00     0.001 A 
BRANCH  17  21
ATOM     21  C   UNL     1      44.037 131.482  18.581  1.00  0.00     0.287 A 
ATOM     22  N   UNL     1      43.782 131.911  17.317  1.00  0.00    -0.236 N 
ATOM     23  N   UNL     1      45.134 130.685  18.653  1.00  0.00    -0.236 N 
ATOM     24  C   UNL     1      44.770 131.375  16.585  1.00  0.00     0.172 A 
ATOM     25  C   UNL     1      45.587 130.636  17.390  1.00  0.00     0.172 A 
ATOM     26  C   UNL     1      45.010 131.517  15.220  1.00  0.00     0.056 A 
ATOM     27  C   UNL     1      46.715 129.984  16.900  1.00  0.00     0.056 A 
ATOM     28  C   UNL     1      46.140 130.867  14.687  1.00  0.00     0.005 A 
ATOM     29  C   UNL     1      46.990 130.104  15.523  1.00  0.00     0.005 A 
ATOM     30  H   UNL     1      42.999 132.515  16.983  1.00  0.00     0.312 HD
ATOM     31  H   UNL     1      45.559 130.244  19.500  1.00  0.00     0.312 HD
ENDBRANCH  17  21
ENDBRANCH  14  15
BRANCH  14  32
ATOM     32  N   UNL     1      45.955 130.962  20.592  1.00  0.00    -0.239 NA
ATOM     33  H   UNL     1      46.045 131.994  20.453  1.00  0.00     0.144 HD
ATOM     34  H   UNL     1      45.818 130.522  19.654  1.00  0.00     0.144 HD
ENDBRANCH  14  32
ENDBRANCH   1  14
TORSDOF 8
ENDMDL
MODEL 6
REMARK VINA RESULT:      -4.8      3.539      5.884
REMARK SMILES CC(C)c1ccc(/N=C(\O)N(N)c2ccccc2-c2[nH]c3ccccc3[nH+]2)cc1
REMARK SMILES IDX 9 1 10 2 8 4 7 5 6 6 28 7 5 8 29 9 4 10 2 11 1 12 3 13 11 14
REMARK SMILES IDX 13 15 14 16 18 17 15 18 17 19 16 20 19 21 20 22 27 23 21 24
REMARK SMILES IDX 26 25 22 26 25 27 23 28 24 29 12 32
REMARK H PARENT 10 3 20 30 27 31 12 33 12 34
ROOT
ATOM      1  C   UNL     1      44.755 132.118  19.599  1.00  0.00     0.309 C 
ENDROOT
BRANCH   1   2
ATOM      2  O   UNL     1      44.328 133.450  19.594  1.00  0.00    -0.479 OA
ATOM      3  H   UNL     1      43.402 133.734  19.303  1.00  0.00     0.297 HD
ENDBRANCH   1   2
BRANCH   1   4
ATOM      4  N   UNL     1      44.476 131.308  18.616  1.00  0.00    -0.196 NA
BRANCH   4   5
ATOM      5  C   UNL     1      45.244 131.116  17.421  1.00  0.00     0.069 A 
ATOM      6  C   UNL     1      45.289 132.096  16.417  1.00  0.00     0.029 A 
ATOM      7  C   UNL     1      46.044 129.975  17.303  1.00  0.00     0.029 A 
ATOM      8  C   UNL     1      46.081 131.906  15.281  1.00  0.00     0.006 A 
ATOM      9  C   UNL     1      46.836 129.780  16.168  1.00  0.00     0.006 A 
ATOM     10  C   UNL     1      46.857 130.742  15.140  1.00  0.00    -0.045 A 
BRANCH  10  11
ATOM     11  C   UNL     1      47.711 130.544  13.901  1.00  0.00     0.013 C 
ATOM     12  C   UNL     1      47.050 131.174  12.669  1.00  0.00     0.012 C 
ATOM     13  C   UNL     1      48.011 129.059  13.669  1.00  0.00     0.012 C 
ENDBRANCH  10  11
ENDBRANCH   4   5
ENDBRANCH   1   4
BRANCH   1  14
ATOM     14  N   UNL     1      45.489 131.631  20.741  1.00  0.00    -0.231 N 
BRANCH  14  15
ATOM     15  C   UNL     1      44.961 131.722  22.077  1.00  0.00     0.078 A 
ATOM     16  C   UNL     1      43.868 130.914  22.427  1.00  0.00     0.029 A 
ATOM     17  C   UNL     1      45.500 132.618  23.038  1.00  0.00     0.089 A 
ATOM     18  C   UNL     1      43.287 131.012  23.692  1.00  0.00     0.002 A 
ATOM     19  C   UNL     1      44.890 132.717  24.301  1.00  0.00     0.019 A 
ATOM     20  C   UNL     1      43.792 131.917  24.625  1.00  0.00     0.001 A 
BRANCH  17  21
ATOM     21  C   UNL     1      46.694 133.446  22.758  1.00  0.00     0.287 A 
ATOM     22  N   UNL     1      46.832 134.237  21.662  1.00  0.00    -0.236 N 
ATOM     23  N   UNL     1      47.761 133.519  23.595  1.00  0.00    -0.236 N 
ATOM     24  C   UNL     1      48.021 134.834  21.838  1.00  0.00     0.172 A 
ATOM     25  C   UNL     1      48.581 134.402  23.004  1.00  0.00     0.172 A 
ATOM     26  C   UNL     1      48.646 135.774  21.021  1.00  0.00     0.056 A 
ATOM     27  C   UNL     1      49.810 134.878  23.455  1.00  0.00     0.056 A 
ATOM     28  C   UNL     1      49.894 136.274  21.442  1.00  0.00     0.005 A 
ATOM     29  C   UNL     1      50.473 135.829  22.654  1.00  0.00     0.005 A 
ATOM     30  H   UNL     1      46.173 134.356  20.861  1.00  0.00     0.312 HD
ATOM     31  H   UNL     1      47.900 133.034  24.510  1.00  0.00     0.312 HD
ENDBRANCH  17  21
ENDBRANCH  14  15
BRANCH  14  32
ATOM     32  N   UNL     1      46.702 130.945  20.550  1.00  0.00    -0.239 NA
ATOM     33  H   UNL     1      47.397 131.622  20.164  1.00  0.00     0.144 HD
ATOM     34  H   UNL     1      46.540 130.204  19.830  1.00  0.00     0.144 HD
ENDBRANCH  14  32
ENDBRANCH   1  14
TORSDOF 8
ENDMDL
MODEL 7
REMARK VINA RESULT:      -4.5      3.562      5.449
REMARK SMILES CC(C)c1ccc(/N=C(\O)N(N)c2ccccc2-c2[nH]c3ccccc3[nH+]2)cc1
REMARK SMILES IDX 9 1 10 2 8 4 7 5 6 6 28 7 5 8 29 9 4 10 2 11 1 12 3 13 11 14
REMARK SMILES IDX 13 15 14 16 18 17 15 18 17 19 16 20 19 21 20 22 27 23 21 24
REMARK SMILES IDX 26 25 22 26 25 27 23 28 24 29 12 32
REMARK H PARENT 10 3 20 30 27 31 12 33 12 34
ROOT
ATOM      1  C   UNL     1      44.237 132.005  19.650  1.00  0.00     0.309 C 
ENDROOT
BRANCH   1   2
ATOM      2  O   UNL     1      43.634 133.266  19.612  1.00  0.00    -0.479 OA
ATOM      3  H   UNL     1      42.634 133.400  19.555  1.00  0.00     0.297 HD
ENDBRANCH   1   2
BRANCH   1   4
ATOM      4  N   UNL     1      44.079 131.143  18.685  1.00  0.00    -0.196 NA
BRANCH   4   5
ATOM      5  C   UNL     1      44.900 131.004  17.519  1.00  0.00     0.069 A 
ATOM      6  C   UNL     1      44.777 131.882  16.431  1.00  0.00     0.029 A 
ATOM      7  C   UNL     1      45.911 130.037  17.510  1.00  0.00     0.029 A 
ATOM      8  C   UNL     1      45.620 131.754  15.322  1.00  0.00     0.006 A 
ATOM      9  C   UNL     1      46.754 129.905  16.404  1.00  0.00     0.006 A 
ATOM     10  C   UNL     1      46.613 130.759  15.293  1.00  0.00    -0.045 A 
BRANCH  10  11
ATOM     11  C   UNL     1      47.520 130.627  14.084  1.00  0.00     0.013 C 
ATOM     12  C   UNL     1      46.809 131.092  12.807  1.00  0.00     0.012 C 
ATOM     13  C   UNL     1      48.038 129.192  13.936  1.00  0.00     0.012 C 
ENDBRANCH  10  11
ENDBRANCH   4   5
ENDBRANCH   1   4
BRANCH   1  14
ATOM     14  N   UNL     1      45.022 131.648  20.807  1.00  0.00    -0.231 N 
BRANCH  14  15
ATOM     15  C   UNL     1      44.439 131.559  22.120  1.00  0.00     0.078 A 
ATOM     16  C   UNL     1      43.312 130.743  22.304  1.00  0.00     0.029 A 
ATOM     17  C   UNL     1      44.958 132.287  23.223  1.00  0.00     0.089 A 
ATOM     18  C   UNL     1      42.679 130.673  23.546  1.00  0.00     0.002 A 
ATOM     19  C   UNL     1      44.297 132.218  24.462  1.00  0.00     0.019 A 
ATOM     20  C   UNL     1      43.167 131.415  24.621  1.00  0.00     0.001 A 
BRANCH  17  21
ATOM     21  C   UNL     1      46.183 133.109  23.116  1.00  0.00     0.287 A 
ATOM     22  N   UNL     1      47.110 133.228  24.103  1.00  0.00    -0.236 N 
ATOM     23  N   UNL     1      46.517 133.806  21.999  1.00  0.00    -0.236 N 
ATOM     24  C   UNL     1      48.060 134.010  23.568  1.00  0.00     0.172 A 
ATOM     25  C   UNL     1      47.703 134.358  22.298  1.00  0.00     0.172 A 
ATOM     26  C   UNL     1      49.258 134.429  24.141  1.00  0.00     0.056 A 
ATOM     27  C   UNL     1      48.519 135.148  21.493  1.00  0.00     0.056 A 
ATOM     28  C   UNL     1      50.107 135.235  23.357  1.00  0.00     0.005 A 
ATOM     29  C   UNL     1      49.739 135.592  22.038  1.00  0.00     0.005 A 
ATOM     30  H   UNL     1      47.093 132.812  25.061  1.00  0.00     0.312 HD
ATOM     31  H   UNL     1      45.996 133.867  21.095  1.00  0.00     0.312 HD
ENDBRANCH  17  21
ENDBRANCH  14  15
BRANCH  14  32
ATOM     32  N   UNL     1      46.365 131.264  20.647  1.00  0.00    -0.239 NA
ATOM     33  H   UNL     1      46.379 130.297  20.252  1.00  0.00     0.144 HD
ATOM     34  H   UNL     1      46.803 131.231  21.597  1.00  0.00     0.144 HD
ENDBRANCH  14  32
ENDBRANCH   1  14
TORSDOF 8
ENDMDL
MODEL 8
REMARK VINA RESULT:      -4.5      2.195      3.411
REMARK SMILES CC(C)c1ccc(/N=C(\O)N(N)c2ccccc2-c2[nH]c3ccccc3[nH+]2)cc1
REMARK SMILES IDX 9 1 10 2 8 4 7 5 6 6 28 7 5 8 29 9 4 10 2 11 1 12 3 13 11 14
REMARK SMILES IDX 13 15 14 16 18 17 15 18 17 19 16 20 19 21 20 22 27 23 21 24
REMARK SMILES IDX 26 25 22 26 25 27 23 28 24 29 12 32
REMARK H PARENT 10 3 20 30 27 31 12 33 12 34
ROOT
ATOM      1  C   UNL     1      45.078 130.861  19.391  1.00  0.00     0.309 C 
ENDROOT
BRANCH   1   2
ATOM      2  O   UNL     1      46.379 130.384  19.580  1.00  0.00    -0.479 OA
ATOM      3  H   UNL     1      46.666 129.446  19.334  1.00  0.00     0.297 HD
ENDBRANCH   1   2
BRANCH   1   4
ATOM      4  N   UNL     1      44.594 131.071  18.199  1.00  0.00    -0.196 NA
BRANCH   4   5
ATOM      5  C   UNL     1      45.264 130.844  16.952  1.00  0.00     0.069 A 
ATOM      6  C   UNL     1      45.746 131.912  16.178  1.00  0.00     0.029 A 
ATOM      7  C   UNL     1      45.530 129.531  16.551  1.00  0.00     0.029 A 
ATOM      8  C   UNL     1      46.435 131.664  14.987  1.00  0.00     0.006 A 
ATOM      9  C   UNL     1      46.217 129.280  15.361  1.00  0.00     0.006 A 
ATOM     10  C   UNL     1      46.672 130.346  14.561  1.00  0.00    -0.045 A 
BRANCH  10  11
ATOM     11  C   UNL     1      47.418 130.089  13.265  1.00  0.00     0.013 C 
ATOM     12  C   UNL     1      48.661 129.225  13.506  1.00  0.00     0.012 C 
ATOM     13  C   UNL     1      47.785 131.404  12.569  1.00  0.00     0.012 C 
ENDBRANCH  10  11
ENDBRANCH   4   5
ENDBRANCH   1   4
BRANCH   1  14
ATOM     14  N   UNL     1      44.275 131.159  20.552  1.00  0.00    -0.231 N 
BRANCH  14  15
ATOM     15  C   UNL     1      44.820 131.842  21.696  1.00  0.00     0.078 A 
ATOM     16  C   UNL     1      45.636 132.965  21.485  1.00  0.00     0.029 A 
ATOM     17  C   UNL     1      44.573 131.401  23.023  1.00  0.00     0.089 A 
ATOM     18  C   UNL     1      46.233 133.623  22.562  1.00  0.00     0.002 A 
ATOM     19  C   UNL     1      45.197 132.065  24.093  1.00  0.00     0.019 A 
ATOM     20  C   UNL     1      46.020 133.169  23.863  1.00  0.00     0.001 A 
BRANCH  17  21
ATOM     21  C   UNL     1      43.666 130.270  23.319  1.00  0.00     0.287 A 
ATOM     22  N   UNL     1      44.037 128.964  23.267  1.00  0.00    -0.236 N 
ATOM     23  N   UNL     1      42.374 130.433  23.704  1.00  0.00    -0.236 N 
ATOM     24  C   UNL     1      42.939 128.297  23.654  1.00  0.00     0.172 A 
ATOM     25  C   UNL     1      41.936 129.183  23.919  1.00  0.00     0.172 A 
ATOM     26  C   UNL     1      42.771 126.922  23.809  1.00  0.00     0.056 A 
ATOM     27  C   UNL     1      40.684 128.769  24.367  1.00  0.00     0.056 A 
ATOM     28  C   UNL     1      41.516 126.466  24.255  1.00  0.00     0.005 A 
ATOM     29  C   UNL     1      40.477 127.386  24.534  1.00  0.00     0.005 A 
ATOM     30  H   UNL     1      44.960 128.562  22.989  1.00  0.00     0.312 HD
ATOM     31  H   UNL     1      41.849 131.325  23.845  1.00  0.00     0.312 HD
ENDBRANCH  17  21
ENDBRANCH  14  15
BRANCH  14  32
ATOM     32  N   UNL     1      42.896 130.883  20.536  1.00  0.00    -0.239 NA
ATOM     33  H   UNL     1      42.396 131.755  20.251  1.00  0.00     0.144 HD
ATOM     34  H   UNL     1      42.606 130.650  21.513  1.00  0.00     0.144 HD
ENDBRANCH  14  32
ENDBRANCH   1  14
TORSDOF 8
ENDMDL


