REMARK SMILES C[C@H](CO/C(O)=N/c1cc(F)c[nH]/c1=N\c1c[n-]c2nccc-2c1)c1ccccc1[N+](=O)[O-]
REMARK SMILES IDX 4 1 5 2 6 3 7 5 8 6 9 7 14 8 10 9 13 10 12 11 11 12 15 14
REMARK SMILES IDX 16 15 17 16 24 17 18 18 23 19 19 20 22 21 20 22 21 23 3 24
REMARK SMILES IDX 2 25 1 26 25 27 26 28 30 29 27 30 29 31 28 32 31 33 32 34
REMARK SMILES IDX 33 35
REMARK H PARENT 6 4 13 13
ROOT
ATOM      1  O   UNL     1      -2.385   0.975   0.833  1.00  0.00    -0.450 OA
ENDROOT
BRANCH   1   2
ATOM      2  C   UNL     1      -1.927  -0.319   1.112  1.00  0.00     0.386 C 
BRANCH   2   3
ATOM      3  O   UNL     1      -2.359  -0.930   2.291  1.00  0.00    -0.466 OA
ATOM      4  H   UNL     1      -2.158  -1.896   2.517  1.00  0.00     0.298 HD
ENDBRANCH   2   3
BRANCH   2   5
ATOM      5  N   UNL     1      -1.141  -0.930   0.269  1.00  0.00    -0.175 NA
BRANCH   5   6
ATOM      6  C   UNL     1      -0.554  -2.226   0.451  1.00  0.00     0.116 A 
ATOM      7  C   UNL     1      -0.782  -3.209  -0.515  1.00  0.00     0.073 A 
ATOM      8  C   UNL     1       0.307  -2.509   1.534  1.00  0.00     0.157 A 
ATOM      9  C   UNL     1      -0.202  -4.468  -0.381  1.00  0.00     0.141 A 
ATOM     10  N   UNL     1       0.878  -3.753   1.629  1.00  0.00    -0.342 N 
ATOM     11  C   UNL     1       0.630  -4.724   0.708  1.00  0.00     0.123 A 
ATOM     12  F   UNL     1      -0.432  -5.430  -1.308  1.00  0.00    -0.205 F 
ATOM     13  H   UNL     1       1.558  -3.982   2.385  1.00  0.00     0.168 HD
BRANCH   8  14
ATOM     14  N   UNL     1       0.584  -1.560   2.387  1.00  0.00    -0.229 NA
BRANCH  14  15
ATOM     15  C   UNL     1       1.348  -1.673   3.596  1.00  0.00     0.062 A 
ATOM     16  C   UNL     1       1.033  -2.665   4.570  1.00  0.00     0.006 A 
ATOM     17  C   UNL     1       2.342  -0.711   3.865  1.00  0.00     0.036 A 
ATOM     18  N   UNL     1       1.715  -2.742   5.754  1.00  0.00    -0.440 NA
ATOM     19  C   UNL     1       3.019  -0.816   5.069  1.00  0.00    -0.025 A 
ATOM     20  C   UNL     1       2.696  -1.844   5.999  1.00  0.00    -0.052 A 
ATOM     21  C   UNL     1       4.021  -0.085   5.651  1.00  0.00     0.003 A 
ATOM     22  N   UNL     1       3.449  -1.766   7.107  1.00  0.00    -0.442 NA
ATOM     23  C   UNL     1       4.256  -0.694   6.886  1.00  0.00    -0.022 A 
ENDBRANCH  14  15
ENDBRANCH   8  14
ENDBRANCH   5   6
ENDBRANCH   2   5
ENDBRANCH   1   2
BRANCH   1  24
ATOM     24  C   UNL     1      -2.087   1.679  -0.374  1.00  0.00     0.243 C 
BRANCH  24  25
ATOM     25  C   UNL     1      -2.919   1.134  -1.554  1.00  0.00     0.061 C 
ATOM     26  C   UNL     1      -4.407   1.466  -1.388  1.00  0.00     0.016 C 
BRANCH  25  27
ATOM     27  C   UNL     1      -2.398   1.653  -2.889  1.00  0.00     0.036 A 
ATOM     28  C   UNL     1      -2.274   3.045  -3.090  1.00  0.00     0.011 A 
ATOM     29  C   UNL     1      -1.997   0.776  -3.933  1.00  0.00     0.272 A 
ATOM     30  C   UNL     1      -1.728   3.552  -4.269  1.00  0.00     0.001 A 
ATOM     31  C   UNL     1      -1.431   1.307  -5.105  1.00  0.00     0.086 A 
ATOM     32  C   UNL     1      -1.298   2.685  -5.270  1.00  0.00     0.007 A 
BRANCH  29  33
ATOM     33  N   UNL     1      -2.178  -0.645  -3.836  1.00  0.00     0.063 N 
ATOM     34  O   UNL     1      -1.282  -1.416  -4.238  1.00  0.00    -0.258 OA
ATOM     35  O   UNL     1      -3.422  -1.160  -3.555  1.00  0.00    -0.258 OA
ENDBRANCH  29  33
ENDBRANCH  25  27
ENDBRANCH  24  25
ENDBRANCH   1  24
TORSDOF 10


