REMARK SMILES CO[C@@H]1CCC[C@@H](c2cc3cc(F)ccc3[nH]2)N1[C@H]1C(=O)c2ccccc21
REMARK SMILES IDX 3 1 4 2 5 3 6 4 7 5 18 6 2 7 1 8 19 9 20 10 27 11 22 12
REMARK SMILES IDX 26 13 23 14 25 15 24 16 21 17 8 18 9 19 17 20 10 21 16 22
REMARK SMILES IDX 11 23 15 24 12 25 14 26 13 28
REMARK H PARENT 17 27
ROOT
ATOM      1  C   UNL     1      -1.276  -0.740  -1.048  1.00  0.00     0.189 C 
ATOM      2  C   UNL     1      -2.694  -0.591  -1.612  1.00  0.00     0.049 C 
ATOM      3  C   UNL     1      -3.692  -0.493  -0.455  1.00  0.00     0.006 C 
ATOM      4  C   UNL     1      -3.304   0.621   0.526  1.00  0.00     0.026 C 
ATOM      5  C   UNL     1      -1.806   0.572   0.945  1.00  0.00     0.107 C 
ATOM      6  N   UNL     1      -0.898   0.451  -0.233  1.00  0.00    -0.255 NA
ENDROOT
BRANCH   1   7
ATOM      7  O   UNL     1      -0.359  -0.987  -2.095  1.00  0.00    -0.366 OA
ATOM      8  C   UNL     1       0.854  -1.493  -1.577  1.00  0.00     0.197 C 
ENDBRANCH   1   7
BRANCH   6   9
ATOM      9  C   UNL     1      -0.784   1.754  -0.955  1.00  0.00     0.163 C 
ATOM     10  C   UNL     1       0.142   2.634  -0.256  1.00  0.00     0.184 C 
ATOM     11  C   UNL     1       0.054   1.754  -2.160  1.00  0.00    -0.012 A 
ATOM     12  C   UNL     1       0.979   2.559  -1.488  1.00  0.00     0.025 A 
ATOM     13  C   UNL     1       0.202   1.389  -3.488  1.00  0.00     0.006 A 
ATOM     14  C   UNL     1       2.148   3.012  -2.068  1.00  0.00     0.012 A 
ATOM     15  C   UNL     1       1.394   1.828  -4.114  1.00  0.00     0.000 A 
ATOM     16  C   UNL     1       2.354   2.621  -3.414  1.00  0.00     0.001 A 
ATOM     17  O   UNL     1       0.212   3.211   0.861  1.00  0.00    -0.292 OA
ENDBRANCH   6   9
BRANCH   5  18
ATOM     18  C   UNL     1      -1.473  -0.501   1.963  1.00  0.00     0.033 A 
ATOM     19  C   UNL     1      -0.177  -0.766   2.406  1.00  0.00     0.033 A 
ATOM     20  N   UNL     1      -2.369  -1.307   2.590  1.00  0.00    -0.357 N 
ATOM     21  C   UNL     1      -0.311  -1.782   3.325  1.00  0.00     0.003 A 
ATOM     22  C   UNL     1      -1.644  -2.084   3.412  1.00  0.00     0.046 A 
ATOM     23  C   UNL     1       0.647  -2.451   4.082  1.00  0.00     0.049 A 
ATOM     24  C   UNL     1      -2.114  -3.080   4.267  1.00  0.00     0.029 A 
ATOM     25  C   UNL     1       0.204  -3.463   4.955  1.00  0.00     0.123 A 
ATOM     26  C   UNL     1      -1.171  -3.776   5.046  1.00  0.00     0.041 A 
ATOM     27  H   UNL     1      -3.405  -1.337   2.477  1.00  0.00     0.166 HD
ATOM     28  F   UNL     1       1.101  -4.141   5.711  1.00  0.00    -0.207 F 
ENDBRANCH   5  18
TORSDOF 3


