REMARK SMILES CCCCCCC(=O)N(N)c1ccc2cc3ccccc3cc2c1
REMARK SMILES IDX 5 1 4 2 3 3 2 4 1 5 6 6 7 7 8 8 9 9 10 10 11 13 12 14 24 15
REMARK SMILES IDX 13 16 23 17 14 18 22 19 15 20 21 21 16 22 20 23 17 24 19 25
REMARK SMILES IDX 18 26
REMARK H PARENT 10 11 10 12
ROOT
ATOM      1  C   UNL     1       1.029   2.794  -0.788  1.00  0.00     0.010 C 
ENDROOT
BRANCH   1   2
ATOM      2  C   UNL     1       1.006   1.820   0.399  1.00  0.00     0.001 C 
BRANCH   2   3
ATOM      3  C   UNL     1       2.171   2.087   1.359  1.00  0.00    -0.000 C 
BRANCH   3   4
ATOM      4  C   UNL     1       2.140   1.110   2.540  1.00  0.00    -0.003 C 
ATOM      5  C   UNL     1       3.294   1.372   3.503  1.00  0.00     0.004 C 
ENDBRANCH   3   4
ENDBRANCH   2   3
ENDBRANCH   1   2
BRANCH   1   6
ATOM      6  C   UNL     1      -0.061   2.477  -1.821  1.00  0.00     0.102 C 
BRANCH   6   7
ATOM      7  C   UNL     1      -1.439   2.787  -1.289  1.00  0.00     0.241 C 
ATOM      8  O   UNL     1      -1.875   3.964  -1.405  1.00  0.00    -0.273 OA
BRANCH   7   9
ATOM      9  N   UNL     1      -2.213   1.812  -0.558  1.00  0.00    -0.248 N 
BRANCH   9  10
ATOM     10  N   UNL     1      -3.163   2.241   0.385  1.00  0.00    -0.241 NA
ATOM     11  H   UNL     1      -2.683   2.884   1.056  1.00  0.00     0.144 HD
ATOM     12  H   UNL     1      -3.893   2.791  -0.123  1.00  0.00     0.144 HD
ENDBRANCH   9  10
BRANCH   9  13
ATOM     13  C   UNL     1      -2.042   0.400  -0.753  1.00  0.00     0.061 A 
ATOM     14  C   UNL     1      -1.860  -0.442   0.353  1.00  0.00     0.028 A 
ATOM     15  C   UNL     1      -2.098  -0.153  -2.042  1.00  0.00     0.036 A 
ATOM     16  C   UNL     1      -1.700  -1.818   0.177  1.00  0.00     0.011 A 
ATOM     17  C   UNL     1      -1.938  -1.535  -2.230  1.00  0.00    -0.016 A 
ATOM     18  C   UNL     1      -1.735  -2.375  -1.110  1.00  0.00    -0.018 A 
ATOM     19  C   UNL     1      -1.979  -2.087  -3.519  1.00  0.00     0.017 A 
ATOM     20  C   UNL     1      -1.573  -3.756  -1.293  1.00  0.00     0.017 A 
ATOM     21  C   UNL     1      -1.817  -3.468  -3.703  1.00  0.00    -0.018 A 
ATOM     22  C   UNL     1      -1.612  -4.309  -2.582  1.00  0.00    -0.018 A 
ATOM     23  C   UNL     1      -1.855  -4.025  -4.991  1.00  0.00     0.009 A 
ATOM     24  C   UNL     1      -1.450  -5.690  -2.771  1.00  0.00     0.009 A 
ATOM     25  C   UNL     1      -1.690  -5.402  -5.165  1.00  0.00     0.001 A 
ATOM     26  C   UNL     1      -1.489  -6.232  -4.059  1.00  0.00     0.001 A 
ENDBRANCH   9  13
ENDBRANCH   7   9
ENDBRANCH   6   7
ENDBRANCH   1   6
TORSDOF 8


