REMARK SMILES C=c1ccc(=C(O[C@@H](CO)c2ccc(OC(F)(F)F)cc2)C(=O)c2ccc(C)cc2)cc1
REMARK SMILES IDX 7 1 6 2 22 3 23 4 24 5 27 6 26 7 29 8 25 9 30 10 28 11 5 12
REMARK SMILES IDX 4 13 31 14 3 15 32 16 2 17 1 18 8 19 9 20 10 21 11 23 12 24
REMARK SMILES IDX 21 25 13 26 20 27 14 28 15 29 16 30 17 31 18 32 19 33
REMARK H PARENT 10 22
ROOT
ATOM      1  O   UNL     1       1.569  -0.791   0.691  1.00  0.00    -0.479 OA
ENDROOT
BRANCH   1   2
ATOM      2  C   UNL     1       1.195   0.076  -0.354  1.00  0.00     0.175 C 
BRANCH   2   3
ATOM      3  C   UNL     1      -0.203   0.060  -0.854  1.00  0.00     0.228 C 
ATOM      4  O   UNL     1      -0.941   1.056  -0.622  1.00  0.00    -0.285 OA
BRANCH   3   5
ATOM      5  C   UNL     1      -0.746  -1.107  -1.589  1.00  0.00     0.026 A 
ATOM      6  C   UNL     1      -1.788  -3.406  -2.849  1.00  0.00    -0.051 A 
ATOM      7  C   UNL     1      -0.403  -3.201  -2.786  1.00  0.00     0.004 A 
ATOM      8  C   UNL     1      -2.652  -2.435  -2.319  1.00  0.00     0.004 A 
ATOM      9  C   UNL     1       0.115  -2.059  -2.165  1.00  0.00     0.012 A 
ATOM     10  C   UNL     1      -2.135  -1.300  -1.688  1.00  0.00     0.012 A 
ATOM     11  C   UNL     1      -2.339  -4.627  -3.524  1.00  0.00     0.044 C 
ENDBRANCH   3   5
ENDBRANCH   2   3
BRANCH   2  12
ATOM     12  C   UNL     1       2.128   0.905  -0.888  1.00  0.00     0.021 A 
ATOM     13  C   UNL     1       3.440   0.932  -0.362  1.00  0.00     0.013 A 
ATOM     14  C   UNL     1       1.841   1.748  -1.989  1.00  0.00     0.013 A 
ATOM     15  C   UNL     1       4.419   1.765  -0.909  1.00  0.00     0.008 A 
ATOM     16  C   UNL     1       2.821   2.588  -2.528  1.00  0.00     0.008 A 
ATOM     17  C   UNL     1       4.118   2.604  -1.993  1.00  0.00    -0.033 A 
ATOM     18  C   UNL     1       5.055   3.407  -2.510  1.00  0.00     0.017 C 
ENDBRANCH   2  12
ENDBRANCH   1   2
BRANCH   1  19
ATOM     19  C   UNL     1       0.710  -1.737   1.334  1.00  0.00     0.229 C 
BRANCH  19  20
ATOM     20  C   UNL     1       1.542  -2.647   2.245  1.00  0.00     0.206 C 
BRANCH  20  21
ATOM     21  O   UNL     1       2.319  -1.889   3.130  1.00  0.00    -0.392 OA
ATOM     22  H   UNL     1       2.823  -2.542   3.684  1.00  0.00     0.210 HD
ENDBRANCH  20  21
ENDBRANCH  19  20
BRANCH  19  23
ATOM     23  C   UNL     1      -0.390  -1.042   2.111  1.00  0.00    -0.005 A 
ATOM     24  C   UNL     1      -1.726  -1.447   1.954  1.00  0.00     0.011 A 
ATOM     25  C   UNL     1      -0.092   0.001   3.005  1.00  0.00     0.011 A 
ATOM     26  C   UNL     1      -2.745  -0.816   2.671  1.00  0.00     0.047 A 
ATOM     27  C   UNL     1      -1.109   0.615   3.740  1.00  0.00     0.047 A 
ATOM     28  C   UNL     1      -2.449   0.211   3.575  1.00  0.00     0.129 A 
BRANCH  28  29
ATOM     29  O   UNL     1      -3.511   0.794   4.282  1.00  0.00    -0.406 OA
BRANCH  29  30
ATOM     30  C   UNL     1      -3.377   1.713   5.366  1.00  0.00     0.573 C 
ATOM     31  F   UNL     1      -4.634   2.012   5.855  1.00  0.00    -0.132 F 
ATOM     32  F   UNL     1      -2.625   1.143   6.380  1.00  0.00    -0.132 F 
ATOM     33  F   UNL     1      -2.778   2.883   4.933  1.00  0.00    -0.132 F 
ENDBRANCH  29  30
ENDBRANCH  28  29
ENDBRANCH  19  23
ENDBRANCH   1  19
TORSDOF 10


