REMARK SMILES C=Cc1cc(-c2ccc(C(C)=O)[nH+]c2)cc(Nc2ccc(C)c(F)c2)c1[O-]
REMARK SMILES IDX 3 1 4 2 5 3 15 4 16 5 26 6 27 7 2 8 1 9 6 10 7 11 14 12 8 13
REMARK SMILES IDX 13 14 9 15 10 17 11 18 12 19 17 20 18 22 19 23 25 24 20 25
REMARK SMILES IDX 23 26 21 27 24 28 22 29
REMARK H PARENT 13 16 17 21
ROOT
ATOM      1  C   UNL     1       0.465  -0.645  -2.356  1.00  0.00    -0.031 A 
ATOM      2  C   UNL     1      -0.863  -0.370  -1.977  1.00  0.00     0.016 A 
ATOM      3  C   UNL     1      -1.235  -0.329  -0.622  1.00  0.00    -0.010 A 
ATOM      4  C   UNL     1      -0.260  -0.563   0.360  1.00  0.00     0.034 A 
ATOM      5  C   UNL     1       1.067  -0.825   0.005  1.00  0.00     0.032 A 
ATOM      6  C   UNL     1       1.424  -0.897  -1.355  1.00  0.00    -0.077 A 
ATOM      7  O   UNL     1       2.728  -1.232  -1.709  1.00  0.00    -0.871 OA
ENDROOT
BRANCH   1   8
ATOM      8  C   UNL     1       0.864  -0.724  -3.785  1.00  0.00    -0.000 C 
ATOM      9  C   UNL     1       0.224  -0.087  -4.767  1.00  0.00     0.009 C 
ENDBRANCH   1   8
BRANCH   3  10
ATOM     10  C   UNL     1      -2.641  -0.047  -0.235  1.00  0.00     0.046 A 
ATOM     11  C   UNL     1      -3.387   0.933  -0.905  1.00  0.00     0.022 A 
ATOM     12  C   UNL     1      -3.256  -0.753   0.810  1.00  0.00     0.315 A 
ATOM     13  C   UNL     1      -4.705   1.190  -0.531  1.00  0.00     0.084 A 
ATOM     14  N   UNL     1      -4.545  -0.490   1.161  1.00  0.00    -0.208 N 
ATOM     15  C   UNL     1      -5.289   0.463   0.520  1.00  0.00     0.246 A 
ATOM     16  H   UNL     1      -4.953  -1.048   1.942  1.00  0.00     0.454 HD
BRANCH  15  17
ATOM     17  C   UNL     1      -6.696   0.736   0.920  1.00  0.00     0.223 C 
ATOM     18  C   UNL     1      -7.356  -0.012   2.038  1.00  0.00     0.100 C 
ATOM     19  O   UNL     1      -7.362   1.616   0.310  1.00  0.00    -0.288 OA
ENDBRANCH  15  17
ENDBRANCH   3  10
BRANCH   5  20
ATOM     20  N   UNL     1       2.032  -1.067   1.042  1.00  0.00    -0.356 N 
ATOM     21  H   UNL     1       1.739  -1.670   1.845  1.00  0.00     0.166 HD
BRANCH  20  22
ATOM     22  C   UNL     1       3.330  -0.450   1.097  1.00  0.00     0.041 A 
ATOM     23  C   UNL     1       4.340  -1.039   1.871  1.00  0.00     0.026 A 
ATOM     24  C   UNL     1       3.594   0.763   0.436  1.00  0.00     0.065 A 
ATOM     25  C   UNL     1       5.604  -0.448   1.957  1.00  0.00     0.008 A 
ATOM     26  C   UNL     1       4.858   1.356   0.521  1.00  0.00     0.128 A 
ATOM     27  C   UNL     1       5.877   0.745   1.270  1.00  0.00    -0.015 A 
ATOM     28  F   UNL     1       5.085   2.530  -0.121  1.00  0.00    -0.207 F 
ATOM     29  C   UNL     1       7.225   1.394   1.386  1.00  0.00     0.047 C 
ENDBRANCH  20  22
ENDBRANCH   5  20
TORSDOF 5


