MODEL 1
REMARK VINA RESULT:      -3.0      0.000      0.000
REMARK SMILES O=C([C@@H]1[C@@H]2CCCO[C@@H]21)N(c1ccc2cc[nH]c2c1)c1cccc2cnoc12
REMARK SMILES IDX 10 1 2 2 1 3 3 4 4 5 9 6 5 7 8 8 6 9 7 10 11 11 12 12 19 13
REMARK SMILES IDX 13 14 18 15 14 16 17 17 15 18 16 19 20 21 21 22 28 23 22 24
REMARK SMILES IDX 27 25 24 26 23 27 26 28 25 29
REMARK H PARENT 17 20
ROOT
ATOM      1  N   UNL     1      45.429 131.771  20.873  1.00  0.00    -0.277 N 
ENDROOT
BRANCH   1   2
ATOM      2  C   UNL     1      46.574 132.567  21.247  1.00  0.00     0.237 C 
ATOM      3  O   UNL     1      47.708 132.024  21.344  1.00  0.00    -0.274 OA
BRANCH   2   4
ATOM      4  C   UNL     1      46.461 134.059  21.441  1.00  0.00     0.114 C 
ATOM      5  C   UNL     1      47.717 134.840  21.865  1.00  0.00     0.034 C 
ATOM      6  C   UNL     1      46.592 134.576  22.870  1.00  0.00     0.135 C 
ATOM      7  C   UNL     1      49.015 134.126  22.290  1.00  0.00     0.009 C 
ATOM      8  O   UNL     1      46.906 133.589  23.831  1.00  0.00    -0.377 OA
ATOM      9  C   UNL     1      49.259 134.299  23.796  1.00  0.00     0.029 C 
ATOM     10  C   UNL     1      47.974 134.062  24.625  1.00  0.00     0.160 C 
ENDBRANCH   2   4
ENDBRANCH   1   2
BRANCH   1  11
ATOM     11  C   UNL     1      45.170 131.471  19.488  1.00  0.00     0.051 A 
ATOM     12  C   UNL     1      44.015 131.990  18.845  1.00  0.00     0.027 A 
ATOM     13  C   UNL     1      46.074 130.666  18.757  1.00  0.00     0.053 A 
ATOM     14  C   UNL     1      43.755 131.703  17.493  1.00  0.00     0.012 A 
ATOM     15  C   UNL     1      45.787 130.403  17.420  1.00  0.00     0.047 A 
ATOM     16  C   UNL     1      44.667 130.902  16.812  1.00  0.00    -0.000 A 
ATOM     17  N   UNL     1      46.507 129.664  16.560  1.00  0.00    -0.361 N 
ATOM     18  C   UNL     1      44.675 130.462  15.507  1.00  0.00     0.028 A 
ATOM     19  C   UNL     1      45.832 129.698  15.389  1.00  0.00     0.083 A 
ATOM     20  H   UNL     1      47.404 129.165  16.753  1.00  0.00     0.166 HD
ENDBRANCH   1  11
BRANCH   1  21
ATOM     21  C   UNL     1      44.532 131.282  21.891  1.00  0.00     0.095 A 
ATOM     22  C   UNL     1      43.578 132.128  22.506  1.00  0.00     0.031 A 
ATOM     23  C   UNL     1      44.546 129.943  22.297  1.00  0.00     0.190 A 
ATOM     24  C   UNL     1      42.694 131.625  23.488  1.00  0.00     0.003 A 
ATOM     25  O   UNL     1      45.321 128.965  21.893  1.00  0.00    -0.354 OA
ATOM     26  C   UNL     1      43.690 129.465  23.245  1.00  0.00     0.044 A 
ATOM     27  C   UNL     1      42.745 130.271  23.870  1.00  0.00     0.014 A 
ATOM     28  N   UNL     1      45.019 127.860  22.523  1.00  0.00    -0.087 NA
ATOM     29  C   UNL     1      44.003 128.133  23.376  1.00  0.00     0.166 A 
ENDBRANCH   1  21
TORSDOF 4
ENDMDL
MODEL 2
REMARK VINA RESULT:      -2.6      4.531      6.851
REMARK SMILES O=C([C@@H]1[C@@H]2CCCO[C@@H]21)N(c1ccc2cc[nH]c2c1)c1cccc2cnoc12
REMARK SMILES IDX 10 1 2 2 1 3 3 4 4 5 9 6 5 7 8 8 6 9 7 10 11 11 12 12 19 13
REMARK SMILES IDX 13 14 18 15 14 16 17 17 15 18 16 19 20 21 21 22 28 23 22 24
REMARK SMILES IDX 27 25 24 26 23 27 26 28 25 29
REMARK H PARENT 17 20
ROOT
ATOM      1  N   UNL     1      41.957 127.312  23.689  1.00  0.00    -0.277 N 
ENDROOT
BRANCH   1   2
ATOM      2  C   UNL     1      41.979 128.752  23.602  1.00  0.00     0.237 C 
ATOM      3  O   UNL     1      41.477 129.443  24.531  1.00  0.00    -0.274 OA
BRANCH   2   4
ATOM      4  C   UNL     1      42.670 129.458  22.462  1.00  0.00     0.114 C 
ATOM      5  C   UNL     1      44.023 130.139  22.732  1.00  0.00     0.034 C 
ATOM      6  C   UNL     1      42.755 130.978  22.547  1.00  0.00     0.135 C 
ATOM      7  C   UNL     1      44.584 130.295  24.158  1.00  0.00     0.009 C 
ATOM      8  O   UNL     1      42.259 131.534  23.748  1.00  0.00    -0.377 OA
ATOM      9  C   UNL     1      44.555 131.768  24.592  1.00  0.00     0.029 C 
ATOM     10  C   UNL     1      43.212 132.451  24.244  1.00  0.00     0.160 C 
ENDBRANCH   2   4
ENDBRANCH   1   2
BRANCH   1  11
ATOM     11  C   UNL     1      43.185 126.559  23.642  1.00  0.00     0.051 A 
ATOM     12  C   UNL     1      43.354 125.406  24.453  1.00  0.00     0.027 A 
ATOM     13  C   UNL     1      44.228 126.961  22.774  1.00  0.00     0.053 A 
ATOM     14  C   UNL     1      44.548 124.666  24.412  1.00  0.00     0.012 A 
ATOM     15  C   UNL     1      45.397 126.205  22.758  1.00  0.00     0.047 A 
ATOM     16  C   UNL     1      45.551 125.099  23.550  1.00  0.00    -0.000 A 
ATOM     17  N   UNL     1      46.497 126.417  22.017  1.00  0.00    -0.361 N 
ATOM     18  C   UNL     1      46.804 124.584  23.301  1.00  0.00     0.028 A 
ATOM     19  C   UNL     1      47.360 125.429  22.345  1.00  0.00     0.083 A 
ATOM     20  H   UNL     1      46.657 127.186  21.328  1.00  0.00     0.166 HD
ENDBRANCH   1  11
BRANCH   1  21
ATOM     21  C   UNL     1      40.698 126.619  23.814  1.00  0.00     0.095 A 
ATOM     22  C   UNL     1      39.578 127.224  24.432  1.00  0.00     0.031 A 
ATOM     23  C   UNL     1      40.521 125.327  23.306  1.00  0.00     0.190 A 
ATOM     24  C   UNL     1      38.347 126.535  24.526  1.00  0.00     0.003 A 
ATOM     25  O   UNL     1      41.387 124.552  22.698  1.00  0.00    -0.354 OA
ATOM     26  C   UNL     1      39.330 124.669  23.400  1.00  0.00     0.044 A 
ATOM     27  C   UNL     1      38.213 125.235  24.005  1.00  0.00     0.014 A 
ATOM     28  N   UNL     1      40.828 123.412  22.381  1.00  0.00    -0.087 NA
ATOM     29  C   UNL     1      39.542 123.449  22.804  1.00  0.00     0.166 A 
ENDBRANCH   1  21
TORSDOF 4
ENDMDL
MODEL 3
REMARK VINA RESULT:      -2.4      4.096      6.866
REMARK SMILES O=C([C@@H]1[C@@H]2CCCO[C@@H]21)N(c1ccc2cc[nH]c2c1)c1cccc2cnoc12
REMARK SMILES IDX 10 1 2 2 1 3 3 4 4 5 9 6 5 7 8 8 6 9 7 10 11 11 12 12 19 13
REMARK SMILES IDX 13 14 18 15 14 16 17 17 15 18 16 19 20 21 21 22 28 23 22 24
REMARK SMILES IDX 27 25 24 26 23 27 26 28 25 29
REMARK H PARENT 17 20
ROOT
ATOM      1  N   UNL     1      43.249 126.740  23.512  1.00  0.00    -0.277 N 
ENDROOT
BRANCH   1   2
ATOM      2  C   UNL     1      43.005 128.141  23.762  1.00  0.00     0.237 C 
ATOM      3  O   UNL     1      41.847 128.613  23.600  1.00  0.00    -0.274 OA
BRANCH   2   4
ATOM      4  C   UNL     1      44.090 129.041  24.298  1.00  0.00     0.114 C 
ATOM      5  C   UNL     1      43.862 130.563  24.269  1.00  0.00     0.034 C 
ATOM      6  C   UNL     1      44.831 129.904  23.281  1.00  0.00     0.135 C 
ATOM      7  C   UNL     1      42.665 131.192  23.531  1.00  0.00     0.009 C 
ATOM      8  O   UNL     1      44.331 129.825  21.961  1.00  0.00    -0.377 OA
ATOM      9  C   UNL     1      43.137 131.949  22.281  1.00  0.00     0.029 C 
ATOM     10  C   UNL     1      44.169 131.137  21.465  1.00  0.00     0.160 C 
ENDBRANCH   2   4
ENDBRANCH   1   2
BRANCH   1  11
ATOM     11  C   UNL     1      44.592 126.258  23.312  1.00  0.00     0.051 A 
ATOM     12  C   UNL     1      45.630 126.634  24.205  1.00  0.00     0.027 A 
ATOM     13  C   UNL     1      44.880 125.396  22.229  1.00  0.00     0.053 A 
ATOM     14  C   UNL     1      46.943 126.167  24.018  1.00  0.00     0.012 A 
ATOM     15  C   UNL     1      46.190 124.951  22.073  1.00  0.00     0.047 A 
ATOM     16  C   UNL     1      47.185 125.325  22.936  1.00  0.00    -0.000 A 
ATOM     17  N   UNL     1      46.669 124.139  21.117  1.00  0.00    -0.361 N 
ATOM     18  C   UNL     1      48.349 124.723  22.510  1.00  0.00     0.028 A 
ATOM     19  C   UNL     1      47.988 123.996  21.379  1.00  0.00     0.083 A 
ATOM     20  H   UNL     1      46.136 123.705  20.331  1.00  0.00     0.166 HD
ENDBRANCH   1  11
BRANCH   1  21
ATOM     21  C   UNL     1      42.141 125.819  23.450  1.00  0.00     0.095 A 
ATOM     22  C   UNL     1      40.858 126.232  23.017  1.00  0.00     0.031 A 
ATOM     23  C   UNL     1      42.291 124.470  23.790  1.00  0.00     0.190 A 
ATOM     24  C   UNL     1      39.790 125.308  22.945  1.00  0.00     0.003 A 
ATOM     25  O   UNL     1      43.358 123.840  24.218  1.00  0.00    -0.354 OA
ATOM     26  C   UNL     1      41.256 123.585  23.718  1.00  0.00     0.044 A 
ATOM     27  C   UNL     1      39.984 123.961  23.300  1.00  0.00     0.014 A 
ATOM     28  N   UNL     1      43.084 122.579  24.430  1.00  0.00    -0.087 NA
ATOM     29  C   UNL     1      41.779 122.382  24.127  1.00  0.00     0.166 A 
ENDBRANCH   1  21
TORSDOF 4
ENDMDL
MODEL 4
REMARK VINA RESULT:      -2.2      1.952      6.269
REMARK SMILES O=C([C@@H]1[C@@H]2CCCO[C@@H]21)N(c1ccc2cc[nH]c2c1)c1cccc2cnoc12
REMARK SMILES IDX 10 1 2 2 1 3 3 4 4 5 9 6 5 7 8 8 6 9 7 10 11 11 12 12 19 13
REMARK SMILES IDX 13 14 18 15 14 16 17 17 15 18 16 19 20 21 21 22 28 23 22 24
REMARK SMILES IDX 27 25 24 26 23 27 26 28 25 29
REMARK H PARENT 17 20
ROOT
ATOM      1  N   UNL     1      44.711 131.298  21.983  1.00  0.00    -0.277 N 
ENDROOT
BRANCH   1   2
ATOM      2  C   UNL     1      44.596 129.992  22.586  1.00  0.00     0.237 C 
ATOM      3  O   UNL     1      44.689 128.960  21.865  1.00  0.00    -0.274 OA
BRANCH   2   4
ATOM      4  C   UNL     1      44.453 129.827  24.078  1.00  0.00     0.114 C 
ATOM      5  C   UNL     1      43.976 128.471  24.624  1.00  0.00     0.034 C 
ATOM      6  C   UNL     1      43.035 129.679  24.619  1.00  0.00     0.135 C 
ATOM      7  C   UNL     1      43.451 127.359  23.696  1.00  0.00     0.009 C 
ATOM      8  O   UNL     1      42.027 129.612  23.630  1.00  0.00    -0.377 OA
ATOM      9  C   UNL     1      41.938 127.169  23.881  1.00  0.00     0.029 C 
ATOM     10  C   UNL     1      41.184 128.518  23.924  1.00  0.00     0.160 C 
ENDBRANCH   2   4
ENDBRANCH   1   2
BRANCH   1  11
ATOM     11  C   UNL     1      45.644 132.263  22.506  1.00  0.00     0.051 A 
ATOM     12  C   UNL     1      45.474 132.793  23.812  1.00  0.00     0.027 A 
ATOM     13  C   UNL     1      46.745 132.679  21.721  1.00  0.00     0.053 A 
ATOM     14  C   UNL     1      46.381 133.734  24.330  1.00  0.00     0.012 A 
ATOM     15  C   UNL     1      47.625 133.612  22.266  1.00  0.00     0.047 A 
ATOM     16  C   UNL     1      47.447 134.121  23.524  1.00  0.00    -0.000 A 
ATOM     17  N   UNL     1      48.719 134.136  21.690  1.00  0.00    -0.361 N 
ATOM     18  C   UNL     1      48.474 135.009  23.759  1.00  0.00     0.028 A 
ATOM     19  C   UNL     1      49.242 134.990  22.598  1.00  0.00     0.083 A 
ATOM     20  H   UNL     1      49.093 133.929  20.737  1.00  0.00     0.166 HD
ENDBRANCH   1  11
BRANCH   1  21
ATOM     21  C   UNL     1      43.878 131.646  20.857  1.00  0.00     0.095 A 
ATOM     22  C   UNL     1      42.589 132.201  21.035  1.00  0.00     0.031 A 
ATOM     23  C   UNL     1      44.318 131.473  19.540  1.00  0.00     0.190 A 
ATOM     24  C   UNL     1      41.795 132.553  19.918  1.00  0.00     0.003 A 
ATOM     25  O   UNL     1      45.454 130.983  19.107  1.00  0.00    -0.354 OA
ATOM     26  C   UNL     1      43.547 131.815  18.469  1.00  0.00     0.044 A 
ATOM     27  C   UNL     1      42.276 132.359  18.610  1.00  0.00     0.014 A 
ATOM     28  N   UNL     1      45.478 130.986  17.799  1.00  0.00    -0.087 NA
ATOM     29  C   UNL     1      44.303 131.500  17.365  1.00  0.00     0.166 A 
ENDBRANCH   1  21
TORSDOF 4
ENDMDL
MODEL 5
REMARK VINA RESULT:      -1.9      1.459      4.930
REMARK SMILES O=C([C@@H]1[C@@H]2CCCO[C@@H]21)N(c1ccc2cc[nH]c2c1)c1cccc2cnoc12
REMARK SMILES IDX 10 1 2 2 1 3 3 4 4 5 9 6 5 7 8 8 6 9 7 10 11 11 12 12 19 13
REMARK SMILES IDX 13 14 18 15 14 16 17 17 15 18 16 19 20 21 21 22 28 23 22 24
REMARK SMILES IDX 27 25 24 26 23 27 26 28 25 29
REMARK H PARENT 17 20
ROOT
ATOM      1  N   UNL     1      45.541 131.598  20.862  1.00  0.00    -0.277 N 
ENDROOT
BRANCH   1   2
ATOM      2  C   UNL     1      46.648 132.471  21.173  1.00  0.00     0.237 C 
ATOM      3  O   UNL     1      47.824 132.014  21.170  1.00  0.00    -0.274 OA
BRANCH   2   4
ATOM      4  C   UNL     1      46.440 133.944  21.417  1.00  0.00     0.114 C 
ATOM      5  C   UNL     1      47.645 134.792  21.859  1.00  0.00     0.034 C 
ATOM      6  C   UNL     1      46.548 134.422  22.861  1.00  0.00     0.135 C 
ATOM      7  C   UNL     1      48.990 134.151  22.253  1.00  0.00     0.009 C 
ATOM      8  O   UNL     1      46.933 133.427  23.788  1.00  0.00    -0.377 OA
ATOM      9  C   UNL     1      49.234 134.291  23.763  1.00  0.00     0.029 C 
ATOM     10  C   UNL     1      47.975 133.943  24.590  1.00  0.00     0.160 C 
ENDBRANCH   2   4
ENDBRANCH   1   2
BRANCH   1  11
ATOM     11  C   UNL     1      44.988 130.734  21.874  1.00  0.00     0.051 A 
ATOM     12  C   UNL     1      44.283 131.280  22.979  1.00  0.00     0.027 A 
ATOM     13  C   UNL     1      45.136 129.331  21.764  1.00  0.00     0.053 A 
ATOM     14  C   UNL     1      43.740 130.444  23.970  1.00  0.00     0.012 A 
ATOM     15  C   UNL     1      44.585 128.532  22.763  1.00  0.00     0.047 A 
ATOM     16  C   UNL     1      43.913 129.070  23.827  1.00  0.00    -0.000 A 
ATOM     17  N   UNL     1      44.617 127.192  22.848  1.00  0.00    -0.361 N 
ATOM     18  C   UNL     1      43.499 128.026  24.625  1.00  0.00     0.028 A 
ATOM     19  C   UNL     1      43.955 126.878  23.984  1.00  0.00     0.083 A 
ATOM     20  H   UNL     1      45.062 126.527  22.176  1.00  0.00     0.166 HD
ENDBRANCH   1  11
BRANCH   1  21
ATOM     21  C   UNL     1      44.990 131.582  19.529  1.00  0.00     0.095 A 
ATOM     22  C   UNL     1      45.752 131.143  18.420  1.00  0.00     0.031 A 
ATOM     23  C   UNL     1      43.672 131.975  19.277  1.00  0.00     0.190 A 
ATOM     24  C   UNL     1      45.188 131.116  17.123  1.00  0.00     0.003 A 
ATOM     25  O   UNL     1      42.767 132.420  20.116  1.00  0.00    -0.354 OA
ATOM     26  C   UNL     1      43.134 131.946  18.024  1.00  0.00     0.044 A 
ATOM     27  C   UNL     1      43.857 131.524  16.914  1.00  0.00     0.014 A 
ATOM     28  N   UNL     1      41.654 132.684  19.482  1.00  0.00    -0.087 NA
ATOM     29  C   UNL     1      41.846 132.400  18.172  1.00  0.00     0.166 A 
ENDBRANCH   1  21
TORSDOF 4
ENDMDL
MODEL 6
REMARK VINA RESULT:      -1.8      5.130      7.961
REMARK SMILES O=C([C@@H]1[C@@H]2CCCO[C@@H]21)N(c1ccc2cc[nH]c2c1)c1cccc2cnoc12
REMARK SMILES IDX 10 1 2 2 1 3 3 4 4 5 9 6 5 7 8 8 6 9 7 10 11 11 12 12 19 13
REMARK SMILES IDX 13 14 18 15 14 16 17 17 15 18 16 19 20 21 21 22 28 23 22 24
REMARK SMILES IDX 27 25 24 26 23 27 26 28 25 29
REMARK H PARENT 17 20
ROOT
ATOM      1  N   UNL     1      44.725 125.475  22.682  1.00  0.00    -0.277 N 
ENDROOT
BRANCH   1   2
ATOM      2  C   UNL     1      44.675 126.905  22.487  1.00  0.00     0.237 C 
ATOM      3  O   UNL     1      44.088 127.378  21.476  1.00  0.00    -0.274 OA
BRANCH   2   4
ATOM      4  C   UNL     1      45.236 127.855  23.514  1.00  0.00     0.114 C 
ATOM      5  C   UNL     1      44.301 128.379  24.619  1.00  0.00     0.034 C 
ATOM      6  C   UNL     1      44.730 129.293  23.467  1.00  0.00     0.135 C 
ATOM      7  C   UNL     1      42.782 128.125  24.585  1.00  0.00     0.009 C 
ATOM      8  O   UNL     1      43.710 129.532  22.519  1.00  0.00    -0.377 OA
ATOM      9  C   UNL     1      42.022 129.430  24.303  1.00  0.00     0.029 C 
ATOM     10  C   UNL     1      42.666 130.241  23.153  1.00  0.00     0.160 C 
ENDBRANCH   2   4
ENDBRANCH   1   2
BRANCH   1  11
ATOM     11  C   UNL     1      45.914 124.852  23.205  1.00  0.00     0.051 A 
ATOM     12  C   UNL     1      45.814 123.761  24.109  1.00  0.00     0.027 A 
ATOM     13  C   UNL     1      47.189 125.318  22.811  1.00  0.00     0.053 A 
ATOM     14  C   UNL     1      46.969 123.146  24.625  1.00  0.00     0.012 A 
ATOM     15  C   UNL     1      48.312 124.686  23.340  1.00  0.00     0.047 A 
ATOM     16  C   UNL     1      48.204 123.639  24.215  1.00  0.00    -0.000 A 
ATOM     17  N   UNL     1      49.601 124.975  23.100  1.00  0.00    -0.361 N 
ATOM     18  C   UNL     1      49.482 123.245  24.547  1.00  0.00     0.028 A 
ATOM     19  C   UNL     1      50.320 124.098  23.835  1.00  0.00     0.083 A 
ATOM     20  H   UNL     1      49.975 125.723  22.474  1.00  0.00     0.166 HD
ENDBRANCH   1  11
BRANCH   1  21
ATOM     21  C   UNL     1      43.583 124.663  22.339  1.00  0.00     0.095 A 
ATOM     22  C   UNL     1      43.664 123.650  21.354  1.00  0.00     0.031 A 
ATOM     23  C   UNL     1      42.351 124.823  22.983  1.00  0.00     0.190 A 
ATOM     24  C   UNL     1      42.538 122.852  21.046  1.00  0.00     0.003 A 
ATOM     25  O   UNL     1      42.013 125.679  23.918  1.00  0.00    -0.354 OA
ATOM     26  C   UNL     1      41.270 124.049  22.681  1.00  0.00     0.044 A 
ATOM     27  C   UNL     1      41.317 123.049  21.716  1.00  0.00     0.014 A 
ATOM     28  N   UNL     1      40.760 125.508  24.254  1.00  0.00    -0.087 NA
ATOM     29  C   UNL     1      40.263 124.497  23.502  1.00  0.00     0.166 A 
ENDBRANCH   1  21
TORSDOF 4
ENDMDL
MODEL 7
REMARK VINA RESULT:      -1.7      1.381      2.004
REMARK SMILES O=C([C@@H]1[C@@H]2CCCO[C@@H]21)N(c1ccc2cc[nH]c2c1)c1cccc2cnoc12
REMARK SMILES IDX 10 1 2 2 1 3 3 4 4 5 9 6 5 7 8 8 6 9 7 10 11 11 12 12 19 13
REMARK SMILES IDX 13 14 18 15 14 16 17 17 15 18 16 19 20 21 21 22 28 23 22 24
REMARK SMILES IDX 27 25 24 26 23 27 26 28 25 29
REMARK H PARENT 17 20
ROOT
ATOM      1  N   UNL     1      45.465 131.391  20.926  1.00  0.00    -0.277 N 
ENDROOT
BRANCH   1   2
ATOM      2  C   UNL     1      46.467 132.317  21.399  1.00  0.00     0.237 C 
ATOM      3  O   UNL     1      47.641 132.255  20.941  1.00  0.00    -0.274 OA
BRANCH   2   4
ATOM      4  C   UNL     1      46.120 133.419  22.368  1.00  0.00     0.114 C 
ATOM      5  C   UNL     1      46.759 134.804  22.164  1.00  0.00     0.034 C 
ATOM      6  C   UNL     1      47.234 133.890  23.298  1.00  0.00     0.135 C 
ATOM      7  C   UNL     1      47.884 135.037  21.137  1.00  0.00     0.009 C 
ATOM      8  O   UNL     1      48.495 133.296  23.062  1.00  0.00    -0.377 OA
ATOM      9  C   UNL     1      49.218 135.307  21.848  1.00  0.00     0.029 C 
ATOM     10  C   UNL     1      49.468 134.318  23.010  1.00  0.00     0.160 C 
ENDBRANCH   2   4
ENDBRANCH   1   2
BRANCH   1  11
ATOM     11  C   UNL     1      45.010 131.444  19.560  1.00  0.00     0.051 A 
ATOM     12  C   UNL     1      43.696 131.892  19.258  1.00  0.00     0.027 A 
ATOM     13  C   UNL     1      45.876 131.061  18.510  1.00  0.00     0.053 A 
ATOM     14  C   UNL     1      43.244 131.948  17.928  1.00  0.00     0.012 A 
ATOM     15  C   UNL     1      45.397 131.129  17.204  1.00  0.00     0.047 A 
ATOM     16  C   UNL     1      44.126 131.556  16.925  1.00  0.00    -0.000 A 
ATOM     17  N   UNL     1      46.051 130.810  16.076  1.00  0.00    -0.361 N 
ATOM     18  C   UNL     1      43.965 131.506  15.558  1.00  0.00     0.028 A 
ATOM     19  C   UNL     1      45.181 131.038  15.067  1.00  0.00     0.083 A 
ATOM     20  H   UNL     1      47.030 130.457  15.992  1.00  0.00     0.166 HD
ENDBRANCH   1  11
BRANCH   1  21
ATOM     21  C   UNL     1      44.907 130.414  21.829  1.00  0.00     0.095 A 
ATOM     22  C   UNL     1      45.385 129.082  21.864  1.00  0.00     0.031 A 
ATOM     23  C   UNL     1      43.887 130.745  22.727  1.00  0.00     0.190 A 
ATOM     24  C   UNL     1      44.838 128.144  22.770  1.00  0.00     0.003 A 
ATOM     25  O   UNL     1      43.274 131.893  22.894  1.00  0.00    -0.354 OA
ATOM     26  C   UNL     1      43.365 129.835  23.598  1.00  0.00     0.044 A 
ATOM     27  C   UNL     1      43.810 128.519  23.654  1.00  0.00     0.014 A 
ATOM     28  N   UNL     1      42.372 131.790  23.836  1.00  0.00    -0.087 NA
ATOM     29  C   UNL     1      42.401 130.518  24.300  1.00  0.00     0.166 A 
ENDBRANCH   1  21
TORSDOF 4
ENDMDL
MODEL 8
REMARK VINA RESULT:      -1.3      2.033      6.087
REMARK SMILES O=C([C@@H]1[C@@H]2CCCO[C@@H]21)N(c1ccc2cc[nH]c2c1)c1cccc2cnoc12
REMARK SMILES IDX 10 1 2 2 1 3 3 4 4 5 9 6 5 7 8 8 6 9 7 10 11 11 12 12 19 13
REMARK SMILES IDX 13 14 18 15 14 16 17 17 15 18 16 19 20 21 21 22 28 23 22 24
REMARK SMILES IDX 27 25 24 26 23 27 26 28 25 29
REMARK H PARENT 17 20
ROOT
ATOM      1  N   UNL     1      45.550 132.011  21.129  1.00  0.00    -0.277 N 
ENDROOT
BRANCH   1   2
ATOM      2  C   UNL     1      45.046 131.183  22.198  1.00  0.00     0.237 C 
ATOM      3  O   UNL     1      45.214 129.933  22.155  1.00  0.00    -0.274 OA
BRANCH   2   4
ATOM      4  C   UNL     1      44.394 131.788  23.416  1.00  0.00     0.114 C 
ATOM      5  C   UNL     1      44.098 130.876  24.619  1.00  0.00     0.034 C 
ATOM      6  C   UNL     1      42.961 131.357  23.713  1.00  0.00     0.135 C 
ATOM      7  C   UNL     1      44.258 129.345  24.539  1.00  0.00     0.009 C 
ATOM      8  O   UNL     1      42.454 130.354  22.855  1.00  0.00    -0.377 OA
ATOM      9  C   UNL     1      42.887 128.655  24.577  1.00  0.00     0.029 C 
ATOM     10  C   UNL     1      41.863 129.345  23.646  1.00  0.00     0.160 C 
ENDBRANCH   2   4
ENDBRANCH   1   2
BRANCH   1  11
ATOM     11  C   UNL     1      46.559 133.006  21.391  1.00  0.00     0.051 A 
ATOM     12  C   UNL     1      46.480 134.286  20.780  1.00  0.00     0.027 A 
ATOM     13  C   UNL     1      47.628 132.716  22.270  1.00  0.00     0.053 A 
ATOM     14  C   UNL     1      47.459 135.264  21.031  1.00  0.00     0.012 A 
ATOM     15  C   UNL     1      48.579 133.707  22.497  1.00  0.00     0.047 A 
ATOM     16  C   UNL     1      48.497 134.935  21.898  1.00  0.00    -0.000 A 
ATOM     17  N   UNL     1      49.664 133.633  23.285  1.00  0.00    -0.361 N 
ATOM     18  C   UNL     1      49.578 135.676  22.324  1.00  0.00     0.028 A 
ATOM     19  C   UNL     1      50.278 134.833  23.183  1.00  0.00     0.083 A 
ATOM     20  H   UNL     1      49.973 132.818  23.860  1.00  0.00     0.166 HD
ENDBRANCH   1  11
BRANCH   1  21
ATOM     21  C   UNL     1      45.035 131.849  19.791  1.00  0.00     0.095 A 
ATOM     22  C   UNL     1      45.858 131.398  18.731  1.00  0.00     0.031 A 
ATOM     23  C   UNL     1      43.694 132.107  19.487  1.00  0.00     0.190 A 
ATOM     24  C   UNL     1      45.329 131.228  17.430  1.00  0.00     0.003 A 
ATOM     25  O   UNL     1      42.736 132.531  20.275  1.00  0.00    -0.354 OA
ATOM     26  C   UNL     1      43.191 131.940  18.231  1.00  0.00     0.044 A 
ATOM     27  C   UNL     1      43.974 131.502  17.168  1.00  0.00     0.014 A 
ATOM     28  N   UNL     1      41.619 132.651  19.603  1.00  0.00    -0.087 NA
ATOM     29  C   UNL     1      41.866 132.289  18.322  1.00  0.00     0.166 A 
ENDBRANCH   1  21
TORSDOF 4
ENDMDL
MODEL 9
REMARK VINA RESULT:      -1.1      1.791      5.959
REMARK SMILES O=C([C@@H]1[C@@H]2CCCO[C@@H]21)N(c1ccc2cc[nH]c2c1)c1cccc2cnoc12
REMARK SMILES IDX 10 1 2 2 1 3 3 4 4 5 9 6 5 7 8 8 6 9 7 10 11 11 12 12 19 13
REMARK SMILES IDX 13 14 18 15 14 16 17 17 15 18 16 19 20 21 21 22 28 23 22 24
REMARK SMILES IDX 27 25 24 26 23 27 26 28 25 29
REMARK H PARENT 17 20
ROOT
ATOM      1  N   UNL     1      45.025 131.815  21.211  1.00  0.00    -0.277 N 
ENDROOT
BRANCH   1   2
ATOM      2  C   UNL     1      44.820 130.787  22.203  1.00  0.00     0.237 C 
ATOM      3  O   UNL     1      45.126 129.592  21.938  1.00  0.00    -0.274 OA
BRANCH   2   4
ATOM      4  C   UNL     1      44.326 131.122  23.588  1.00  0.00     0.114 C 
ATOM      5  C   UNL     1      44.225 129.990  24.625  1.00  0.00     0.034 C 
ATOM      6  C   UNL     1      42.961 130.568  23.982  1.00  0.00     0.135 C 
ATOM      7  C   UNL     1      44.415 128.511  24.236  1.00  0.00     0.009 C 
ATOM      8  O   UNL     1      42.368 129.715  23.023  1.00  0.00    -0.377 OA
ATOM      9  C   UNL     1      43.082 127.754  24.322  1.00  0.00     0.029 C 
ATOM     10  C   UNL     1      41.920 128.547  23.680  1.00  0.00     0.160 C 
ENDBRANCH   2   4
ENDBRANCH   1   2
BRANCH   1  11
ATOM     11  C   UNL     1      46.060 132.802  21.386  1.00  0.00     0.051 A 
ATOM     12  C   UNL     1      45.994 134.042  20.698  1.00  0.00     0.027 A 
ATOM     13  C   UNL     1      47.144 132.543  22.257  1.00  0.00     0.053 A 
ATOM     14  C   UNL     1      46.999 135.011  20.865  1.00  0.00     0.012 A 
ATOM     15  C   UNL     1      48.122 133.524  22.399  1.00  0.00     0.047 A 
ATOM     16  C   UNL     1      48.051 134.714  21.726  1.00  0.00    -0.000 A 
ATOM     17  N   UNL     1      49.224 133.475  23.165  1.00  0.00    -0.361 N 
ATOM     18  C   UNL     1      49.158 135.455  22.080  1.00  0.00     0.028 A 
ATOM     19  C   UNL     1      49.860 134.652  22.974  1.00  0.00     0.083 A 
ATOM     20  H   UNL     1      49.529 132.690  23.783  1.00  0.00     0.166 HD
ENDBRANCH   1  11
BRANCH   1  21
ATOM     21  C   UNL     1      44.182 131.863  20.041  1.00  0.00     0.095 A 
ATOM     22  C   UNL     1      42.853 132.346  20.106  1.00  0.00     0.031 A 
ATOM     23  C   UNL     1      44.648 131.458  18.786  1.00  0.00     0.190 A 
ATOM     24  C   UNL     1      42.049 132.403  18.944  1.00  0.00     0.003 A 
ATOM     25  O   UNL     1      45.822 130.975  18.457  1.00  0.00    -0.354 OA
ATOM     26  C   UNL     1      43.867 131.517  17.670  1.00  0.00     0.044 A 
ATOM     27  C   UNL     1      42.557 131.983  17.702  1.00  0.00     0.014 A 
ATOM     28  N   UNL     1      45.860 130.714  17.176  1.00  0.00    -0.087 NA
ATOM     29  C   UNL     1      44.656 131.040  16.650  1.00  0.00     0.166 A 
ENDBRANCH   1  21
TORSDOF 4
ENDMDL


