REMARK SMILES CC(=O)N1C[NH2+]C[C@H](F)[C@H]1c1cc2ccc(F)cc2[nH]1
REMARK SMILES IDX 4 1 5 2 6 3 7 4 8 5 9 6 10 7 2 10 1 11 3 12 11 13 12 14
REMARK SMILES IDX 20 15 13 16 19 17 14 18 18 19 15 20 16 21 17 23
REMARK H PARENT 6 8 6 9 20 22
ROOT
ATOM      1  N   UNL     1       1.944   0.361  -0.338  1.00  0.00    -0.284 N 
ATOM      2  C   UNL     1       2.029   1.682   0.318  1.00  0.00     0.391 C 
ATOM      3  N   UNL     1       2.398   1.546   1.732  1.00  0.00    -0.327 N 
ATOM      4  C   UNL     1       1.469   0.658   2.441  1.00  0.00     0.302 C 
ATOM      5  C   UNL     1       1.494  -0.746   1.832  1.00  0.00     0.250 C 
ATOM      6  F   UNL     1       2.753  -1.298   2.008  1.00  0.00    -0.238 F 
ATOM      7  C   UNL     1       1.163  -0.704   0.327  1.00  0.00     0.177 C 
ATOM      8  H   UNL     1       3.376   1.178   1.806  1.00  0.00     0.347 HD
ATOM      9  H   UNL     1       2.368   2.491   2.181  1.00  0.00     0.347 HD
ENDROOT
BRANCH   1  10
ATOM     10  C   UNL     1       2.381   0.218  -1.712  1.00  0.00     0.224 C 
ATOM     11  C   UNL     1       2.084  -1.013  -2.517  1.00  0.00     0.114 C 
ATOM     12  O   UNL     1       3.045   1.139  -2.263  1.00  0.00    -0.275 OA
ENDBRANCH   1  10
BRANCH   7  13
ATOM     13  C   UNL     1      -0.323  -0.538   0.076  1.00  0.00     0.042 A 
ATOM     14  C   UNL     1      -1.313  -1.378   0.591  1.00  0.00     0.034 A 
ATOM     15  N   UNL     1      -0.868   0.379  -0.765  1.00  0.00    -0.356 N 
ATOM     16  C   UNL     1      -2.492  -0.920   0.049  1.00  0.00    -0.000 A 
ATOM     17  C   UNL     1      -2.188   0.139  -0.764  1.00  0.00     0.049 A 
ATOM     18  C   UNL     1      -3.799  -1.379   0.203  1.00  0.00     0.013 A 
ATOM     19  C   UNL     1      -3.172   0.816  -1.483  1.00  0.00     0.065 A 
ATOM     20  C   UNL     1      -4.816  -0.712  -0.505  1.00  0.00     0.040 A 
ATOM     21  C   UNL     1      -4.504   0.381  -1.345  1.00  0.00     0.125 A 
ATOM     22  H   UNL     1      -0.375   1.105  -1.330  1.00  0.00     0.166 HD
ATOM     23  F   UNL     1      -5.493   1.012  -2.025  1.00  0.00    -0.207 F 
ENDBRANCH   7  13
TORSDOF 2


