MODEL 1
REMARK VINA RESULT:      -6.7      0.000      0.000
REMARK SMILES CS[C@@H](C)C(=O)Oc1cc(-c2cccc3ncoc23)cc(C)c1F
REMARK SMILES IDX 5 1 6 2 3 3 4 4 2 5 1 6 7 7 8 8 9 9 23 10 10 11 21 12 20 13
REMARK SMILES IDX 24 14 22 15 11 16 12 17 19 18 13 19 18 20 15 21 14 22 17 23
REMARK SMILES IDX 16 24
REMARK H PARENT
ROOT
ATOM      1  C   UNL     1      45.990 131.319  15.937  1.00  0.00     0.324 C 
ATOM      2  O   UNL     1      46.101 132.508  15.528  1.00  0.00    -0.250 OA
ENDROOT
BRANCH   1   3
ATOM      3  C   UNL     1      45.867 130.202  14.945  1.00  0.00     0.153 C 
ATOM      4  C   UNL     1      45.246 128.974  15.611  1.00  0.00     0.032 C 
BRANCH   3   5
ATOM      5  S   UNL     1      47.532 129.803  14.298  1.00  0.00    -0.150 SA
ATOM      6  C   UNL     1      47.634 131.200  13.132  1.00  0.00     0.086 C 
ENDBRANCH   3   5
ENDBRANCH   1   3
BRANCH   1   7
ATOM      7  O   UNL     1      46.044 131.025  17.306  1.00  0.00    -0.423 OA
BRANCH   7   8
ATOM      8  C   UNL     1      44.987 131.223  18.204  1.00  0.00     0.167 A 
ATOM      9  C   UNL     1      45.162 130.829  19.535  1.00  0.00     0.059 A 
ATOM     10  C   UNL     1      43.751 131.760  17.797  1.00  0.00     0.168 A 
ATOM     11  C   UNL     1      44.133 130.992  20.476  1.00  0.00    -0.010 A 
ATOM     12  C   UNL     1      42.721 131.947  18.731  1.00  0.00    -0.011 A 
ATOM     13  C   UNL     1      42.914 131.557  20.065  1.00  0.00     0.015 A 
ATOM     14  F   UNL     1      43.530 132.047  16.487  1.00  0.00    -0.203 F 
ATOM     15  C   UNL     1      41.395 132.500  18.293  1.00  0.00     0.048 C 
BRANCH  11  16
ATOM     16  C   UNL     1      44.335 130.576  21.886  1.00  0.00     0.027 A 
ATOM     17  C   UNL     1      44.172 131.489  22.956  1.00  0.00     0.013 A 
ATOM     18  C   UNL     1      44.702 129.267  22.227  1.00  0.00     0.162 A 
ATOM     19  C   UNL     1      44.367 131.077  24.294  1.00  0.00     0.003 A 
ATOM     20  O   UNL     1      44.938 128.245  21.448  1.00  0.00    -0.443 OA
ATOM     21  C   UNL     1      44.890 128.874  23.518  1.00  0.00     0.110 A 
ATOM     22  C   UNL     1      44.731 129.751  24.587  1.00  0.00     0.032 A 
ATOM     23  C   UNL     1      45.259 127.241  22.248  1.00  0.00     0.309 A 
ATOM     24  N   UNL     1      45.245 127.580  23.563  1.00  0.00    -0.217 NA
ENDBRANCH  11  16
ENDBRANCH   7   8
ENDBRANCH   1   7
TORSDOF 5
ENDMDL
MODEL 2
REMARK VINA RESULT:      -5.8      3.545      6.945
REMARK SMILES CS[C@@H](C)C(=O)Oc1cc(-c2cccc3ncoc23)cc(C)c1F
REMARK SMILES IDX 5 1 6 2 3 3 4 4 2 5 1 6 7 7 8 8 9 9 23 10 10 11 21 12 20 13
REMARK SMILES IDX 24 14 22 15 11 16 12 17 19 18 13 19 18 20 15 21 14 22 17 23
REMARK SMILES IDX 16 24
REMARK H PARENT
ROOT
ATOM      1  C   UNL     1      43.923 130.282  23.541  1.00  0.00     0.324 C 
ATOM      2  O   UNL     1      43.438 130.955  24.492  1.00  0.00    -0.250 OA
ENDROOT
BRANCH   1   3
ATOM      3  C   UNL     1      43.666 128.807  23.469  1.00  0.00     0.153 C 
ATOM      4  C   UNL     1      42.680 128.393  24.562  1.00  0.00     0.032 C 
BRANCH   3   5
ATOM      5  S   UNL     1      45.255 127.921  23.675  1.00  0.00    -0.150 SA
ATOM      6  C   UNL     1      45.320 127.236  21.987  1.00  0.00     0.086 C 
ENDBRANCH   3   5
ENDBRANCH   1   3
BRANCH   1   7
ATOM      7  O   UNL     1      44.646 130.908  22.516  1.00  0.00    -0.423 OA
BRANCH   7   8
ATOM      8  C   UNL     1      44.120 131.240  21.261  1.00  0.00     0.167 A 
ATOM      9  C   UNL     1      44.823 130.844  20.119  1.00  0.00     0.059 A 
ATOM     10  C   UNL     1      42.938 131.993  21.122  1.00  0.00     0.168 A 
ATOM     11  C   UNL     1      44.350 131.159  18.835  1.00  0.00    -0.010 A 
ATOM     12  C   UNL     1      42.443 132.299  19.844  1.00  0.00    -0.011 A 
ATOM     13  C   UNL     1      43.153 131.885  18.707  1.00  0.00     0.015 A 
ATOM     14  F   UNL     1      42.303 132.476  22.221  1.00  0.00    -0.203 F 
ATOM     15  C   UNL     1      41.194 133.120  19.695  1.00  0.00     0.048 C 
BRANCH  11  16
ATOM     16  C   UNL     1      45.103 130.727  17.632  1.00  0.00     0.027 A 
ATOM     17  C   UNL     1      46.301 129.981  17.740  1.00  0.00     0.013 A 
ATOM     18  C   UNL     1      44.671 131.038  16.336  1.00  0.00     0.162 A 
ATOM     19  C   UNL     1      47.006 129.574  16.585  1.00  0.00     0.003 A 
ATOM     20  O   UNL     1      43.627 131.725  15.954  1.00  0.00    -0.443 OA
ATOM     21  C   UNL     1      45.354 130.645  15.225  1.00  0.00     0.110 A 
ATOM     22  C   UNL     1      46.532 129.907  15.304  1.00  0.00     0.032 A 
ATOM     23  C   UNL     1      43.666 131.747  14.633  1.00  0.00     0.309 A 
ATOM     24  N   UNL     1      44.733 131.083  14.117  1.00  0.00    -0.217 NA
ENDBRANCH  11  16
ENDBRANCH   7   8
ENDBRANCH   1   7
TORSDOF 5
ENDMDL
MODEL 3
REMARK VINA RESULT:      -5.8      2.298      4.068
REMARK SMILES CS[C@@H](C)C(=O)Oc1cc(-c2cccc3ncoc23)cc(C)c1F
REMARK SMILES IDX 5 1 6 2 3 3 4 4 2 5 1 6 7 7 8 8 9 9 23 10 10 11 21 12 20 13
REMARK SMILES IDX 24 14 22 15 11 16 12 17 19 18 13 19 18 20 15 21 14 22 17 23
REMARK SMILES IDX 16 24
REMARK H PARENT
ROOT
ATOM      1  C   UNL     1      45.590 130.562  18.553  1.00  0.00     0.324 C 
ATOM      2  O   UNL     1      45.729 129.501  17.883  1.00  0.00    -0.250 OA
ENDROOT
BRANCH   1   3
ATOM      3  C   UNL     1      44.790 131.696  17.987  1.00  0.00     0.153 C 
ATOM      4  C   UNL     1      43.479 131.849  18.757  1.00  0.00     0.032 C 
BRANCH   3   5
ATOM      5  S   UNL     1      44.456 131.358  16.219  1.00  0.00    -0.150 SA
ATOM      6  C   UNL     1      45.998 132.091  15.581  1.00  0.00     0.086 C 
ENDBRANCH   3   5
ENDBRANCH   1   3
BRANCH   1   7
ATOM      7  O   UNL     1      46.120 130.667  19.846  1.00  0.00    -0.423 OA
BRANCH   7   8
ATOM      8  C   UNL     1      45.442 130.299  21.015  1.00  0.00     0.167 A 
ATOM      9  C   UNL     1      45.360 128.941  21.337  1.00  0.00     0.059 A 
ATOM     10  C   UNL     1      44.809 131.248  21.842  1.00  0.00     0.168 A 
ATOM     11  C   UNL     1      44.682 128.513  22.491  1.00  0.00    -0.010 A 
ATOM     12  C   UNL     1      44.145 130.836  23.008  1.00  0.00    -0.011 A 
ATOM     13  C   UNL     1      44.080 129.470  23.324  1.00  0.00     0.015 A 
ATOM     14  F   UNL     1      44.789 132.558  21.486  1.00  0.00    -0.203 F 
ATOM     15  C   UNL     1      43.452 131.845  23.878  1.00  0.00     0.048 C 
BRANCH  11  16
ATOM     16  C   UNL     1      44.609 127.069  22.823  1.00  0.00     0.027 A 
ATOM     17  C   UNL     1      43.452 126.505  23.411  1.00  0.00     0.013 A 
ATOM     18  C   UNL     1      45.679 126.197  22.578  1.00  0.00     0.162 A 
ATOM     19  C   UNL     1      43.396 125.127  23.721  1.00  0.00     0.003 A 
ATOM     20  O   UNL     1      46.856 126.454  22.073  1.00  0.00    -0.443 OA
ATOM     21  C   UNL     1      45.622 124.869  22.879  1.00  0.00     0.110 A 
ATOM     22  C   UNL     1      44.494 124.290  23.453  1.00  0.00     0.032 A 
ATOM     23  C   UNL     1      47.507 125.303  22.058  1.00  0.00     0.309 A 
ATOM     24  N   UNL     1      46.779 124.269  22.555  1.00  0.00    -0.217 NA
ENDBRANCH  11  16
ENDBRANCH   7   8
ENDBRANCH   1   7
TORSDOF 5
ENDMDL
MODEL 4
REMARK VINA RESULT:      -5.3      2.519      4.045
REMARK SMILES CS[C@@H](C)C(=O)Oc1cc(-c2cccc3ncoc23)cc(C)c1F
REMARK SMILES IDX 5 1 6 2 3 3 4 4 2 5 1 6 7 7 8 8 9 9 23 10 10 11 21 12 20 13
REMARK SMILES IDX 24 14 22 15 11 16 12 17 19 18 13 19 18 20 15 21 14 22 17 23
REMARK SMILES IDX 16 24
REMARK H PARENT
ROOT
ATOM      1  C   UNL     1      45.196 131.073  18.572  1.00  0.00     0.324 C 
ATOM      2  O   UNL     1      44.456 132.068  18.808  1.00  0.00    -0.250 OA
ENDROOT
BRANCH   1   3
ATOM      3  C   UNL     1      45.345 130.576  17.166  1.00  0.00     0.153 C 
ATOM      4  C   UNL     1      46.567 129.663  17.059  1.00  0.00     0.032 C 
BRANCH   3   5
ATOM      5  S   UNL     1      45.524 132.015  16.048  1.00  0.00    -0.150 SA
ATOM      6  C   UNL     1      44.169 131.559  14.918  1.00  0.00     0.086 C 
ENDBRANCH   3   5
ENDBRANCH   1   3
BRANCH   1   7
ATOM      7  O   UNL     1      45.930 130.468  19.602  1.00  0.00    -0.423 OA
BRANCH   7   8
ATOM      8  C   UNL     1      45.404 130.111  20.850  1.00  0.00     0.167 A 
ATOM      9  C   UNL     1      45.302 128.753  21.165  1.00  0.00     0.059 A 
ATOM     10  C   UNL     1      44.939 131.074  21.767  1.00  0.00     0.168 A 
ATOM     11  C   UNL     1      44.770 128.337  22.397  1.00  0.00    -0.010 A 
ATOM     12  C   UNL     1      44.424 130.673  23.009  1.00  0.00    -0.011 A 
ATOM     13  C   UNL     1      44.337 129.307  23.317  1.00  0.00     0.015 A 
ATOM     14  F   UNL     1      44.933 132.390  21.431  1.00  0.00    -0.203 F 
ATOM     15  C   UNL     1      43.908 131.698  23.979  1.00  0.00     0.048 C 
BRANCH  11  16
ATOM     16  C   UNL     1      44.674 126.893  22.721  1.00  0.00     0.027 A 
ATOM     17  C   UNL     1      43.495 126.337  23.275  1.00  0.00     0.013 A 
ATOM     18  C   UNL     1      45.742 126.011  22.502  1.00  0.00     0.162 A 
ATOM     19  C   UNL     1      43.418 124.958  23.577  1.00  0.00     0.003 A 
ATOM     20  O   UNL     1      46.935 126.258  22.030  1.00  0.00    -0.443 OA
ATOM     21  C   UNL     1      45.664 124.683  22.795  1.00  0.00     0.110 A 
ATOM     22  C   UNL     1      44.515 124.112  23.336  1.00  0.00     0.032 A 
ATOM     23  C   UNL     1      47.575 125.101  22.029  1.00  0.00     0.309 A 
ATOM     24  N   UNL     1      46.823 124.073  22.500  1.00  0.00    -0.217 NA
ENDBRANCH  11  16
ENDBRANCH   7   8
ENDBRANCH   1   7
TORSDOF 5
ENDMDL
MODEL 5
REMARK VINA RESULT:      -5.2      4.630      7.388
REMARK SMILES CS[C@@H](C)C(=O)Oc1cc(-c2cccc3ncoc23)cc(C)c1F
REMARK SMILES IDX 5 1 6 2 3 3 4 4 2 5 1 6 7 7 8 8 9 9 23 10 10 11 21 12 20 13
REMARK SMILES IDX 24 14 22 15 11 16 12 17 19 18 13 19 18 20 15 21 14 22 17 23
REMARK SMILES IDX 16 24
REMARK H PARENT
ROOT
ATOM      1  C   UNL     1      48.773 124.294  22.805  1.00  0.00     0.324 C 
ATOM      2  O   UNL     1      48.989 123.330  23.590  1.00  0.00    -0.250 OA
ENDROOT
BRANCH   1   3
ATOM      3  C   UNL     1      49.228 124.206  21.380  1.00  0.00     0.153 C 
ATOM      4  C   UNL     1      48.584 122.998  20.697  1.00  0.00     0.032 C 
BRANCH   3   5
ATOM      5  S   UNL     1      51.052 124.058  21.351  1.00  0.00    -0.150 SA
ATOM      6  C   UNL     1      51.393 125.620  22.226  1.00  0.00     0.086 C 
ENDBRANCH   3   5
ENDBRANCH   1   3
BRANCH   1   7
ATOM      7  O   UNL     1      48.056 125.420  23.234  1.00  0.00    -0.423 OA
BRANCH   7   8
ATOM      8  C   UNL     1      46.684 125.614  23.028  1.00  0.00     0.167 A 
ATOM      9  C   UNL     1      46.191 126.923  23.029  1.00  0.00     0.059 A 
ATOM     10  C   UNL     1      45.793 124.536  22.867  1.00  0.00     0.168 A 
ATOM     11  C   UNL     1      44.822 127.177  22.840  1.00  0.00    -0.010 A 
ATOM     12  C   UNL     1      44.426 124.777  22.658  1.00  0.00    -0.011 A 
ATOM     13  C   UNL     1      43.946 126.095  22.650  1.00  0.00     0.015 A 
ATOM     14  F   UNL     1      46.241 123.258  22.972  1.00  0.00    -0.203 F 
ATOM     15  C   UNL     1      43.471 123.627  22.508  1.00  0.00     0.048 C 
BRANCH  11  16
ATOM     16  C   UNL     1      44.314 128.571  22.836  1.00  0.00     0.027 A 
ATOM     17  C   UNL     1      43.296 128.987  23.727  1.00  0.00     0.013 A 
ATOM     18  C   UNL     1      44.809 129.538  21.951  1.00  0.00     0.162 A 
ATOM     19  C   UNL     1      42.823 130.319  23.713  1.00  0.00     0.003 A 
ATOM     20  O   UNL     1      45.720 129.420  21.022  1.00  0.00    -0.443 OA
ATOM     21  C   UNL     1      44.350 130.821  21.940  1.00  0.00     0.110 A 
ATOM     22  C   UNL     1      43.353 131.256  22.808  1.00  0.00     0.032 A 
ATOM     23  C   UNL     1      45.822 130.610  20.455  1.00  0.00     0.309 A 
ATOM     24  N   UNL     1      44.982 131.533  20.992  1.00  0.00    -0.217 NA
ENDBRANCH  11  16
ENDBRANCH   7   8
ENDBRANCH   1   7
TORSDOF 5
ENDMDL
MODEL 6
REMARK VINA RESULT:      -5.0      3.348      7.081
REMARK SMILES CS[C@@H](C)C(=O)Oc1cc(-c2cccc3ncoc23)cc(C)c1F
REMARK SMILES IDX 5 1 6 2 3 3 4 4 2 5 1 6 7 7 8 8 9 9 23 10 10 11 21 12 20 13
REMARK SMILES IDX 24 14 22 15 11 16 12 17 19 18 13 19 18 20 15 21 14 22 17 23
REMARK SMILES IDX 16 24
REMARK H PARENT
ROOT
ATOM      1  C   UNL     1      45.079 128.882  22.171  1.00  0.00     0.324 C 
ATOM      2  O   UNL     1      45.561 127.718  22.087  1.00  0.00    -0.250 OA
ENDROOT
BRANCH   1   3
ATOM      3  C   UNL     1      44.075 129.193  23.240  1.00  0.00     0.153 C 
ATOM      4  C   UNL     1      44.725 129.080  24.619  1.00  0.00     0.032 C 
BRANCH   3   5
ATOM      5  S   UNL     1      42.678 128.019  23.095  1.00  0.00    -0.150 SA
ATOM      6  C   UNL     1      41.809 128.556  24.604  1.00  0.00     0.086 C 
ENDBRANCH   3   5
ENDBRANCH   1   3
BRANCH   1   7
ATOM      7  O   UNL     1      45.521 129.903  21.319  1.00  0.00    -0.423 OA
BRANCH   7   8
ATOM      8  C   UNL     1      44.694 130.624  20.447  1.00  0.00     0.167 A 
ATOM      9  C   UNL     1      44.960 130.564  19.076  1.00  0.00     0.059 A 
ATOM     10  C   UNL     1      43.642 131.435  20.916  1.00  0.00     0.168 A 
ATOM     11  C   UNL     1      44.171 131.275  18.157  1.00  0.00    -0.010 A 
ATOM     12  C   UNL     1      42.834 132.136  20.007  1.00  0.00    -0.011 A 
ATOM     13  C   UNL     1      43.105 132.057  18.633  1.00  0.00     0.015 A 
ATOM     14  F   UNL     1      43.439 131.587  22.250  1.00  0.00    -0.203 F 
ATOM     15  C   UNL     1      41.725 133.018  20.507  1.00  0.00     0.048 C 
BRANCH  11  16
ATOM     16  C   UNL     1      44.461 131.197  16.704  1.00  0.00     0.027 A 
ATOM     17  C   UNL     1      43.535 131.666  15.741  1.00  0.00     0.013 A 
ATOM     18  C   UNL     1      45.656 130.651  16.215  1.00  0.00     0.162 A 
ATOM     19  C   UNL     1      43.826 131.586  14.360  1.00  0.00     0.003 A 
ATOM     20  O   UNL     1      46.658 130.132  16.873  1.00  0.00    -0.443 OA
ATOM     21  C   UNL     1      45.932 130.575  14.883  1.00  0.00     0.110 A 
ATOM     22  C   UNL     1      45.041 131.033  13.917  1.00  0.00     0.032 A 
ATOM     23  C   UNL     1      47.536 129.749  15.960  1.00  0.00     0.309 A 
ATOM     24  N   UNL     1      47.131 130.003  14.689  1.00  0.00    -0.217 NA
ENDBRANCH  11  16
ENDBRANCH   7   8
ENDBRANCH   1   7
TORSDOF 5
ENDMDL
MODEL 7
REMARK VINA RESULT:      -4.8      3.194      6.630
REMARK SMILES CS[C@@H](C)C(=O)Oc1cc(-c2cccc3ncoc23)cc(C)c1F
REMARK SMILES IDX 5 1 6 2 3 3 4 4 2 5 1 6 7 7 8 8 9 9 23 10 10 11 21 12 20 13
REMARK SMILES IDX 24 14 22 15 11 16 12 17 19 18 13 19 18 20 15 21 14 22 17 23
REMARK SMILES IDX 16 24
REMARK H PARENT
ROOT
ATOM      1  C   UNL     1      45.172 129.047  21.813  1.00  0.00     0.324 C 
ATOM      2  O   UNL     1      46.090 128.781  20.989  1.00  0.00    -0.250 OA
ENDROOT
BRANCH   1   3
ATOM      3  C   UNL     1      44.624 127.960  22.687  1.00  0.00     0.153 C 
ATOM      4  C   UNL     1      44.577 128.430  24.142  1.00  0.00     0.032 C 
BRANCH   3   5
ATOM      5  S   UNL     1      45.691 126.481  22.529  1.00  0.00    -0.150 SA
ATOM      6  C   UNL     1      46.106 126.344  24.298  1.00  0.00     0.086 C 
ENDBRANCH   3   5
ENDBRANCH   1   3
BRANCH   1   7
ATOM      7  O   UNL     1      44.705 130.360  21.966  1.00  0.00    -0.423 OA
BRANCH   7   8
ATOM      8  C   UNL     1      43.969 131.059  21.001  1.00  0.00     0.167 A 
ATOM      9  C   UNL     1      44.318 130.901  19.656  1.00  0.00     0.059 A 
ATOM     10  C   UNL     1      42.928 131.941  21.350  1.00  0.00     0.168 A 
ATOM     11  C   UNL     1      43.622 131.587  18.646  1.00  0.00    -0.010 A 
ATOM     12  C   UNL     1      42.212 132.617  20.350  1.00  0.00    -0.011 A 
ATOM     13  C   UNL     1      42.566 132.441  19.004  1.00  0.00     0.015 A 
ATOM     14  F   UNL     1      42.649 132.185  22.657  1.00  0.00    -0.203 F 
ATOM     15  C   UNL     1      41.116 133.574  20.722  1.00  0.00     0.048 C 
BRANCH  11  16
ATOM     16  C   UNL     1      43.999 131.405  17.223  1.00  0.00     0.027 A 
ATOM     17  C   UNL     1      43.159 131.853  16.174  1.00  0.00     0.013 A 
ATOM     18  C   UNL     1      45.195 130.779  16.847  1.00  0.00     0.162 A 
ATOM     19  C   UNL     1      43.532 131.674  14.823  1.00  0.00     0.003 A 
ATOM     20  O   UNL     1      46.128 130.258  17.599  1.00  0.00    -0.443 OA
ATOM     21  C   UNL     1      45.551 130.608  15.543  1.00  0.00     0.110 A 
ATOM     22  C   UNL     1      44.746 131.043  14.494  1.00  0.00     0.032 A 
ATOM     23  C   UNL     1      47.043 129.782  16.771  1.00  0.00     0.309 A 
ATOM     24  N   UNL     1      46.732 129.973  15.462  1.00  0.00    -0.217 NA
ENDBRANCH  11  16
ENDBRANCH   7   8
ENDBRANCH   1   7
TORSDOF 5
ENDMDL
MODEL 8
REMARK VINA RESULT:      -4.8      5.327      8.395
REMARK SMILES CS[C@@H](C)C(=O)Oc1cc(-c2cccc3ncoc23)cc(C)c1F
REMARK SMILES IDX 5 1 6 2 3 3 4 4 2 5 1 6 7 7 8 8 9 9 23 10 10 11 21 12 20 13
REMARK SMILES IDX 24 14 22 15 11 16 12 17 19 18 13 19 18 20 15 21 14 22 17 23
REMARK SMILES IDX 16 24
REMARK H PARENT
ROOT
ATOM      1  C   UNL     1      41.386 125.789  24.065  1.00  0.00     0.324 C 
ATOM      2  O   UNL     1      41.268 127.042  23.981  1.00  0.00    -0.250 OA
ENDROOT
BRANCH   1   3
ATOM      3  C   UNL     1      40.170 124.920  23.955  1.00  0.00     0.153 C 
ATOM      4  C   UNL     1      40.298 123.987  22.751  1.00  0.00     0.032 C 
BRANCH   3   5
ATOM      5  S   UNL     1      38.695 125.991  23.778  1.00  0.00    -0.150 SA
ATOM      6  C   UNL     1      37.527 124.858  24.600  1.00  0.00     0.086 C 
ENDBRANCH   3   5
ENDBRANCH   1   3
BRANCH   1   7
ATOM      7  O   UNL     1      42.650 125.197  24.196  1.00  0.00    -0.423 OA
BRANCH   7   8
ATOM      8  C   UNL     1      43.831 125.716  23.652  1.00  0.00     0.167 A 
ATOM      9  C   UNL     1      43.817 127.025  23.160  1.00  0.00     0.059 A 
ATOM     10  C   UNL     1      45.007 124.948  23.548  1.00  0.00     0.168 A 
ATOM     11  C   UNL     1      44.969 127.594  22.592  1.00  0.00    -0.010 A 
ATOM     12  C   UNL     1      46.171 125.510  23.001  1.00  0.00    -0.011 A 
ATOM     13  C   UNL     1      46.145 126.828  22.521  1.00  0.00     0.015 A 
ATOM     14  F   UNL     1      45.005 123.642  23.924  1.00  0.00    -0.203 F 
ATOM     15  C   UNL     1      47.419 124.684  22.870  1.00  0.00     0.048 C 
BRANCH  11  16
ATOM     16  C   UNL     1      44.942 128.986  22.080  1.00  0.00     0.027 A 
ATOM     17  C   UNL     1      45.751 129.387  20.990  1.00  0.00     0.013 A 
ATOM     18  C   UNL     1      44.123 129.970  22.651  1.00  0.00     0.162 A 
ATOM     19  C   UNL     1      45.713 130.717  20.512  1.00  0.00     0.003 A 
ATOM     20  O   UNL     1      43.306 129.878  23.666  1.00  0.00    -0.443 OA
ATOM     21  C   UNL     1      44.089 131.250  22.187  1.00  0.00     0.110 A 
ATOM     22  C   UNL     1      44.871 131.668  21.115  1.00  0.00     0.032 A 
ATOM     23  C   UNL     1      42.776 131.080  23.820  1.00  0.00     0.309 A 
ATOM     24  N   UNL     1      43.233 131.986  22.916  1.00  0.00    -0.217 NA
ENDBRANCH  11  16
ENDBRANCH   7   8
ENDBRANCH   1   7
TORSDOF 5
ENDMDL
MODEL 9
REMARK VINA RESULT:      -4.5      3.070      6.634
REMARK SMILES CS[C@@H](C)C(=O)Oc1cc(-c2cccc3ncoc23)cc(C)c1F
REMARK SMILES IDX 5 1 6 2 3 3 4 4 2 5 1 6 7 7 8 8 9 9 23 10 10 11 21 12 20 13
REMARK SMILES IDX 24 14 22 15 11 16 12 17 19 18 13 19 18 20 15 21 14 22 17 23
REMARK SMILES IDX 16 24
REMARK H PARENT
ROOT
ATOM      1  C   UNL     1      44.237 129.209  22.818  1.00  0.00     0.324 C 
ATOM      2  O   UNL     1      43.270 129.580  23.540  1.00  0.00    -0.250 OA
ENDROOT
BRANCH   1   3
ATOM      3  C   UNL     1      44.724 127.794  22.901  1.00  0.00     0.153 C 
ATOM      4  C   UNL     1      45.353 127.535  24.270  1.00  0.00     0.032 C 
BRANCH   3   5
ATOM      5  S   UNL     1      45.952 127.515  21.571  1.00  0.00    -0.150 SA
ATOM      6  C   UNL     1      46.539 125.899  22.179  1.00  0.00     0.086 C 
ENDBRANCH   3   5
ENDBRANCH   1   3
BRANCH   1   7
ATOM      7  O   UNL     1      44.818 130.088  21.893  1.00  0.00    -0.423 OA
BRANCH   7   8
ATOM      8  C   UNL     1      44.100 130.850  20.962  1.00  0.00     0.167 A 
ATOM      9  C   UNL     1      44.432 130.732  19.609  1.00  0.00     0.059 A 
ATOM     10  C   UNL     1      43.095 131.756  21.355  1.00  0.00     0.168 A 
ATOM     11  C   UNL     1      43.755 131.482  18.633  1.00  0.00    -0.010 A 
ATOM     12  C   UNL     1      42.397 132.496  20.388  1.00  0.00    -0.011 A 
ATOM     13  C   UNL     1      42.733 132.360  19.033  1.00  0.00     0.015 A 
ATOM     14  F   UNL     1      42.836 131.959  22.672  1.00  0.00    -0.203 F 
ATOM     15  C   UNL     1      41.340 133.478  20.807  1.00  0.00     0.048 C 
BRANCH  11  16
ATOM     16  C   UNL     1      44.113 131.341  17.200  1.00  0.00     0.027 A 
ATOM     17  C   UNL     1      43.273 131.844  16.177  1.00  0.00     0.013 A 
ATOM     18  C   UNL     1      45.291 130.703  16.790  1.00  0.00     0.162 A 
ATOM     19  C   UNL     1      43.629 131.704  14.816  1.00  0.00     0.003 A 
ATOM     20  O   UNL     1      46.220 130.136  17.514  1.00  0.00    -0.443 OA
ATOM     21  C   UNL     1      45.630 130.570  15.477  1.00  0.00     0.110 A 
ATOM     22  C   UNL     1      44.825 131.058  14.453  1.00  0.00     0.032 A 
ATOM     23  C   UNL     1      47.115 129.669  16.660  1.00  0.00     0.309 A 
ATOM     24  N   UNL     1      46.796 129.912  15.362  1.00  0.00    -0.217 NA
ENDBRANCH  11  16
ENDBRANCH   7   8
ENDBRANCH   1   7
TORSDOF 5
ENDMDL


