REMARK SMILES C=Cc1cccc(-c2ccc3c(c2)[C@@H](N)CC3)c1
REMARK SMILES IDX 8 1 9 2 10 3 11 4 12 5 13 6 14 7 16 8 17 9 7 10 3 11 4 12
REMARK SMILES IDX 18 13 5 14 6 15 2 16 1 17 15 18
REMARK H PARENT 15 19 15 20
ROOT
ATOM      1  C   UNL     1       0.056   1.041  -0.598  1.00  0.00    -0.018 A 
ATOM      2  C   UNL     1      -0.619   1.965  -1.430  1.00  0.00     0.009 A 
ATOM      3  C   UNL     1      -1.265   3.081  -0.880  1.00  0.00     0.005 A 
ATOM      4  C   UNL     1      -1.232   3.265   0.503  1.00  0.00    -0.043 A 
ATOM      5  C   UNL     1      -0.574   2.383   1.320  1.00  0.00    -0.027 A 
ATOM      6  C   UNL     1       0.073   1.260   0.797  1.00  0.00     0.014 A 
ATOM      7  C   UNL     1      -0.654   2.780   2.751  1.00  0.00     0.081 C 
ATOM      8  C   UNL     1      -1.609   3.998   2.734  1.00  0.00     0.028 C 
ATOM      9  C   UNL     1      -1.853   4.374   1.261  1.00  0.00     0.038 C 
ENDROOT
BRANCH   1  10
ATOM     10  C   UNL     1       0.738  -0.142  -1.182  1.00  0.00    -0.018 A 
ATOM     11  C   UNL     1       1.308  -2.521  -1.089  1.00  0.00    -0.026 A 
ATOM     12  C   UNL     1       2.027  -2.381  -2.292  1.00  0.00     0.008 A 
ATOM     13  C   UNL     1       0.659  -1.397  -0.550  1.00  0.00     0.016 A 
ATOM     14  C   UNL     1       2.108  -1.138  -2.924  1.00  0.00     0.001 A 
ATOM     15  C   UNL     1       1.471  -0.025  -2.374  1.00  0.00     0.009 A 
BRANCH  11  16
ATOM     16  C   UNL     1       1.179  -3.820  -0.382  1.00  0.00     0.000 C 
ATOM     17  C   UNL     1       1.978  -4.869  -0.587  1.00  0.00     0.009 C 
ENDBRANCH  11  16
ENDBRANCH   1  10
BRANCH   7  18
ATOM     18  N   UNL     1       0.668   3.161   3.248  1.00  0.00    -0.324 NA
ATOM     19  H   UNL     1       1.275   2.309   3.250  1.00  0.00     0.119 HD
ATOM     20  H   UNL     1       0.566   3.441   4.250  1.00  0.00     0.119 HD
ENDBRANCH   7  18
TORSDOF 3


