REMARK SMILES C[C@H]1NN(C(=O)C(C)(C)[NH2+]C2CC2)[C@@H](c2cc3ccc(F)cc3[nH]2)O1
REMARK SMILES IDX 5 1 6 2 4 3 2 4 3 5 25 6 14 7 1 8 15 10 16 11 24 12 17 13
REMARK SMILES IDX 23 14 18 15 22 16 19 17 20 18 21 20 7 21 8 22 9 23 10 24
REMARK SMILES IDX 11 27 12 28 13 29
REMARK H PARENT 3 9 24 19 10 25 10 26
ROOT
ATOM      1  C   UNL     1       0.364  -1.910   0.690  1.00  0.00     0.300 C 
ATOM      2  O   UNL     1      -0.493  -2.722   1.137  1.00  0.00    -0.266 OA
ENDROOT
BRANCH   1   3
ATOM      3  N   UNL     1       0.766  -2.022  -0.683  1.00  0.00    -0.236 N 
ATOM      4  C   UNL     1       2.007  -2.140  -2.539  1.00  0.00     0.204 C 
ATOM      5  N   UNL     1       2.096  -2.081  -1.078  1.00  0.00    -0.201 NA
ATOM      6  O   UNL     1       0.648  -2.142  -2.956  1.00  0.00    -0.332 OA
ATOM      7  C   UNL     1      -0.144  -2.048  -1.798  1.00  0.00     0.283 C 
ATOM      8  C   UNL     1       2.729  -0.936  -3.135  1.00  0.00     0.058 C 
ATOM      9  H   UNL     1       2.480  -2.990  -0.727  1.00  0.00     0.151 HD
BRANCH   7  10
ATOM     10  C   UNL     1      -0.976  -0.793  -1.824  1.00  0.00     0.068 A 
ATOM     11  C   UNL     1      -0.734   0.331  -2.619  1.00  0.00     0.036 A 
ATOM     12  N   UNL     1      -1.993  -0.560  -0.958  1.00  0.00    -0.355 N 
ATOM     13  C   UNL     1      -1.645   1.271  -2.193  1.00  0.00     0.000 A 
ATOM     14  C   UNL     1      -2.388   0.703  -1.190  1.00  0.00     0.049 A 
ATOM     15  C   UNL     1      -1.834   2.594  -2.591  1.00  0.00     0.013 A 
ATOM     16  C   UNL     1      -3.370   1.421  -0.509  1.00  0.00     0.065 A 
ATOM     17  C   UNL     1      -2.821   3.343  -1.924  1.00  0.00     0.040 A 
ATOM     18  C   UNL     1      -3.585   2.760  -0.887  1.00  0.00     0.125 A 
ATOM     19  H   UNL     1      -2.365  -1.209  -0.228  1.00  0.00     0.166 HD
ATOM     20  F   UNL     1      -4.524   3.498  -0.244  1.00  0.00    -0.207 F 
ENDBRANCH   7  10
ENDBRANCH   1   3
BRANCH   1  21
ATOM     21  C   UNL     1       0.955  -0.827   1.593  1.00  0.00     0.171 C 
ATOM     22  C   UNL     1       2.307  -1.342   2.137  1.00  0.00     0.090 C 
ATOM     23  C   UNL     1      -0.009  -0.578   2.783  1.00  0.00     0.090 C 
BRANCH  21  24
ATOM     24  N   UNL     1       1.130   0.423   0.798  1.00  0.00    -0.332 N 
ATOM     25  H   UNL     1       0.219   0.660   0.339  1.00  0.00     0.347 HD
ATOM     26  H   UNL     1       1.825   0.260   0.034  1.00  0.00     0.347 HD
BRANCH  24  27
ATOM     27  C   UNL     1       1.630   1.570   1.582  1.00  0.00     0.183 C 
ATOM     28  C   UNL     1       1.525   2.894   0.832  1.00  0.00     0.071 C 
ATOM     29  C   UNL     1       0.585   2.606   1.991  1.00  0.00     0.071 C 
ENDBRANCH  24  27
ENDBRANCH  21  24
ENDBRANCH   1  21
TORSDOF 5


