MODEL 1
REMARK VINA RESULT:      -4.2      0.000      0.000
REMARK SMILES CC(=O)c1c(-c2cccc3ncoc23)cc(C(=O)N[C@@H]2C=CCC2)c(F)c1O
REMARK SMILES IDX 4 1 5 2 15 3 16 4 25 5 26 6 27 7 2 8 1 9 3 10 6 11 7 12
REMARK SMILES IDX 14 13 8 14 13 15 10 16 9 17 12 18 11 19 28 20 17 22 19 23
REMARK SMILES IDX 18 24 20 26 21 27 24 28 22 29 23 30
REMARK H PARENT 28 21 19 25
ROOT
ATOM      1  C   UNL     1      43.007 126.523  23.479  1.00  0.00     0.070 A 
ATOM      2  C   UNL     1      44.093 127.431  23.550  1.00  0.00     0.001 A 
ATOM      3  C   UNL     1      45.406 126.938  23.577  1.00  0.00     0.026 A 
ATOM      4  C   UNL     1      45.666 125.564  23.490  1.00  0.00     0.080 A 
ATOM      5  C   UNL     1      44.588 124.667  23.406  1.00  0.00     0.178 A 
ATOM      6  F   UNL     1      44.812 123.327  23.393  1.00  0.00    -0.202 F 
ATOM      7  C   UNL     1      43.267 125.140  23.400  1.00  0.00     0.163 A 
ENDROOT
BRANCH   1   8
ATOM      8  C   UNL     1      41.598 126.986  23.533  1.00  0.00     0.164 C 
ATOM      9  C   UNL     1      40.660 126.519  24.605  1.00  0.00     0.093 C 
ATOM     10  O   UNL     1      41.168 127.777  22.651  1.00  0.00    -0.294 OA
ENDBRANCH   1   8
BRANCH   2  11
ATOM     11  C   UNL     1      43.898 128.898  23.539  1.00  0.00     0.028 A 
ATOM     12  C   UNL     1      43.182 129.550  24.569  1.00  0.00     0.013 A 
ATOM     13  C   UNL     1      44.439 129.705  22.533  1.00  0.00     0.162 A 
ATOM     14  C   UNL     1      43.010 130.953  24.548  1.00  0.00     0.003 A 
ATOM     15  O   UNL     1      45.153 129.361  21.495  1.00  0.00    -0.443 OA
ATOM     16  C   UNL     1      44.273 131.056  22.515  1.00  0.00     0.110 A 
ATOM     17  C   UNL     1      43.560 131.724  23.507  1.00  0.00     0.032 A 
ATOM     18  C   UNL     1      45.418 130.483  20.849  1.00  0.00     0.309 A 
ATOM     19  N   UNL     1      44.890 131.584  21.445  1.00  0.00    -0.217 NA
ENDBRANCH   2  11
BRANCH   7  20
ATOM     20  O   UNL     1      42.204 124.238  23.342  1.00  0.00    -0.504 OA
ATOM     21  H   UNL     1      41.548 124.224  22.568  1.00  0.00     0.293 HD
ENDBRANCH   7  20
BRANCH   4  22
ATOM     22  C   UNL     1      47.067 125.086  23.505  1.00  0.00     0.254 C 
ATOM     23  N   UNL     1      47.882 125.153  22.324  1.00  0.00    -0.346 N 
ATOM     24  O   UNL     1      47.557 124.640  24.578  1.00  0.00    -0.269 OA
ATOM     25  H   UNL     1      47.549 125.722  21.513  1.00  0.00     0.164 HD
BRANCH  23  26
ATOM     26  C   UNL     1      49.201 124.516  22.262  1.00  0.00     0.105 C 
ATOM     27  C   UNL     1      50.032 124.897  23.439  1.00  0.00    -0.007 C 
ATOM     28  C   UNL     1      50.008 125.017  21.053  1.00  0.00     0.033 C 
ATOM     29  C   UNL     1      51.171 125.467  23.087  1.00  0.00    -0.029 C 
ATOM     30  C   UNL     1      51.318 125.581  21.615  1.00  0.00     0.029 C 
ENDBRANCH  23  26
ENDBRANCH   4  22
TORSDOF 5
ENDMDL
MODEL 2
REMARK VINA RESULT:      -3.4      5.942      8.659
REMARK SMILES CC(=O)c1c(-c2cccc3ncoc23)cc(C(=O)N[C@@H]2C=CCC2)c(F)c1O
REMARK SMILES IDX 4 1 5 2 15 3 16 4 25 5 26 6 27 7 2 8 1 9 3 10 6 11 7 12
REMARK SMILES IDX 14 13 8 14 13 15 10 16 9 17 12 18 11 19 28 20 17 22 19 23
REMARK SMILES IDX 18 24 20 26 21 27 24 28 22 29 23 30
REMARK H PARENT 28 21 19 25
ROOT
ATOM      1  C   UNL     1      45.178 132.113  22.209  1.00  0.00     0.070 A 
ATOM      2  C   UNL     1      45.599 132.546  20.927  1.00  0.00     0.001 A 
ATOM      3  C   UNL     1      46.578 133.545  20.821  1.00  0.00     0.026 A 
ATOM      4  C   UNL     1      47.181 134.093  21.961  1.00  0.00     0.080 A 
ATOM      5  C   UNL     1      46.772 133.652  23.231  1.00  0.00     0.178 A 
ATOM      6  F   UNL     1      47.289 134.219  24.352  1.00  0.00    -0.202 F 
ATOM      7  C   UNL     1      45.777 132.670  23.357  1.00  0.00     0.163 A 
ENDROOT
BRANCH   1   8
ATOM      8  C   UNL     1      44.086 131.122  22.379  1.00  0.00     0.164 C 
ATOM      9  C   UNL     1      42.730 131.526  22.873  1.00  0.00     0.093 C 
ATOM     10  O   UNL     1      44.303 129.908  22.121  1.00  0.00    -0.294 OA
ENDBRANCH   1   8
BRANCH   2  11
ATOM     11  C   UNL     1      45.083 131.940  19.679  1.00  0.00     0.028 A 
ATOM     12  C   UNL     1      45.901 131.121  18.868  1.00  0.00     0.013 A 
ATOM     13  C   UNL     1      43.759 132.123  19.266  1.00  0.00     0.162 A 
ATOM     14  C   UNL     1      45.391 130.545  17.683  1.00  0.00     0.003 A 
ATOM     15  O   UNL     1      42.803 132.803  19.839  1.00  0.00    -0.443 OA
ATOM     16  C   UNL     1      43.270 131.566  18.125  1.00  0.00     0.110 A 
ATOM     17  C   UNL     1      44.055 130.768  17.298  1.00  0.00     0.032 A 
ATOM     18  C   UNL     1      41.744 132.669  19.059  1.00  0.00     0.309 A 
ATOM     19  N   UNL     1      41.978 131.899  17.964  1.00  0.00    -0.217 NA
ENDBRANCH   2  11
BRANCH   7  20
ATOM     20  O   UNL     1      45.360 132.259  24.624  1.00  0.00    -0.504 OA
ATOM     21  H   UNL     1      46.018 132.034  25.363  1.00  0.00     0.293 HD
ENDBRANCH   7  20
BRANCH   4  22
ATOM     22  C   UNL     1      48.222 135.133  21.805  1.00  0.00     0.254 C 
ATOM     23  N   UNL     1      47.985 136.299  21.000  1.00  0.00    -0.346 N 
ATOM     24  O   UNL     1      49.321 135.005  22.411  1.00  0.00    -0.269 OA
ATOM     25  H   UNL     1      47.010 136.506  20.688  1.00  0.00     0.164 HD
BRANCH  23  26
ATOM     26  C   UNL     1      49.059 137.243  20.677  1.00  0.00     0.105 C 
ATOM     27  C   UNL     1      48.502 138.546  20.216  1.00  0.00    -0.007 C 
ATOM     28  C   UNL     1      49.900 136.750  19.488  1.00  0.00     0.033 C 
ATOM     29  C   UNL     1      48.930 138.877  19.011  1.00  0.00    -0.029 C 
ATOM     30  C   UNL     1      49.847 137.862  18.435  1.00  0.00     0.029 C 
ENDBRANCH  23  26
ENDBRANCH   4  22
TORSDOF 5
ENDMDL
MODEL 3
REMARK VINA RESULT:      -2.9      2.029      6.828
REMARK SMILES CC(=O)c1c(-c2cccc3ncoc23)cc(C(=O)N[C@@H]2C=CCC2)c(F)c1O
REMARK SMILES IDX 4 1 5 2 15 3 16 4 25 5 26 6 27 7 2 8 1 9 3 10 6 11 7 12
REMARK SMILES IDX 14 13 8 14 13 15 10 16 9 17 12 18 11 19 28 20 17 22 19 23
REMARK SMILES IDX 18 24 20 26 21 27 24 28 22 29 23 30
REMARK H PARENT 28 21 19 25
ROOT
ATOM      1  C   UNL     1      45.146 124.772  23.284  1.00  0.00     0.070 A 
ATOM      2  C   UNL     1      46.120 125.501  22.557  1.00  0.00     0.001 A 
ATOM      3  C   UNL     1      45.923 126.868  22.315  1.00  0.00     0.026 A 
ATOM      4  C   UNL     1      44.800 127.539  22.817  1.00  0.00     0.080 A 
ATOM      5  C   UNL     1      43.843 126.817  23.550  1.00  0.00     0.178 A 
ATOM      6  F   UNL     1      42.711 127.428  23.986  1.00  0.00    -0.202 F 
ATOM      7  C   UNL     1      44.012 125.443  23.783  1.00  0.00     0.163 A 
ENDROOT
BRANCH   1   8
ATOM      8  C   UNL     1      45.263 123.307  23.495  1.00  0.00     0.164 C 
ATOM      9  C   UNL     1      45.691 122.388  22.392  1.00  0.00     0.093 C 
ATOM     10  O   UNL     1      44.981 122.817  24.621  1.00  0.00    -0.294 OA
ENDBRANCH   1   8
BRANCH   2  11
ATOM     11  C   UNL     1      47.380 124.883  22.085  1.00  0.00     0.028 A 
ATOM     12  C   UNL     1      47.412 124.078  20.924  1.00  0.00     0.013 A 
ATOM     13  C   UNL     1      48.594 125.092  22.746  1.00  0.00     0.162 A 
ATOM     14  C   UNL     1      48.624 123.500  20.483  1.00  0.00     0.003 A 
ATOM     15  O   UNL     1      48.841 125.803  23.813  1.00  0.00    -0.443 OA
ATOM     16  C   UNL     1      49.761 124.535  22.319  1.00  0.00     0.110 A 
ATOM     17  C   UNL     1      49.821 123.726  21.188  1.00  0.00     0.032 A 
ATOM     18  C   UNL     1      50.137 125.681  24.040  1.00  0.00     0.309 A 
ATOM     19  N   UNL     1      50.770 124.895  23.130  1.00  0.00    -0.217 NA
ENDBRANCH   2  11
BRANCH   7  20
ATOM     20  O   UNL     1      43.041 124.732  24.490  1.00  0.00    -0.504 OA
ATOM     21  H   UNL     1      42.679 123.842  24.165  1.00  0.00     0.293 HD
ENDBRANCH   7  20
BRANCH   4  22
ATOM     22  C   UNL     1      44.638 128.986  22.553  1.00  0.00     0.254 C 
ATOM     23  N   UNL     1      43.336 129.593  22.546  1.00  0.00    -0.346 N 
ATOM     24  O   UNL     1      45.661 129.698  22.360  1.00  0.00    -0.269 OA
ATOM     25  H   UNL     1      42.525 129.052  22.923  1.00  0.00     0.164 HD
BRANCH  23  26
ATOM     26  C   UNL     1      43.134 130.976  22.102  1.00  0.00     0.105 C 
ATOM     27  C   UNL     1      42.674 131.018  20.686  1.00  0.00    -0.007 C 
ATOM     28  C   UNL     1      44.457 131.760  22.093  1.00  0.00     0.033 C 
ATOM     29  C   UNL     1      43.479 131.729  19.916  1.00  0.00    -0.029 C 
ATOM     30  C   UNL     1      44.630 132.291  20.666  1.00  0.00     0.029 C 
ENDBRANCH  23  26
ENDBRANCH   4  22
TORSDOF 5
ENDMDL
MODEL 4
REMARK VINA RESULT:      -2.9      5.105      7.435
REMARK SMILES CC(=O)c1c(-c2cccc3ncoc23)cc(C(=O)N[C@@H]2C=CCC2)c(F)c1O
REMARK SMILES IDX 4 1 5 2 15 3 16 4 25 5 26 6 27 7 2 8 1 9 3 10 6 11 7 12
REMARK SMILES IDX 14 13 8 14 13 15 10 16 9 17 12 18 11 19 28 20 17 22 19 23
REMARK SMILES IDX 18 24 20 26 21 27 24 28 22 29 23 30
REMARK H PARENT 28 21 19 25
ROOT
ATOM      1  C   UNL     1      42.793 132.353  19.825  1.00  0.00     0.070 A 
ATOM      2  C   UNL     1      43.937 131.635  20.254  1.00  0.00     0.001 A 
ATOM      3  C   UNL     1      44.744 130.988  19.306  1.00  0.00     0.026 A 
ATOM      4  C   UNL     1      44.464 131.075  17.935  1.00  0.00     0.080 A 
ATOM      5  C   UNL     1      43.337 131.799  17.512  1.00  0.00     0.178 A 
ATOM      6  F   UNL     1      43.003 131.839  16.195  1.00  0.00    -0.202 F 
ATOM      7  C   UNL     1      42.505 132.434  18.448  1.00  0.00     0.163 A 
ENDROOT
BRANCH   1   8
ATOM      8  C   UNL     1      41.859 132.983  20.791  1.00  0.00     0.164 C 
ATOM      9  C   UNL     1      41.455 132.290  22.057  1.00  0.00     0.093 C 
ATOM     10  O   UNL     1      41.378 134.120  20.538  1.00  0.00    -0.294 OA
ENDBRANCH   1   8
BRANCH   2  11
ATOM     11  C   UNL     1      44.353 131.586  21.673  1.00  0.00     0.028 A 
ATOM     12  C   UNL     1      45.146 132.610  22.241  1.00  0.00     0.013 A 
ATOM     13  C   UNL     1      43.955 130.547  22.521  1.00  0.00     0.162 A 
ATOM     14  C   UNL     1      45.530 132.551  23.600  1.00  0.00     0.003 A 
ATOM     15  O   UNL     1      43.212 129.507  22.257  1.00  0.00    -0.443 OA
ATOM     16  C   UNL     1      44.325 130.493  23.830  1.00  0.00     0.110 A 
ATOM     17  C   UNL     1      45.117 131.478  24.413  1.00  0.00     0.032 A 
ATOM     18  C   UNL     1      43.130 128.823  23.386  1.00  0.00     0.309 A 
ATOM     19  N   UNL     1      43.811 129.397  24.412  1.00  0.00    -0.217 NA
ENDBRANCH   2  11
BRANCH   7  20
ATOM     20  O   UNL     1      41.374 133.129  18.016  1.00  0.00    -0.504 OA
ATOM     21  H   UNL     1      41.050 133.972  18.475  1.00  0.00     0.293 HD
ENDBRANCH   7  20
BRANCH   4  22
ATOM     22  C   UNL     1      45.350 130.391  16.966  1.00  0.00     0.254 C 
ATOM     23  N   UNL     1      45.371 130.781  15.584  1.00  0.00    -0.346 N 
ATOM     24  O   UNL     1      46.115 129.473  17.369  1.00  0.00    -0.269 OA
ATOM     25  H   UNL     1      44.909 131.676  15.305  1.00  0.00     0.164 HD
BRANCH  23  26
ATOM     26  C   UNL     1      46.093 130.000  14.575  1.00  0.00     0.105 C 
ATOM     27  C   UNL     1      47.483 129.706  15.024  1.00  0.00    -0.007 C 
ATOM     28  C   UNL     1      46.278 130.800  13.275  1.00  0.00     0.033 C 
ATOM     29  C   UNL     1      48.391 130.154  14.176  1.00  0.00    -0.029 C 
ATOM     30  C   UNL     1      47.786 130.836  13.005  1.00  0.00     0.029 C 
ENDBRANCH  23  26
ENDBRANCH   4  22
TORSDOF 5
ENDMDL
MODEL 5
REMARK VINA RESULT:      -2.3      3.977      7.246
REMARK SMILES CC(=O)c1c(-c2cccc3ncoc23)cc(C(=O)N[C@@H]2C=CCC2)c(F)c1O
REMARK SMILES IDX 4 1 5 2 15 3 16 4 25 5 26 6 27 7 2 8 1 9 3 10 6 11 7 12
REMARK SMILES IDX 14 13 8 14 13 15 10 16 9 17 12 18 11 19 28 20 17 22 19 23
REMARK SMILES IDX 18 24 20 26 21 27 24 28 22 29 23 30
REMARK H PARENT 28 21 19 25
ROOT
ATOM      1  C   UNL     1      44.656 131.864  22.457  1.00  0.00     0.070 A 
ATOM      2  C   UNL     1      43.897 130.780  21.952  1.00  0.00     0.001 A 
ATOM      3  C   UNL     1      43.764 130.614  20.565  1.00  0.00     0.026 A 
ATOM      4  C   UNL     1      44.406 131.477  19.667  1.00  0.00     0.080 A 
ATOM      5  C   UNL     1      45.171 132.544  20.170  1.00  0.00     0.178 A 
ATOM      6  F   UNL     1      45.744 133.436  19.321  1.00  0.00    -0.202 F 
ATOM      7  C   UNL     1      45.296 132.738  21.555  1.00  0.00     0.163 A 
ENDROOT
BRANCH   1   8
ATOM      8  C   UNL     1      44.759 132.135  23.912  1.00  0.00     0.164 C 
ATOM      9  C   UNL     1      46.078 132.116  24.623  1.00  0.00     0.093 C 
ATOM     10  O   UNL     1      43.714 132.372  24.575  1.00  0.00    -0.294 OA
ENDBRANCH   1   8
BRANCH   2  11
ATOM     11  C   UNL     1      43.276 129.769  22.838  1.00  0.00     0.028 A 
ATOM     12  C   UNL     1      41.961 129.933  23.328  1.00  0.00     0.013 A 
ATOM     13  C   UNL     1      43.949 128.599  23.202  1.00  0.00     0.162 A 
ATOM     14  C   UNL     1      41.380 128.955  24.168  1.00  0.00     0.003 A 
ATOM     15  O   UNL     1      45.147 128.198  22.870  1.00  0.00    -0.443 OA
ATOM     16  C   UNL     1      43.388 127.659  24.011  1.00  0.00     0.110 A 
ATOM     17  C   UNL     1      42.100 127.798  24.521  1.00  0.00     0.032 A 
ATOM     18  C   UNL     1      45.320 127.033  23.470  1.00  0.00     0.309 A 
ATOM     19  N   UNL     1      44.244 126.641  24.202  1.00  0.00    -0.217 NA
ENDBRANCH   2  11
BRANCH   7  20
ATOM     20  O   UNL     1      46.037 133.816  22.042  1.00  0.00    -0.504 OA
ATOM     21  H   UNL     1      45.618 134.552  22.600  1.00  0.00     0.293 HD
ENDBRANCH   7  20
BRANCH   4  22
ATOM     22  C   UNL     1      44.254 131.258  18.211  1.00  0.00     0.254 C 
ATOM     23  N   UNL     1      45.267 130.570  17.459  1.00  0.00    -0.346 N 
ATOM     24  O   UNL     1      43.208 131.657  17.632  1.00  0.00    -0.269 OA
ATOM     25  H   UNL     1      46.014 130.052  17.975  1.00  0.00     0.164 HD
BRANCH  23  26
ATOM     26  C   UNL     1      45.229 130.508  15.995  1.00  0.00     0.105 C 
ATOM     27  C   UNL     1      46.183 129.485  15.481  1.00  0.00    -0.007 C 
ATOM     28  C   UNL     1      45.713 131.825  15.366  1.00  0.00     0.033 C 
ATOM     29  C   UNL     1      47.067 129.998  14.644  1.00  0.00    -0.029 C 
ATOM     30  C   UNL     1      46.878 131.456  14.442  1.00  0.00     0.029 C 
ENDBRANCH  23  26
ENDBRANCH   4  22
TORSDOF 5
ENDMDL
MODEL 6
REMARK VINA RESULT:      -1.9      1.431      2.100
REMARK SMILES CC(=O)c1c(-c2cccc3ncoc23)cc(C(=O)N[C@@H]2C=CCC2)c(F)c1O
REMARK SMILES IDX 4 1 5 2 15 3 16 4 25 5 26 6 27 7 2 8 1 9 3 10 6 11 7 12
REMARK SMILES IDX 14 13 8 14 13 15 10 16 9 17 12 18 11 19 28 20 17 22 19 23
REMARK SMILES IDX 18 24 20 26 21 27 24 28 22 29 23 30
REMARK H PARENT 28 21 19 25
ROOT
ATOM      1  C   UNL     1      44.032 127.013  23.420  1.00  0.00     0.070 A 
ATOM      2  C   UNL     1      45.170 127.579  22.793  1.00  0.00     0.001 A 
ATOM      3  C   UNL     1      46.351 126.828  22.696  1.00  0.00     0.026 A 
ATOM      4  C   UNL     1      46.414 125.510  23.169  1.00  0.00     0.080 A 
ATOM      5  C   UNL     1      45.279 124.947  23.777  1.00  0.00     0.178 A 
ATOM      6  F   UNL     1      45.336 123.697  24.307  1.00  0.00    -0.202 F 
ATOM      7  C   UNL     1      44.095 125.690  23.903  1.00  0.00     0.163 A 
ENDROOT
BRANCH   1   8
ATOM      8  C   UNL     1      42.785 127.792  23.625  1.00  0.00     0.164 C 
ATOM      9  C   UNL     1      41.642 127.710  22.660  1.00  0.00     0.093 C 
ATOM     10  O   UNL     1      42.685 128.554  24.623  1.00  0.00    -0.294 OA
ENDBRANCH   1   8
BRANCH   2  11
ATOM     11  C   UNL     1      45.146 128.925  22.179  1.00  0.00     0.028 A 
ATOM     12  C   UNL     1      45.457 129.114  20.813  1.00  0.00     0.013 A 
ATOM     13  C   UNL     1      44.785 130.061  22.911  1.00  0.00     0.162 A 
ATOM     14  C   UNL     1      45.424 130.406  20.241  1.00  0.00     0.003 A 
ATOM     15  O   UNL     1      44.433 130.157  24.165  1.00  0.00    -0.443 OA
ATOM     16  C   UNL     1      44.753 131.304  22.358  1.00  0.00     0.110 A 
ATOM     17  C   UNL     1      45.069 131.523  21.020  1.00  0.00     0.032 A 
ATOM     18  C   UNL     1      44.193 131.439  24.378  1.00  0.00     0.309 A 
ATOM     19  N   UNL     1      44.377 132.210  23.275  1.00  0.00    -0.217 NA
ENDBRANCH   2  11
BRANCH   7  20
ATOM     20  O   UNL     1      42.983 125.128  24.532  1.00  0.00    -0.504 OA
ATOM     21  H   UNL     1      42.811 124.129  24.534  1.00  0.00     0.293 HD
ENDBRANCH   7  20
BRANCH   4  22
ATOM     22  C   UNL     1      47.675 124.747  23.032  1.00  0.00     0.254 C 
ATOM     23  N   UNL     1      48.928 125.422  22.843  1.00  0.00    -0.346 N 
ATOM     24  O   UNL     1      47.647 123.489  23.111  1.00  0.00    -0.269 OA
ATOM     25  H   UNL     1      48.974 126.455  23.002  1.00  0.00     0.164 HD
BRANCH  23  26
ATOM     26  C   UNL     1      50.155 124.690  22.517  1.00  0.00     0.105 C 
ATOM     27  C   UNL     1      50.950 124.409  23.746  1.00  0.00    -0.007 C 
ATOM     28  C   UNL     1      51.097 125.535  21.644  1.00  0.00     0.033 C 
ATOM     29  C   UNL     1      52.173 124.904  23.678  1.00  0.00    -0.029 C 
ATOM     30  C   UNL     1      52.429 125.611  22.398  1.00  0.00     0.029 C 
ENDBRANCH  23  26
ENDBRANCH   4  22
TORSDOF 5
ENDMDL
MODEL 7
REMARK VINA RESULT:      -1.4      4.530      7.393
REMARK SMILES CC(=O)c1c(-c2cccc3ncoc23)cc(C(=O)N[C@@H]2C=CCC2)c(F)c1O
REMARK SMILES IDX 4 1 5 2 15 3 16 4 25 5 26 6 27 7 2 8 1 9 3 10 6 11 7 12
REMARK SMILES IDX 14 13 8 14 13 15 10 16 9 17 12 18 11 19 28 20 17 22 19 23
REMARK SMILES IDX 18 24 20 26 21 27 24 28 22 29 23 30
REMARK H PARENT 28 21 19 25
ROOT
ATOM      1  C   UNL     1      45.007 131.326  20.839  1.00  0.00     0.070 A 
ATOM      2  C   UNL     1      45.051 129.935  20.572  1.00  0.00     0.001 A 
ATOM      3  C   UNL     1      45.166 129.488  19.247  1.00  0.00     0.026 A 
ATOM      4  C   UNL     1      45.283 130.393  18.184  1.00  0.00     0.080 A 
ATOM      5  C   UNL     1      45.252 131.772  18.453  1.00  0.00     0.178 A 
ATOM      6  F   UNL     1      45.292 132.670  17.434  1.00  0.00    -0.202 F 
ATOM      7  C   UNL     1      45.116 132.238  19.770  1.00  0.00     0.163 A 
ENDROOT
BRANCH   1   8
ATOM      8  C   UNL     1      44.801 131.852  22.212  1.00  0.00     0.164 C 
ATOM      9  C   UNL     1      43.432 132.175  22.730  1.00  0.00     0.093 C 
ATOM     10  O   UNL     1      45.796 132.049  22.958  1.00  0.00    -0.294 OA
ENDBRANCH   1   8
BRANCH   2  11
ATOM     11  C   UNL     1      45.038 128.922  21.652  1.00  0.00     0.028 A 
ATOM     12  C   UNL     1      46.117 128.028  21.832  1.00  0.00     0.013 A 
ATOM     13  C   UNL     1      43.976 128.827  22.557  1.00  0.00     0.162 A 
ATOM     14  C   UNL     1      46.092 127.071  22.872  1.00  0.00     0.003 A 
ATOM     15  O   UNL     1      42.884 129.540  22.626  1.00  0.00    -0.443 OA
ATOM     16  C   UNL     1      43.954 127.905  23.558  1.00  0.00     0.110 A 
ATOM     17  C   UNL     1      44.995 127.001  23.752  1.00  0.00     0.032 A 
ATOM     18  C   UNL     1      42.201 129.060  23.650  1.00  0.00     0.309 A 
ATOM     19  N   UNL     1      42.826 128.029  24.277  1.00  0.00    -0.217 NA
ENDBRANCH   2  11
BRANCH   7  20
ATOM     20  O   UNL     1      45.061 133.610  20.021  1.00  0.00    -0.504 OA
ATOM     21  H   UNL     1      44.210 134.071  20.323  1.00  0.00     0.293 HD
ENDBRANCH   7  20
BRANCH   4  22
ATOM     22  C   UNL     1      45.419 129.880  16.802  1.00  0.00     0.254 C 
ATOM     23  N   UNL     1      46.704 129.812  16.164  1.00  0.00    -0.346 N 
ATOM     24  O   UNL     1      44.395 129.473  16.190  1.00  0.00    -0.269 OA
ATOM     25  H   UNL     1      47.563 129.938  16.746  1.00  0.00     0.164 HD
BRANCH  23  26
ATOM     26  C   UNL     1      46.840 129.489  14.741  1.00  0.00     0.105 C 
ATOM     27  C   UNL     1      48.273 129.472  14.334  1.00  0.00    -0.007 C 
ATOM     28  C   UNL     1      46.211 130.579  13.857  1.00  0.00     0.033 C 
ATOM     29  C   UNL     1      48.528 130.317  13.351  1.00  0.00    -0.029 C 
ATOM     30  C   UNL     1      47.320 131.062  12.917  1.00  0.00     0.029 C 
ENDBRANCH  23  26
ENDBRANCH   4  22
TORSDOF 5
ENDMDL
MODEL 8
REMARK VINA RESULT:      -1.2      4.306      7.235
REMARK SMILES CC(=O)c1c(-c2cccc3ncoc23)cc(C(=O)N[C@@H]2C=CCC2)c(F)c1O
REMARK SMILES IDX 4 1 5 2 15 3 16 4 25 5 26 6 27 7 2 8 1 9 3 10 6 11 7 12
REMARK SMILES IDX 14 13 8 14 13 15 10 16 9 17 12 18 11 19 28 20 17 22 19 23
REMARK SMILES IDX 18 24 20 26 21 27 24 28 22 29 23 30
REMARK H PARENT 28 21 19 25
ROOT
ATOM      1  C   UNL     1      44.969 131.427  21.158  1.00  0.00     0.070 A 
ATOM      2  C   UNL     1      44.875 130.031  20.937  1.00  0.00     0.001 A 
ATOM      3  C   UNL     1      45.026 129.525  19.637  1.00  0.00     0.026 A 
ATOM      4  C   UNL     1      45.314 130.371  18.559  1.00  0.00     0.080 A 
ATOM      5  C   UNL     1      45.421 131.754  18.783  1.00  0.00     0.178 A 
ATOM      6  F   UNL     1      45.628 132.603  17.743  1.00  0.00    -0.202 F 
ATOM      7  C   UNL     1      45.250 132.281  20.073  1.00  0.00     0.163 A 
ENDROOT
BRANCH   1   8
ATOM      8  C   UNL     1      44.733 132.024  22.497  1.00  0.00     0.164 C 
ATOM      9  C   UNL     1      43.356 132.119  23.080  1.00  0.00     0.093 C 
ATOM     10  O   UNL     1      45.706 132.478  23.156  1.00  0.00    -0.294 OA
ENDBRANCH   1   8
BRANCH   2  11
ATOM     11  C   UNL     1      44.676 129.067  22.043  1.00  0.00     0.028 A 
ATOM     12  C   UNL     1      43.681 129.275  23.026  1.00  0.00     0.013 A 
ATOM     13  C   UNL     1      45.437 127.899  22.146  1.00  0.00     0.162 A 
ATOM     14  C   UNL     1      43.500 128.342  24.072  1.00  0.00     0.003 A 
ATOM     15  O   UNL     1      46.390 127.464  21.366  1.00  0.00    -0.443 OA
ATOM     16  C   UNL     1      45.261 127.002  23.154  1.00  0.00     0.110 A 
ATOM     17  C   UNL     1      44.300 127.185  24.144  1.00  0.00     0.032 A 
ATOM     18  C   UNL     1      46.794 126.319  21.889  1.00  0.00     0.309 A 
ATOM     19  N   UNL     1      46.118 125.976  23.016  1.00  0.00    -0.217 NA
ENDBRANCH   2  11
BRANCH   7  20
ATOM     20  O   UNL     1      45.334 133.660  20.279  1.00  0.00    -0.504 OA
ATOM     21  H   UNL     1      44.683 134.310  19.854  1.00  0.00     0.293 HD
ENDBRANCH   7  20
BRANCH   4  22
ATOM     22  C   UNL     1      45.483 129.795  17.206  1.00  0.00     0.254 C 
ATOM     23  N   UNL     1      46.435 130.347  16.282  1.00  0.00    -0.346 N 
ATOM     24  O   UNL     1      44.800 128.789  16.873  1.00  0.00    -0.269 OA
ATOM     25  H   UNL     1      47.145 131.027  16.637  1.00  0.00     0.164 HD
BRANCH  23  26
ATOM     26  C   UNL     1      46.486 129.918  14.882  1.00  0.00     0.105 C 
ATOM     27  C   UNL     1      47.810 129.317  14.557  1.00  0.00    -0.007 C 
ATOM     28  C   UNL     1      46.371 131.117  13.925  1.00  0.00     0.033 C 
ATOM     29  C   UNL     1      48.414 129.939  13.560  1.00  0.00    -0.029 C 
ATOM     30  C   UNL     1      47.616 131.074  13.032  1.00  0.00     0.029 C 
ENDBRANCH  23  26
ENDBRANCH   4  22
TORSDOF 5
ENDMDL


