REMARK SMILES O=C=Nc1c(C(=O)[N-]Cc2ccc[nH]2)ccc2cc[nH]c12
REMARK SMILES IDX 6 1 7 2 5 3 15 4 16 5 4 6 17 7 21 8 18 9 20 10 19 11 3 13
REMARK SMILES IDX 2 14 1 15 8 16 9 17 10 18 11 19 14 20 12 21 13 22
REMARK H PARENT 20 12 14 23
ROOT
ATOM      1  C   UNL     1       0.731   0.564  -0.575  1.00  0.00     0.085 C 
ATOM      2  O   UNL     1       1.819   1.198  -0.491  1.00  0.00    -0.315 OA
ENDROOT
BRANCH   1   3
ATOM      3  C   UNL     1      -0.554   1.307  -0.607  1.00  0.00     0.028 A 
ATOM      4  C   UNL     1      -0.544   2.663  -1.030  1.00  0.00     0.013 A 
ATOM      5  C   UNL     1      -1.726   3.413  -1.090  1.00  0.00     0.011 A 
ATOM      6  C   UNL     1      -1.782   0.703  -0.203  1.00  0.00     0.110 A 
ATOM      7  C   UNL     1      -2.911   2.790  -0.729  1.00  0.00     0.002 A 
ATOM      8  C   UNL     1      -2.956   1.486  -0.306  1.00  0.00     0.073 A 
ATOM      9  C   UNL     1      -4.199   3.276  -0.750  1.00  0.00     0.028 A 
ATOM     10  N   UNL     1      -4.235   1.124  -0.079  1.00  0.00    -0.359 N 
ATOM     11  C   UNL     1      -4.992   2.213  -0.343  1.00  0.00     0.083 A 
ATOM     12  H   UNL     1      -4.609   0.191   0.198  1.00  0.00     0.166 HD
BRANCH   6  13
ATOM     13  N   UNL     1      -1.780  -0.639   0.315  1.00  0.00    -0.165 NA
BRANCH  13  14
ATOM     14  C   UNL     1      -2.635  -1.107   1.132  1.00  0.00     0.240 C 
ATOM     15  O   UNL     1      -3.464  -1.565   1.928  1.00  0.00    -0.211 OA
ENDBRANCH  13  14
ENDBRANCH   6  13
ENDBRANCH   1   3
BRANCH   1  16
ATOM     16  N   UNL     1       0.752  -0.865  -0.668  1.00  0.00    -0.644 NA
BRANCH  16  17
ATOM     17  C   UNL     1       1.963  -1.666  -0.542  1.00  0.00    -0.062 C 
BRANCH  17  18
ATOM     18  C   UNL     1       2.444  -1.649   0.876  1.00  0.00    -0.003 A 
ATOM     19  C   UNL     1       1.833  -2.292   1.935  1.00  0.00     0.021 A 
ATOM     20  N   UNL     1       3.505  -0.942   1.305  1.00  0.00    -0.366 N 
ATOM     21  C   UNL     1       2.568  -1.965   3.057  1.00  0.00     0.019 A 
ATOM     22  C   UNL     1       3.587  -1.134   2.634  1.00  0.00     0.082 A 
ATOM     23  H   UNL     1       4.139  -0.348   0.726  1.00  0.00     0.166 HD
ENDBRANCH  17  18
ENDBRANCH  16  17
ENDBRANCH   1  16
TORSDOF 6


