MODEL 1
REMARK VINA RESULT:      -8.9      0.000      0.000
REMARK SMILES Cc1ccc(N[C@H]2CC[C@H]3[N+](C)=NN[C@@]3(N)[C@@H]2O)cc1
REMARK SMILES IDX 7 1 8 2 9 3 10 4 11 5 12 6 13 7 14 8 15 9 17 10 6 12 5 14
REMARK SMILES IDX 2 15 3 16 20 17 4 18 19 19 1 20 18 21 16 23
REMARK H PARENT 14 11 6 13 18 22 16 24 16 25
ROOT
ATOM      1  C   UNL     1      44.069 131.619  18.649  1.00  0.00     0.114 C 
ATOM      2  C   UNL     1      42.754 131.709  19.432  1.00  0.00     0.032 C 
ATOM      3  C   UNL     1      43.005 132.338  20.795  1.00  0.00     0.061 C 
ATOM      4  C   UNL     1      44.071 131.598  21.634  1.00  0.00     0.266 C 
ATOM      5  N   UNL     1      43.564 130.437  22.368  1.00  0.00    -0.163 N 
ATOM      6  C   UNL     1      42.397 130.418  23.246  1.00  0.00     0.319 C 
ATOM      7  N   UNL     1      44.404 129.488  22.371  1.00  0.00     0.079 NA
ATOM      8  N   UNL     1      45.518 129.776  21.586  1.00  0.00    -0.156 N 
ATOM      9  C   UNL     1      45.290 131.012  20.851  1.00  0.00     0.244 C 
ATOM     10  C   UNL     1      44.998 130.623  19.361  1.00  0.00     0.206 C 
ATOM     11  H   UNL     1      46.287 129.092  21.408  1.00  0.00     0.337 HD
ENDROOT
BRANCH   1  12
ATOM     12  N   UNL     1      43.797 131.179  17.273  1.00  0.00    -0.379 N 
ATOM     13  H   UNL     1      42.806 130.970  17.009  1.00  0.00     0.160 HD
BRANCH  12  14
ATOM     14  C   UNL     1      44.804 131.010  16.253  1.00  0.00     0.034 A 
ATOM     15  C   UNL     1      46.794 130.758  14.268  1.00  0.00    -0.051 A 
ATOM     16  C   UNL     1      46.038 129.644  14.658  1.00  0.00     0.005 A 
ATOM     17  C   UNL     1      46.533 132.004  14.856  1.00  0.00     0.005 A 
ATOM     18  C   UNL     1      45.055 129.765  15.644  1.00  0.00     0.026 A 
ATOM     19  C   UNL     1      45.551 132.126  15.842  1.00  0.00     0.026 A 
ATOM     20  C   UNL     1      47.820 130.634  13.182  1.00  0.00     0.044 C 
ENDBRANCH  12  14
ENDBRANCH   1  12
BRANCH  10  21
ATOM     21  O   UNL     1      46.194 130.506  18.631  1.00  0.00    -0.384 OA
ATOM     22  H   UNL     1      46.293 131.341  18.104  1.00  0.00     0.211 HD
ENDBRANCH  10  21
BRANCH   9  23
ATOM     23  N   UNL     1      46.449 131.902  20.986  1.00  0.00    -0.283 NA
ATOM     24  H   UNL     1      46.344 132.702  20.322  1.00  0.00     0.123 HD
ATOM     25  H   UNL     1      47.323 131.387  20.733  1.00  0.00     0.123 HD
ENDBRANCH   9  23
TORSDOF 4
ENDMDL
MODEL 2
REMARK VINA RESULT:      -8.9      0.194      1.098
REMARK SMILES Cc1ccc(N[C@H]2CC[C@H]3[N+](C)=NN[C@@]3(N)[C@@H]2O)cc1
REMARK SMILES IDX 7 1 8 2 9 3 10 4 11 5 12 6 13 7 14 8 15 9 17 10 6 12 5 14
REMARK SMILES IDX 2 15 3 16 20 17 4 18 19 19 1 20 18 21 16 23
REMARK H PARENT 14 11 6 13 18 22 16 24 16 25
ROOT
ATOM      1  C   UNL     1      44.006 131.592  18.614  1.00  0.00     0.114 C 
ATOM      2  C   UNL     1      42.666 131.721  19.347  1.00  0.00     0.032 C 
ATOM      3  C   UNL     1      42.869 132.438  20.673  1.00  0.00     0.061 C 
ATOM      4  C   UNL     1      43.912 131.762  21.592  1.00  0.00     0.266 C 
ATOM      5  N   UNL     1      43.389 130.647  22.383  1.00  0.00    -0.163 N 
ATOM      6  C   UNL     1      42.194 130.675  23.222  1.00  0.00     0.319 C 
ATOM      7  N   UNL     1      44.234 129.706  22.473  1.00  0.00     0.079 NA
ATOM      8  N   UNL     1      45.371 129.952  21.707  1.00  0.00    -0.156 N 
ATOM      9  C   UNL     1      45.159 131.136  20.887  1.00  0.00     0.244 C 
ATOM     10  C   UNL     1      44.917 130.651  19.417  1.00  0.00     0.206 C 
ATOM     11  H   UNL     1      46.148 129.264  21.598  1.00  0.00     0.337 HD
ENDROOT
BRANCH   1  12
ATOM     12  N   UNL     1      43.781 131.062  17.260  1.00  0.00    -0.379 N 
ATOM     13  H   UNL     1      42.834 130.677  17.034  1.00  0.00     0.160 HD
BRANCH  12  14
ATOM     14  C   UNL     1      44.776 131.032  16.217  1.00  0.00     0.034 A 
ATOM     15  C   UNL     1      46.702 130.899  14.158  1.00  0.00    -0.051 A 
ATOM     16  C   UNL     1      46.517 132.088  14.877  1.00  0.00     0.005 A 
ATOM     17  C   UNL     1      45.940 129.770  14.490  1.00  0.00     0.005 A 
ATOM     18  C   UNL     1      45.560 132.158  15.894  1.00  0.00     0.026 A 
ATOM     19  C   UNL     1      44.983 129.839  15.506  1.00  0.00     0.026 A 
ATOM     20  C   UNL     1      47.757 130.815  13.094  1.00  0.00     0.044 C 
ENDBRANCH  12  14
ENDBRANCH   1  12
BRANCH  10  21
ATOM     21  O   UNL     1      46.136 130.496  18.734  1.00  0.00    -0.384 OA
ATOM     22  H   UNL     1      46.710 131.265  18.989  1.00  0.00     0.211 HD
ENDBRANCH  10  21
BRANCH   9  23
ATOM     23  N   UNL     1      46.309 132.042  21.002  1.00  0.00    -0.283 NA
ATOM     24  H   UNL     1      46.576 132.128  22.009  1.00  0.00     0.123 HD
ATOM     25  H   UNL     1      46.045 132.994  20.658  1.00  0.00     0.123 HD
ENDBRANCH   9  23
TORSDOF 4
ENDMDL
MODEL 3
REMARK VINA RESULT:      -8.4      2.357      6.841
REMARK SMILES Cc1ccc(N[C@H]2CC[C@H]3[N+](C)=NN[C@@]3(N)[C@@H]2O)cc1
REMARK SMILES IDX 7 1 8 2 9 3 10 4 11 5 12 6 13 7 14 8 15 9 17 10 6 12 5 14
REMARK SMILES IDX 2 15 3 16 20 17 4 18 19 19 1 20 18 21 16 23
REMARK H PARENT 14 11 6 13 18 22 16 24 16 25
ROOT
ATOM      1  C   UNL     1      45.240 131.374  16.864  1.00  0.00     0.114 C 
ATOM      2  C   UNL     1      45.513 132.329  15.697  1.00  0.00     0.032 C 
ATOM      3  C   UNL     1      45.173 131.646  14.380  1.00  0.00     0.061 C 
ATOM      4  C   UNL     1      45.922 130.312  14.160  1.00  0.00     0.266 C 
ATOM      5  N   UNL     1      47.276 130.459  13.624  1.00  0.00    -0.163 N 
ATOM      6  C   UNL     1      47.655 131.236  12.448  1.00  0.00     0.319 C 
ATOM      7  N   UNL     1      48.073 129.621  14.144  1.00  0.00     0.079 NA
ATOM      8  N   UNL     1      47.462 128.876  15.150  1.00  0.00    -0.156 N 
ATOM      9  C   UNL     1      46.140 129.419  15.424  1.00  0.00     0.244 C 
ATOM     10  C   UNL     1      46.226 130.199  16.781  1.00  0.00     0.206 C 
ATOM     11  H   UNL     1      47.973 128.184  15.741  1.00  0.00     0.337 HD
ENDROOT
BRANCH   1  12
ATOM     12  N   UNL     1      45.398 132.092  18.138  1.00  0.00    -0.379 N 
ATOM     13  H   UNL     1      46.045 132.914  18.163  1.00  0.00     0.160 HD
BRANCH  12  14
ATOM     14  C   UNL     1      44.722 131.742  19.364  1.00  0.00     0.034 A 
ATOM     15  C   UNL     1      43.472 131.035  21.793  1.00  0.00    -0.051 A 
ATOM     16  C   UNL     1      42.726 131.609  20.755  1.00  0.00     0.005 A 
ATOM     17  C   UNL     1      44.840 130.792  21.603  1.00  0.00     0.005 A 
ATOM     18  C   UNL     1      43.344 131.965  19.552  1.00  0.00     0.026 A 
ATOM     19  C   UNL     1      45.458 131.147  20.402  1.00  0.00     0.026 A 
ATOM     20  C   UNL     1      42.799 130.618  23.067  1.00  0.00     0.044 C 
ENDBRANCH  12  14
ENDBRANCH   1  12
BRANCH  10  21
ATOM     21  O   UNL     1      46.007 129.335  17.869  1.00  0.00    -0.384 OA
ATOM     22  H   UNL     1      46.251 128.422  17.566  1.00  0.00     0.211 HD
ENDBRANCH  10  21
BRANCH   9  23
ATOM     23  N   UNL     1      45.146 128.339  15.455  1.00  0.00    -0.283 NA
ATOM     24  H   UNL     1      44.623 128.383  16.359  1.00  0.00     0.123 HD
ATOM     25  H   UNL     1      45.628 127.413  15.407  1.00  0.00     0.123 HD
ENDBRANCH   9  23
TORSDOF 4
ENDMDL
MODEL 4
REMARK VINA RESULT:      -8.3      2.340      6.815
REMARK SMILES Cc1ccc(N[C@H]2CC[C@H]3[N+](C)=NN[C@@]3(N)[C@@H]2O)cc1
REMARK SMILES IDX 7 1 8 2 9 3 10 4 11 5 12 6 13 7 14 8 15 9 17 10 6 12 5 14
REMARK SMILES IDX 2 15 3 16 20 17 4 18 19 19 1 20 18 21 16 23
REMARK H PARENT 14 11 6 13 18 22 16 24 16 25
ROOT
ATOM      1  C   UNL     1      45.189 131.407  16.866  1.00  0.00     0.114 C 
ATOM      2  C   UNL     1      45.459 132.351  15.689  1.00  0.00     0.032 C 
ATOM      3  C   UNL     1      45.136 131.648  14.378  1.00  0.00     0.061 C 
ATOM      4  C   UNL     1      45.902 130.320  14.180  1.00  0.00     0.266 C 
ATOM      5  N   UNL     1      47.258 130.477  13.651  1.00  0.00    -0.163 N 
ATOM      6  C   UNL     1      47.635 131.244  12.468  1.00  0.00     0.319 C 
ATOM      7  N   UNL     1      48.062 129.655  14.187  1.00  0.00     0.079 NA
ATOM      8  N   UNL     1      47.453 128.916  15.198  1.00  0.00    -0.156 N 
ATOM      9  C   UNL     1      46.122 129.446  15.457  1.00  0.00     0.244 C 
ATOM     10  C   UNL     1      46.190 130.243  16.804  1.00  0.00     0.206 C 
ATOM     11  H   UNL     1      47.968 128.237  15.801  1.00  0.00     0.337 HD
ENDROOT
BRANCH   1  12
ATOM     12  N   UNL     1      45.330 132.143  18.132  1.00  0.00    -0.379 N 
ATOM     13  H   UNL     1      45.910 133.014  18.133  1.00  0.00     0.160 HD
BRANCH  12  14
ATOM     14  C   UNL     1      44.724 131.747  19.380  1.00  0.00     0.034 A 
ATOM     15  C   UNL     1      43.469 130.995  21.793  1.00  0.00    -0.051 A 
ATOM     16  C   UNL     1      44.841 130.779  21.613  1.00  0.00     0.005 A 
ATOM     17  C   UNL     1      42.731 131.612  20.773  1.00  0.00     0.005 A 
ATOM     18  C   UNL     1      45.465 131.146  20.417  1.00  0.00     0.026 A 
ATOM     19  C   UNL     1      43.353 131.979  19.577  1.00  0.00     0.026 A 
ATOM     20  C   UNL     1      42.810 130.637  23.093  1.00  0.00     0.044 C 
ENDBRANCH  12  14
ENDBRANCH   1  12
BRANCH  10  21
ATOM     21  O   UNL     1      45.974 129.391  17.901  1.00  0.00    -0.384 OA
ATOM     22  H   UNL     1      46.732 128.750  17.922  1.00  0.00     0.211 HD
ENDBRANCH  10  21
BRANCH   9  23
ATOM     23  N   UNL     1      45.142 128.354  15.494  1.00  0.00    -0.283 NA
ATOM     24  H   UNL     1      44.811 128.160  14.521  1.00  0.00     0.123 HD
ATOM     25  H   UNL     1      44.313 128.641  16.063  1.00  0.00     0.123 HD
ENDBRANCH   9  23
TORSDOF 4
ENDMDL
MODEL 5
REMARK VINA RESULT:      -6.4      1.841      2.772
REMARK SMILES Cc1ccc(N[C@H]2CC[C@H]3[N+](C)=NN[C@@]3(N)[C@@H]2O)cc1
REMARK SMILES IDX 7 1 8 2 9 3 10 4 11 5 12 6 13 7 14 8 15 9 17 10 6 12 5 14
REMARK SMILES IDX 2 15 3 16 20 17 4 18 19 19 1 20 18 21 16 23
REMARK H PARENT 14 11 6 13 18 22 16 24 16 25
ROOT
ATOM      1  C   UNL     1      44.460 131.340  19.660  1.00  0.00     0.114 C 
ATOM      2  C   UNL     1      45.613 131.548  20.648  1.00  0.00     0.032 C 
ATOM      3  C   UNL     1      45.439 130.628  21.847  1.00  0.00     0.061 C 
ATOM      4  C   UNL     1      44.084 130.800  22.571  1.00  0.00     0.266 C 
ATOM      5  N   UNL     1      44.047 131.903  23.532  1.00  0.00    -0.163 N 
ATOM      6  C   UNL     1      45.013 132.144  24.600  1.00  0.00     0.319 C 
ATOM      7  N   UNL     1      42.929 132.501  23.508  1.00  0.00     0.079 NA
ATOM      8  N   UNL     1      42.098 132.010  22.504  1.00  0.00    -0.156 N 
ATOM      9  C   UNL     1      42.842 131.082  21.665  1.00  0.00     0.244 C 
ATOM     10  C   UNL     1      43.156 131.818  20.317  1.00  0.00     0.206 C 
ATOM     11  H   UNL     1      41.164 132.420  22.282  1.00  0.00     0.337 HD
ENDROOT
BRANCH   1  12
ATOM     12  N   UNL     1      44.724 132.096  18.426  1.00  0.00    -0.379 N 
ATOM     13  H   UNL     1      44.411 133.094  18.384  1.00  0.00     0.160 HD
BRANCH  12  14
ATOM     14  C   UNL     1      45.383 131.557  17.261  1.00  0.00     0.034 A 
ATOM     15  C   UNL     1      46.680 130.433  15.021  1.00  0.00    -0.051 A 
ATOM     16  C   UNL     1      46.204 131.750  14.975  1.00  0.00     0.005 A 
ATOM     17  C   UNL     1      46.529 129.689  16.200  1.00  0.00     0.005 A 
ATOM     18  C   UNL     1      45.556 132.308  16.082  1.00  0.00     0.026 A 
ATOM     19  C   UNL     1      45.882 130.245  17.306  1.00  0.00     0.026 A 
ATOM     20  C   UNL     1      47.409 129.850  13.847  1.00  0.00     0.044 C 
ENDBRANCH  12  14
ENDBRANCH   1  12
BRANCH  10  21
ATOM     21  O   UNL     1      42.097 131.666  19.405  1.00  0.00    -0.384 OA
ATOM     22  H   UNL     1      42.498 131.382  18.542  1.00  0.00     0.211 HD
ENDBRANCH  10  21
BRANCH   9  23
ATOM     23  N   UNL     1      42.071 129.848  21.469  1.00  0.00    -0.283 NA
ATOM     24  H   UNL     1      42.004 129.341  22.381  1.00  0.00     0.123 HD
ATOM     25  H   UNL     1      42.566 129.225  20.791  1.00  0.00     0.123 HD
ENDBRANCH   9  23
TORSDOF 4
ENDMDL
MODEL 6
REMARK VINA RESULT:      -6.4      1.823      2.612
REMARK SMILES Cc1ccc(N[C@H]2CC[C@H]3[N+](C)=NN[C@@]3(N)[C@@H]2O)cc1
REMARK SMILES IDX 7 1 8 2 9 3 10 4 11 5 12 6 13 7 14 8 15 9 17 10 6 12 5 14
REMARK SMILES IDX 2 15 3 16 20 17 4 18 19 19 1 20 18 21 16 23
REMARK H PARENT 14 11 6 13 18 22 16 24 16 25
ROOT
ATOM      1  C   UNL     1      44.464 131.284  19.723  1.00  0.00     0.114 C 
ATOM      2  C   UNL     1      45.632 131.551  20.680  1.00  0.00     0.032 C 
ATOM      3  C   UNL     1      45.506 130.665  21.910  1.00  0.00     0.061 C 
ATOM      4  C   UNL     1      44.162 130.826  22.657  1.00  0.00     0.266 C 
ATOM      5  N   UNL     1      44.117 131.957  23.585  1.00  0.00    -0.163 N 
ATOM      6  C   UNL     1      45.098 132.256  24.624  1.00  0.00     0.319 C 
ATOM      7  N   UNL     1      42.984 132.526  23.566  1.00  0.00     0.079 NA
ATOM      8  N   UNL     1      42.145 131.983  22.596  1.00  0.00    -0.156 N 
ATOM      9  C   UNL     1      42.895 131.049  21.770  1.00  0.00     0.244 C 
ATOM     10  C   UNL     1      43.162 131.749  20.394  1.00  0.00     0.206 C 
ATOM     11  H   UNL     1      41.196 132.363  22.381  1.00  0.00     0.337 HD
ENDROOT
BRANCH   1  12
ATOM     12  N   UNL     1      44.682 132.007  18.461  1.00  0.00    -0.379 N 
ATOM     13  H   UNL     1      44.319 132.985  18.385  1.00  0.00     0.160 HD
BRANCH  12  14
ATOM     14  C   UNL     1      45.364 131.461  17.313  1.00  0.00     0.034 A 
ATOM     15  C   UNL     1      46.696 130.467  15.032  1.00  0.00    -0.051 A 
ATOM     16  C   UNL     1      46.456 129.631  16.131  1.00  0.00     0.005 A 
ATOM     17  C   UNL     1      46.245 131.794  15.067  1.00  0.00     0.005 A 
ATOM     18  C   UNL     1      45.801 130.123  17.264  1.00  0.00     0.026 A 
ATOM     19  C   UNL     1      45.590 132.286  16.199  1.00  0.00     0.026 A 
ATOM     20  C   UNL     1      47.364 129.927  13.802  1.00  0.00     0.044 C 
ENDBRANCH  12  14
ENDBRANCH   1  12
BRANCH  10  21
ATOM     21  O   UNL     1      42.089 131.542  19.509  1.00  0.00    -0.384 OA
ATOM     22  H   UNL     1      42.340 130.780  18.925  1.00  0.00     0.211 HD
ENDBRANCH  10  21
BRANCH   9  23
ATOM     23  N   UNL     1      42.152 129.790  21.629  1.00  0.00    -0.283 NA
ATOM     24  H   UNL     1      42.252 129.236  22.509  1.00  0.00     0.123 HD
ATOM     25  H   UNL     1      42.556 129.226  20.847  1.00  0.00     0.123 HD
ENDBRANCH   9  23
TORSDOF 4
ENDMDL
MODEL 7
REMARK VINA RESULT:      -6.3      2.067      2.826
REMARK SMILES Cc1ccc(N[C@H]2CC[C@H]3[N+](C)=NN[C@@]3(N)[C@@H]2O)cc1
REMARK SMILES IDX 7 1 8 2 9 3 10 4 11 5 12 6 13 7 14 8 15 9 17 10 6 12 5 14
REMARK SMILES IDX 2 15 3 16 20 17 4 18 19 19 1 20 18 21 16 23
REMARK H PARENT 14 11 6 13 18 22 16 24 16 25
ROOT
ATOM      1  C   UNL     1      44.220 131.517  18.108  1.00  0.00     0.114 C 
ATOM      2  C   UNL     1      45.013 131.414  19.415  1.00  0.00     0.032 C 
ATOM      3  C   UNL     1      44.238 130.581  20.426  1.00  0.00     0.061 C 
ATOM      4  C   UNL     1      42.815 131.115  20.710  1.00  0.00     0.266 C 
ATOM      5  N   UNL     1      42.759 132.193  21.698  1.00  0.00    -0.163 N 
ATOM      6  C   UNL     1      43.364 132.173  23.027  1.00  0.00     0.319 C 
ATOM      7  N   UNL     1      41.899 133.068  21.380  1.00  0.00     0.079 NA
ATOM      8  N   UNL     1      41.332 132.813  20.133  1.00  0.00    -0.156 N 
ATOM      9  C   UNL     1      42.040 131.714  19.492  1.00  0.00     0.244 C 
ATOM     10  C   UNL     1      42.943 132.331  18.369  1.00  0.00     0.206 C 
ATOM     11  H   UNL     1      40.655 133.457  19.669  1.00  0.00     0.337 HD
ENDROOT
BRANCH   1  12
ATOM     12  N   UNL     1      45.045 132.167  17.078  1.00  0.00    -0.379 N 
ATOM     13  H   UNL     1      45.034 133.212  17.026  1.00  0.00     0.160 HD
BRANCH  12  14
ATOM     14  C   UNL     1      45.872 131.464  16.128  1.00  0.00     0.034 A 
ATOM     15  C   UNL     1      47.495 130.156  14.225  1.00  0.00    -0.051 A 
ATOM     16  C   UNL     1      47.060 129.475  15.370  1.00  0.00     0.005 A 
ATOM     17  C   UNL     1      47.094 131.484  14.021  1.00  0.00     0.005 A 
ATOM     18  C   UNL     1      46.260 130.122  16.317  1.00  0.00     0.026 A 
ATOM     19  C   UNL     1      46.294 132.132  14.967  1.00  0.00     0.026 A 
ATOM     20  C   UNL     1      48.320 129.448  13.192  1.00  0.00     0.044 C 
ENDBRANCH  12  14
ENDBRANCH   1  12
BRANCH  10  21
ATOM     21  O   UNL     1      42.226 132.462  17.167  1.00  0.00    -0.384 OA
ATOM     22  H   UNL     1      42.525 131.726  16.571  1.00  0.00     0.211 HD
ENDBRANCH  10  21
BRANCH   9  23
ATOM     23  N   UNL     1      41.083 130.731  18.972  1.00  0.00    -0.283 NA
ATOM     24  H   UNL     1      40.985 130.863  17.940  1.00  0.00     0.123 HD
ATOM     25  H   UNL     1      40.144 130.886  19.405  1.00  0.00     0.123 HD
ENDBRANCH   9  23
TORSDOF 4
ENDMDL
MODEL 8
REMARK VINA RESULT:      -6.2      1.432      1.995
REMARK SMILES Cc1ccc(N[C@H]2CC[C@H]3[N+](C)=NN[C@@]3(N)[C@@H]2O)cc1
REMARK SMILES IDX 7 1 8 2 9 3 10 4 11 5 12 6 13 7 14 8 15 9 17 10 6 12 5 14
REMARK SMILES IDX 2 15 3 16 20 17 4 18 19 19 1 20 18 21 16 23
REMARK H PARENT 14 11 6 13 18 22 16 24 16 25
ROOT
ATOM      1  C   UNL     1      45.468 130.994  18.526  1.00  0.00     0.114 C 
ATOM      2  C   UNL     1      44.189 131.754  18.157  1.00  0.00     0.032 C 
ATOM      3  C   UNL     1      43.989 132.924  19.108  1.00  0.00     0.061 C 
ATOM      4  C   UNL     1      43.949 132.514  20.598  1.00  0.00     0.266 C 
ATOM      5  N   UNL     1      42.644 132.038  21.060  1.00  0.00    -0.163 N 
ATOM      6  C   UNL     1      41.368 132.725  20.884  1.00  0.00     0.319 C 
ATOM      7  N   UNL     1      42.765 131.071  21.872  1.00  0.00     0.079 NA
ATOM      8  N   UNL     1      44.091 130.667  22.007  1.00  0.00    -0.156 N 
ATOM      9  C   UNL     1      44.915 131.362  21.029  1.00  0.00     0.244 C 
ATOM     10  C   UNL     1      45.269 130.335  19.900  1.00  0.00     0.206 C 
ATOM     11  H   UNL     1      44.384 129.843  22.577  1.00  0.00     0.337 HD
ENDROOT
BRANCH   1  12
ATOM     12  N   UNL     1      45.753 129.978  17.502  1.00  0.00    -0.379 N 
ATOM     13  H   UNL     1      45.575 128.975  17.741  1.00  0.00     0.160 HD
BRANCH  12  14
ATOM     14  C   UNL     1      46.266 130.265  16.185  1.00  0.00     0.034 A 
ATOM     15  C   UNL     1      47.289 130.750  13.599  1.00  0.00    -0.051 A 
ATOM     16  C   UNL     1      46.693 131.787  14.330  1.00  0.00     0.005 A 
ATOM     17  C   UNL     1      47.395 129.476  14.176  1.00  0.00     0.005 A 
ATOM     18  C   UNL     1      46.182 131.548  15.609  1.00  0.00     0.026 A 
ATOM     19  C   UNL     1      46.883 129.237  15.454  1.00  0.00     0.026 A 
ATOM     20  C   UNL     1      47.873 131.017  12.244  1.00  0.00     0.044 C 
ENDBRANCH  12  14
ENDBRANCH   1  12
BRANCH  10  21
ATOM     21  O   UNL     1      46.424 129.605  20.232  1.00  0.00    -0.384 OA
ATOM     22  H   UNL     1      46.162 128.954  20.933  1.00  0.00     0.211 HD
ENDBRANCH  10  21
BRANCH   9  23
ATOM     23  N   UNL     1      46.107 131.923  21.678  1.00  0.00    -0.283 NA
ATOM     24  H   UNL     1      45.806 132.578  22.436  1.00  0.00     0.123 HD
ATOM     25  H   UNL     1      46.664 132.470  20.984  1.00  0.00     0.123 HD
ENDBRANCH   9  23
TORSDOF 4
ENDMDL


