REMARK SMILES C=C/C(C)=C(/O)Nc1cccc(N[C@@H]2CCC(=C)[C@H](F)C2)c1[O-]
REMARK SMILES IDX 7 1 5 3 6 4 3 6 4 7 2 8 1 9 8 10 9 11 22 12 10 13 12 14
REMARK SMILES IDX 11 15 23 16 13 17 14 19 15 20 21 21 16 22 19 23 17 24 20 25
REMARK SMILES IDX 18 26
REMARK H PARENT 7 2 6 5 13 18
ROOT
ATOM      1  N   UNL     1      -0.143   3.495   0.138  1.00  0.00    -0.327 N 
ATOM      2  H   UNL     1       0.571   4.249   0.015  1.00  0.00     0.170 HD
ENDROOT
BRANCH   1   3
ATOM      3  C   UNL     1      -1.491   3.755  -0.294  1.00  0.00     0.191 C 
BRANCH   3   4
ATOM      4  O   UNL     1      -2.557   3.346   0.512  1.00  0.00    -0.494 OA
ATOM      5  H   UNL     1      -2.405   2.905   1.411  1.00  0.00     0.295 HD
ENDBRANCH   3   4
BRANCH   3   6
ATOM      6  C   UNL     1      -1.742   4.415  -1.446  1.00  0.00     0.008 C 
ATOM      7  C   UNL     1      -3.168   4.737  -1.831  1.00  0.00     0.050 C 
BRANCH   6   8
ATOM      8  C   UNL     1      -0.628   4.843  -2.333  1.00  0.00     0.001 C 
ATOM      9  C   UNL     1      -0.717   5.886  -3.159  1.00  0.00     0.009 C 
ENDBRANCH   6   8
ENDBRANCH   3   6
ENDBRANCH   1   3
BRANCH   1  10
ATOM     10  C   UNL     1       0.222   2.352   0.928  1.00  0.00     0.035 A 
ATOM     11  C   UNL     1       1.150   2.510   1.967  1.00  0.00     0.025 A 
ATOM     12  C   UNL     1      -0.301   1.069   0.657  1.00  0.00    -0.061 A 
ATOM     13  C   UNL     1       1.515   1.423   2.762  1.00  0.00     0.004 A 
ATOM     14  C   UNL     1       0.090  -0.033   1.444  1.00  0.00     0.028 A 
ATOM     15  C   UNL     1       0.979   0.160   2.510  1.00  0.00     0.025 A 
ATOM     16  O   UNL     1      -1.208   0.891  -0.383  1.00  0.00    -0.870 OA
BRANCH  14  17
ATOM     17  N   UNL     1      -0.430  -1.348   1.197  1.00  0.00    -0.383 N 
ATOM     18  H   UNL     1      -0.643  -1.952   2.024  1.00  0.00     0.160 HD
BRANCH  17  19
ATOM     19  C   UNL     1      -0.324  -2.000  -0.111  1.00  0.00     0.082 C 
ATOM     20  C   UNL     1      -1.680  -2.613  -0.493  1.00  0.00     0.029 C 
ATOM     21  C   UNL     1       0.757  -3.092  -0.058  1.00  0.00     0.067 C 
ATOM     22  C   UNL     1      -1.612  -3.310  -1.856  1.00  0.00     0.035 C 
ATOM     23  C   UNL     1       0.899  -3.811  -1.406  1.00  0.00     0.194 C 
ATOM     24  C   UNL     1      -0.452  -4.280  -1.911  1.00  0.00    -0.043 C 
ATOM     25  F   UNL     1       1.778  -4.872  -1.252  1.00  0.00    -0.243 F 
ATOM     26  C   UNL     1      -0.581  -5.439  -2.577  1.00  0.00     0.011 C 
ENDBRANCH  17  19
ENDBRANCH  14  17
ENDBRANCH   1  10
TORSDOF 7


