REMARK SMILES [O-]/C(=N\[C@H]1Cc2cc(F)ccc2[C@H]1O)C1CCCC1
REMARK SMILES IDX 13 1 12 2 11 3 10 4 8 5 9 6 7 7 6 8 5 9 4 10 14 11 3 13 2 14
REMARK SMILES IDX 1 15 15 16 16 17 19 18 17 19 18 20
REMARK H PARENT 14 12
ROOT
ATOM      1  C   UNL     1       0.350   0.728  -1.815  1.00  0.00     0.169 C 
ATOM      2  C   UNL     1       0.031   2.135  -1.459  1.00  0.00    -0.014 A 
ATOM      3  C   UNL     1       0.825   3.261  -1.691  1.00  0.00     0.010 A 
ATOM      4  C   UNL     1       0.366   4.513  -1.254  1.00  0.00     0.039 A 
ATOM      5  C   UNL     1      -0.870   4.620  -0.590  1.00  0.00     0.123 A 
ATOM      6  F   UNL     1      -1.307   5.831  -0.165  1.00  0.00    -0.207 F 
ATOM      7  C   UNL     1      -1.650   3.475  -0.363  1.00  0.00     0.043 A 
ATOM      8  C   UNL     1      -1.177   2.240  -0.814  1.00  0.00    -0.037 A 
ATOM      9  C   UNL     1      -1.839   0.925  -0.656  1.00  0.00     0.066 C 
ATOM     10  C   UNL     1      -0.981  -0.017  -1.526  1.00  0.00     0.142 C 
ENDROOT
BRANCH   1  11
ATOM     11  O   UNL     1       1.387   0.257  -0.993  1.00  0.00    -0.386 OA
ATOM     12  H   UNL     1       2.236   0.583  -1.392  1.00  0.00     0.211 HD
ENDBRANCH   1  11
BRANCH  10  13
ATOM     13  N   UNL     1      -0.774  -1.297  -0.845  1.00  0.00    -0.298 NA
BRANCH  13  14
ATOM     14  C   UNL     1      -0.275  -2.352  -1.418  1.00  0.00    -0.039 C 
ATOM     15  O   UNL     1       0.094  -2.321  -2.760  1.00  0.00    -0.862 OA
BRANCH  14  16
ATOM     16  C   UNL     1      -0.081  -3.623  -0.634  1.00  0.00     0.022 C 
ATOM     17  C   UNL     1       0.872  -3.451   0.543  1.00  0.00     0.009 C 
ATOM     18  C   UNL     1      -1.372  -4.149  -0.020  1.00  0.00     0.009 C 
ATOM     19  C   UNL     1       0.480  -4.534   1.542  1.00  0.00     0.001 C 
ATOM     20  C   UNL     1      -0.935  -4.986   1.177  1.00  0.00     0.001 C 
ENDBRANCH  14  16
ENDBRANCH  13  14
ENDBRANCH  10  13
TORSDOF 4


