REMARK SMILES Cc1ccc(-c2cc([O-])c(F)c(C(=O)[O-])c2)c2oc[nH+]c12
REMARK SMILES IDX 6 1 7 2 8 3 9 4 10 5 11 6 12 7 16 8 5 9 2 10 3 11 21 12 4 13
REMARK SMILES IDX 20 14 17 15 19 16 18 17 1 18 13 20 14 21 15 22
REMARK H PARENT 20 19
ROOT
ATOM      1  C   UNL     1      -1.215   0.875  -0.029  1.00  0.00    -0.014 A 
ATOM      2  C   UNL     1      -0.555   2.067   0.312  1.00  0.00     0.003 A 
ATOM      3  C   UNL     1      -1.246   3.103   0.941  1.00  0.00    -0.071 A 
ATOM      4  O   UNL     1      -0.578   4.277   1.269  1.00  0.00    -0.870 OA
ATOM      5  C   UNL     1      -2.606   2.967   1.239  1.00  0.00     0.124 A 
ATOM      6  F   UNL     1      -3.245   3.996   1.851  1.00  0.00    -0.207 F 
ATOM      7  C   UNL     1      -3.291   1.781   0.904  1.00  0.00     0.033 A 
ATOM      8  C   UNL     1      -2.582   0.743   0.268  1.00  0.00     0.022 A 
ENDROOT
BRANCH   1   9
ATOM      9  C   UNL     1      -0.482  -0.226  -0.700  1.00  0.00     0.032 A 
ATOM     10  C   UNL     1       0.948  -2.346  -1.982  1.00  0.00     0.025 A 
ATOM     11  C   UNL     1      -0.353  -1.996  -2.404  1.00  0.00     0.011 A 
ATOM     12  C   UNL     1       1.490  -1.616  -0.920  1.00  0.00     0.252 A 
ATOM     13  C   UNL     1      -1.060  -0.950  -1.770  1.00  0.00     0.013 A 
ATOM     14  N   UNL     1       2.684  -1.760  -0.324  1.00  0.00    -0.176 N 
ATOM     15  C   UNL     1       0.807  -0.605  -0.307  1.00  0.00     0.212 A 
ATOM     16  C   UNL     1       2.676  -0.814   0.645  1.00  0.00     0.521 A 
ATOM     17  O   UNL     1       1.550  -0.121   0.659  1.00  0.00    -0.403 OA
ATOM     18  C   UNL     1       1.712  -3.458  -2.635  1.00  0.00     0.052 C 
ATOM     19  H   UNL     1       3.444  -2.441  -0.546  1.00  0.00     0.457 HD
ENDBRANCH   1   9
BRANCH   7  20
ATOM     20  C   UNL     1      -4.733   1.613   1.211  1.00  0.00     0.074 C 
ATOM     21  O   UNL     1      -5.332   0.549   0.901  1.00  0.00    -0.545 OA
ATOM     22  O   UNL     1      -5.450   2.622   1.844  1.00  0.00    -0.545 OA
ENDBRANCH   7  20
TORSDOF 2


