REMARK SMILES O/C(=C\Cc1c(F)cccc1F)c1ccc(Nc2ccc3cc[nH]c3c2O)cc1
REMARK SMILES IDX 13 1 14 2 15 3 16 4 28 5 29 6 2 7 1 8 3 10 4 11 5 12 6 13
REMARK SMILES IDX 11 14 8 15 10 16 9 17 7 18 12 19 17 20 18 22 19 23 26 24
REMARK SMILES IDX 20 25 25 26 21 27 24 28 22 29 23 30 27 32
REMARK H PARENT 1 9 17 21 24 31 27 33
ROOT
ATOM      1  C   UNL     1      -1.605   0.132   0.957  1.00  0.00     0.016 A 
ATOM      2  C   UNL     1      -0.425   0.622   0.365  1.00  0.00     0.014 A 
ATOM      3  C   UNL     1       0.079   0.040  -0.802  1.00  0.00     0.027 A 
ATOM      4  C   UNL     1      -0.582  -1.047  -1.397  1.00  0.00     0.039 A 
ATOM      5  C   UNL     1      -1.777  -1.511  -0.832  1.00  0.00     0.027 A 
ATOM      6  C   UNL     1      -2.283  -0.930   0.334  1.00  0.00     0.014 A 
ENDROOT
BRANCH   1   7
ATOM      7  C   UNL     1      -2.173   0.738   2.188  1.00  0.00     0.119 C 
BRANCH   7   8
ATOM      8  O   UNL     1      -3.565   0.728   2.335  1.00  0.00    -0.508 OA
ATOM      9  H   UNL     1      -4.048   1.108   3.139  1.00  0.00     0.293 HD
ENDBRANCH   7   8
BRANCH   7  10
ATOM     10  C   UNL     1      -1.374   1.260   3.139  1.00  0.00     0.025 C 
BRANCH  10  11
ATOM     11  C   UNL     1      -1.903   1.894   4.397  1.00  0.00     0.073 C 
BRANCH  11  12
ATOM     12  C   UNL     1      -0.772   2.404   5.256  1.00  0.00     0.027 A 
ATOM     13  C   UNL     1      -0.170   1.565   6.213  1.00  0.00     0.129 A 
ATOM     14  C   UNL     1      -0.265   3.704   5.066  1.00  0.00     0.129 A 
ATOM     15  C   UNL     1       0.899   2.032   6.984  1.00  0.00     0.040 A 
ATOM     16  C   UNL     1       0.805   4.162   5.841  1.00  0.00     0.040 A 
ATOM     17  C   UNL     1       1.384   3.329   6.801  1.00  0.00     0.006 A 
ATOM     18  F   UNL     1      -0.612   0.295   6.397  1.00  0.00    -0.207 F 
ATOM     19  F   UNL     1      -0.800   4.525   4.127  1.00  0.00    -0.207 F 
ENDBRANCH  11  12
ENDBRANCH  10  11
ENDBRANCH   7  10
ENDBRANCH   1   7
BRANCH   4  20
ATOM     20  N   UNL     1      -0.095  -1.645  -2.611  1.00  0.00    -0.352 N 
ATOM     21  H   UNL     1      -0.795  -2.070  -3.261  1.00  0.00     0.167 HD
BRANCH  20  22
ATOM     22  C   UNL     1       1.294  -1.707  -2.982  1.00  0.00     0.083 A 
ATOM     23  C   UNL     1       2.298  -1.894  -1.995  1.00  0.00     0.031 A 
ATOM     24  C   UNL     1       1.657  -1.642  -4.348  1.00  0.00     0.163 A 
ATOM     25  C   UNL     1       3.652  -1.984  -2.355  1.00  0.00     0.013 A 
ATOM     26  C   UNL     1       3.017  -1.737  -4.673  1.00  0.00     0.090 A 
ATOM     27  C   UNL     1       3.974  -1.899  -3.705  1.00  0.00     0.003 A 
ATOM     28  N   UNL     1       3.586  -1.692  -5.892  1.00  0.00    -0.358 N 
ATOM     29  C   UNL     1       5.198  -1.960  -4.334  1.00  0.00     0.028 A 
ATOM     30  C   UNL     1       4.916  -1.828  -5.689  1.00  0.00     0.083 A 
ATOM     31  H   UNL     1       3.115  -1.578  -6.816  1.00  0.00     0.166 HD
BRANCH  24  32
ATOM     32  O   UNL     1       0.677  -1.479  -5.328  1.00  0.00    -0.504 OA
ATOM     33  H   UNL     1       0.898  -1.426  -6.314  1.00  0.00     0.293 HD
ENDBRANCH  24  32
ENDBRANCH  20  22
ENDBRANCH   4  20
TORSDOF 8


