REMARK SMILES CC(C)(C#N)C(=O)O[C@H]1c2ccccc2C[C@@H]1NC(=O)C1CCCC1
REMARK SMILES IDX 6 1 7 2 2 3 1 4 3 5 4 6 5 7 8 8 9 9 10 10 17 11 11 12 15 13
REMARK SMILES IDX 16 14 12 15 14 16 13 17 18 18 19 19 20 21 21 22 22 23 25 24
REMARK SMILES IDX 23 25 24 26
REMARK H PARENT 18 20
ROOT
ATOM      1  C   UNL     1       2.005  -1.994  -2.226  1.00  0.00     0.326 C 
ATOM      2  O   UNL     1       1.071  -1.965  -3.075  1.00  0.00    -0.250 OA
ENDROOT
BRANCH   1   3
ATOM      3  C   UNL     1       3.250  -2.804  -2.513  1.00  0.00     0.149 C 
ATOM      4  C   UNL     1       3.918  -2.291  -3.800  1.00  0.00     0.040 C 
ATOM      5  C   UNL     1       4.249  -2.717  -1.345  1.00  0.00     0.040 C 
BRANCH   3   6
ATOM      6  C   UNL     1       2.862  -4.215  -2.695  1.00  0.00     0.080 C 
ATOM      7  N   UNL     1       2.557  -5.323  -2.836  1.00  0.00    -0.197 NA
ENDBRANCH   3   6
ENDBRANCH   1   3
BRANCH   1   8
ATOM      8  O   UNL     1       1.891  -1.272  -1.030  1.00  0.00    -0.454 OA
BRANCH   8   9
ATOM      9  C   UNL     1       0.694  -0.618  -0.609  1.00  0.00     0.229 C 
ATOM     10  C   UNL     1      -0.193  -1.590   0.084  1.00  0.00    -0.002 A 
ATOM     11  C   UNL     1       1.034   0.409   0.505  1.00  0.00     0.132 C 
ATOM     12  C   UNL     1      -0.942  -2.617  -0.500  1.00  0.00     0.008 A 
ATOM     13  C   UNL     1      -0.194  -1.401   1.444  1.00  0.00    -0.039 A 
ATOM     14  C   UNL     1       0.665  -0.265   1.847  1.00  0.00     0.065 C 
ATOM     15  C   UNL     1      -1.697  -3.459   0.331  1.00  0.00     0.000 A 
ATOM     16  C   UNL     1      -0.933  -2.231   2.290  1.00  0.00     0.004 A 
ATOM     17  C   UNL     1      -1.691  -3.267   1.724  1.00  0.00     0.000 A 
BRANCH  11  18
ATOM     18  N   UNL     1       0.262   1.646   0.336  1.00  0.00    -0.349 N 
ATOM     19  C   UNL     1       0.588   2.847   1.051  1.00  0.00     0.223 C 
ATOM     20  H   UNL     1      -0.566   1.658  -0.302  1.00  0.00     0.163 HD
ATOM     21  O   UNL     1       1.587   2.871   1.823  1.00  0.00    -0.275 OA
BRANCH  19  22
ATOM     22  C   UNL     1      -0.274   4.075   0.901  1.00  0.00     0.078 C 
ATOM     23  C   UNL     1      -0.964   4.465   2.202  1.00  0.00     0.013 C 
ATOM     24  C   UNL     1       0.519   5.312   0.496  1.00  0.00     0.013 C 
ATOM     25  C   UNL     1      -1.230   5.961   2.087  1.00  0.00     0.001 C 
ATOM     26  C   UNL     1      -0.305   6.494   0.991  1.00  0.00     0.001 C 
ENDBRANCH  19  22
ENDBRANCH  11  18
ENDBRANCH   8   9
ENDBRANCH   1   8
TORSDOF 6


