REMARK SMILES CCn1ncnc1COc1ccc([NH2+]c2ccc3cc[nH]c3c2)c(F)c1
REMARK SMILES IDX 9 1 8 2 7 3 3 4 4 5 5 6 6 7 2 8 1 9 10 10 11 11 26 12 12 13
REMARK SMILES IDX 24 14 13 15 25 16 14 17 15 20 16 21 23 22 17 23 22 24 18 25
REMARK SMILES IDX 21 26 19 27 20 28
REMARK H PARENT 14 18 14 19 21 29
ROOT
ATOM      1  O   UNL     1       0.424   1.351  -1.853  1.00  0.00    -0.486 OA
ENDROOT
BRANCH   1   2
ATOM      2  C   UNL     1       1.064   0.770  -2.985  1.00  0.00     0.306 C 
BRANCH   2   3
ATOM      3  C   UNL     1       1.667   1.854  -3.824  1.00  0.00     0.164 A 
ATOM      4  N   UNL     1       0.976   2.807  -4.480  1.00  0.00    -0.247 N 
ATOM      5  N   UNL     1       1.847   3.594  -5.086  1.00  0.00    -0.159 NA
ATOM      6  C   UNL     1       3.062   3.092  -4.793  1.00  0.00     0.246 A 
ATOM      7  N   UNL     1       2.995   2.000  -4.000  1.00  0.00    -0.216 NA
BRANCH   4   8
ATOM      8  C   UNL     1      -0.469   3.034  -4.492  1.00  0.00     0.143 C 
ATOM      9  C   UNL     1      -0.847   4.098  -3.468  1.00  0.00     0.029 C 
ENDBRANCH   4   8
ENDBRANCH   2   3
ENDBRANCH   1   2
BRANCH   1  10
ATOM     10  C   UNL     1      -0.285   0.627  -0.883  1.00  0.00     0.123 A 
ATOM     11  C   UNL     1      -0.895   1.335   0.157  1.00  0.00     0.053 A 
ATOM     12  C   UNL     1      -0.401  -0.774  -0.922  1.00  0.00     0.092 A 
ATOM     13  C   UNL     1      -1.613   0.662   1.148  1.00  0.00     0.075 A 
ATOM     14  C   UNL     1      -1.120  -1.452   0.069  1.00  0.00     0.187 A 
ATOM     15  C   UNL     1      -1.739  -0.737   1.113  1.00  0.00     0.170 A 
ATOM     16  F   UNL     1      -1.214  -2.804   0.006  1.00  0.00    -0.200 F 
BRANCH  15  17
ATOM     17  N   UNL     1      -2.455  -1.427   2.159  1.00  0.00    -0.279 N 
ATOM     18  H   UNL     1      -3.241  -0.830   2.509  1.00  0.00     0.358 HD
ATOM     19  H   UNL     1      -2.891  -2.303   1.786  1.00  0.00     0.358 HD
BRANCH  17  20
ATOM     20  C   UNL     1      -1.556  -1.737   3.241  1.00  0.00     0.136 A 
ATOM     21  C   UNL     1      -1.321  -0.786   4.271  1.00  0.00     0.069 A 
ATOM     22  C   UNL     1      -0.870  -2.975   3.267  1.00  0.00     0.094 A 
ATOM     23  C   UNL     1      -0.422  -1.064   5.317  1.00  0.00     0.016 A 
ATOM     24  C   UNL     1       0.013  -3.216   4.317  1.00  0.00     0.051 A 
ATOM     25  C   UNL     1       0.228  -2.294   5.305  1.00  0.00    -0.000 A 
ATOM     26  N   UNL     1       0.755  -4.317   4.524  1.00  0.00    -0.361 N 
ATOM     27  C   UNL     1       1.147  -2.832   6.180  1.00  0.00     0.028 A 
ATOM     28  C   UNL     1       1.449  -4.087   5.662  1.00  0.00     0.083 A 
ATOM     29  H   UNL     1       0.791  -5.176   3.930  1.00  0.00     0.166 HD
ENDBRANCH  17  20
ENDBRANCH  15  17
ENDBRANCH   1  10
TORSDOF 6


