REMARK SMILES [N-]=[N+]=N/C(=C\Cc1c(F)cccc1F)c1ccccc1
REMARK SMILES IDX 5 1 4 2 3 3 2 4 1 5 15 6 16 7 20 8 17 9 19 10 18 11 6 12
REMARK SMILES IDX 7 13 8 14 13 15 10 16 12 17 11 18 9 19 14 20
REMARK H PARENT
ROOT
ATOM      1  C   UNL     1       0.708  -0.259  -1.169  1.00  0.00    -0.011 C 
ENDROOT
BRANCH   1   2
ATOM      2  C   UNL     1      -0.365  -0.915  -1.637  1.00  0.00     0.041 C 
BRANCH   2   3
ATOM      3  N   UNL     1      -0.425  -1.269  -3.028  1.00  0.00    -0.060 NA
BRANCH   3   4
ATOM      4  N   UNL     1      -1.444  -1.726  -3.547  1.00  0.00     0.005 N 
ATOM      5  N   UNL     1      -2.462  -2.180  -4.067  1.00  0.00    -0.003 NA
ENDBRANCH   3   4
ENDBRANCH   2   3
BRANCH   2   6
ATOM      6  C   UNL     1      -1.470  -1.276  -0.711  1.00  0.00    -0.016 A 
ATOM      7  C   UNL     1      -1.974  -2.588  -0.687  1.00  0.00     0.008 A 
ATOM      8  C   UNL     1      -2.017  -0.316   0.160  1.00  0.00     0.008 A 
ATOM      9  C   UNL     1      -3.011  -2.930   0.186  1.00  0.00     0.001 A 
ATOM     10  C   UNL     1      -3.054  -0.663   1.032  1.00  0.00     0.001 A 
ATOM     11  C   UNL     1      -3.551  -1.969   1.044  1.00  0.00     0.000 A 
ENDBRANCH   2   6
ENDBRANCH   1   2
BRANCH   1  12
ATOM     12  C   UNL     1       1.855   0.136  -2.059  1.00  0.00     0.069 C 
BRANCH  12  13
ATOM     13  C   UNL     1       2.916   0.865  -1.273  1.00  0.00     0.027 A 
ATOM     14  C   UNL     1       3.955   0.151  -0.645  1.00  0.00     0.129 A 
ATOM     15  C   UNL     1       2.843   2.262  -1.105  1.00  0.00     0.129 A 
ATOM     16  C   UNL     1       4.918   0.829   0.110  1.00  0.00     0.040 A 
ATOM     17  C   UNL     1       3.811   2.931  -0.348  1.00  0.00     0.040 A 
ATOM     18  C   UNL     1       4.848   2.216   0.256  1.00  0.00     0.006 A 
ATOM     19  F   UNL     1       4.033  -1.199  -0.758  1.00  0.00    -0.207 F 
ATOM     20  F   UNL     1       1.835   2.975  -1.668  1.00  0.00    -0.207 F 
ENDBRANCH  12  13
ENDBRANCH   1  12
TORSDOF 6


