MODEL 1
REMARK VINA RESULT:      -9.9      0.000      0.000
REMARK SMILES [O-]/C(=N\[C@H]1Cc2cc(F)ccc2[C@H]1O)C1CCCC1
REMARK SMILES IDX 13 1 12 2 11 3 10 4 8 5 9 6 7 7 6 8 5 9 4 10 14 11 3 13 2 14
REMARK SMILES IDX 1 15 15 16 16 17 19 18 17 19 18 20
REMARK H PARENT 14 12
ROOT
ATOM      1  C   UNL     1      45.516 131.225  18.292  1.00  0.00     0.169 C 
ATOM      2  C   UNL     1      44.834 131.434  19.596  1.00  0.00    -0.014 A 
ATOM      3  C   UNL     1      45.412 131.367  20.866  1.00  0.00     0.010 A 
ATOM      4  C   UNL     1      44.597 131.566  21.991  1.00  0.00     0.039 A 
ATOM      5  C   UNL     1      43.222 131.822  21.830  1.00  0.00     0.123 A 
ATOM      6  F   UNL     1      42.438 132.008  22.920  1.00  0.00    -0.207 F 
ATOM      7  C   UNL     1      42.661 131.880  20.545  1.00  0.00     0.043 A 
ATOM      8  C   UNL     1      43.494 131.687  19.439  1.00  0.00    -0.037 A 
ATOM      9  C   UNL     1      43.091 131.693  18.014  1.00  0.00     0.066 C 
ATOM     10  C   UNL     1      44.437 131.651  17.260  1.00  0.00     0.142 C 
ENDROOT
BRANCH   1  11
ATOM     11  O   UNL     1      45.852 129.869  18.147  1.00  0.00    -0.386 OA
ATOM     12  H   UNL     1      45.244 129.361  18.745  1.00  0.00     0.211 HD
ENDBRANCH   1  11
BRANCH  10  13
ATOM     13  N   UNL     1      44.357 130.737  16.119  1.00  0.00    -0.298 NA
BRANCH  13  14
ATOM     14  C   UNL     1      44.838 131.003  14.941  1.00  0.00    -0.039 C 
ATOM     15  O   UNL     1      43.999 131.413  13.909  1.00  0.00    -0.862 OA
BRANCH  14  16
ATOM     16  C   UNL     1      46.316 130.878  14.677  1.00  0.00     0.022 C 
ATOM     17  C   UNL     1      46.821 129.446  14.815  1.00  0.00     0.009 C 
ATOM     18  C   UNL     1      46.709 131.299  13.267  1.00  0.00     0.009 C 
ATOM     19  C   UNL     1      48.069 129.373  13.944  1.00  0.00     0.001 C 
ATOM     20  C   UNL     1      48.006 130.554  12.973  1.00  0.00     0.001 C 
ENDBRANCH  14  16
ENDBRANCH  13  14
ENDBRANCH  10  13
TORSDOF 4
ENDMDL
MODEL 2
REMARK VINA RESULT:      -9.2      3.162      6.950
REMARK SMILES [O-]/C(=N\[C@H]1Cc2cc(F)ccc2[C@H]1O)C1CCCC1
REMARK SMILES IDX 13 1 12 2 11 3 10 4 8 5 9 6 7 7 6 8 5 9 4 10 14 11 3 13 2 14
REMARK SMILES IDX 1 15 15 16 16 17 19 18 17 19 18 20
REMARK H PARENT 14 12
ROOT
ATOM      1  C   UNL     1      45.336 131.982  15.788  1.00  0.00     0.169 C 
ATOM      2  C   UNL     1      46.320 131.285  14.918  1.00  0.00    -0.014 A 
ATOM      3  C   UNL     1      46.810 131.724  13.686  1.00  0.00     0.010 A 
ATOM      4  C   UNL     1      47.718 130.909  12.992  1.00  0.00     0.039 A 
ATOM      5  C   UNL     1      48.115 129.673  13.534  1.00  0.00     0.123 A 
ATOM      6  F   UNL     1      48.988 128.887  12.857  1.00  0.00    -0.207 F 
ATOM      7  C   UNL     1      47.606 129.249  14.771  1.00  0.00     0.043 A 
ATOM      8  C   UNL     1      46.710 130.080  15.449  1.00  0.00    -0.037 A 
ATOM      9  C   UNL     1      46.053 129.805  16.747  1.00  0.00     0.066 C 
ATOM     10  C   UNL     1      45.366 131.142  17.093  1.00  0.00     0.142 C 
ENDROOT
BRANCH   1  11
ATOM     11  O   UNL     1      44.067 131.947  15.187  1.00  0.00    -0.386 OA
ATOM     12  H   UNL     1      44.210 132.082  14.214  1.00  0.00     0.211 HD
ENDBRANCH   1  11
BRANCH  10  13
ATOM     13  N   UNL     1      44.028 130.904  17.640  1.00  0.00    -0.298 NA
BRANCH  13  14
ATOM     14  C   UNL     1      43.403 131.737  18.418  1.00  0.00    -0.039 C 
ATOM     15  O   UNL     1      42.283 132.428  17.962  1.00  0.00    -0.862 OA
BRANCH  14  16
ATOM     16  C   UNL     1      43.877 131.961  19.830  1.00  0.00     0.022 C 
ATOM     17  C   UNL     1      42.746 131.901  20.849  1.00  0.00     0.009 C 
ATOM     18  C   UNL     1      44.881 130.914  20.296  1.00  0.00     0.009 C 
ATOM     19  C   UNL     1      43.408 131.508  22.165  1.00  0.00     0.001 C 
ATOM     20  C   UNL     1      44.766 130.896  21.816  1.00  0.00     0.001 C 
ENDBRANCH  14  16
ENDBRANCH  13  14
ENDBRANCH  10  13
TORSDOF 4
ENDMDL
MODEL 3
REMARK VINA RESULT:      -9.2      0.528      1.061
REMARK SMILES [O-]/C(=N\[C@H]1Cc2cc(F)ccc2[C@H]1O)C1CCCC1
REMARK SMILES IDX 13 1 12 2 11 3 10 4 8 5 9 6 7 7 6 8 5 9 4 10 14 11 3 13 2 14
REMARK SMILES IDX 1 15 15 16 16 17 19 18 17 19 18 20
REMARK H PARENT 14 12
ROOT
ATOM      1  C   UNL     1      45.774 131.064  18.857  1.00  0.00     0.169 C 
ATOM      2  C   UNL     1      44.894 131.352  20.019  1.00  0.00    -0.014 A 
ATOM      3  C   UNL     1      45.242 131.292  21.371  1.00  0.00     0.010 A 
ATOM      4  C   UNL     1      44.261 131.571  22.334  1.00  0.00     0.039 A 
ATOM      5  C   UNL     1      42.952 131.900  21.935  1.00  0.00     0.123 A 
ATOM      6  F   UNL     1      42.006 132.164  22.869  1.00  0.00    -0.207 F 
ATOM      7  C   UNL     1      42.623 131.950  20.571  1.00  0.00     0.043 A 
ATOM      8  C   UNL     1      43.618 131.676  19.629  1.00  0.00    -0.037 A 
ATOM      9  C   UNL     1      43.466 131.660  18.157  1.00  0.00     0.066 C 
ATOM     10  C   UNL     1      44.915 131.518  17.646  1.00  0.00     0.142 C 
ENDROOT
BRANCH   1  11
ATOM     11  O   UNL     1      46.047 129.688  18.801  1.00  0.00    -0.386 OA
ATOM     12  H   UNL     1      45.512 129.323  18.048  1.00  0.00     0.211 HD
ENDBRANCH   1  11
BRANCH  10  13
ATOM     13  N   UNL     1      44.974 130.575  16.527  1.00  0.00    -0.298 NA
BRANCH  13  14
ATOM     14  C   UNL     1      44.855 130.920  15.280  1.00  0.00    -0.039 C 
ATOM     15  O   UNL     1      43.857 131.805  14.882  1.00  0.00    -0.862 OA
BRANCH  14  16
ATOM     16  C   UNL     1      45.803 130.373  14.246  1.00  0.00     0.022 C 
ATOM     17  C   UNL     1      46.681 131.451  13.620  1.00  0.00     0.009 C 
ATOM     18  C   UNL     1      46.781 129.352  14.813  1.00  0.00     0.009 C 
ATOM     19  C   UNL     1      47.930 130.724  13.135  1.00  0.00     0.001 C 
ATOM     20  C   UNL     1      47.986 129.389  13.880  1.00  0.00     0.001 C 
ENDBRANCH  14  16
ENDBRANCH  13  14
ENDBRANCH  10  13
TORSDOF 4
ENDMDL
MODEL 4
REMARK VINA RESULT:      -9.1      3.228      7.006
REMARK SMILES [O-]/C(=N\[C@H]1Cc2cc(F)ccc2[C@H]1O)C1CCCC1
REMARK SMILES IDX 13 1 12 2 11 3 10 4 8 5 9 6 7 7 6 8 5 9 4 10 14 11 3 13 2 14
REMARK SMILES IDX 1 15 15 16 16 17 19 18 17 19 18 20
REMARK H PARENT 14 12
ROOT
ATOM      1  C   UNL     1      45.596 129.951  16.878  1.00  0.00     0.169 C 
ATOM      2  C   UNL     1      46.325 130.146  15.598  1.00  0.00    -0.014 A 
ATOM      3  C   UNL     1      47.048 129.183  14.888  1.00  0.00     0.010 A 
ATOM      4  C   UNL     1      47.698 129.564  13.704  1.00  0.00     0.039 A 
ATOM      5  C   UNL     1      47.621 130.894  13.252  1.00  0.00     0.123 A 
ATOM      6  F   UNL     1      48.255 131.259  12.111  1.00  0.00    -0.207 F 
ATOM      7  C   UNL     1      46.893 131.846  13.983  1.00  0.00     0.043 A 
ATOM      8  C   UNL     1      46.247 131.443  15.155  1.00  0.00    -0.037 A 
ATOM      9  C   UNL     1      45.451 132.295  16.067  1.00  0.00     0.066 C 
ATOM     10  C   UNL     1      44.815 131.283  17.043  1.00  0.00     0.142 C 
ENDROOT
BRANCH   1  11
ATOM     11  O   UNL     1      46.518 129.768  17.922  1.00  0.00    -0.386 OA
ATOM     12  H   UNL     1      46.122 130.193  18.728  1.00  0.00     0.211 HD
ENDBRANCH   1  11
BRANCH  10  13
ATOM     13  N   UNL     1      44.859 131.796  18.414  1.00  0.00    -0.298 NA
BRANCH  13  14
ATOM     14  C   UNL     1      43.840 131.798  19.221  1.00  0.00    -0.039 C 
ATOM     15  O   UNL     1      42.541 131.823  18.721  1.00  0.00    -0.862 OA
BRANCH  14  16
ATOM     16  C   UNL     1      44.050 131.763  20.712  1.00  0.00     0.022 C 
ATOM     17  C   UNL     1      42.742 131.743  21.493  1.00  0.00     0.009 C 
ATOM     18  C   UNL     1      44.805 130.526  21.180  1.00  0.00     0.009 C 
ATOM     19  C   UNL     1      43.077 131.088  22.828  1.00  0.00     0.001 C 
ATOM     20  C   UNL     1      44.391 130.329  22.634  1.00  0.00     0.001 C 
ENDBRANCH  14  16
ENDBRANCH  13  14
ENDBRANCH  10  13
TORSDOF 4
ENDMDL
MODEL 5
REMARK VINA RESULT:      -9.1      1.384      1.616
REMARK SMILES [O-]/C(=N\[C@H]1Cc2cc(F)ccc2[C@H]1O)C1CCCC1
REMARK SMILES IDX 13 1 12 2 11 3 10 4 8 5 9 6 7 7 6 8 5 9 4 10 14 11 3 13 2 14
REMARK SMILES IDX 1 15 15 16 16 17 19 18 17 19 18 20
REMARK H PARENT 14 12
ROOT
ATOM      1  C   UNL     1      45.724 130.796  19.565  1.00  0.00     0.169 C 
ATOM      2  C   UNL     1      44.491 131.453  20.072  1.00  0.00    -0.014 A 
ATOM      3  C   UNL     1      44.165 131.711  21.406  1.00  0.00     0.010 A 
ATOM      4  C   UNL     1      42.933 132.318  21.695  1.00  0.00     0.039 A 
ATOM      5  C   UNL     1      42.048 132.651  20.654  1.00  0.00     0.123 A 
ATOM      6  F   UNL     1      40.857 133.233  20.938  1.00  0.00    -0.207 F 
ATOM      7  C   UNL     1      42.394 132.379  19.320  1.00  0.00     0.043 A 
ATOM      8  C   UNL     1      43.629 131.782  19.055  1.00  0.00    -0.037 A 
ATOM      9  C   UNL     1      44.164 131.402  17.728  1.00  0.00     0.066 C 
ATOM     10  C   UNL     1      45.623 131.001  18.029  1.00  0.00     0.142 C 
ENDROOT
BRANCH   1  11
ATOM     11  O   UNL     1      45.704 129.433  19.900  1.00  0.00    -0.386 OA
ATOM     12  H   UNL     1      46.652 129.141  19.962  1.00  0.00     0.211 HD
ENDBRANCH   1  11
BRANCH  10  13
ATOM     13  N   UNL     1      45.991 129.800  17.275  1.00  0.00    -0.298 NA
BRANCH  13  14
ATOM     14  C   UNL     1      45.911 129.703  15.981  1.00  0.00    -0.039 C 
ATOM     15  O   UNL     1      44.814 129.088  15.384  1.00  0.00    -0.862 OA
BRANCH  14  16
ATOM     16  C   UNL     1      47.003 130.262  15.108  1.00  0.00     0.022 C 
ATOM     17  C   UNL     1      47.733 129.185  14.313  1.00  0.00     0.009 C 
ATOM     18  C   UNL     1      46.488 131.241  14.061  1.00  0.00     0.009 C 
ATOM     19  C   UNL     1      48.296 129.899  13.089  1.00  0.00     0.001 C 
ATOM     20  C   UNL     1      47.518 131.207  12.938  1.00  0.00     0.001 C 
ENDBRANCH  14  16
ENDBRANCH  13  14
ENDBRANCH  10  13
TORSDOF 4
ENDMDL
MODEL 6
REMARK VINA RESULT:      -8.9      3.172      6.935
REMARK SMILES [O-]/C(=N\[C@H]1Cc2cc(F)ccc2[C@H]1O)C1CCCC1
REMARK SMILES IDX 13 1 12 2 11 3 10 4 8 5 9 6 7 7 6 8 5 9 4 10 14 11 3 13 2 14
REMARK SMILES IDX 1 15 15 16 16 17 19 18 17 19 18 20
REMARK H PARENT 14 12
ROOT
ATOM      1  C   UNL     1      45.369 129.930  16.946  1.00  0.00     0.169 C 
ATOM      2  C   UNL     1      46.162 130.140  15.707  1.00  0.00    -0.014 A 
ATOM      3  C   UNL     1      46.981 129.207  15.066  1.00  0.00     0.010 A 
ATOM      4  C   UNL     1      47.680 129.600  13.914  1.00  0.00     0.039 A 
ATOM      5  C   UNL     1      47.555 130.915  13.427  1.00  0.00     0.123 A 
ATOM      6  F   UNL     1      48.237 131.292  12.317  1.00  0.00    -0.207 F 
ATOM      7  C   UNL     1      46.731 131.838  14.090  1.00  0.00     0.043 A 
ATOM      8  C   UNL     1      46.038 131.421  15.230  1.00  0.00    -0.037 A 
ATOM      9  C   UNL     1      45.141 132.244  16.072  1.00  0.00     0.066 C 
ATOM     10  C   UNL     1      44.505 131.217  17.032  1.00  0.00     0.142 C 
ENDROOT
BRANCH   1  11
ATOM     11  O   UNL     1      46.234 129.822  18.047  1.00  0.00    -0.386 OA
ATOM     12  H   UNL     1      47.023 130.390  17.846  1.00  0.00     0.211 HD
ENDBRANCH   1  11
BRANCH  10  13
ATOM     13  N   UNL     1      44.435 131.759  18.390  1.00  0.00    -0.298 NA
BRANCH  13  14
ATOM     14  C   UNL     1      43.346 131.806  19.098  1.00  0.00    -0.039 C 
ATOM     15  O   UNL     1      42.183 132.360  18.572  1.00  0.00    -0.862 OA
BRANCH  14  16
ATOM     16  C   UNL     1      43.325 131.252  20.499  1.00  0.00     0.022 C 
ATOM     17  C   UNL     1      44.707 131.217  21.140  1.00  0.00     0.009 C 
ATOM     18  C   UNL     1      42.470 132.075  21.454  1.00  0.00     0.009 C 
ATOM     19  C   UNL     1      44.456 131.264  22.643  1.00  0.00     0.001 C 
ATOM     20  C   UNL     1      43.035 131.794  22.842  1.00  0.00     0.001 C 
ENDBRANCH  14  16
ENDBRANCH  13  14
ENDBRANCH  10  13
TORSDOF 4
ENDMDL
MODEL 7
REMARK VINA RESULT:      -8.6      3.082      6.877
REMARK SMILES [O-]/C(=N\[C@H]1Cc2cc(F)ccc2[C@H]1O)C1CCCC1
REMARK SMILES IDX 13 1 12 2 11 3 10 4 8 5 9 6 7 7 6 8 5 9 4 10 14 11 3 13 2 14
REMARK SMILES IDX 1 15 15 16 16 17 19 18 17 19 18 20
REMARK H PARENT 14 12
ROOT
ATOM      1  C   UNL     1      44.870 132.032  15.244  1.00  0.00     0.169 C 
ATOM      2  C   UNL     1      45.987 131.279  14.616  1.00  0.00    -0.014 A 
ATOM      3  C   UNL     1      46.506 131.462  13.332  1.00  0.00     0.010 A 
ATOM      4  C   UNL     1      47.550 130.629  12.901  1.00  0.00     0.039 A 
ATOM      5  C   UNL     1      48.052 129.627  13.751  1.00  0.00     0.123 A 
ATOM      6  F   UNL     1      49.057 128.821  13.328  1.00  0.00    -0.207 F 
ATOM      7  C   UNL     1      47.512 129.457  15.036  1.00  0.00     0.043 A 
ATOM      8  C   UNL     1      46.479 130.303  15.448  1.00  0.00    -0.037 A 
ATOM      9  C   UNL     1      45.771 130.272  16.748  1.00  0.00     0.066 C 
ATOM     10  C   UNL     1      44.908 131.550  16.719  1.00  0.00     0.142 C 
ENDROOT
BRANCH   1  11
ATOM     11  O   UNL     1      43.659 131.684  14.624  1.00  0.00    -0.386 OA
ATOM     12  H   UNL     1      43.134 132.522  14.536  1.00  0.00     0.211 HD
ENDBRANCH   1  11
BRANCH  10  13
ATOM     13  N   UNL     1      43.573 131.279  17.258  1.00  0.00    -0.298 NA
BRANCH  13  14
ATOM     14  C   UNL     1      43.164 131.687  18.423  1.00  0.00    -0.039 C 
ATOM     15  O   UNL     1      42.064 132.532  18.531  1.00  0.00    -0.862 OA
BRANCH  14  16
ATOM     16  C   UNL     1      43.872 131.242  19.675  1.00  0.00     0.022 C 
ATOM     17  C   UNL     1      45.127 132.057  19.966  1.00  0.00     0.009 C 
ATOM     18  C   UNL     1      43.015 131.380  20.927  1.00  0.00     0.009 C 
ATOM     19  C   UNL     1      45.338 131.950  21.472  1.00  0.00     0.001 C 
ATOM     20  C   UNL     1      44.006 131.508  22.079  1.00  0.00     0.001 C 
ENDBRANCH  14  16
ENDBRANCH  13  14
ENDBRANCH  10  13
TORSDOF 4
ENDMDL
MODEL 8
REMARK VINA RESULT:      -8.5      1.504      1.957
REMARK SMILES [O-]/C(=N\[C@H]1Cc2cc(F)ccc2[C@H]1O)C1CCCC1
REMARK SMILES IDX 13 1 12 2 11 3 10 4 8 5 9 6 7 7 6 8 5 9 4 10 14 11 3 13 2 14
REMARK SMILES IDX 1 15 15 16 16 17 19 18 17 19 18 20
REMARK H PARENT 14 12
ROOT
ATOM      1  C   UNL     1      45.833 131.023  18.958  1.00  0.00     0.169 C 
ATOM      2  C   UNL     1      44.526 131.571  19.408  1.00  0.00    -0.014 A 
ATOM      3  C   UNL     1      44.141 131.856  20.720  1.00  0.00     0.010 A 
ATOM      4  C   UNL     1      42.847 132.345  20.953  1.00  0.00     0.039 A 
ATOM      5  C   UNL     1      41.959 132.535  19.878  1.00  0.00     0.123 A 
ATOM      6  F   UNL     1      40.708 133.003  20.109  1.00  0.00    -0.207 F 
ATOM      7  C   UNL     1      42.365 132.238  18.568  1.00  0.00     0.043 A 
ATOM      8  C   UNL     1      43.661 131.760  18.358  1.00  0.00    -0.037 A 
ATOM      9  C   UNL     1      44.266 131.376  17.062  1.00  0.00     0.066 C 
ATOM     10  C   UNL     1      45.751 131.144  17.413  1.00  0.00     0.142 C 
ENDROOT
BRANCH   1  11
ATOM     11  O   UNL     1      45.944 129.682  19.360  1.00  0.00    -0.386 OA
ATOM     12  H   UNL     1      45.345 129.157  18.767  1.00  0.00     0.211 HD
ENDBRANCH   1  11
BRANCH  10  13
ATOM     13  N   UNL     1      46.259 129.954  16.727  1.00  0.00    -0.298 NA
BRANCH  13  14
ATOM     14  C   UNL     1      45.743 129.468  15.637  1.00  0.00    -0.039 C 
ATOM     15  O   UNL     1      44.597 128.679  15.687  1.00  0.00    -0.862 OA
BRANCH  14  16
ATOM     16  C   UNL     1      46.374 129.759  14.301  1.00  0.00     0.022 C 
ATOM     17  C   UNL     1      46.576 131.250  14.056  1.00  0.00     0.009 C 
ATOM     18  C   UNL     1      47.760 129.146  14.149  1.00  0.00     0.009 C 
ATOM     19  C   UNL     1      47.727 131.344  13.061  1.00  0.00     0.001 C 
ATOM     20  C   UNL     1      48.468 130.007  13.109  1.00  0.00     0.001 C 
ENDBRANCH  14  16
ENDBRANCH  13  14
ENDBRANCH  10  13
TORSDOF 4
ENDMDL
MODEL 9
REMARK VINA RESULT:      -8.5      3.168      7.108
REMARK SMILES [O-]/C(=N\[C@H]1Cc2cc(F)ccc2[C@H]1O)C1CCCC1
REMARK SMILES IDX 13 1 12 2 11 3 10 4 8 5 9 6 7 7 6 8 5 9 4 10 14 11 3 13 2 14
REMARK SMILES IDX 1 15 15 16 16 17 19 18 17 19 18 20
REMARK H PARENT 14 12
ROOT
ATOM      1  C   UNL     1      44.695 132.049  17.053  1.00  0.00     0.169 C 
ATOM      2  C   UNL     1      45.532 131.396  16.013  1.00  0.00    -0.014 A 
ATOM      3  C   UNL     1      45.637 131.761  14.668  1.00  0.00     0.010 A 
ATOM      4  C   UNL     1      46.462 131.001  13.825  1.00  0.00     0.039 A 
ATOM      5  C   UNL     1      47.161 129.891  14.333  1.00  0.00     0.123 A 
ATOM      6  F   UNL     1      47.953 129.156  13.513  1.00  0.00    -0.207 F 
ATOM      7  C   UNL     1      47.037 129.539  15.687  1.00  0.00     0.043 A 
ATOM      8  C   UNL     1      46.217 130.315  16.510  1.00  0.00    -0.037 A 
ATOM      9  C   UNL     1      45.944 130.097  17.949  1.00  0.00     0.066 C 
ATOM     10  C   UNL     1      45.167 131.363  18.363  1.00  0.00     0.142 C 
ENDROOT
BRANCH   1  11
ATOM     11  O   UNL     1      43.339 131.788  16.799  1.00  0.00    -0.386 OA
ATOM     12  H   UNL     1      42.840 132.064  17.612  1.00  0.00     0.211 HD
ENDBRANCH   1  11
BRANCH  10  13
ATOM     13  N   UNL     1      44.053 131.015  19.249  1.00  0.00    -0.298 NA
BRANCH  13  14
ATOM     14  C   UNL     1      43.578 131.806  20.164  1.00  0.00    -0.039 C 
ATOM     15  O   UNL     1      42.699 132.831  19.827  1.00  0.00    -0.862 OA
BRANCH  14  16
ATOM     16  C   UNL     1      43.967 131.619  21.607  1.00  0.00     0.022 C 
ATOM     17  C   UNL     1      42.794 131.801  22.563  1.00  0.00     0.009 C 
ATOM     18  C   UNL     1      44.504 130.225  21.905  1.00  0.00     0.009 C 
ATOM     19  C   UNL     1      43.156 130.995  23.805  1.00  0.00     0.001 C 
ATOM     20  C   UNL     1      44.249 130.007  23.392  1.00  0.00     0.001 C 
ENDBRANCH  14  16
ENDBRANCH  13  14
ENDBRANCH  10  13
TORSDOF 4
ENDMDL


