REMARK SMILES C=Cc1cc(C2=CC=C[C@@]3(F)N=CO[C@@]23O)cc([O-])c1F
REMARK SMILES IDX 6 1 7 2 8 3 9 4 10 5 11 6 12 7 13 8 14 9 15 10 5 11 3 12
REMARK SMILES IDX 4 13 20 14 18 15 17 16 21 17 19 18 2 19 1 20 16 21
REMARK H PARENT 16 22
ROOT
ATOM      1  C   UNL     1      -1.098   0.200  -0.032  1.00  0.00     0.036 C 
ATOM      2  C   UNL     1      -2.141   0.800  -0.624  1.00  0.00     0.011 C 
ATOM      3  C   UNL     1      -3.224   0.046  -1.259  1.00  0.00     0.002 C 
ATOM      4  C   UNL     1      -3.253  -1.283  -1.253  1.00  0.00     0.045 C 
ATOM      5  C   UNL     1      -2.169  -2.122  -0.635  1.00  0.00     0.291 C 
ATOM      6  F   UNL     1      -2.740  -2.945   0.322  1.00  0.00    -0.205 F 
ATOM      7  N   UNL     1      -1.579  -2.949  -1.679  1.00  0.00    -0.208 NA
ATOM      8  C   UNL     1      -0.334  -2.655  -1.808  1.00  0.00     0.304 C 
ATOM      9  O   UNL     1       0.097  -1.686  -0.929  1.00  0.00    -0.442 OA
ATOM     10  C   UNL     1      -0.953  -1.320  -0.049  1.00  0.00     0.295 C 
ENDROOT
BRANCH   1  11
ATOM     11  C   UNL     1      -0.093   1.032   0.686  1.00  0.00    -0.015 A 
ATOM     12  C   UNL     1       2.235   1.597   1.199  1.00  0.00     0.010 A 
ATOM     13  C   UNL     1       1.286   0.824   0.500  1.00  0.00     0.019 A 
ATOM     14  C   UNL     1       1.785   2.603   2.073  1.00  0.00     0.122 A 
ATOM     15  C   UNL     1       0.417   2.812   2.264  1.00  0.00    -0.071 A 
ATOM     16  C   UNL     1      -0.516   2.031   1.580  1.00  0.00     0.003 A 
ATOM     17  F   UNL     1       2.674   3.372   2.754  1.00  0.00    -0.207 F 
ATOM     18  O   UNL     1      -0.020   3.799   3.140  1.00  0.00    -0.870 OA
BRANCH  12  19
ATOM     19  C   UNL     1       3.696   1.406   1.009  1.00  0.00     0.003 C 
ATOM     20  C   UNL     1       4.246   0.271   0.577  1.00  0.00     0.009 C 
ENDBRANCH  12  19
ENDBRANCH   1  11
BRANCH  10  21
ATOM     21  O   UNL     1      -0.631  -1.785   1.240  1.00  0.00    -0.348 OA
ATOM     22  H   UNL     1      -1.361  -1.495   1.849  1.00  0.00     0.215 HD
ENDBRANCH  10  21
TORSDOF 3


