MODEL 1
REMARK VINA RESULT:      -7.7      0.000      0.000
REMARK SMILES Cc1c(Br)cccc1[NH2+]/C(S)=[N+]1/CCC[C@@H](c2ccc3cc(F)ccc3n2)[C@H]1F
REMARK SMILES IDX 10 1 11 2 12 4 13 5 28 6 14 7 16 8 15 9 29 10 17 11 27 12
REMARK SMILES IDX 18 13 26 14 19 15 25 16 20 17 24 18 21 19 22 20 23 21 9 22
REMARK SMILES IDX 8 25 7 26 2 27 6 28 3 29 5 30 1 31 4 32
REMARK H PARENT 11 3 9 23 9 24
ROOT
ATOM      1  C   UNL     1      44.987 128.841  22.412  1.00  0.00     0.401 C 
ENDROOT
BRANCH   1   2
ATOM      2  S   UNL     1      45.895 127.473  21.638  1.00  0.00    -0.010 SA
ATOM      3  H   UNL     1      44.745 126.662  21.605  1.00  0.00     0.120 HD
ENDBRANCH   1   2
BRANCH   1   4
ATOM      4  N   UNL     1      44.972 130.040  21.868  1.00  0.00    -0.144 N 
ATOM      5  C   UNL     1      44.265 131.168  22.486  1.00  0.00     0.360 C 
ATOM      6  C   UNL     1      45.592 130.342  20.577  1.00  0.00     0.457 C 
ATOM      7  C   UNL     1      43.164 131.672  21.542  1.00  0.00     0.074 C 
ATOM      8  C   UNL     1      44.494 130.776  19.588  1.00  0.00     0.142 C 
ATOM      9  C   UNL     1      43.721 131.988  20.146  1.00  0.00     0.026 C 
ATOM     10  F   UNL     1      46.518 131.360  20.748  1.00  0.00    -0.174 F 
BRANCH   8  11
ATOM     11  C   UNL     1      45.040 131.025  18.200  1.00  0.00     0.054 A 
ATOM     12  N   UNL     1      45.691 130.011  17.565  1.00  0.00    -0.252 NA
ATOM     13  C   UNL     1      44.924 132.274  17.563  1.00  0.00     0.025 A 
ATOM     14  C   UNL     1      46.232 130.158  16.328  1.00  0.00     0.071 A 
ATOM     15  C   UNL     1      45.469 132.455  16.290  1.00  0.00     0.012 A 
ATOM     16  C   UNL     1      46.891 129.085  15.717  1.00  0.00     0.032 A 
ATOM     17  C   UNL     1      46.131 131.396  15.658  1.00  0.00     0.003 A 
ATOM     18  C   UNL     1      47.450 129.240  14.445  1.00  0.00     0.041 A 
ATOM     19  C   UNL     1      46.693 131.545  14.381  1.00  0.00     0.049 A 
ATOM     20  C   UNL     1      47.351 130.467  13.778  1.00  0.00     0.123 A 
ATOM     21  F   UNL     1      47.895 130.611  12.544  1.00  0.00    -0.207 F 
ENDBRANCH   8  11
ENDBRANCH   1   4
BRANCH   1  22
ATOM     22  N   UNL     1      44.216 128.503  23.600  1.00  0.00    -0.220 N 
ATOM     23  H   UNL     1      43.215 128.769  23.459  1.00  0.00     0.364 HD
ATOM     24  H   UNL     1      44.551 129.098  24.392  1.00  0.00     0.364 HD
BRANCH  22  25
ATOM     25  C   UNL     1      44.249 127.087  23.933  1.00  0.00     0.143 A 
ATOM     26  C   UNL     1      45.475 126.518  24.338  1.00  0.00     0.069 A 
ATOM     27  C   UNL     1      43.084 126.264  23.927  1.00  0.00     0.025 A 
ATOM     28  C   UNL     1      45.581 125.157  24.606  1.00  0.00     0.007 A 
ATOM     29  C   UNL     1      43.225 124.871  24.148  1.00  0.00     0.026 A 
ATOM     30  C   UNL     1      44.468 124.334  24.484  1.00  0.00     0.016 A 
ATOM     31  C   UNL     1      41.717 126.843  23.660  1.00  0.00     0.052 C 
ATOM     32  Br  UNL     1      41.758 123.641  23.986  1.00  0.00    -0.050 Br
ENDBRANCH  22  25
ENDBRANCH   1  22
TORSDOF 5
ENDMDL
MODEL 2
REMARK VINA RESULT:      -6.6      1.547      2.180
REMARK SMILES Cc1c(Br)cccc1[NH2+]/C(S)=[N+]1/CCC[C@@H](c2ccc3cc(F)ccc3n2)[C@H]1F
REMARK SMILES IDX 10 1 11 2 12 4 13 5 28 6 14 7 16 8 15 9 29 10 17 11 27 12
REMARK SMILES IDX 18 13 26 14 19 15 25 16 20 17 24 18 21 19 22 20 23 21 9 22
REMARK SMILES IDX 8 25 7 26 2 27 6 28 3 29 5 30 1 31 4 32
REMARK H PARENT 11 3 9 23 9 24
ROOT
ATOM      1  C   UNL     1      44.761 130.685  21.991  1.00  0.00     0.401 C 
ENDROOT
BRANCH   1   2
ATOM      2  S   UNL     1      45.134 131.382  23.625  1.00  0.00    -0.010 SA
ATOM      3  H   UNL     1      45.046 130.118  24.239  1.00  0.00     0.120 HD
ENDBRANCH   1   2
BRANCH   1   4
ATOM      4  N   UNL     1      44.320 131.448  21.012  1.00  0.00    -0.144 N 
ATOM      5  C   UNL     1      43.000 132.087  21.057  1.00  0.00     0.360 C 
ATOM      6  C   UNL     1      45.064 131.670  19.772  1.00  0.00     0.457 C 
ATOM      7  C   UNL     1      42.136 131.580  19.892  1.00  0.00     0.074 C 
ATOM      8  C   UNL     1      44.252 131.099  18.595  1.00  0.00     0.142 C 
ATOM      9  C   UNL     1      42.855 131.748  18.545  1.00  0.00     0.026 C 
ATOM     10  F   UNL     1      45.265 133.032  19.605  1.00  0.00    -0.174 F 
BRANCH   8  11
ATOM     11  C   UNL     1      44.993 131.211  17.282  1.00  0.00     0.054 A 
ATOM     12  N   UNL     1      45.760 130.162  16.874  1.00  0.00    -0.252 NA
ATOM     13  C   UNL     1      44.938 132.372  16.489  1.00  0.00     0.025 A 
ATOM     14  C   UNL     1      46.476 130.191  15.720  1.00  0.00     0.071 A 
ATOM     15  C   UNL     1      45.662 132.431  15.297  1.00  0.00     0.012 A 
ATOM     16  C   UNL     1      47.249 129.086  15.345  1.00  0.00     0.032 A 
ATOM     17  C   UNL     1      46.442 131.338  14.899  1.00  0.00     0.003 A 
ATOM     18  C   UNL     1      47.988 129.120  14.158  1.00  0.00     0.041 A 
ATOM     19  C   UNL     1      47.184 131.366  13.709  1.00  0.00     0.049 A 
ATOM     20  C   UNL     1      47.955 130.257  13.342  1.00  0.00     0.123 A 
ATOM     21  F   UNL     1      48.673 130.283  12.192  1.00  0.00    -0.207 F 
ENDBRANCH   8  11
ENDBRANCH   1   4
BRANCH   1  22
ATOM     22  N   UNL     1      45.066 129.272  21.816  1.00  0.00    -0.220 N 
ATOM     23  H   UNL     1      46.070 129.096  22.046  1.00  0.00     0.364 HD
ATOM     24  H   UNL     1      44.969 129.037  20.801  1.00  0.00     0.364 HD
BRANCH  22  25
ATOM     25  C   UNL     1      44.264 128.394  22.655  1.00  0.00     0.143 A 
ATOM     26  C   UNL     1      43.066 128.894  23.205  1.00  0.00     0.069 A 
ATOM     27  C   UNL     1      44.609 127.030  22.896  1.00  0.00     0.025 A 
ATOM     28  C   UNL     1      42.293 128.122  24.066  1.00  0.00     0.007 A 
ATOM     29  C   UNL     1      43.839 126.280  23.820  1.00  0.00     0.026 A 
ATOM     30  C   UNL     1      42.693 126.833  24.395  1.00  0.00     0.016 A 
ATOM     31  C   UNL     1      45.788 126.387  22.211  1.00  0.00     0.052 C 
ATOM     32  Br  UNL     1      44.313 124.498  24.359  1.00  0.00    -0.050 Br
ENDBRANCH  22  25
ENDBRANCH   1  22
TORSDOF 5
ENDMDL
MODEL 3
REMARK VINA RESULT:      -5.1      1.812      2.232
REMARK SMILES Cc1c(Br)cccc1[NH2+]/C(S)=[N+]1/CCC[C@@H](c2ccc3cc(F)ccc3n2)[C@H]1F
REMARK SMILES IDX 10 1 11 2 12 4 13 5 28 6 14 7 16 8 15 9 29 10 17 11 27 12
REMARK SMILES IDX 18 13 26 14 19 15 25 16 20 17 24 18 21 19 22 20 23 21 9 22
REMARK SMILES IDX 8 25 7 26 2 27 6 28 3 29 5 30 1 31 4 32
REMARK H PARENT 11 3 9 23 9 24
ROOT
ATOM      1  C   UNL     1      43.852 129.516  22.930  1.00  0.00     0.401 C 
ENDROOT
BRANCH   1   2
ATOM      2  S   UNL     1      42.209 128.817  23.259  1.00  0.00    -0.010 SA
ATOM      3  H   UNL     1      42.649 127.513  22.963  1.00  0.00     0.120 HD
ENDBRANCH   1   2
BRANCH   1   4
ATOM      4  N   UNL     1      43.990 130.649  22.274  1.00  0.00    -0.144 N 
ATOM      5  C   UNL     1      43.612 131.940  22.861  1.00  0.00     0.360 C 
ATOM      6  C   UNL     1      44.460 130.722  20.890  1.00  0.00     0.457 C 
ATOM      7  C   UNL     1      42.503 132.589  22.020  1.00  0.00     0.074 C 
ATOM      8  C   UNL     1      43.334 131.298  20.012  1.00  0.00     0.142 C 
ATOM      9  C   UNL     1      42.900 132.680  20.539  1.00  0.00     0.026 C 
ATOM     10  F   UNL     1      45.580 131.538  20.836  1.00  0.00    -0.174 F 
BRANCH   8  11
ATOM     11  C   UNL     1      43.709 131.326  18.547  1.00  0.00     0.054 A 
ATOM     12  N   UNL     1      44.911 130.806  18.172  1.00  0.00    -0.252 NA
ATOM     13  C   UNL     1      42.873 131.899  17.572  1.00  0.00     0.025 A 
ATOM     14  C   UNL     1      45.334 130.813  16.881  1.00  0.00     0.071 A 
ATOM     15  C   UNL     1      43.281 131.920  16.236  1.00  0.00     0.012 A 
ATOM     16  C   UNL     1      46.578 130.265  16.547  1.00  0.00     0.032 A 
ATOM     17  C   UNL     1      44.519 131.376  15.877  1.00  0.00     0.003 A 
ATOM     18  C   UNL     1      47.012 130.277  15.218  1.00  0.00     0.041 A 
ATOM     19  C   UNL     1      44.961 131.385  14.545  1.00  0.00     0.049 A 
ATOM     20  C   UNL     1      46.206 130.835  14.219  1.00  0.00     0.123 A 
ATOM     21  F   UNL     1      46.633 130.843  12.932  1.00  0.00    -0.207 F 
ENDBRANCH   8  11
ENDBRANCH   1   4
BRANCH   1  22
ATOM     22  N   UNL     1      44.978 128.798  23.512  1.00  0.00    -0.220 N 
ATOM     23  H   UNL     1      45.101 129.083  24.510  1.00  0.00     0.364 HD
ATOM     24  H   UNL     1      45.852 129.105  23.026  1.00  0.00     0.364 HD
BRANCH  22  25
ATOM     25  C   UNL     1      44.823 127.352  23.486  1.00  0.00     0.143 A 
ATOM     26  C   UNL     1      43.592 126.796  23.892  1.00  0.00     0.069 A 
ATOM     27  C   UNL     1      45.843 126.474  23.010  1.00  0.00     0.025 A 
ATOM     28  C   UNL     1      43.409 125.418  23.949  1.00  0.00     0.007 A 
ATOM     29  C   UNL     1      45.657 125.074  23.130  1.00  0.00     0.026 A 
ATOM     30  C   UNL     1      44.446 124.562  23.598  1.00  0.00     0.016 A 
ATOM     31  C   UNL     1      47.121 127.008  22.413  1.00  0.00     0.052 C 
ATOM     32  Br  UNL     1      47.030 123.803  22.692  1.00  0.00    -0.050 Br
ENDBRANCH  22  25
ENDBRANCH   1  22
TORSDOF 5
ENDMDL


