REMARK SMILES COCCN/C(S)=[N+]1/CC[C@H](C)[C@@H](F)[C@@H]1c1ccc(C(C)=O)cc1
REMARK SMILES IDX 6 1 5 2 7 4 8 6 9 7 15 8 10 9 13 10 11 11 14 12 12 13 16 14
REMARK SMILES IDX 17 15 24 16 18 17 23 18 19 19 20 20 22 21 21 22 4 23 3 24
REMARK SMILES IDX 2 25 1 26
REMARK H PARENT 5 3 7 5
ROOT
ATOM      1  C   UNL     1      -1.643  -0.881   1.775  1.00  0.00     0.303 C 
ATOM      2  N   UNL     1      -0.876   0.206   2.337  1.00  0.00    -0.267 N 
ATOM      3  H   UNL     1      -1.151   1.196   2.155  1.00  0.00     0.305 HD
ENDROOT
BRANCH   1   4
ATOM      4  S   UNL     1      -1.652  -2.447   2.694  1.00  0.00    -0.056 SA
ATOM      5  H   UNL     1      -0.530  -2.925   1.989  1.00  0.00     0.116 HD
ENDBRANCH   1   4
BRANCH   1   6
ATOM      6  N   UNL     1      -2.318  -0.746   0.640  1.00  0.00    -0.247 N 
ATOM      7  C   UNL     1      -3.179  -1.880   0.213  1.00  0.00     0.238 C 
ATOM      8  C   UNL     1      -2.240   0.536  -0.128  1.00  0.00     0.241 C 
ATOM      9  C   UNL     1      -3.925  -1.682  -1.105  1.00  0.00     0.052 C 
ATOM     10  C   UNL     1      -3.147   0.628  -1.383  1.00  0.00     0.219 C 
ATOM     11  C   UNL     1      -4.394  -0.242  -1.257  1.00  0.00     0.029 C 
ATOM     12  F   UNL     1      -3.519   1.950  -1.575  1.00  0.00    -0.242 F 
ATOM     13  C   UNL     1      -5.295  -0.101  -2.492  1.00  0.00     0.011 C 
BRANCH   8  14
ATOM     14  C   UNL     1      -0.809   0.829  -0.552  1.00  0.00    -0.001 A 
ATOM     15  C   UNL     1      -0.297   2.132  -0.464  1.00  0.00     0.009 A 
ATOM     16  C   UNL     1      -0.007  -0.183  -1.103  1.00  0.00     0.009 A 
ATOM     17  C   UNL     1       1.003   2.415  -0.895  1.00  0.00     0.012 A 
ATOM     18  C   UNL     1       1.292   0.098  -1.532  1.00  0.00     0.012 A 
ATOM     19  C   UNL     1       1.815   1.400  -1.435  1.00  0.00     0.017 A 
BRANCH  19  20
ATOM     20  C   UNL     1       3.193   1.686  -1.915  1.00  0.00     0.159 C 
ATOM     21  O   UNL     1       3.874   0.765  -2.444  1.00  0.00    -0.295 OA
ATOM     22  C   UNL     1       3.808   3.049  -1.800  1.00  0.00     0.093 C 
ENDBRANCH  19  20
ENDBRANCH   8  14
ENDBRANCH   1   6
BRANCH   2  23
ATOM     23  C   UNL     1       0.242  -0.034   3.255  1.00  0.00     0.262 C 
BRANCH  23  24
ATOM     24  C   UNL     1       1.041   1.246   3.499  1.00  0.00     0.205 C 
BRANCH  24  25
ATOM     25  O   UNL     1       1.603   1.685   2.280  1.00  0.00    -0.381 OA
ATOM     26  C   UNL     1       2.271   2.908   2.489  1.00  0.00     0.195 C 
ENDBRANCH  24  25
ENDBRANCH  23  24
ENDBRANCH   2  23
TORSDOF 7


