MODEL 1
REMARK VINA RESULT:      -6.8      0.000      0.000
REMARK SMILES C=C[C@@H](Oc1nc[nH+]c(C)c1C)c1cc(-c2c[n-]c3nccc-3c2)cc2c1CC(=O)[N-]2
REMARK SMILES IDX 3 1 2 2 1 3 4 4 5 5 6 6 11 7 7 8 9 9 8 10 12 11 10 12 13 14
REMARK SMILES IDX 14 15 27 16 15 17 26 18 28 19 25 20 31 21 29 22 30 23 16 24
REMARK SMILES IDX 17 25 24 26 18 27 23 28 19 29 22 30 20 31 21 32
REMARK H PARENT 8 13
ROOT
ATOM      1  C   UNL     1      45.577 128.383  22.392  1.00  0.00     0.230 C 
ENDROOT
BRANCH   1   2
ATOM      2  C   UNL     1      44.874 128.211  23.712  1.00  0.00     0.014 C 
ATOM      3  C   UNL     1      43.665 127.646  23.792  1.00  0.00     0.008 C 
ENDBRANCH   1   2
BRANCH   1   4
ATOM      4  O   UNL     1      45.466 127.174  21.641  1.00  0.00    -0.447 OA
BRANCH   4   5
ATOM      5  C   UNL     1      45.392 125.902  22.225  1.00  0.00     0.335 A 
ATOM      6  N   UNL     1      44.192 125.270  22.335  1.00  0.00    -0.010 NA
ATOM      7  C   UNL     1      46.556 125.274  22.703  1.00  0.00     0.080 A 
ATOM      8  C   UNL     1      44.088 124.046  22.902  1.00  0.00     0.453 A 
ATOM      9  C   UNL     1      46.423 124.005  23.311  1.00  0.00     0.108 A 
ATOM     10  N   UNL     1      45.193 123.421  23.385  1.00  0.00    -0.247 N 
ATOM     11  C   UNL     1      47.895 125.967  22.623  1.00  0.00     0.057 C 
ATOM     12  C   UNL     1      47.619 123.277  23.865  1.00  0.00     0.093 C 
ATOM     13  H   UNL     1      45.079 122.479  23.821  1.00  0.00     0.311 HD
ENDBRANCH   4   5
ENDBRANCH   1   4
BRANCH   1  14
ATOM     14  C   UNL     1      44.975 129.540  21.622  1.00  0.00    -0.001 A 
ATOM     15  C   UNL     1      45.227 129.678  20.241  1.00  0.00     0.016 A 
ATOM     16  C   UNL     1      44.172 130.513  22.243  1.00  0.00    -0.050 A 
ATOM     17  C   UNL     1      44.680 130.753  19.500  1.00  0.00    -0.020 A 
ATOM     18  C   UNL     1      43.646 131.565  21.525  1.00  0.00    -0.130 A 
ATOM     19  C   UNL     1      43.752 130.611  23.673  1.00  0.00     0.089 C 
ATOM     20  C   UNL     1      43.880 131.710  20.160  1.00  0.00    -0.007 A 
ATOM     21  N   UNL     1      42.867 132.446  22.318  1.00  0.00    -0.626 NA
ATOM     22  C   UNL     1      42.938 131.866  23.616  1.00  0.00     0.059 C 
ATOM     23  O   UNL     1      42.359 132.369  24.614  1.00  0.00    -0.320 OA
BRANCH  17  24
ATOM     24  C   UNL     1      44.942 130.873  18.044  1.00  0.00    -0.022 A 
ATOM     25  C   UNL     1      44.086 131.661  17.219  1.00  0.00    -0.014 A 
ATOM     26  C   UNL     1      46.041 130.194  17.463  1.00  0.00     0.016 A 
ATOM     27  N   UNL     1      44.300 131.781  15.873  1.00  0.00    -0.442 NA
ATOM     28  C   UNL     1      46.231 130.334  16.099  1.00  0.00    -0.026 A 
ATOM     29  C   UNL     1      45.348 131.132  15.318  1.00  0.00    -0.052 A 
ATOM     30  C   UNL     1      47.156 129.832  15.222  1.00  0.00     0.003 A 
ATOM     31  N   UNL     1      45.695 131.135  14.023  1.00  0.00    -0.442 NA
ATOM     32  C   UNL     1      46.798 130.342  13.971  1.00  0.00    -0.022 A 
ENDBRANCH  17  24
ENDBRANCH   1  14
TORSDOF 5
ENDMDL
MODEL 2
REMARK VINA RESULT:      -6.5      4.142      7.268
REMARK SMILES C=C[C@@H](Oc1nc[nH+]c(C)c1C)c1cc(-c2c[n-]c3nccc-3c2)cc2c1CC(=O)[N-]2
REMARK SMILES IDX 3 1 2 2 1 3 4 4 5 5 6 6 11 7 7 8 9 9 8 10 12 11 10 12 13 14
REMARK SMILES IDX 14 15 27 16 15 17 26 18 28 19 25 20 31 21 29 22 30 23 16 24
REMARK SMILES IDX 17 25 24 26 18 27 23 28 19 29 22 30 20 31 21 32
REMARK H PARENT 8 13
ROOT
ATOM      1  C   UNL     1      43.979 131.641  19.357  1.00  0.00     0.230 C 
ENDROOT
BRANCH   1   2
ATOM      2  C   UNL     1      42.651 132.332  19.214  1.00  0.00     0.014 C 
ATOM      3  C   UNL     1      41.545 131.659  18.878  1.00  0.00     0.008 C 
ENDBRANCH   1   2
BRANCH   1   4
ATOM      4  O   UNL     1      44.848 132.073  18.310  1.00  0.00    -0.447 OA
BRANCH   4   5
ATOM      5  C   UNL     1      44.792 131.576  17.001  1.00  0.00     0.335 A 
ATOM      6  N   UNL     1      43.914 132.105  16.107  1.00  0.00    -0.010 NA
ATOM      7  C   UNL     1      45.641 130.526  16.606  1.00  0.00     0.080 A 
ATOM      8  C   UNL     1      43.831 131.640  14.839  1.00  0.00     0.453 A 
ATOM      9  C   UNL     1      45.524 130.041  15.284  1.00  0.00     0.108 A 
ATOM     10  N   UNL     1      44.628 130.618  14.433  1.00  0.00    -0.247 N 
ATOM     11  C   UNL     1      46.602 129.900  17.587  1.00  0.00     0.057 C 
ATOM     12  C   UNL     1      46.382 128.906  14.791  1.00  0.00     0.093 C 
ATOM     13  H   UNL     1      44.537 130.278  13.449  1.00  0.00     0.311 HD
ENDBRANCH   4   5
ENDBRANCH   1   4
BRANCH   1  14
ATOM     14  C   UNL     1      44.589 131.946  20.710  1.00  0.00    -0.001 A 
ATOM     15  C   UNL     1      45.732 132.767  20.802  1.00  0.00     0.016 A 
ATOM     16  C   UNL     1      44.059 131.421  21.902  1.00  0.00    -0.050 A 
ATOM     17  C   UNL     1      46.322 133.064  22.054  1.00  0.00    -0.020 A 
ATOM     18  C   UNL     1      44.638 131.702  23.121  1.00  0.00    -0.130 A 
ATOM     19  C   UNL     1      42.873 130.533  22.093  1.00  0.00     0.089 C 
ATOM     20  C   UNL     1      45.762 132.516  23.228  1.00  0.00    -0.007 A 
ATOM     21  N   UNL     1      43.972 131.083  24.209  1.00  0.00    -0.626 NA
ATOM     22  C   UNL     1      42.908 130.375  23.581  1.00  0.00     0.059 C 
ATOM     23  O   UNL     1      42.077 129.688  24.230  1.00  0.00    -0.320 OA
BRANCH  17  24
ATOM     24  C   UNL     1      47.515 133.944  22.133  1.00  0.00    -0.022 A 
ATOM     25  C   UNL     1      48.534 133.691  23.097  1.00  0.00    -0.014 A 
ATOM     26  C   UNL     1      47.641 135.047  21.255  1.00  0.00     0.016 A 
ATOM     27  N   UNL     1      49.640 134.491  23.197  1.00  0.00    -0.442 NA
ATOM     28  C   UNL     1      48.770 135.839  21.381  1.00  0.00    -0.026 A 
ATOM     29  C   UNL     1      49.760 135.546  22.360  1.00  0.00    -0.052 A 
ATOM     30  C   UNL     1      49.210 136.961  20.727  1.00  0.00     0.003 A 
ATOM     31  N   UNL     1      50.768 136.430  22.328  1.00  0.00    -0.442 NA
ATOM     32  C   UNL     1      50.427 137.289  21.331  1.00  0.00    -0.022 A 
ENDBRANCH  17  24
ENDBRANCH   1  14
TORSDOF 5
ENDMDL
MODEL 3
REMARK VINA RESULT:      -6.2      2.008      2.951
REMARK SMILES C=C[C@@H](Oc1nc[nH+]c(C)c1C)c1cc(-c2c[n-]c3nccc-3c2)cc2c1CC(=O)[N-]2
REMARK SMILES IDX 3 1 2 2 1 3 4 4 5 5 6 6 11 7 7 8 9 9 8 10 12 11 10 12 13 14
REMARK SMILES IDX 14 15 27 16 15 17 26 18 28 19 25 20 31 21 29 22 30 23 16 24
REMARK SMILES IDX 17 25 24 26 18 27 23 28 19 29 22 30 20 31 21 32
REMARK H PARENT 8 13
ROOT
ATOM      1  C   UNL     1      45.374 130.573  21.251  1.00  0.00     0.230 C 
ENDROOT
BRANCH   1   2
ATOM      2  C   UNL     1      44.709 131.230  22.430  1.00  0.00     0.014 C 
ATOM      3  C   UNL     1      45.374 131.464  23.567  1.00  0.00     0.008 C 
ENDBRANCH   1   2
BRANCH   1   4
ATOM      4  O   UNL     1      45.237 129.157  21.364  1.00  0.00    -0.447 OA
BRANCH   4   5
ATOM      5  C   UNL     1      44.543 128.525  22.404  1.00  0.00     0.335 A 
ATOM      6  N   UNL     1      43.417 129.091  22.916  1.00  0.00    -0.010 NA
ATOM      7  C   UNL     1      45.009 127.305  22.927  1.00  0.00     0.080 A 
ATOM      8  C   UNL     1      42.730 128.509  23.926  1.00  0.00     0.453 A 
ATOM      9  C   UNL     1      44.290 126.725  23.997  1.00  0.00     0.108 A 
ATOM     10  N   UNL     1      43.164 127.338  24.460  1.00  0.00    -0.247 N 
ATOM     11  C   UNL     1      46.274 126.673  22.400  1.00  0.00     0.057 C 
ATOM     12  C   UNL     1      44.736 125.430  24.624  1.00  0.00     0.093 C 
ATOM     13  H   UNL     1      42.615 126.916  25.243  1.00  0.00     0.311 HD
ENDBRANCH   4   5
ENDBRANCH   1   4
BRANCH   1  14
ATOM     14  C   UNL     1      44.756 131.063  19.958  1.00  0.00    -0.001 A 
ATOM     15  C   UNL     1      45.423 130.858  18.732  1.00  0.00     0.016 A 
ATOM     16  C   UNL     1      43.524 131.740  19.929  1.00  0.00    -0.050 A 
ATOM     17  C   UNL     1      44.868 131.310  17.511  1.00  0.00    -0.020 A 
ATOM     18  C   UNL     1      42.986 132.189  18.741  1.00  0.00    -0.130 A 
ATOM     19  C   UNL     1      42.617 132.090  21.064  1.00  0.00     0.089 C 
ATOM     20  C   UNL     1      43.631 131.987  17.524  1.00  0.00    -0.007 A 
ATOM     21  N   UNL     1      41.744 132.852  18.908  1.00  0.00    -0.626 NA
ATOM     22  C   UNL     1      41.528 132.793  20.314  1.00  0.00     0.059 C 
ATOM     23  O   UNL     1      40.508 133.284  20.863  1.00  0.00    -0.320 OA
BRANCH  17  24
ATOM     24  C   UNL     1      45.577 131.070  16.229  1.00  0.00    -0.022 A 
ATOM     25  C   UNL     1      45.118 131.682  15.026  1.00  0.00    -0.014 A 
ATOM     26  C   UNL     1      46.711 130.223  16.193  1.00  0.00     0.016 A 
ATOM     27  N   UNL     1      45.748 131.472  13.830  1.00  0.00    -0.442 NA
ATOM     28  C   UNL     1      47.326 130.029  14.968  1.00  0.00    -0.026 A 
ATOM     29  C   UNL     1      46.830 130.661  13.795  1.00  0.00    -0.052 A 
ATOM     30  C   UNL     1      48.409 129.290  14.567  1.00  0.00     0.003 A 
ATOM     31  N   UNL     1      47.555 130.343  12.713  1.00  0.00    -0.442 NA
ATOM     32  C   UNL     1      48.516 129.508  13.190  1.00  0.00    -0.022 A 
ENDBRANCH  17  24
ENDBRANCH   1  14
TORSDOF 5
ENDMDL
MODEL 4
REMARK VINA RESULT:      -6.1      4.226      6.395
REMARK SMILES C=C[C@@H](Oc1nc[nH+]c(C)c1C)c1cc(-c2c[n-]c3nccc-3c2)cc2c1CC(=O)[N-]2
REMARK SMILES IDX 3 1 2 2 1 3 4 4 5 5 6 6 11 7 7 8 9 9 8 10 12 11 10 12 13 14
REMARK SMILES IDX 14 15 27 16 15 17 26 18 28 19 25 20 31 21 29 22 30 23 16 24
REMARK SMILES IDX 17 25 24 26 18 27 23 28 19 29 22 30 20 31 21 32
REMARK H PARENT 8 13
ROOT
ATOM      1  C   UNL     1      46.368 133.610  22.219  1.00  0.00     0.230 C 
ENDROOT
BRANCH   1   2
ATOM      2  C   UNL     1      46.428 133.271  23.683  1.00  0.00     0.014 C 
ATOM      3  C   UNL     1      46.392 134.221  24.623  1.00  0.00     0.008 C 
ENDBRANCH   1   2
BRANCH   1   4
ATOM      4  O   UNL     1      47.686 133.574  21.674  1.00  0.00    -0.447 OA
BRANCH   4   5
ATOM      5  C   UNL     1      48.800 134.153  22.297  1.00  0.00     0.335 A 
ATOM      6  N   UNL     1      49.457 133.482  23.281  1.00  0.00    -0.010 NA
ATOM      7  C   UNL     1      49.240 135.432  21.913  1.00  0.00     0.080 A 
ATOM      8  C   UNL     1      50.530 134.019  23.907  1.00  0.00     0.453 A 
ATOM      9  C   UNL     1      50.349 135.984  22.594  1.00  0.00     0.108 A 
ATOM     10  N   UNL     1      50.970 135.258  23.566  1.00  0.00    -0.247 N 
ATOM     11  C   UNL     1      48.509 136.211  20.847  1.00  0.00     0.057 C 
ATOM     12  C   UNL     1      50.868 137.356  22.253  1.00  0.00     0.093 C 
ATOM     13  H   UNL     1      51.797 135.647  24.072  1.00  0.00     0.311 HD
ENDBRANCH   4   5
ENDBRANCH   1   4
BRANCH   1  14
ATOM     14  C   UNL     1      45.467 132.635  21.489  1.00  0.00    -0.001 A 
ATOM     15  C   UNL     1      45.596 132.459  20.095  1.00  0.00     0.016 A 
ATOM     16  C   UNL     1      44.476 131.893  22.155  1.00  0.00    -0.050 A 
ATOM     17  C   UNL     1      44.764 131.557  19.390  1.00  0.00    -0.020 A 
ATOM     18  C   UNL     1      43.658 131.021  21.468  1.00  0.00    -0.130 A 
ATOM     19  C   UNL     1      44.124 131.885  23.607  1.00  0.00     0.089 C 
ATOM     20  C   UNL     1      43.780 130.832  20.094  1.00  0.00    -0.007 A 
ATOM     21  N   UNL     1      42.717 130.365  22.302  1.00  0.00    -0.626 NA
ATOM     22  C   UNL     1      43.001 130.895  23.593  1.00  0.00     0.059 C 
ATOM     23  O   UNL     1      42.364 130.549  24.621  1.00  0.00    -0.320 OA
BRANCH  17  24
ATOM     24  C   UNL     1      44.926 131.373  17.926  1.00  0.00    -0.022 A 
ATOM     25  C   UNL     1      43.915 131.823  17.027  1.00  0.00    -0.014 A 
ATOM     26  C   UNL     1      46.084 130.739  17.415  1.00  0.00     0.016 A 
ATOM     27  N   UNL     1      44.036 131.659  15.674  1.00  0.00    -0.442 NA
ATOM     28  C   UNL     1      46.177 130.586  16.042  1.00  0.00    -0.026 A 
ATOM     29  C   UNL     1      45.141 131.052  15.185  1.00  0.00    -0.052 A 
ATOM     30  C   UNL     1      47.121 130.029  15.219  1.00  0.00     0.003 A 
ATOM     31  N   UNL     1      45.413 130.804  13.895  1.00  0.00    -0.442 NA
ATOM     32  C   UNL     1      46.621 130.182  13.923  1.00  0.00    -0.022 A 
ENDBRANCH  17  24
ENDBRANCH   1  14
TORSDOF 5
ENDMDL
MODEL 5
REMARK VINA RESULT:      -6.0      1.612      7.559
REMARK SMILES C=C[C@@H](Oc1nc[nH+]c(C)c1C)c1cc(-c2c[n-]c3nccc-3c2)cc2c1CC(=O)[N-]2
REMARK SMILES IDX 3 1 2 2 1 3 4 4 5 5 6 6 11 7 7 8 9 9 8 10 12 11 10 12 13 14
REMARK SMILES IDX 14 15 27 16 15 17 26 18 28 19 25 20 31 21 29 22 30 23 16 24
REMARK SMILES IDX 17 25 24 26 18 27 23 28 19 29 22 30 20 31 21 32
REMARK H PARENT 8 13
ROOT
ATOM      1  C   UNL     1      45.437 130.984  19.906  1.00  0.00     0.230 C 
ENDROOT
BRANCH   1   2
ATOM      2  C   UNL     1      46.857 131.393  20.190  1.00  0.00     0.014 C 
ATOM      3  C   UNL     1      47.147 132.316  21.112  1.00  0.00     0.008 C 
ENDBRANCH   1   2
BRANCH   1   4
ATOM      4  O   UNL     1      45.406 130.178  18.729  1.00  0.00    -0.447 OA
BRANCH   4   5
ATOM      5  C   UNL     1      45.134 130.683  17.450  1.00  0.00     0.335 A 
ATOM      6  N   UNL     1      44.111 131.561  17.267  1.00  0.00    -0.010 NA
ATOM      7  C   UNL     1      45.913 130.281  16.350  1.00  0.00     0.080 A 
ATOM      8  C   UNL     1      43.819 132.058  16.042  1.00  0.00     0.453 A 
ATOM      9  C   UNL     1      45.578 130.796  15.077  1.00  0.00     0.108 A 
ATOM     10  N   UNL     1      44.546 131.679  14.960  1.00  0.00    -0.247 N 
ATOM     11  C   UNL     1      47.033 129.284  16.522  1.00  0.00     0.057 C 
ATOM     12  C   UNL     1      46.352 130.399  13.848  1.00  0.00     0.093 C 
ATOM     13  H   UNL     1      44.292 132.076  14.027  1.00  0.00     0.311 HD
ENDBRANCH   4   5
ENDBRANCH   1   4
BRANCH   1  14
ATOM     14  C   UNL     1      44.863 130.222  21.084  1.00  0.00    -0.001 A 
ATOM     15  C   UNL     1      45.366 128.946  21.414  1.00  0.00     0.016 A 
ATOM     16  C   UNL     1      43.817 130.739  21.868  1.00  0.00    -0.050 A 
ATOM     17  C   UNL     1      44.844 128.214  22.507  1.00  0.00    -0.020 A 
ATOM     18  C   UNL     1      43.301 130.022  22.927  1.00  0.00    -0.130 A 
ATOM     19  C   UNL     1      43.104 132.046  21.742  1.00  0.00     0.089 C 
ATOM     20  C   UNL     1      43.793 128.766  23.269  1.00  0.00    -0.007 A 
ATOM     21  N   UNL     1      42.251 130.698  23.598  1.00  0.00    -0.626 NA
ATOM     22  C   UNL     1      42.134 131.919  22.875  1.00  0.00     0.059 C 
ATOM     23  O   UNL     1      41.292 132.805  23.174  1.00  0.00    -0.320 OA
BRANCH  17  24
ATOM     24  C   UNL     1      45.398 126.880  22.850  1.00  0.00    -0.022 A 
ATOM     25  C   UNL     1      46.625 126.772  23.568  1.00  0.00    -0.014 A 
ATOM     26  C   UNL     1      44.713 125.705  22.456  1.00  0.00     0.016 A 
ATOM     27  N   UNL     1      47.162 125.555  23.890  1.00  0.00    -0.442 NA
ATOM     28  C   UNL     1      45.282 124.489  22.795  1.00  0.00    -0.026 A 
ATOM     29  C   UNL     1      46.509 124.433  23.512  1.00  0.00    -0.052 A 
ATOM     30  C   UNL     1      44.915 123.186  22.577  1.00  0.00     0.003 A 
ATOM     31  N   UNL     1      46.897 123.169  23.736  1.00  0.00    -0.442 NA
ATOM     32  C   UNL     1      45.921 122.414  23.165  1.00  0.00    -0.022 A 
ENDBRANCH  17  24
ENDBRANCH   1  14
TORSDOF 5
ENDMDL
MODEL 6
REMARK VINA RESULT:      -5.8      4.211      7.313
REMARK SMILES C=C[C@@H](Oc1nc[nH+]c(C)c1C)c1cc(-c2c[n-]c3nccc-3c2)cc2c1CC(=O)[N-]2
REMARK SMILES IDX 3 1 2 2 1 3 4 4 5 5 6 6 11 7 7 8 9 9 8 10 12 11 10 12 13 14
REMARK SMILES IDX 14 15 27 16 15 17 26 18 28 19 25 20 31 21 29 22 30 23 16 24
REMARK SMILES IDX 17 25 24 26 18 27 23 28 19 29 22 30 20 31 21 32
REMARK H PARENT 8 13
ROOT
ATOM      1  C   UNL     1      44.110 131.406  19.154  1.00  0.00     0.230 C 
ENDROOT
BRANCH   1   2
ATOM      2  C   UNL     1      42.737 131.982  18.941  1.00  0.00     0.014 C 
ATOM      3  C   UNL     1      42.277 132.990  19.690  1.00  0.00     0.008 C 
ENDBRANCH   1   2
BRANCH   1   4
ATOM      4  O   UNL     1      44.973 131.849  18.107  1.00  0.00    -0.447 OA
BRANCH   4   5
ATOM      5  C   UNL     1      45.420 131.023  17.068  1.00  0.00     0.335 A 
ATOM      6  N   UNL     1      45.392 129.671  17.211  1.00  0.00    -0.010 NA
ATOM      7  C   UNL     1      45.904 131.587  15.874  1.00  0.00     0.080 A 
ATOM      8  C   UNL     1      45.825 128.847  16.228  1.00  0.00     0.453 A 
ATOM      9  C   UNL     1      46.372 130.711  14.869  1.00  0.00     0.108 A 
ATOM     10  N   UNL     1      46.311 129.364  15.070  1.00  0.00    -0.247 N 
ATOM     11  C   UNL     1      45.977 133.085  15.703  1.00  0.00     0.057 C 
ATOM     12  C   UNL     1      46.924 131.239  13.570  1.00  0.00     0.093 C 
ATOM     13  H   UNL     1      46.642 128.703  14.331  1.00  0.00     0.311 HD
ENDBRANCH   4   5
ENDBRANCH   1   4
BRANCH   1  14
ATOM     14  C   UNL     1      44.655 131.828  20.503  1.00  0.00    -0.001 A 
ATOM     15  C   UNL     1      45.773 132.685  20.579  1.00  0.00     0.016 A 
ATOM     16  C   UNL     1      44.089 131.379  21.710  1.00  0.00    -0.050 A 
ATOM     17  C   UNL     1      46.302 133.090  21.827  1.00  0.00    -0.020 A 
ATOM     18  C   UNL     1      44.609 131.765  22.927  1.00  0.00    -0.130 A 
ATOM     19  C   UNL     1      42.918 130.475  21.920  1.00  0.00     0.089 C 
ATOM     20  C   UNL     1      45.707 132.616  23.016  1.00  0.00    -0.007 A 
ATOM     21  N   UNL     1      43.913 131.211  24.031  1.00  0.00    -0.626 NA
ATOM     22  C   UNL     1      42.894 130.430  23.416  1.00  0.00     0.059 C 
ATOM     23  O   UNL     1      42.054 129.770  24.081  1.00  0.00    -0.320 OA
BRANCH  17  24
ATOM     24  C   UNL     1      47.469 134.006  21.887  1.00  0.00    -0.022 A 
ATOM     25  C   UNL     1      47.553 135.125  21.007  1.00  0.00    -0.014 A 
ATOM     26  C   UNL     1      48.512 133.766  22.814  1.00  0.00     0.016 A 
ATOM     27  N   UNL     1      48.621 135.979  21.035  1.00  0.00    -0.442 NA
ATOM     28  C   UNL     1      49.580 134.648  22.818  1.00  0.00    -0.026 A 
ATOM     29  C   UNL     1      49.618 135.750  21.919  1.00  0.00    -0.052 A 
ATOM     30  C   UNL     1      50.736 134.720  23.550  1.00  0.00     0.003 A 
ATOM     31  N   UNL     1      50.733 136.478  22.073  1.00  0.00    -0.442 NA
ATOM     32  C   UNL     1      51.409 135.847  23.068  1.00  0.00    -0.022 A 
ENDBRANCH  17  24
ENDBRANCH   1  14
TORSDOF 5
ENDMDL
MODEL 7
REMARK VINA RESULT:      -5.8      4.163      7.365
REMARK SMILES C=C[C@@H](Oc1nc[nH+]c(C)c1C)c1cc(-c2c[n-]c3nccc-3c2)cc2c1CC(=O)[N-]2
REMARK SMILES IDX 3 1 2 2 1 3 4 4 5 5 6 6 11 7 7 8 9 9 8 10 12 11 10 12 13 14
REMARK SMILES IDX 14 15 27 16 15 17 26 18 28 19 25 20 31 21 29 22 30 23 16 24
REMARK SMILES IDX 17 25 24 26 18 27 23 28 19 29 22 30 20 31 21 32
REMARK H PARENT 8 13
ROOT
ATOM      1  C   UNL     1      44.143 131.318  19.457  1.00  0.00     0.230 C 
ENDROOT
BRANCH   1   2
ATOM      2  C   UNL     1      43.161 132.324  18.920  1.00  0.00     0.014 C 
ATOM      3  C   UNL     1      41.851 132.223  19.168  1.00  0.00     0.008 C 
ENDBRANCH   1   2
BRANCH   1   4
ATOM      4  O   UNL     1      45.198 131.142  18.513  1.00  0.00    -0.447 OA
BRANCH   4   5
ATOM      5  C   UNL     1      45.008 131.154  17.124  1.00  0.00     0.335 A 
ATOM      6  N   UNL     1      43.899 131.736  16.593  1.00  0.00    -0.010 NA
ATOM      7  C   UNL     1      45.959 130.560  16.275  1.00  0.00     0.080 A 
ATOM      8  C   UNL     1      43.683 131.755  15.257  1.00  0.00     0.453 A 
ATOM      9  C   UNL     1      45.704 130.572  14.885  1.00  0.00     0.108 A 
ATOM     10  N   UNL     1      44.577 131.178  14.413  1.00  0.00    -0.247 N 
ATOM     11  C   UNL     1      47.181 129.879  16.842  1.00  0.00     0.057 C 
ATOM     12  C   UNL     1      46.664 129.940  13.912  1.00  0.00     0.093 C 
ATOM     13  H   UNL     1      44.380 131.205  13.387  1.00  0.00     0.311 HD
ENDBRANCH   4   5
ENDBRANCH   1   4
BRANCH   1  14
ATOM     14  C   UNL     1      44.696 131.781  20.789  1.00  0.00    -0.001 A 
ATOM     15  C   UNL     1      45.815 132.639  20.831  1.00  0.00     0.016 A 
ATOM     16  C   UNL     1      44.138 131.369  22.012  1.00  0.00    -0.050 A 
ATOM     17  C   UNL     1      46.352 133.083  22.063  1.00  0.00    -0.020 A 
ATOM     18  C   UNL     1      44.666 131.793  23.213  1.00  0.00    -0.130 A 
ATOM     19  C   UNL     1      42.968 130.473  22.258  1.00  0.00     0.089 C 
ATOM     20  C   UNL     1      45.765 132.646  23.269  1.00  0.00    -0.007 A 
ATOM     21  N   UNL     1      43.978 131.273  24.339  1.00  0.00    -0.626 NA
ATOM     22  C   UNL     1      42.955 130.474  23.755  1.00  0.00     0.059 C 
ATOM     23  O   UNL     1      42.118 129.835  24.445  1.00  0.00    -0.320 OA
BRANCH  17  24
ATOM     24  C   UNL     1      47.519 133.999  22.087  1.00  0.00    -0.022 A 
ATOM     25  C   UNL     1      47.579 135.114  21.200  1.00  0.00    -0.014 A 
ATOM     26  C   UNL     1      48.587 133.765  22.986  1.00  0.00     0.016 A 
ATOM     27  N   UNL     1      48.646 135.970  21.195  1.00  0.00    -0.442 NA
ATOM     28  C   UNL     1      49.654 134.647  22.957  1.00  0.00    -0.026 A 
ATOM     29  C   UNL     1      49.667 135.745  22.053  1.00  0.00    -0.052 A 
ATOM     30  C   UNL     1      50.830 134.724  23.658  1.00  0.00     0.003 A 
ATOM     31  N   UNL     1      50.786 136.475  22.173  1.00  0.00    -0.442 NA
ATOM     32  C   UNL     1      51.489 135.849  23.153  1.00  0.00    -0.022 A 
ENDBRANCH  17  24
ENDBRANCH   1  14
TORSDOF 5
ENDMDL
MODEL 8
REMARK VINA RESULT:      -5.3      2.581      4.264
REMARK SMILES C=C[C@@H](Oc1nc[nH+]c(C)c1C)c1cc(-c2c[n-]c3nccc-3c2)cc2c1CC(=O)[N-]2
REMARK SMILES IDX 3 1 2 2 1 3 4 4 5 5 6 6 11 7 7 8 9 9 8 10 12 11 10 12 13 14
REMARK SMILES IDX 14 15 27 16 15 17 26 18 28 19 25 20 31 21 29 22 30 23 16 24
REMARK SMILES IDX 17 25 24 26 18 27 23 28 19 29 22 30 20 31 21 32
REMARK H PARENT 8 13
ROOT
ATOM      1  C   UNL     1      45.773 131.847  21.096  1.00  0.00     0.230 C 
ENDROOT
BRANCH   1   2
ATOM      2  C   UNL     1      46.246 133.262  21.285  1.00  0.00     0.014 C 
ATOM      3  C   UNL     1      46.071 134.190  20.338  1.00  0.00     0.008 C 
ENDBRANCH   1   2
BRANCH   1   4
ATOM      4  O   UNL     1      44.894 131.499  22.165  1.00  0.00    -0.447 OA
BRANCH   4   5
ATOM      5  C   UNL     1      44.570 130.178  22.504  1.00  0.00     0.335 A 
ATOM      6  N   UNL     1      45.268 129.144  21.964  1.00  0.00    -0.010 NA
ATOM      7  C   UNL     1      43.518 129.916  23.401  1.00  0.00     0.080 A 
ATOM      8  C   UNL     1      44.972 127.858  22.265  1.00  0.00     0.453 A 
ATOM      9  C   UNL     1      43.211 128.566  23.686  1.00  0.00     0.108 A 
ATOM     10  N   UNL     1      43.954 127.573  23.117  1.00  0.00    -0.247 N 
ATOM     11  C   UNL     1      42.707 131.045  23.989  1.00  0.00     0.057 C 
ATOM     12  C   UNL     1      42.088 128.203  24.620  1.00  0.00     0.093 C 
ATOM     13  H   UNL     1      43.747 126.571  23.326  1.00  0.00     0.311 HD
ENDBRANCH   4   5
ENDBRANCH   1   4
BRANCH   1  14
ATOM     14  C   UNL     1      45.067 131.701  19.763  1.00  0.00    -0.001 A 
ATOM     15  C   UNL     1      45.781 131.258  18.629  1.00  0.00     0.016 A 
ATOM     16  C   UNL     1      43.705 132.010  19.601  1.00  0.00    -0.050 A 
ATOM     17  C   UNL     1      45.145 131.118  17.372  1.00  0.00    -0.020 A 
ATOM     18  C   UNL     1      43.087 131.882  18.376  1.00  0.00    -0.130 A 
ATOM     19  C   UNL     1      42.725 132.496  20.619  1.00  0.00     0.089 C 
ATOM     20  C   UNL     1      43.777 131.439  17.251  1.00  0.00    -0.007 A 
ATOM     21  N   UNL     1      41.716 132.242  18.404  1.00  0.00    -0.626 NA
ATOM     22  C   UNL     1      41.504 132.616  19.761  1.00  0.00     0.059 C 
ATOM     23  O   UNL     1      40.386 133.003  20.189  1.00  0.00    -0.320 OA
BRANCH  17  24
ATOM     24  C   UNL     1      45.909 130.634  16.194  1.00  0.00    -0.022 A 
ATOM     25  C   UNL     1      46.242 129.253  16.069  1.00  0.00    -0.014 A 
ATOM     26  C   UNL     1      46.319 131.546  15.192  1.00  0.00     0.016 A 
ATOM     27  N   UNL     1      46.952 128.783  14.998  1.00  0.00    -0.442 NA
ATOM     28  C   UNL     1      47.037 131.040  14.122  1.00  0.00    -0.026 A 
ATOM     29  C   UNL     1      47.346 129.654  14.041  1.00  0.00    -0.052 A 
ATOM     30  C   UNL     1      47.588 131.613  13.005  1.00  0.00     0.003 A 
ATOM     31  N   UNL     1      48.051 129.364  12.938  1.00  0.00    -0.442 NA
ATOM     32  C   UNL     1      48.194 130.561  12.310  1.00  0.00    -0.022 A 
ENDBRANCH  17  24
ENDBRANCH   1  14
TORSDOF 5
ENDMDL
MODEL 9
REMARK VINA RESULT:      -4.8      1.995      3.324
REMARK SMILES C=C[C@@H](Oc1nc[nH+]c(C)c1C)c1cc(-c2c[n-]c3nccc-3c2)cc2c1CC(=O)[N-]2
REMARK SMILES IDX 3 1 2 2 1 3 4 4 5 5 6 6 11 7 7 8 9 9 8 10 12 11 10 12 13 14
REMARK SMILES IDX 14 15 27 16 15 17 26 18 28 19 25 20 31 21 29 22 30 23 16 24
REMARK SMILES IDX 17 25 24 26 18 27 23 28 19 29 22 30 20 31 21 32
REMARK H PARENT 8 13
ROOT
ATOM      1  C   UNL     1      45.662 130.693  20.882  1.00  0.00     0.230 C 
ENDROOT
BRANCH   1   2
ATOM      2  C   UNL     1      46.461 131.839  21.441  1.00  0.00     0.014 C 
ATOM      3  C   UNL     1      45.986 133.090  21.436  1.00  0.00     0.008 C 
ENDBRANCH   1   2
BRANCH   1   4
ATOM      4  O   UNL     1      44.673 130.302  21.833  1.00  0.00    -0.447 OA
BRANCH   4   5
ATOM      5  C   UNL     1      44.738 129.115  22.577  1.00  0.00     0.335 A 
ATOM      6  N   UNL     1      44.142 129.041  23.797  1.00  0.00    -0.010 NA
ATOM      7  C   UNL     1      45.422 127.998  22.066  1.00  0.00     0.080 A 
ATOM      8  C   UNL     1      44.195 127.912  24.541  1.00  0.00     0.453 A 
ATOM      9  C   UNL     1      45.485 126.836  22.868  1.00  0.00     0.108 A 
ATOM     10  N   UNL     1      44.860 126.822  24.081  1.00  0.00    -0.247 N 
ATOM     11  C   UNL     1      46.120 128.065  20.729  1.00  0.00     0.057 C 
ATOM     12  C   UNL     1      46.215 125.605  22.401  1.00  0.00     0.093 C 
ATOM     13  H   UNL     1      44.887 125.966  24.680  1.00  0.00     0.311 HD
ENDBRANCH   4   5
ENDBRANCH   1   4
BRANCH   1  14
ATOM     14  C   UNL     1      45.010 131.094  19.575  1.00  0.00    -0.001 A 
ATOM     15  C   UNL     1      45.692 130.900  18.355  1.00  0.00     0.016 A 
ATOM     16  C   UNL     1      43.732 131.677  19.527  1.00  0.00    -0.050 A 
ATOM     17  C   UNL     1      45.104 131.270  17.121  1.00  0.00    -0.020 A 
ATOM     18  C   UNL     1      43.163 132.046  18.327  1.00  0.00    -0.130 A 
ATOM     19  C   UNL     1      42.801 131.995  20.652  1.00  0.00     0.089 C 
ATOM     20  C   UNL     1      43.820 131.854  17.115  1.00  0.00    -0.007 A 
ATOM     21  N   UNL     1      41.875 132.621  18.475  1.00  0.00    -0.626 NA
ATOM     22  C   UNL     1      41.663 132.591  19.882  1.00  0.00     0.059 C 
ATOM     23  O   UNL     1      40.610 133.023  20.417  1.00  0.00    -0.320 OA
BRANCH  17  24
ATOM     24  C   UNL     1      45.830 131.042  15.846  1.00  0.00    -0.022 A 
ATOM     25  C   UNL     1      45.533 131.833  14.697  1.00  0.00    -0.014 A 
ATOM     26  C   UNL     1      46.816 130.030  15.762  1.00  0.00     0.016 A 
ATOM     27  N   UNL     1      46.181 131.639  13.508  1.00  0.00    -0.442 NA
ATOM     28  C   UNL     1      47.453 129.857  14.545  1.00  0.00    -0.026 A 
ATOM     29  C   UNL     1      47.122 130.671  13.427  1.00  0.00    -0.052 A 
ATOM     30  C   UNL     1      48.425 128.995  14.107  1.00  0.00     0.003 A 
ATOM     31  N   UNL     1      47.841 130.344  12.343  1.00  0.00    -0.442 NA
ATOM     32  C   UNL     1      48.633 129.323  12.764  1.00  0.00    -0.022 A 
ENDBRANCH  17  24
ENDBRANCH   1  14
TORSDOF 5
ENDMDL


