REMARK SMILES CC(=O)c1ccc([C@@H]2CC[C@@H]3CC(=O)N[C@]3([NH2+]c3ccc(C)c(F)c3)C2)cn1
REMARK SMILES IDX 8 1 9 2 10 3 11 4 12 5 13 6 14 7 15 8 16 9 26 10 7 12 4 13
REMARK SMILES IDX 5 14 28 15 6 16 27 17 2 18 1 19 3 20 17 21 18 24 19 25 25 26
REMARK SMILES IDX 20 27 23 28 21 29 24 30 22 31
REMARK H PARENT 15 11 17 22 17 23
ROOT
ATOM      1  C   UNL     1      -0.078  -1.990  -0.219  1.00  0.00     0.029 C 
ATOM      2  C   UNL     1       0.232  -1.823  -1.712  1.00  0.00     0.009 C 
ATOM      3  C   UNL     1      -0.517  -0.619  -2.283  1.00  0.00     0.013 C 
ATOM      4  C   UNL     1      -0.256   0.688  -1.507  1.00  0.00     0.083 C 
ATOM      5  C   UNL     1       1.086   1.368  -1.830  1.00  0.00     0.112 C 
ATOM      6  C   UNL     1       1.368   2.088  -0.568  1.00  0.00     0.225 C 
ATOM      7  O   UNL     1       2.285   2.941  -0.433  1.00  0.00    -0.275 OA
ATOM      8  N   UNL     1       0.539   1.679   0.505  1.00  0.00    -0.304 N 
ATOM      9  C   UNL     1      -0.298   0.571   0.058  1.00  0.00     0.179 C 
ATOM     10  C   UNL     1       0.379  -0.742   0.554  1.00  0.00     0.102 C 
ATOM     11  H   UNL     1       0.723   1.920   1.504  1.00  0.00     0.169 HD
ENDROOT
BRANCH   1  12
ATOM     12  C   UNL     1       0.570  -3.245   0.339  1.00  0.00    -0.026 A 
ATOM     13  C   UNL     1       1.705  -5.574   1.395  1.00  0.00     0.106 A 
ATOM     14  C   UNL     1       2.532  -4.593   0.828  1.00  0.00     0.032 A 
ATOM     15  N   UNL     1       0.359  -5.374   1.422  1.00  0.00    -0.253 NA
ATOM     16  C   UNL     1       1.963  -3.431   0.303  1.00  0.00     0.008 A 
ATOM     17  C   UNL     1      -0.219  -4.252   0.917  1.00  0.00     0.115 A 
BRANCH  13  18
ATOM     18  C   UNL     1       2.272  -6.817   1.960  1.00  0.00     0.178 C 
ATOM     19  C   UNL     1       1.379  -7.858   2.562  1.00  0.00     0.095 C 
ATOM     20  O   UNL     1       3.518  -7.013   1.941  1.00  0.00    -0.293 OA
ENDBRANCH  13  18
ENDBRANCH   1  12
BRANCH   9  21
ATOM     21  N   UNL     1      -1.677   0.682   0.611  1.00  0.00    -0.292 N 
ATOM     22  H   UNL     1      -2.273  -0.079   0.212  1.00  0.00     0.354 HD
ATOM     23  H   UNL     1      -1.651   0.524   1.646  1.00  0.00     0.354 HD
BRANCH  21  24
ATOM     24  C   UNL     1      -2.315   1.961   0.374  1.00  0.00     0.134 A 
ATOM     25  C   UNL     1      -2.059   3.057   1.218  1.00  0.00     0.068 A 
ATOM     26  C   UNL     1      -3.244   2.114  -0.672  1.00  0.00     0.107 A 
ATOM     27  C   UNL     1      -2.683   4.287   0.994  1.00  0.00     0.012 A 
ATOM     28  C   UNL     1      -3.868   3.344  -0.897  1.00  0.00     0.132 A 
ATOM     29  C   UNL     1      -3.578   4.445  -0.074  1.00  0.00    -0.015 A 
ATOM     30  F   UNL     1      -4.757   3.461  -1.916  1.00  0.00    -0.206 F 
ATOM     31  C   UNL     1      -4.268   5.759  -0.298  1.00  0.00     0.047 C 
ENDBRANCH  21  24
ENDBRANCH   9  21
TORSDOF 4


