REMARK SMILES C=Cc1cc(-c2cccc3[nH+]coc23)cc(C#N)c1F
REMARK SMILES IDX 3 1 4 2 5 3 15 4 16 5 19 6 20 7 2 8 1 9 6 10 7 11 14 12 8 13
REMARK SMILES IDX 13 14 10 15 9 16 12 17 11 18 17 20 18 21
REMARK H PARENT 11 19
ROOT
ATOM      1  C   UNL     1      -2.849   0.573  -1.909  1.00  0.00     0.012 A 
ATOM      2  C   UNL     1      -1.463   0.823  -1.866  1.00  0.00     0.020 A 
ATOM      3  C   UNL     1      -0.852   1.299  -0.694  1.00  0.00    -0.012 A 
ATOM      4  C   UNL     1      -1.643   1.543   0.440  1.00  0.00     0.031 A 
ATOM      5  C   UNL     1      -3.023   1.317   0.404  1.00  0.00     0.089 A 
ATOM      6  C   UNL     1      -3.626   0.837  -0.766  1.00  0.00     0.148 A 
ATOM      7  F   UNL     1      -4.967   0.615  -0.786  1.00  0.00    -0.205 F 
ENDROOT
BRANCH   1   8
ATOM      8  C   UNL     1      -3.518   0.079  -3.139  1.00  0.00     0.003 C 
ATOM      9  C   UNL     1      -2.893  -0.595  -4.105  1.00  0.00     0.009 C 
ENDBRANCH   1   8
BRANCH   3  10
ATOM     10  C   UNL     1       0.610   1.553  -0.656  1.00  0.00     0.032 A 
ATOM     11  C   UNL     1       1.144   2.700  -0.020  1.00  0.00     0.013 A 
ATOM     12  C   UNL     1       1.529   0.672  -1.240  1.00  0.00     0.212 A 
ATOM     13  C   UNL     1       2.539   2.930   0.007  1.00  0.00     0.008 A 
ATOM     14  O   UNL     1       1.310  -0.461  -1.864  1.00  0.00    -0.403 OA
ATOM     15  C   UNL     1       2.874   0.900  -1.211  1.00  0.00     0.249 A 
ATOM     16  C   UNL     1       3.425   2.019  -0.597  1.00  0.00     0.083 A 
ATOM     17  C   UNL     1       2.498  -0.924  -2.220  1.00  0.00     0.521 A 
ATOM     18  N   UNL     1       3.506  -0.106  -1.833  1.00  0.00    -0.176 N 
ATOM     19  H   UNL     1       4.531  -0.234  -1.980  1.00  0.00     0.457 HD
ENDBRANCH   3  10
BRANCH   5  20
ATOM     20  C   UNL     1      -3.818   1.574   1.578  1.00  0.00     0.102 C 
ATOM     21  N   UNL     1      -4.456   1.781   2.521  1.00  0.00    -0.192 NA
ENDBRANCH   5  20
TORSDOF 3


