REMARK SMILES c1cc2cc(CN3CC[C@H]4CCC[C@H]43)ccc2[nH]1
REMARK SMILES IDX 1 1 2 2 3 3 4 4 5 5 15 6 16 7 17 8 18 9 6 11 7 12 8 13 14 14
REMARK SMILES IDX 9 15 13 16 10 17 12 18 11 19
REMARK H PARENT 18 10
ROOT
ATOM      1  C   UNL     1       0.085  -6.415  -2.507  1.00  0.00     0.083 A 
ATOM      2  C   UNL     1      -0.847  -5.463  -2.907  1.00  0.00     0.028 A 
ATOM      3  C   UNL     1      -0.266  -4.247  -2.619  1.00  0.00    -0.000 A 
ATOM      4  C   UNL     1      -0.738  -2.950  -2.803  1.00  0.00     0.015 A 
ATOM      5  C   UNL     1       0.090  -1.879  -2.398  1.00  0.00    -0.033 A 
ATOM      6  C   UNL     1       1.365  -2.148  -1.835  1.00  0.00     0.007 A 
ATOM      7  C   UNL     1       1.809  -3.472  -1.665  1.00  0.00     0.027 A 
ATOM      8  C   UNL     1       0.962  -4.500  -2.069  1.00  0.00     0.045 A 
ATOM      9  N   UNL     1       1.188  -5.822  -1.996  1.00  0.00    -0.361 N 
ATOM     10  H   UNL     1       2.039  -6.298  -1.622  1.00  0.00     0.166 HD
ENDROOT
BRANCH   5  11
ATOM     11  C   UNL     1      -0.371  -0.455  -2.563  1.00  0.00     0.120 C 
BRANCH  11  12
ATOM     12  N   UNL     1      -0.420   0.234  -1.258  1.00  0.00    -0.296 NA
ATOM     13  C   UNL     1      -0.710   1.661  -1.371  1.00  0.00     0.085 C 
ATOM     14  C   UNL     1      -1.360  -0.296  -0.253  1.00  0.00     0.060 C 
ATOM     15  C   UNL     1      -1.121   2.112   0.022  1.00  0.00     0.021 C 
ATOM     16  C   UNL     1      -2.731  -0.731  -0.794  1.00  0.00     0.019 C 
ATOM     17  C   UNL     1      -1.654   0.850   0.713  1.00  0.00     0.007 C 
ATOM     18  C   UNL     1      -3.703  -0.418   0.324  1.00  0.00     0.002 C 
ATOM     19  C   UNL     1      -3.173   0.860   0.952  1.00  0.00     0.005 C 
ENDBRANCH  11  12
ENDBRANCH   5  11
TORSDOF 2


