REMARK SMILES CC(=O)c1c(-c2cnc3c(c2)C(O)=NC3)cc(/C(O)=N/[C@@H]2C=CCC2)c(F)c1O
REMARK SMILES IDX 5 1 16 2 17 3 26 4 27 5 28 6 4 7 6 8 12 9 14 10 10 11 15 12
REMARK SMILES IDX 11 13 9 14 8 15 7 16 13 17 2 19 3 20 1 21 18 22 20 23 21 24
REMARK SMILES IDX 22 25 25 26 23 27 24 28 19 29 29 31
REMARK H PARENT 13 18 19 30 29 32
ROOT
ATOM      1  C   UNL     1       1.333  -0.197  -0.781  1.00  0.00    -0.001 A 
ATOM      2  C   UNL     1       0.452   0.170   0.248  1.00  0.00     0.026 A 
ATOM      3  C   UNL     1       0.460  -0.496   1.482  1.00  0.00     0.076 A 
ATOM      4  C   UNL     1       1.363  -1.556   1.681  1.00  0.00     0.178 A 
ATOM      5  F   UNL     1       1.400  -2.209   2.871  1.00  0.00    -0.202 F 
ATOM      6  C   UNL     1       2.264  -1.923   0.669  1.00  0.00     0.163 A 
ATOM      7  C   UNL     1       2.266  -1.241  -0.564  1.00  0.00     0.070 A 
ENDROOT
BRANCH   1   8
ATOM      8  C   UNL     1       1.204   0.486  -2.089  1.00  0.00     0.002 A 
ATOM      9  C   UNL     1       0.602   0.022  -5.821  1.00  0.00     0.215 C 
ATOM     10  N   UNL     1       0.567   1.031  -6.635  1.00  0.00    -0.245 NA
ATOM     11  C   UNL     1       0.842   0.445  -4.459  1.00  0.00     0.060 A 
ATOM     12  C   UNL     1       0.784   2.282  -5.896  1.00  0.00     0.203 C 
ATOM     13  C   UNL     1       0.956  -0.256  -3.264  1.00  0.00     0.026 A 
ATOM     14  C   UNL     1       0.952   1.802  -4.497  1.00  0.00     0.075 A 
ATOM     15  N   UNL     1       1.175   2.534  -3.377  1.00  0.00    -0.258 NA
ATOM     16  C   UNL     1       1.300   1.898  -2.174  1.00  0.00     0.120 A 
BRANCH   9  17
ATOM     17  O   UNL     1       0.428  -1.292  -6.243  1.00  0.00    -0.493 OA
ATOM     18  H   UNL     1       0.462  -2.060  -5.584  1.00  0.00     0.295 HD
ENDBRANCH   9  17
ENDBRANCH   1   8
BRANCH   7  19
ATOM     19  C   UNL     1       3.277  -1.610  -1.586  1.00  0.00     0.164 C 
ATOM     20  O   UNL     1       3.419  -2.819  -1.912  1.00  0.00    -0.294 OA
ATOM     21  C   UNL     1       4.152  -0.579  -2.230  1.00  0.00     0.093 C 
ENDBRANCH   7  19
BRANCH   3  22
ATOM     22  C   UNL     1      -0.496  -0.095   2.544  1.00  0.00     0.217 C 
BRANCH  22  23
ATOM     23  N   UNL     1      -0.965  -0.992   3.360  1.00  0.00    -0.244 NA
BRANCH  23  24
ATOM     24  C   UNL     1      -1.914  -0.703   4.433  1.00  0.00     0.132 C 
ATOM     25  C   UNL     1      -2.079  -1.907   5.288  1.00  0.00    -0.005 C 
ATOM     26  C   UNL     1      -3.326  -0.432   3.885  1.00  0.00     0.036 C 
ATOM     27  C   UNL     1      -3.333  -2.319   5.345  1.00  0.00    -0.029 C 
ATOM     28  C   UNL     1      -4.245  -1.472   4.534  1.00  0.00     0.029 C 
ENDBRANCH  23  24
ENDBRANCH  22  23
BRANCH  22  29
ATOM     29  O   UNL     1      -0.899   1.237   2.671  1.00  0.00    -0.493 OA
ATOM     30  H   UNL     1      -0.497   1.978   2.111  1.00  0.00     0.295 HD
ENDBRANCH  22  29
ENDBRANCH   3  22
BRANCH   6  31
ATOM     31  O   UNL     1       3.179  -2.955   0.892  1.00  0.00    -0.504 OA
ATOM     32  H   UNL     1       3.214  -3.466   1.766  1.00  0.00     0.293 HD
ENDBRANCH   6  31
TORSDOF 8


