REMARK SMILES Cc1ccc(-c2ccc(O[C@H](CO)Cn3n[nH+]nc3-c3ccccc3)cc2)c2c[n-]nc12
REMARK SMILES IDX 10 1 9 2 6 3 7 4 27 5 8 6 26 7 5 8 2 9 3 10 32 11 4 12 31 13
REMARK SMILES IDX 28 14 30 15 29 16 1 17 11 18 12 19 13 20 14 22 15 23 16 24
REMARK SMILES IDX 19 25 17 26 18 27 20 29 21 30 25 31 22 32 24 33 23 34
REMARK H PARENT 13 21 17 28
ROOT
ATOM      1  O   UNL     1       1.952   0.569   2.301  1.00  0.00    -0.484 OA
ENDROOT
BRANCH   1   2
ATOM      2  C   UNL     1       1.407  -0.147   1.226  1.00  0.00     0.120 A 
ATOM      3  C   UNL     1       0.232  -1.667  -0.835  1.00  0.00    -0.018 A 
ATOM      4  C   UNL     1       0.809  -2.301   0.277  1.00  0.00     0.012 A 
ATOM      5  C   UNL     1       0.292  -0.268  -0.931  1.00  0.00     0.012 A 
ATOM      6  C   UNL     1       1.396  -1.544   1.295  1.00  0.00     0.047 A 
ATOM      7  C   UNL     1       0.880   0.487   0.087  1.00  0.00     0.047 A 
BRANCH   3   8
ATOM      8  C   UNL     1      -0.414  -2.467  -1.900  1.00  0.00    -0.011 A 
ATOM      9  C   UNL     1      -1.661  -4.002  -3.962  1.00  0.00    -0.027 A 
ATOM     10  C   UNL     1      -0.390  -4.362  -3.465  1.00  0.00     0.006 A 
ATOM     11  C   UNL     1      -2.282  -2.889  -3.389  1.00  0.00     0.050 A 
ATOM     12  C   UNL     1       0.227  -3.602  -2.447  1.00  0.00     0.010 A 
ATOM     13  N   UNL     1      -3.504  -2.397  -3.660  1.00  0.00    -0.367 NA
ATOM     14  C   UNL     1      -1.684  -2.152  -2.405  1.00  0.00    -0.014 A 
ATOM     15  N   UNL     1      -3.698  -1.355  -2.858  1.00  0.00    -0.581 NA
ATOM     16  C   UNL     1      -2.607  -1.183  -2.077  1.00  0.00    -0.113 A 
ATOM     17  C   UNL     1      -2.348  -4.827  -5.010  1.00  0.00     0.046 C 
ENDBRANCH   3   8
ENDBRANCH   1   2
BRANCH   1  18
ATOM     18  C   UNL     1       1.509   1.857   2.746  1.00  0.00     0.242 C 
BRANCH  18  19
ATOM     19  C   UNL     1       2.644   2.522   3.532  1.00  0.00     0.205 C 
BRANCH  19  20
ATOM     20  O   UNL     1       3.027   1.719   4.614  1.00  0.00    -0.392 OA
ATOM     21  H   UNL     1       3.758   2.208   5.074  1.00  0.00     0.210 HD
ENDBRANCH  19  20
ENDBRANCH  18  19
BRANCH  18  22
ATOM     22  C   UNL     1       0.249   1.717   3.625  1.00  0.00     0.319 C 
BRANCH  22  23
ATOM     23  N   UNL     1      -0.886   1.193   2.863  1.00  0.00    -0.106 N 
ATOM     24  N   UNL     1      -1.290  -0.065   2.923  1.00  0.00     0.112 NA
ATOM     25  C   UNL     1      -1.610   1.773   1.877  1.00  0.00     0.289 A 
ATOM     26  N   UNL     1      -2.230  -0.244   2.010  1.00  0.00    -0.049 N 
ATOM     27  N   UNL     1      -2.450   0.871   1.330  1.00  0.00    -0.017 NA
ATOM     28  H   UNL     1      -2.718  -1.149   1.834  1.00  0.00     0.373 HD
BRANCH  25  29
ATOM     29  C   UNL     1      -1.462   3.151   1.371  1.00  0.00     0.047 A 
ATOM     30  C   UNL     1      -1.437   4.249   2.247  1.00  0.00     0.014 A 
ATOM     31  C   UNL     1      -1.395   3.377  -0.014  1.00  0.00     0.014 A 
ATOM     32  C   UNL     1      -1.298   5.547   1.746  1.00  0.00     0.001 A 
ATOM     33  C   UNL     1      -1.254   4.676  -0.511  1.00  0.00     0.001 A 
ATOM     34  C   UNL     1      -1.200   5.760   0.368  1.00  0.00     0.000 A 
ENDBRANCH  25  29
ENDBRANCH  22  23
ENDBRANCH  18  22
ENDBRANCH   1  18
TORSDOF 8


