MODEL 1
REMARK VINA RESULT:     -10.4      0.000      0.000
REMARK SMILES Cc1cc(F)ncc1-c1ccc2c(C)[nH][nH+]c2c1
REMARK SMILES IDX 9 1 10 2 11 3 12 4 13 5 14 6 15 7 16 8 17 9 18 10 8 13 2 14
REMARK SMILES IDX 3 15 4 16 7 17 6 18 1 19 5 20
REMARK H PARENT 15 11 16 12
ROOT
ATOM      1  C   UNL     1      44.997 131.287  17.456  1.00  0.00    -0.010 A 
ATOM      2  C   UNL     1      45.424 132.379  16.654  1.00  0.00     0.010 A 
ATOM      3  C   UNL     1      46.131 132.159  15.458  1.00  0.00     0.018 A 
ATOM      4  C   UNL     1      46.381 130.841  15.089  1.00  0.00     0.073 A 
ATOM      5  C   UNL     1      47.033 130.277  14.011  1.00  0.00     0.084 A 
ATOM      6  C   UNL     1      47.733 130.997  12.905  1.00  0.00     0.071 C 
ATOM      7  N   UNL     1      47.004 128.932  14.162  1.00  0.00    -0.171 N 
ATOM      8  N   UNL     1      46.350 128.631  15.277  1.00  0.00    -0.126 N 
ATOM      9  C   UNL     1      45.965 129.784  15.852  1.00  0.00     0.236 A 
ATOM     10  C   UNL     1      45.266 129.962  17.042  1.00  0.00     0.091 A 
ATOM     11  H   UNL     1      47.430 128.226  13.519  1.00  0.00     0.238 HD
ATOM     12  H   UNL     1      46.185 127.663  15.632  1.00  0.00     0.488 HD
ENDROOT
BRANCH   1  13
ATOM     13  C   UNL     1      44.247 131.527  18.709  1.00  0.00     0.003 A 
ATOM     14  C   UNL     1      44.818 131.314  19.987  1.00  0.00    -0.037 A 
ATOM     15  C   UNL     1      44.057 131.606  21.130  1.00  0.00     0.064 A 
ATOM     16  C   UNL     1      42.746 132.064  20.993  1.00  0.00     0.213 A 
ATOM     17  C   UNL     1      42.918 131.977  18.630  1.00  0.00     0.123 A 
ATOM     18  N   UNL     1      42.209 132.234  19.760  1.00  0.00    -0.228 NA
ATOM     19  C   UNL     1      46.222 130.796  20.158  1.00  0.00     0.045 C 
ATOM     20  F   UNL     1      42.005 132.337  22.095  1.00  0.00    -0.185 F 
ENDBRANCH   1  13
TORSDOF 1
ENDMDL
MODEL 2
REMARK VINA RESULT:     -10.1      0.928      1.669
REMARK SMILES Cc1cc(F)ncc1-c1ccc2c(C)[nH][nH+]c2c1
REMARK SMILES IDX 9 1 10 2 11 3 12 4 13 5 14 6 15 7 16 8 17 9 18 10 8 13 2 14
REMARK SMILES IDX 3 15 4 16 7 17 6 18 1 19 5 20
REMARK H PARENT 15 11 16 12
ROOT
ATOM      1  C   UNL     1      45.187 131.227  17.721  1.00  0.00    -0.010 A 
ATOM      2  C   UNL     1      45.473 132.344  16.890  1.00  0.00     0.010 A 
ATOM      3  C   UNL     1      46.051 132.166  15.620  1.00  0.00     0.018 A 
ATOM      4  C   UNL     1      46.317 130.862  15.210  1.00  0.00     0.073 A 
ATOM      5  C   UNL     1      46.869 130.337  14.058  1.00  0.00     0.084 A 
ATOM      6  C   UNL     1      47.409 131.096  12.891  1.00  0.00     0.071 C 
ATOM      7  N   UNL     1      46.917 128.991  14.194  1.00  0.00    -0.171 N 
ATOM      8  N   UNL     1      46.405 128.652  15.371  1.00  0.00    -0.126 N 
ATOM      9  C   UNL     1      46.036 129.782  16.000  1.00  0.00     0.236 A 
ATOM     10  C   UNL     1      45.466 129.919  17.263  1.00  0.00     0.091 A 
ATOM     11  H   UNL     1      47.300 128.310  13.500  1.00  0.00     0.238 HD
ATOM     12  H   UNL     1      46.324 127.675  15.730  1.00  0.00     0.488 HD
ENDROOT
BRANCH   1  13
ATOM     13  C   UNL     1      44.571 131.424  19.052  1.00  0.00     0.003 A 
ATOM     14  C   UNL     1      43.210 131.781  19.210  1.00  0.00    -0.037 A 
ATOM     15  C   UNL     1      42.685 131.907  20.506  1.00  0.00     0.064 A 
ATOM     16  C   UNL     1      43.514 131.717  21.612  1.00  0.00     0.213 A 
ATOM     17  C   UNL     1      45.363 131.256  20.200  1.00  0.00     0.123 A 
ATOM     18  N   UNL     1      44.822 131.403  21.437  1.00  0.00    -0.228 NA
ATOM     19  C   UNL     1      42.303 132.017  18.031  1.00  0.00     0.045 C 
ATOM     20  F   UNL     1      43.014 131.848  22.865  1.00  0.00    -0.185 F 
ENDBRANCH   1  13
TORSDOF 1
ENDMDL
MODEL 3
REMARK VINA RESULT:      -9.5      3.052      6.579
REMARK SMILES Cc1cc(F)ncc1-c1ccc2c(C)[nH][nH+]c2c1
REMARK SMILES IDX 9 1 10 2 11 3 12 4 13 5 14 6 15 7 16 8 17 9 18 10 8 13 2 14
REMARK SMILES IDX 3 15 4 16 7 17 6 18 1 19 5 20
REMARK H PARENT 15 11 16 12
ROOT
ATOM      1  C   UNL     1      44.982 131.325  17.164  1.00  0.00    -0.010 A 
ATOM      2  C   UNL     1      45.583 131.004  18.411  1.00  0.00     0.010 A 
ATOM      3  C   UNL     1      44.885 131.199  19.617  1.00  0.00     0.018 A 
ATOM      4  C   UNL     1      43.589 131.701  19.538  1.00  0.00     0.073 A 
ATOM      5  C   UNL     1      42.644 132.012  20.495  1.00  0.00     0.084 A 
ATOM      6  C   UNL     1      42.803 131.925  21.978  1.00  0.00     0.071 C 
ATOM      7  N   UNL     1      41.549 132.493  19.862  1.00  0.00    -0.171 N 
ATOM      8  N   UNL     1      41.762 132.483  18.552  1.00  0.00    -0.126 N 
ATOM      9  C   UNL     1      43.000 132.004  18.340  1.00  0.00     0.236 A 
ATOM     10  C   UNL     1      43.661 131.826  17.128  1.00  0.00     0.091 A 
ATOM     11  H   UNL     1      40.670 132.833  20.313  1.00  0.00     0.238 HD
ATOM     12  H   UNL     1      41.079 132.806  17.831  1.00  0.00     0.488 HD
ENDROOT
BRANCH   1  13
ATOM     13  C   UNL     1      45.721 131.108  15.901  1.00  0.00     0.003 A 
ATOM     14  C   UNL     1      45.756 129.850  15.250  1.00  0.00    -0.037 A 
ATOM     15  C   UNL     1      46.441 129.733  14.031  1.00  0.00     0.064 A 
ATOM     16  C   UNL     1      47.107 130.838  13.500  1.00  0.00     0.213 A 
ATOM     17  C   UNL     1      46.419 132.183  15.328  1.00  0.00     0.123 A 
ATOM     18  N   UNL     1      47.086 132.025  14.154  1.00  0.00    -0.228 NA
ATOM     19  C   UNL     1      45.066 128.638  15.818  1.00  0.00     0.045 C 
ATOM     20  F   UNL     1      47.780 130.726  12.328  1.00  0.00    -0.185 F 
ENDBRANCH   1  13
TORSDOF 1
ENDMDL
MODEL 4
REMARK VINA RESULT:      -9.4      1.188      1.703
REMARK SMILES Cc1cc(F)ncc1-c1ccc2c(C)[nH][nH+]c2c1
REMARK SMILES IDX 9 1 10 2 11 3 12 4 13 5 14 6 15 7 16 8 17 9 18 10 8 13 2 14
REMARK SMILES IDX 3 15 4 16 7 17 6 18 1 19 5 20
REMARK H PARENT 15 11 16 12
ROOT
ATOM      1  C   UNL     1      44.966 131.159  17.600  1.00  0.00    -0.010 A 
ATOM      2  C   UNL     1      45.525 129.854  17.530  1.00  0.00     0.010 A 
ATOM      3  C   UNL     1      46.347 129.481  16.451  1.00  0.00     0.018 A 
ATOM      4  C   UNL     1      46.600 130.438  15.472  1.00  0.00     0.073 A 
ATOM      5  C   UNL     1      47.339 130.413  14.306  1.00  0.00     0.084 A 
ATOM      6  C   UNL     1      48.072 129.247  13.730  1.00  0.00     0.071 C 
ATOM      7  N   UNL     1      47.225 131.625  13.713  1.00  0.00    -0.171 N 
ATOM      8  N   UNL     1      46.462 132.409  14.464  1.00  0.00    -0.126 N 
ATOM      9  C   UNL     1      46.074 131.699  15.538  1.00  0.00     0.236 A 
ATOM     10  C   UNL     1      45.255 132.103  16.588  1.00  0.00     0.091 A 
ATOM     11  H   UNL     1      47.654 131.914  12.805  1.00  0.00     0.238 HD
ATOM     12  H   UNL     1      46.210 133.397  14.236  1.00  0.00     0.488 HD
ENDROOT
BRANCH   1  13
ATOM     13  C   UNL     1      44.110 131.545  18.744  1.00  0.00     0.003 A 
ATOM     14  C   UNL     1      44.568 131.499  20.083  1.00  0.00    -0.037 A 
ATOM     15  C   UNL     1      43.712 131.923  21.110  1.00  0.00     0.064 A 
ATOM     16  C   UNL     1      42.417 132.344  20.806  1.00  0.00     0.213 A 
ATOM     17  C   UNL     1      42.793 131.966  18.495  1.00  0.00     0.123 A 
ATOM     18  N   UNL     1      41.989 132.352  19.519  1.00  0.00    -0.228 NA
ATOM     19  C   UNL     1      45.953 131.023  20.437  1.00  0.00     0.045 C 
ATOM     20  F   UNL     1      41.583 132.744  21.797  1.00  0.00    -0.185 F 
ENDBRANCH   1  13
TORSDOF 1
ENDMDL
MODEL 5
REMARK VINA RESULT:      -9.3      1.664      2.465
REMARK SMILES Cc1cc(F)ncc1-c1ccc2c(C)[nH][nH+]c2c1
REMARK SMILES IDX 9 1 10 2 11 3 12 4 13 5 14 6 15 7 16 8 17 9 18 10 8 13 2 14
REMARK SMILES IDX 3 15 4 16 7 17 6 18 1 19 5 20
REMARK H PARENT 15 11 16 12
ROOT
ATOM      1  C   UNL     1      45.085 131.131  18.382  1.00  0.00    -0.010 A 
ATOM      2  C   UNL     1      45.754 129.895  18.175  1.00  0.00     0.010 A 
ATOM      3  C   UNL     1      46.391 129.619  16.951  1.00  0.00     0.018 A 
ATOM      4  C   UNL     1      46.350 130.602  15.966  1.00  0.00     0.073 A 
ATOM      5  C   UNL     1      46.852 130.662  14.682  1.00  0.00     0.084 A 
ATOM      6  C   UNL     1      47.582 129.584  13.948  1.00  0.00     0.071 C 
ATOM      7  N   UNL     1      46.499 131.856  14.151  1.00  0.00    -0.171 N 
ATOM      8  N   UNL     1      45.814 132.550  15.051  1.00  0.00    -0.126 N 
ATOM      9  C   UNL     1      45.715 131.797  16.161  1.00  0.00     0.236 A 
ATOM     10  C   UNL     1      45.073 132.105  17.358  1.00  0.00     0.091 A 
ATOM     11  H   UNL     1      46.714 132.194  13.185  1.00  0.00     0.238 HD
ATOM     12  H   UNL     1      45.420 133.505  14.900  1.00  0.00     0.488 HD
ENDROOT
BRANCH   1  13
ATOM     13  C   UNL     1      44.425 131.416  19.675  1.00  0.00     0.003 A 
ATOM     14  C   UNL     1      43.077 131.841  19.761  1.00  0.00    -0.037 A 
ATOM     15  C   UNL     1      42.508 132.050  21.026  1.00  0.00     0.064 A 
ATOM     16  C   UNL     1      43.282 131.875  22.173  1.00  0.00     0.213 A 
ATOM     17  C   UNL     1      45.162 131.268  20.862  1.00  0.00     0.123 A 
ATOM     18  N   UNL     1      44.580 131.496  22.068  1.00  0.00    -0.228 NA
ATOM     19  C   UNL     1      42.230 132.061  18.535  1.00  0.00     0.045 C 
ATOM     20  F   UNL     1      42.739 132.087  23.397  1.00  0.00    -0.185 F 
ENDBRANCH   1  13
TORSDOF 1
ENDMDL
MODEL 6
REMARK VINA RESULT:      -9.3      2.911      6.681
REMARK SMILES Cc1cc(F)ncc1-c1ccc2c(C)[nH][nH+]c2c1
REMARK SMILES IDX 9 1 10 2 11 3 12 4 13 5 14 6 15 7 16 8 17 9 18 10 8 13 2 14
REMARK SMILES IDX 3 15 4 16 7 17 6 18 1 19 5 20
REMARK H PARENT 15 11 16 12
ROOT
ATOM      1  C   UNL     1      44.922 131.088  17.285  1.00  0.00    -0.010 A 
ATOM      2  C   UNL     1      45.465 130.794  18.565  1.00  0.00     0.010 A 
ATOM      3  C   UNL     1      44.755 131.111  19.737  1.00  0.00     0.018 A 
ATOM      4  C   UNL     1      43.506 131.707  19.593  1.00  0.00     0.073 A 
ATOM      5  C   UNL     1      42.565 132.144  20.504  1.00  0.00     0.084 A 
ATOM      6  C   UNL     1      42.681 132.131  21.994  1.00  0.00     0.071 C 
ATOM      7  N   UNL     1      41.527 132.672  19.814  1.00  0.00    -0.171 N 
ATOM      8  N   UNL     1      41.771 132.570  18.513  1.00  0.00    -0.126 N 
ATOM      9  C   UNL     1      42.972 131.985  18.364  1.00  0.00     0.236 A 
ATOM     10  C   UNL     1      43.646 131.687  17.183  1.00  0.00     0.091 A 
ATOM     11  H   UNL     1      40.667 133.104  20.220  1.00  0.00     0.238 HD
ATOM     12  H   UNL     1      41.133 132.903  17.756  1.00  0.00     0.488 HD
ENDROOT
BRANCH   1  13
ATOM     13  C   UNL     1      45.672 130.742  16.057  1.00  0.00     0.003 A 
ATOM     14  C   UNL     1      45.212 131.093  14.765  1.00  0.00    -0.037 A 
ATOM     15  C   UNL     1      46.001 130.768  13.650  1.00  0.00     0.064 A 
ATOM     16  C   UNL     1      47.200 130.076  13.825  1.00  0.00     0.213 A 
ATOM     17  C   UNL     1      46.880 130.035  16.175  1.00  0.00     0.123 A 
ATOM     18  N   UNL     1      47.607 129.725  15.070  1.00  0.00    -0.228 NA
ATOM     19  C   UNL     1      43.909 131.817  14.550  1.00  0.00     0.045 C 
ATOM     20  F   UNL     1      47.959 129.752  12.750  1.00  0.00    -0.185 F 
ENDBRANCH   1  13
TORSDOF 1
ENDMDL
MODEL 7
REMARK VINA RESULT:      -9.1      1.379      2.051
REMARK SMILES Cc1cc(F)ncc1-c1ccc2c(C)[nH][nH+]c2c1
REMARK SMILES IDX 9 1 10 2 11 3 12 4 13 5 14 6 15 7 16 8 17 9 18 10 8 13 2 14
REMARK SMILES IDX 3 15 4 16 7 17 6 18 1 19 5 20
REMARK H PARENT 15 11 16 12
ROOT
ATOM      1  C   UNL     1      44.710 131.281  18.395  1.00  0.00    -0.010 A 
ATOM      2  C   UNL     1      44.134 131.949  17.281  1.00  0.00     0.010 A 
ATOM      3  C   UNL     1      44.649 131.761  15.985  1.00  0.00     0.018 A 
ATOM      4  C   UNL     1      45.726 130.892  15.839  1.00  0.00     0.073 A 
ATOM      5  C   UNL     1      46.463 130.488  14.743  1.00  0.00     0.084 A 
ATOM      6  C   UNL     1      46.309 130.957  13.333  1.00  0.00     0.071 C 
ATOM      7  N   UNL     1      47.423 129.638  15.175  1.00  0.00    -0.171 N 
ATOM      8  N   UNL     1      47.309 129.480  16.488  1.00  0.00    -0.126 N 
ATOM      9  C   UNL     1      46.280 130.238  16.905  1.00  0.00     0.236 A 
ATOM     10  C   UNL     1      45.799 130.401  18.202  1.00  0.00     0.091 A 
ATOM     11  H   UNL     1      48.153 129.175  14.587  1.00  0.00     0.238 HD
ATOM     12  H   UNL     1      47.927 128.877  17.075  1.00  0.00     0.488 HD
ENDROOT
BRANCH   1  13
ATOM     13  C   UNL     1      44.156 131.478  19.753  1.00  0.00     0.003 A 
ATOM     14  C   UNL     1      42.836 131.941  19.972  1.00  0.00    -0.037 A 
ATOM     15  C   UNL     1      42.367 132.061  21.289  1.00  0.00     0.064 A 
ATOM     16  C   UNL     1      43.213 131.762  22.358  1.00  0.00     0.213 A 
ATOM     17  C   UNL     1      44.969 131.204  20.865  1.00  0.00     0.123 A 
ATOM     18  N   UNL     1      44.483 131.349  22.125  1.00  0.00    -0.228 NA
ATOM     19  C   UNL     1      41.913 132.293  18.835  1.00  0.00     0.045 C 
ATOM     20  F   UNL     1      42.767 131.887  23.632  1.00  0.00    -0.185 F 
ENDBRANCH   1  13
TORSDOF 1
ENDMDL
MODEL 8
REMARK VINA RESULT:      -8.9      1.046      1.090
REMARK SMILES Cc1cc(F)ncc1-c1ccc2c(C)[nH][nH+]c2c1
REMARK SMILES IDX 9 1 10 2 11 3 12 4 13 5 14 6 15 7 16 8 17 9 18 10 8 13 2 14
REMARK SMILES IDX 3 15 4 16 7 17 6 18 1 19 5 20
REMARK H PARENT 15 11 16 12
ROOT
ATOM      1  C   UNL     1      44.625 131.299  18.156  1.00  0.00    -0.010 A 
ATOM      2  C   UNL     1      44.111 131.952  17.003  1.00  0.00     0.010 A 
ATOM      3  C   UNL     1      44.700 131.752  15.741  1.00  0.00     0.018 A 
ATOM      4  C   UNL     1      45.787 130.887  15.667  1.00  0.00     0.073 A 
ATOM      5  C   UNL     1      46.587 130.475  14.619  1.00  0.00     0.084 A 
ATOM      6  C   UNL     1      46.512 130.928  13.197  1.00  0.00     0.071 C 
ATOM      7  N   UNL     1      47.525 129.634  15.114  1.00  0.00    -0.171 N 
ATOM      8  N   UNL     1      47.336 129.490  16.420  1.00  0.00    -0.126 N 
ATOM      9  C   UNL     1      46.282 130.247  16.770  1.00  0.00     0.236 A 
ATOM     10  C   UNL     1      45.727 130.422  18.035  1.00  0.00     0.091 A 
ATOM     11  H   UNL     1      48.289 129.169  14.574  1.00  0.00     0.238 HD
ATOM     12  H   UNL     1      47.923 128.896  17.049  1.00  0.00     0.488 HD
ENDROOT
BRANCH   1  13
ATOM     13  C   UNL     1      43.994 131.508  19.478  1.00  0.00     0.003 A 
ATOM     14  C   UNL     1      44.588 131.055  20.681  1.00  0.00    -0.037 A 
ATOM     15  C   UNL     1      43.950 131.329  21.900  1.00  0.00     0.064 A 
ATOM     16  C   UNL     1      42.730 132.006  21.910  1.00  0.00     0.213 A 
ATOM     17  C   UNL     1      42.759 132.173  19.544  1.00  0.00     0.123 A 
ATOM     18  N   UNL     1      42.165 132.405  20.744  1.00  0.00    -0.228 NA
ATOM     19  C   UNL     1      45.892 130.300  20.693  1.00  0.00     0.045 C 
ATOM     20  F   UNL     1      42.106 132.263  23.085  1.00  0.00    -0.185 F 
ENDBRANCH   1  13
TORSDOF 1
ENDMDL
MODEL 9
REMARK VINA RESULT:      -8.8      3.147      6.457
REMARK SMILES Cc1cc(F)ncc1-c1ccc2c(C)[nH][nH+]c2c1
REMARK SMILES IDX 9 1 10 2 11 3 12 4 13 5 14 6 15 7 16 8 17 9 18 10 8 13 2 14
REMARK SMILES IDX 3 15 4 16 7 17 6 18 1 19 5 20
REMARK H PARENT 15 11 16 12
ROOT
ATOM      1  C   UNL     1      45.120 131.241  17.407  1.00  0.00    -0.010 A 
ATOM      2  C   UNL     1      43.790 131.723  17.538  1.00  0.00     0.010 A 
ATOM      3  C   UNL     1      43.198 131.865  18.806  1.00  0.00     0.018 A 
ATOM      4  C   UNL     1      43.967 131.530  19.917  1.00  0.00     0.073 A 
ATOM      5  C   UNL     1      43.709 131.543  21.274  1.00  0.00     0.084 A 
ATOM      6  C   UNL     1      42.422 131.901  21.942  1.00  0.00     0.071 C 
ATOM      7  N   UNL     1      44.813 131.091  21.914  1.00  0.00    -0.171 N 
ATOM      8  N   UNL     1      45.753 130.813  21.020  1.00  0.00    -0.126 N 
ATOM      9  C   UNL     1      45.251 131.075  19.800  1.00  0.00     0.236 A 
ATOM     10  C   UNL     1      45.869 130.920  18.562  1.00  0.00     0.091 A 
ATOM     11  H   UNL     1      44.924 130.967  22.945  1.00  0.00     0.238 HD
ATOM     12  H   UNL     1      46.704 130.445  21.245  1.00  0.00     0.488 HD
ENDROOT
BRANCH   1  13
ATOM     13  C   UNL     1      45.737 131.104  16.069  1.00  0.00     0.003 A 
ATOM     14  C   UNL     1      45.695 129.893  15.336  1.00  0.00    -0.037 A 
ATOM     15  C   UNL     1      46.265 129.853  14.055  1.00  0.00     0.064 A 
ATOM     16  C   UNL     1      46.894 130.986  13.538  1.00  0.00     0.213 A 
ATOM     17  C   UNL     1      46.395 132.211  15.506  1.00  0.00     0.123 A 
ATOM     18  N   UNL     1      46.949 132.127  14.269  1.00  0.00    -0.228 NA
ATOM     19  C   UNL     1      45.044 128.650  15.884  1.00  0.00     0.045 C 
ATOM     20  F   UNL     1      47.456 130.948  12.305  1.00  0.00    -0.185 F 
ENDBRANCH   1  13
TORSDOF 1
ENDMDL


