REMARK SMILES NC(=O)c1ccc(-c2cc(F)cc(F)c2OCc2n[n-]c3c2CCC3)cc1
REMARK SMILES IDX 8 1 9 2 10 3 11 4 12 5 13 6 14 7 15 8 7 9 4 10 5 11 27 12
REMARK SMILES IDX 6 13 26 14 2 15 1 16 3 19 16 20 17 21 18 22 19 23 22 24
REMARK SMILES IDX 20 25 21 26 23 27 25 28 24 29
REMARK H PARENT 1 17 1 18
ROOT
ATOM      1  C   UNL     1      -0.516   1.534   1.964  1.00  0.00     0.030 A 
ATOM      2  C   UNL     1      -0.679   2.857   2.409  1.00  0.00     0.052 A 
ATOM      3  C   UNL     1      -1.708   3.184   3.292  1.00  0.00     0.127 A 
ATOM      4  F   UNL     1      -1.852   4.462   3.721  1.00  0.00    -0.207 F 
ATOM      5  C   UNL     1      -2.587   2.197   3.736  1.00  0.00     0.082 A 
ATOM      6  C   UNL     1      -2.450   0.877   3.297  1.00  0.00     0.168 A 
ATOM      7  F   UNL     1      -3.330  -0.045   3.757  1.00  0.00    -0.203 F 
ATOM      8  C   UNL     1      -1.414   0.533   2.398  1.00  0.00     0.163 A 
ENDROOT
BRANCH   1   9
ATOM      9  C   UNL     1       0.578   1.212   1.018  1.00  0.00    -0.014 A 
ATOM     10  C   UNL     1       2.618   0.560  -0.823  1.00  0.00     0.039 A 
ATOM     11  C   UNL     1       1.727   1.616  -1.087  1.00  0.00     0.014 A 
ATOM     12  C   UNL     1       2.474  -0.166   0.373  1.00  0.00     0.014 A 
ATOM     13  C   UNL     1       0.721   1.941  -0.172  1.00  0.00     0.010 A 
ATOM     14  C   UNL     1       1.469   0.161   1.286  1.00  0.00     0.010 A 
BRANCH  10  15
ATOM     15  C   UNL     1       3.679   0.189  -1.791  1.00  0.00     0.248 C 
ATOM     16  N   UNL     1       4.175   1.124  -2.752  1.00  0.00    -0.366 N 
ATOM     17  H   UNL     1       3.921   2.135  -2.718  1.00  0.00     0.159 HD
ATOM     18  H   UNL     1       4.880   0.819  -3.459  1.00  0.00     0.159 HD
ATOM     19  O   UNL     1       4.169  -0.972  -1.763  1.00  0.00    -0.270 OA
ENDBRANCH  10  15
ENDBRANCH   1   9
BRANCH   8  20
ATOM     20  O   UNL     1      -1.242  -0.768   1.895  1.00  0.00    -0.484 OA
BRANCH  20  21
ATOM     21  C   UNL     1      -2.125  -1.868   2.078  1.00  0.00     0.284 C 
BRANCH  21  22
ATOM     22  C   UNL     1      -1.632  -3.033   1.281  1.00  0.00     0.058 A 
ATOM     23  N   UNL     1      -1.980  -4.317   1.526  1.00  0.00    -0.369 NA
ATOM     24  C   UNL     1      -1.000  -2.986   0.058  1.00  0.00    -0.042 A 
ATOM     25  N   UNL     1      -1.611  -5.062   0.488  1.00  0.00    -0.578 NA
ATOM     26  C   UNL     1      -0.990  -4.246  -0.382  1.00  0.00    -0.141 A 
ATOM     27  C   UNL     1      -0.935  -1.986  -1.025  1.00  0.00     0.036 C 
ATOM     28  C   UNL     1      -0.891  -4.350  -1.850  1.00  0.00     0.013 C 
ATOM     29  C   UNL     1      -0.696  -2.871  -2.276  1.00  0.00     0.008 C 
ENDBRANCH  21  22
ENDBRANCH  20  21
ENDBRANCH   8  20
TORSDOF 5


