MODEL 1
REMARK VINA RESULT:      -7.1      0.000      0.000
REMARK SMILES C[C@H]1NN(/C(O)=C/c2ccn[nH+]c2)[C@@H](c2cc3ccc(F)cc3[nH]2)O1
REMARK SMILES IDX 5 1 6 2 7 4 8 5 9 6 13 7 10 8 12 9 11 10 4 12 3 13 14 14
REMARK SMILES IDX 2 15 25 16 1 18 15 19 16 20 24 21 17 22 23 23 18 24 22 25
REMARK SMILES IDX 19 26 20 27 21 29
REMARK H PARENT 6 3 12 11 3 17 24 28
ROOT
ATOM      1  C   UNL     1      45.463 130.947  20.561  1.00  0.00     0.205 C 
ENDROOT
BRANCH   1   2
ATOM      2  O   UNL     1      46.582 131.746  20.802  1.00  0.00    -0.494 OA
ATOM      3  H   UNL     1      46.759 132.592  20.275  1.00  0.00     0.295 HD
ENDBRANCH   1   2
BRANCH   1   4
ATOM      4  C   UNL     1      45.462 129.662  20.957  1.00  0.00     0.082 C 
BRANCH   4   5
ATOM      5  C   UNL     1      44.908 129.194  22.247  1.00  0.00     0.048 A 
ATOM      6  C   UNL     1      44.351 130.125  23.129  1.00  0.00     0.041 A 
ATOM      7  C   UNL     1      44.854 127.834  22.592  1.00  0.00     0.343 A 
ATOM      8  C   UNL     1      43.803 129.688  24.333  1.00  0.00     0.185 A 
ATOM      9  N   UNL     1      44.306 127.461  23.779  1.00  0.00    -0.106 N 
ATOM     10  N   UNL     1      43.798 128.361  24.624  1.00  0.00    -0.011 NA
ATOM     11  H   UNL     1      44.271 126.449  24.033  1.00  0.00     0.490 HD
ENDBRANCH   4   5
ENDBRANCH   1   4
BRANCH   1  12
ATOM     12  N   UNL     1      44.311 131.529  19.910  1.00  0.00    -0.242 N 
ATOM     13  N   UNL     1      43.013 131.203  20.284  1.00  0.00    -0.201 NA
ATOM     14  C   UNL     1      44.331 132.456  18.801  1.00  0.00     0.283 C 
ATOM     15  C   UNL     1      42.185 132.020  19.396  1.00  0.00     0.204 C 
ATOM     16  O   UNL     1      42.995 132.726  18.470  1.00  0.00    -0.332 OA
ATOM     17  H   UNL     1      42.881 131.539  21.268  1.00  0.00     0.151 HD
ATOM     18  C   UNL     1      41.209 131.126  18.638  1.00  0.00     0.058 C 
BRANCH  14  19
ATOM     19  C   UNL     1      45.023 131.854  17.610  1.00  0.00     0.068 A 
ATOM     20  C   UNL     1      45.513 130.552  17.547  1.00  0.00     0.036 A 
ATOM     21  N   UNL     1      45.275 132.527  16.461  1.00  0.00    -0.355 N 
ATOM     22  C   UNL     1      46.071 130.445  16.292  1.00  0.00     0.000 A 
ATOM     23  C   UNL     1      45.911 131.652  15.664  1.00  0.00     0.049 A 
ATOM     24  C   UNL     1      46.702 129.371  15.671  1.00  0.00     0.013 A 
ATOM     25  C   UNL     1      46.371 131.870  14.366  1.00  0.00     0.065 A 
ATOM     26  C   UNL     1      47.179 129.559  14.360  1.00  0.00     0.040 A 
ATOM     27  C   UNL     1      47.013 130.804  13.709  1.00  0.00     0.125 A 
ATOM     28  H   UNL     1      45.020 133.514  16.236  1.00  0.00     0.166 HD
ATOM     29  F   UNL     1      47.476 130.971  12.447  1.00  0.00    -0.207 F 
ENDBRANCH  14  19
ENDBRANCH   1  12
TORSDOF 5
ENDMDL
MODEL 2
REMARK VINA RESULT:      -6.5      2.444      4.060
REMARK SMILES C[C@H]1NN(/C(O)=C/c2ccn[nH+]c2)[C@@H](c2cc3ccc(F)cc3[nH]2)O1
REMARK SMILES IDX 5 1 6 2 7 4 8 5 9 6 13 7 10 8 12 9 11 10 4 12 3 13 14 14
REMARK SMILES IDX 2 15 25 16 1 18 15 19 16 20 24 21 17 22 23 23 18 24 22 25
REMARK SMILES IDX 19 26 20 27 21 29
REMARK H PARENT 6 3 12 11 3 17 24 28
ROOT
ATOM      1  C   UNL     1      44.790 128.378  22.676  1.00  0.00     0.205 C 
ENDROOT
BRANCH   1   2
ATOM      2  O   UNL     1      45.359 128.164  21.419  1.00  0.00    -0.494 OA
ATOM      3  H   UNL     1      46.163 128.689  21.099  1.00  0.00     0.295 HD
ENDBRANCH   1   2
BRANCH   1   4
ATOM      4  C   UNL     1      44.630 127.343  23.520  1.00  0.00     0.082 C 
BRANCH   4   5
ATOM      5  C   UNL     1      43.810 126.148  23.220  1.00  0.00     0.048 A 
ATOM      6  C   UNL     1      42.419 126.229  23.336  1.00  0.00     0.041 A 
ATOM      7  C   UNL     1      44.371 124.950  22.751  1.00  0.00     0.343 A 
ATOM      8  C   UNL     1      41.639 125.116  23.029  1.00  0.00     0.185 A 
ATOM      9  N   UNL     1      43.564 123.894  22.464  1.00  0.00    -0.106 N 
ATOM     10  N   UNL     1      42.239 123.975  22.601  1.00  0.00    -0.011 NA
ATOM     11  H   UNL     1      43.987 123.004  22.119  1.00  0.00     0.490 HD
ENDBRANCH   4   5
ENDBRANCH   1   4
BRANCH   1  12
ATOM     12  N   UNL     1      44.406 129.718  23.055  1.00  0.00    -0.242 N 
ATOM     13  N   UNL     1      43.361 129.960  23.939  1.00  0.00    -0.201 NA
ATOM     14  C   UNL     1      44.990 130.947  22.567  1.00  0.00     0.283 C 
ATOM     15  C   UNL     1      43.338 131.420  24.049  1.00  0.00     0.204 C 
ATOM     16  O   UNL     1      44.288 132.001  23.171  1.00  0.00    -0.332 OA
ATOM     17  H   UNL     1      43.642 129.560  24.866  1.00  0.00     0.151 HD
ATOM     18  C   UNL     1      41.946 131.937  23.704  1.00  0.00     0.058 C 
BRANCH  14  19
ATOM     19  C   UNL     1      44.850 131.052  21.074  1.00  0.00     0.068 A 
ATOM     20  C   UNL     1      43.723 131.531  20.412  1.00  0.00     0.036 A 
ATOM     21  N   UNL     1      45.805 130.664  20.195  1.00  0.00    -0.355 N 
ATOM     22  C   UNL     1      44.032 131.434  19.073  1.00  0.00     0.000 A 
ATOM     23  C   UNL     1      45.294 130.907  18.977  1.00  0.00     0.049 A 
ATOM     24  C   UNL     1      43.289 131.773  17.945  1.00  0.00     0.013 A 
ATOM     25  C   UNL     1      45.903 130.683  17.743  1.00  0.00     0.065 A 
ATOM     26  C   UNL     1      43.877 131.558  16.684  1.00  0.00     0.040 A 
ATOM     27  C   UNL     1      45.179 131.016  16.583  1.00  0.00     0.125 A 
ATOM     28  H   UNL     1      46.746 130.268  20.415  1.00  0.00     0.166 HD
ATOM     29  F   UNL     1      45.733 130.816  15.363  1.00  0.00    -0.207 F 
ENDBRANCH  14  19
ENDBRANCH   1  12
TORSDOF 5
ENDMDL
MODEL 3
REMARK VINA RESULT:      -6.3      1.698      2.155
REMARK SMILES C[C@H]1NN(/C(O)=C/c2ccn[nH+]c2)[C@@H](c2cc3ccc(F)cc3[nH]2)O1
REMARK SMILES IDX 5 1 6 2 7 4 8 5 9 6 13 7 10 8 12 9 11 10 4 12 3 13 14 14
REMARK SMILES IDX 2 15 25 16 1 18 15 19 16 20 24 21 17 22 23 23 18 24 22 25
REMARK SMILES IDX 19 26 20 27 21 29
REMARK H PARENT 6 3 12 11 3 17 24 28
ROOT
ATOM      1  C   UNL     1      44.958 129.976  21.365  1.00  0.00     0.205 C 
ENDROOT
BRANCH   1   2
ATOM      2  O   UNL     1      45.952 129.508  20.504  1.00  0.00    -0.494 OA
ATOM      3  H   UNL     1      46.267 128.546  20.522  1.00  0.00     0.295 HD
ENDBRANCH   1   2
BRANCH   1   4
ATOM      4  C   UNL     1      44.763 129.371  22.550  1.00  0.00     0.082 C 
BRANCH   4   5
ATOM      5  C   UNL     1      44.596 127.910  22.716  1.00  0.00     0.048 A 
ATOM      6  C   UNL     1      43.551 127.428  23.512  1.00  0.00     0.041 A 
ATOM      7  C   UNL     1      45.405 126.980  22.045  1.00  0.00     0.343 A 
ATOM      8  C   UNL     1      43.372 126.054  23.650  1.00  0.00     0.185 A 
ATOM      9  N   UNL     1      45.185 125.649  22.214  1.00  0.00    -0.106 N 
ATOM     10  N   UNL     1      44.200 125.201  22.994  1.00  0.00    -0.011 NA
ATOM     11  H   UNL     1      45.792 124.961  21.715  1.00  0.00     0.490 HD
ENDBRANCH   4   5
ENDBRANCH   1   4
BRANCH   1  12
ATOM     12  N   UNL     1      44.173 131.124  20.974  1.00  0.00    -0.242 N 
ATOM     13  N   UNL     1      42.880 131.324  21.444  1.00  0.00    -0.201 NA
ATOM     14  C   UNL     1      44.574 132.162  20.051  1.00  0.00     0.283 C 
ATOM     15  C   UNL     1      42.482 132.588  20.822  1.00  0.00     0.204 C 
ATOM     16  O   UNL     1      43.493 133.050  19.941  1.00  0.00    -0.332 OA
ATOM     17  H   UNL     1      42.946 131.467  22.480  1.00  0.00     0.151 HD
ATOM     18  C   UNL     1      41.184 132.391  20.046  1.00  0.00     0.058 C 
BRANCH  14  19
ATOM     19  C   UNL     1      44.881 131.587  18.697  1.00  0.00     0.068 A 
ATOM     20  C   UNL     1      44.048 131.680  17.585  1.00  0.00     0.036 A 
ATOM     21  N   UNL     1      46.003 130.884  18.410  1.00  0.00    -0.355 N 
ATOM     22  C   UNL     1      44.717 131.008  16.585  1.00  0.00     0.000 A 
ATOM     23  C   UNL     1      45.891 130.541  17.116  1.00  0.00     0.049 A 
ATOM     24  C   UNL     1      44.370 130.783  15.256  1.00  0.00     0.013 A 
ATOM     25  C   UNL     1      46.803 129.814  16.351  1.00  0.00     0.065 A 
ATOM     26  C   UNL     1      45.270 130.051  14.458  1.00  0.00     0.040 A 
ATOM     27  C   UNL     1      46.483 129.569  15.003  1.00  0.00     0.125 A 
ATOM     28  H   UNL     1      46.794 130.662  19.054  1.00  0.00     0.166 HD
ATOM     29  F   UNL     1      47.340 128.868  14.223  1.00  0.00    -0.207 F 
ENDBRANCH  14  19
ENDBRANCH   1  12
TORSDOF 5
ENDMDL
MODEL 4
REMARK VINA RESULT:      -6.2      3.522      4.765
REMARK SMILES C[C@H]1NN(/C(O)=C/c2ccn[nH+]c2)[C@@H](c2cc3ccc(F)cc3[nH]2)O1
REMARK SMILES IDX 5 1 6 2 7 4 8 5 9 6 13 7 10 8 12 9 11 10 4 12 3 13 14 14
REMARK SMILES IDX 2 15 25 16 1 18 15 19 16 20 24 21 17 22 23 23 18 24 22 25
REMARK SMILES IDX 19 26 20 27 21 29
REMARK H PARENT 6 3 12 11 3 17 24 28
ROOT
ATOM      1  C   UNL     1      46.517 132.630  21.355  1.00  0.00     0.205 C 
ENDROOT
BRANCH   1   2
ATOM      2  O   UNL     1      47.581 131.881  20.851  1.00  0.00    -0.494 OA
ATOM      3  H   UNL     1      48.231 132.262  20.175  1.00  0.00     0.295 HD
ENDBRANCH   1   2
BRANCH   1   4
ATOM      4  C   UNL     1      46.694 133.932  21.643  1.00  0.00     0.082 C 
BRANCH   4   5
ATOM      5  C   UNL     1      47.993 134.523  22.036  1.00  0.00     0.048 A 
ATOM      6  C   UNL     1      48.556 135.526  21.241  1.00  0.00     0.041 A 
ATOM      7  C   UNL     1      48.653 134.165  23.222  1.00  0.00     0.343 A 
ATOM      8  C   UNL     1      49.764 136.105  21.620  1.00  0.00     0.185 A 
ATOM      9  N   UNL     1      49.830 134.764  23.547  1.00  0.00    -0.106 N 
ATOM     10  N   UNL     1      50.369 135.703  22.767  1.00  0.00    -0.011 NA
ATOM     11  H   UNL     1      50.318 134.492  24.428  1.00  0.00     0.490 HD
ENDBRANCH   4   5
ENDBRANCH   1   4
BRANCH   1  12
ATOM     12  N   UNL     1      45.231 131.994  21.534  1.00  0.00    -0.242 N 
ATOM     13  N   UNL     1      44.981 131.130  22.592  1.00  0.00    -0.201 NA
ATOM     14  C   UNL     1      44.085 132.120  20.662  1.00  0.00     0.283 C 
ATOM     15  C   UNL     1      43.582 130.746  22.397  1.00  0.00     0.204 C 
ATOM     16  O   UNL     1      43.075 131.306  21.197  1.00  0.00    -0.332 OA
ATOM     17  H   UNL     1      45.053 131.691  23.474  1.00  0.00     0.151 HD
ATOM     18  C   UNL     1      43.471 129.227  22.333  1.00  0.00     0.058 C 
BRANCH  14  19
ATOM     19  C   UNL     1      44.413 131.651  19.272  1.00  0.00     0.068 A 
ATOM     20  C   UNL     1      43.682 131.969  18.131  1.00  0.00     0.036 A 
ATOM     21  N   UNL     1      45.453 130.836  18.974  1.00  0.00    -0.355 N 
ATOM     22  C   UNL     1      44.329 131.319  17.103  1.00  0.00     0.000 A 
ATOM     23  C   UNL     1      45.392 130.645  17.646  1.00  0.00     0.049 A 
ATOM     24  C   UNL     1      44.053 131.280  15.739  1.00  0.00     0.013 A 
ATOM     25  C   UNL     1      46.256 129.884  16.860  1.00  0.00     0.065 A 
ATOM     26  C   UNL     1      44.907 130.519  14.919  1.00  0.00     0.040 A 
ATOM     27  C   UNL     1      46.005 129.825  15.477  1.00  0.00     0.125 A 
ATOM     28  H   UNL     1      46.161 130.444  19.635  1.00  0.00     0.166 HD
ATOM     29  F   UNL     1      46.819 129.097  14.674  1.00  0.00    -0.207 F 
ENDBRANCH  14  19
ENDBRANCH   1  12
TORSDOF 5
ENDMDL
MODEL 5
REMARK VINA RESULT:      -6.2      3.604      4.696
REMARK SMILES C[C@H]1NN(/C(O)=C/c2ccn[nH+]c2)[C@@H](c2cc3ccc(F)cc3[nH]2)O1
REMARK SMILES IDX 5 1 6 2 7 4 8 5 9 6 13 7 10 8 12 9 11 10 4 12 3 13 14 14
REMARK SMILES IDX 2 15 25 16 1 18 15 19 16 20 24 21 17 22 23 23 18 24 22 25
REMARK SMILES IDX 19 26 20 27 21 29
REMARK H PARENT 6 3 12 11 3 17 24 28
ROOT
ATOM      1  C   UNL     1      46.792 132.821  21.296  1.00  0.00     0.205 C 
ENDROOT
BRANCH   1   2
ATOM      2  O   UNL     1      47.859 132.008  20.909  1.00  0.00    -0.494 OA
ATOM      3  H   UNL     1      48.803 132.364  20.831  1.00  0.00     0.295 HD
ENDBRANCH   1   2
BRANCH   1   4
ATOM      4  C   UNL     1      47.003 134.127  21.537  1.00  0.00     0.082 C 
BRANCH   4   5
ATOM      5  C   UNL     1      48.309 134.694  21.942  1.00  0.00     0.048 A 
ATOM      6  C   UNL     1      48.791 135.832  21.288  1.00  0.00     0.041 A 
ATOM      7  C   UNL     1      49.055 134.175  23.011  1.00  0.00     0.343 A 
ATOM      8  C   UNL     1      50.006 136.387  21.682  1.00  0.00     0.185 A 
ATOM      9  N   UNL     1      50.234 134.756  23.356  1.00  0.00    -0.106 N 
ATOM     10  N   UNL     1      50.696 135.828  22.709  1.00  0.00    -0.011 NA
ATOM     11  H   UNL     1      50.787 134.364  24.151  1.00  0.00     0.490 HD
ENDBRANCH   4   5
ENDBRANCH   1   4
BRANCH   1  12
ATOM     12  N   UNL     1      45.472 132.244  21.407  1.00  0.00    -0.242 N 
ATOM     13  N   UNL     1      45.107 131.446  22.484  1.00  0.00    -0.201 NA
ATOM     14  C   UNL     1      44.401 132.367  20.444  1.00  0.00     0.283 C 
ATOM     15  C   UNL     1      43.711 131.106  22.200  1.00  0.00     0.204 C 
ATOM     16  O   UNL     1      43.320 131.622  20.938  1.00  0.00    -0.332 OA
ATOM     17  H   UNL     1      45.136 132.050  23.340  1.00  0.00     0.151 HD
ATOM     18  C   UNL     1      43.543 129.591  22.203  1.00  0.00     0.058 C 
BRANCH  14  19
ATOM     19  C   UNL     1      44.812 131.814  19.108  1.00  0.00     0.068 A 
ATOM     20  C   UNL     1      45.522 130.631  18.921  1.00  0.00     0.036 A 
ATOM     21  N   UNL     1      44.560 132.425  17.926  1.00  0.00    -0.355 N 
ATOM     22  C   UNL     1      45.686 130.529  17.557  1.00  0.00     0.000 A 
ATOM     23  C   UNL     1      45.095 131.626  16.987  1.00  0.00     0.049 A 
ATOM     24  C   UNL     1      46.312 129.549  16.790  1.00  0.00     0.013 A 
ATOM     25  C   UNL     1      45.087 131.820  15.606  1.00  0.00     0.065 A 
ATOM     26  C   UNL     1      46.321 129.717  15.393  1.00  0.00     0.040 A 
ATOM     27  C   UNL     1      45.710 130.848  14.803  1.00  0.00     0.125 A 
ATOM     28  H   UNL     1      44.048 133.322  17.772  1.00  0.00     0.166 HD
ATOM     29  F   UNL     1      45.726 130.996  13.456  1.00  0.00    -0.207 F 
ENDBRANCH  14  19
ENDBRANCH   1  12
TORSDOF 5
ENDMDL
MODEL 6
REMARK VINA RESULT:      -6.0      3.180      7.196
REMARK SMILES C[C@H]1NN(/C(O)=C/c2ccn[nH+]c2)[C@@H](c2cc3ccc(F)cc3[nH]2)O1
REMARK SMILES IDX 5 1 6 2 7 4 8 5 9 6 13 7 10 8 12 9 11 10 4 12 3 13 14 14
REMARK SMILES IDX 2 15 25 16 1 18 15 19 16 20 24 21 17 22 23 23 18 24 22 25
REMARK SMILES IDX 19 26 20 27 21 29
REMARK H PARENT 6 3 12 11 3 17 24 28
ROOT
ATOM      1  C   UNL     1      45.272 130.945  20.183  1.00  0.00     0.205 C 
ENDROOT
BRANCH   1   2
ATOM      2  O   UNL     1      46.490 130.265  20.214  1.00  0.00    -0.494 OA
ATOM      3  H   UNL     1      46.574 129.333  20.599  1.00  0.00     0.295 HD
ENDBRANCH   1   2
BRANCH   1   4
ATOM      4  C   UNL     1      44.717 131.267  19.001  1.00  0.00     0.082 C 
BRANCH   4   5
ATOM      5  C   UNL     1      45.374 131.052  17.693  1.00  0.00     0.048 A 
ATOM      6  C   UNL     1      45.314 132.059  16.725  1.00  0.00     0.041 A 
ATOM      7  C   UNL     1      46.119 129.897  17.407  1.00  0.00     0.343 A 
ATOM      8  C   UNL     1      45.953 131.873  15.501  1.00  0.00     0.185 A 
ATOM      9  N   UNL     1      46.725 129.767  16.197  1.00  0.00    -0.106 N 
ATOM     10  N   UNL     1      46.641 130.726  15.272  1.00  0.00    -0.011 NA
ATOM     11  H   UNL     1      47.276 128.905  15.988  1.00  0.00     0.490 HD
ENDBRANCH   4   5
ENDBRANCH   1   4
BRANCH   1  12
ATOM     12  N   UNL     1      44.615 131.268  21.430  1.00  0.00    -0.242 N 
ATOM     13  N   UNL     1      44.973 132.379  22.182  1.00  0.00    -0.201 NA
ATOM     14  C   UNL     1      43.571 130.500  22.071  1.00  0.00     0.283 C 
ATOM     15  C   UNL     1      44.058 132.329  23.323  1.00  0.00     0.204 C 
ATOM     16  O   UNL     1      43.259 131.159  23.270  1.00  0.00    -0.332 OA
ATOM     17  H   UNL     1      44.747 133.227  21.609  1.00  0.00     0.151 HD
ATOM     18  C   UNL     1      44.856 132.339  24.622  1.00  0.00     0.058 C 
BRANCH  14  19
ATOM     19  C   UNL     1      44.041 129.107  22.381  1.00  0.00     0.068 A 
ATOM     20  C   UNL     1      43.447 128.254  23.308  1.00  0.00     0.036 A 
ATOM     21  N   UNL     1      45.122 128.528  21.806  1.00  0.00    -0.355 N 
ATOM     22  C   UNL     1      44.209 127.107  23.271  1.00  0.00     0.000 A 
ATOM     23  C   UNL     1      45.210 127.305  22.356  1.00  0.00     0.049 A 
ATOM     24  C   UNL     1      44.084 125.913  23.977  1.00  0.00     0.013 A 
ATOM     25  C   UNL     1      46.157 126.320  22.081  1.00  0.00     0.065 A 
ATOM     26  C   UNL     1      45.026 124.899  23.722  1.00  0.00     0.040 A 
ATOM     27  C   UNL     1      46.059 125.101  22.777  1.00  0.00     0.125 A 
ATOM     28  H   UNL     1      45.751 128.939  21.081  1.00  0.00     0.166 HD
ATOM     29  F   UNL     1      46.958 124.115  22.542  1.00  0.00    -0.207 F 
ENDBRANCH  14  19
ENDBRANCH   1  12
TORSDOF 5
ENDMDL
MODEL 7
REMARK VINA RESULT:      -5.9      2.594      4.296
REMARK SMILES C[C@H]1NN(/C(O)=C/c2ccn[nH+]c2)[C@@H](c2cc3ccc(F)cc3[nH]2)O1
REMARK SMILES IDX 5 1 6 2 7 4 8 5 9 6 13 7 10 8 12 9 11 10 4 12 3 13 14 14
REMARK SMILES IDX 2 15 25 16 1 18 15 19 16 20 24 21 17 22 23 23 18 24 22 25
REMARK SMILES IDX 19 26 20 27 21 29
REMARK H PARENT 6 3 12 11 3 17 24 28
ROOT
ATOM      1  C   UNL     1      44.505 128.284  22.871  1.00  0.00     0.205 C 
ENDROOT
BRANCH   1   2
ATOM      2  O   UNL     1      45.661 128.026  22.132  1.00  0.00    -0.494 OA
ATOM      3  H   UNL     1      46.580 128.029  22.556  1.00  0.00     0.295 HD
ENDBRANCH   1   2
BRANCH   1   4
ATOM      4  C   UNL     1      43.729 127.262  23.274  1.00  0.00     0.082 C 
BRANCH   4   5
ATOM      5  C   UNL     1      44.069 125.836  23.074  1.00  0.00     0.048 A 
ATOM      6  C   UNL     1      45.407 125.436  23.147  1.00  0.00     0.041 A 
ATOM      7  C   UNL     1      43.089 124.850  22.883  1.00  0.00     0.343 A 
ATOM      8  C   UNL     1      45.731 124.091  22.986  1.00  0.00     0.185 A 
ATOM      9  N   UNL     1      43.459 123.550  22.734  1.00  0.00    -0.106 N 
ATOM     10  N   UNL     1      44.741 123.184  22.782  1.00  0.00    -0.011 NA
ATOM     11  H   UNL     1      42.726 122.821  22.589  1.00  0.00     0.490 HD
ENDBRANCH   4   5
ENDBRANCH   1   4
BRANCH   1  12
ATOM     12  N   UNL     1      44.178 129.650  23.211  1.00  0.00    -0.242 N 
ATOM     13  N   UNL     1      43.107 129.965  24.038  1.00  0.00    -0.201 NA
ATOM     14  C   UNL     1      44.854 130.836  22.734  1.00  0.00     0.283 C 
ATOM     15  C   UNL     1      43.160 131.426  24.125  1.00  0.00     0.204 C 
ATOM     16  O   UNL     1      44.183 131.938  23.288  1.00  0.00    -0.332 OA
ATOM     17  H   UNL     1      43.319 129.566  24.984  1.00  0.00     0.151 HD
ATOM     18  C   UNL     1      41.817 132.013  23.704  1.00  0.00     0.058 C 
BRANCH  14  19
ATOM     19  C   UNL     1      44.793 130.923  21.235  1.00  0.00     0.068 A 
ATOM     20  C   UNL     1      45.811 130.527  20.372  1.00  0.00     0.036 A 
ATOM     21  N   UNL     1      43.740 131.428  20.548  1.00  0.00    -0.355 N 
ATOM     22  C   UNL     1      45.331 130.798  19.110  1.00  0.00     0.000 A 
ATOM     23  C   UNL     1      44.080 131.341  19.252  1.00  0.00     0.049 A 
ATOM     24  C   UNL     1      45.910 130.602  17.859  1.00  0.00     0.013 A 
ATOM     25  C   UNL     1      43.319 131.725  18.149  1.00  0.00     0.065 A 
ATOM     26  C   UNL     1      45.166 130.981  16.726  1.00  0.00     0.040 A 
ATOM     27  C   UNL     1      43.875 131.540  16.870  1.00  0.00     0.125 A 
ATOM     28  H   UNL     1      42.846 131.798  20.941  1.00  0.00     0.166 HD
ATOM     29  F   UNL     1      43.171 131.900  15.770  1.00  0.00    -0.207 F 
ENDBRANCH  14  19
ENDBRANCH   1  12
TORSDOF 5
ENDMDL
MODEL 8
REMARK VINA RESULT:      -5.8      2.582      4.178
REMARK SMILES C[C@H]1NN(/C(O)=C/c2ccn[nH+]c2)[C@@H](c2cc3ccc(F)cc3[nH]2)O1
REMARK SMILES IDX 5 1 6 2 7 4 8 5 9 6 13 7 10 8 12 9 11 10 4 12 3 13 14 14
REMARK SMILES IDX 2 15 25 16 1 18 15 19 16 20 24 21 17 22 23 23 18 24 22 25
REMARK SMILES IDX 19 26 20 27 21 29
REMARK H PARENT 6 3 12 11 3 17 24 28
ROOT
ATOM      1  C   UNL     1      44.850 128.167  22.566  1.00  0.00     0.205 C 
ENDROOT
BRANCH   1   2
ATOM      2  O   UNL     1      45.331 127.959  21.272  1.00  0.00    -0.494 OA
ATOM      3  H   UNL     1      44.878 128.361  20.461  1.00  0.00     0.295 HD
ENDBRANCH   1   2
BRANCH   1   4
ATOM      4  C   UNL     1      44.809 127.141  23.435  1.00  0.00     0.082 C 
BRANCH   4   5
ATOM      5  C   UNL     1      44.435 125.757  23.065  1.00  0.00     0.048 A 
ATOM      6  C   UNL     1      43.102 125.470  22.757  1.00  0.00     0.041 A 
ATOM      7  C   UNL     1      45.384 124.730  22.942  1.00  0.00     0.343 A 
ATOM      8  C   UNL     1      42.748 124.176  22.382  1.00  0.00     0.185 A 
ATOM      9  N   UNL     1      44.985 123.485  22.571  1.00  0.00    -0.106 N 
ATOM     10  N   UNL     1      43.706 123.216  22.302  1.00  0.00    -0.011 NA
ATOM     11  H   UNL     1      45.694 122.723  22.484  1.00  0.00     0.490 HD
ENDBRANCH   4   5
ENDBRANCH   1   4
BRANCH   1  12
ATOM     12  N   UNL     1      44.427 129.493  22.955  1.00  0.00    -0.242 N 
ATOM     13  N   UNL     1      43.351 129.700  23.808  1.00  0.00    -0.201 NA
ATOM     14  C   UNL     1      45.003 130.741  22.506  1.00  0.00     0.283 C 
ATOM     15  C   UNL     1      43.295 131.157  23.941  1.00  0.00     0.204 C 
ATOM     16  O   UNL     1      44.261 131.771  23.104  1.00  0.00    -0.332 OA
ATOM     17  H   UNL     1      43.608 129.289  24.737  1.00  0.00     0.151 HD
ATOM     18  C   UNL     1      41.905 131.653  23.559  1.00  0.00     0.058 C 
BRANCH  14  19
ATOM     19  C   UNL     1      44.909 130.869  21.011  1.00  0.00     0.068 A 
ATOM     20  C   UNL     1      45.904 130.488  20.115  1.00  0.00     0.036 A 
ATOM     21  N   UNL     1      43.845 131.400  20.363  1.00  0.00    -0.355 N 
ATOM     22  C   UNL     1      45.398 130.797  18.872  1.00  0.00     0.000 A 
ATOM     23  C   UNL     1      44.156 131.346  19.057  1.00  0.00     0.049 A 
ATOM     24  C   UNL     1      45.947 130.631  17.603  1.00  0.00     0.013 A 
ATOM     25  C   UNL     1      43.373 131.767  17.983  1.00  0.00     0.065 A 
ATOM     26  C   UNL     1      45.181 131.047  16.498  1.00  0.00     0.040 A 
ATOM     27  C   UNL     1      43.899 131.612  16.686  1.00  0.00     0.125 A 
ATOM     28  H   UNL     1      42.964 131.767  20.785  1.00  0.00     0.166 HD
ATOM     29  F   UNL     1      43.172 132.007  15.613  1.00  0.00    -0.207 F 
ENDBRANCH  14  19
ENDBRANCH   1  12
TORSDOF 5
ENDMDL
MODEL 9
REMARK VINA RESULT:      -5.6      1.032      1.489
REMARK SMILES C[C@H]1NN(/C(O)=C/c2ccn[nH+]c2)[C@@H](c2cc3ccc(F)cc3[nH]2)O1
REMARK SMILES IDX 5 1 6 2 7 4 8 5 9 6 13 7 10 8 12 9 11 10 4 12 3 13 14 14
REMARK SMILES IDX 2 15 25 16 1 18 15 19 16 20 24 21 17 22 23 23 18 24 22 25
REMARK SMILES IDX 19 26 20 27 21 29
REMARK H PARENT 6 3 12 11 3 17 24 28
ROOT
ATOM      1  C   UNL     1      45.559 130.644  20.606  1.00  0.00     0.205 C 
ENDROOT
BRANCH   1   2
ATOM      2  O   UNL     1      46.854 131.096  20.350  1.00  0.00    -0.494 OA
ATOM      3  H   UNL     1      47.390 130.766  19.557  1.00  0.00     0.295 HD
ENDBRANCH   1   2
BRANCH   1   4
ATOM      4  C   UNL     1      45.367 129.601  21.434  1.00  0.00     0.082 C 
BRANCH   4   5
ATOM      5  C   UNL     1      44.413 129.607  22.565  1.00  0.00     0.048 A 
ATOM      6  C   UNL     1      44.108 130.818  23.195  1.00  0.00     0.041 A 
ATOM      7  C   UNL     1      43.743 128.449  22.988  1.00  0.00     0.343 A 
ATOM      8  C   UNL     1      43.190 130.834  24.243  1.00  0.00     0.185 A 
ATOM      9  N   UNL     1      42.854 128.520  24.015  1.00  0.00    -0.106 N 
ATOM     10  N   UNL     1      42.588 129.678  24.624  1.00  0.00    -0.011 NA
ATOM     11  H   UNL     1      42.360 127.655  24.328  1.00  0.00     0.490 HD
ENDBRANCH   4   5
ENDBRANCH   1   4
BRANCH   1  12
ATOM     12  N   UNL     1      44.442 131.325  19.992  1.00  0.00    -0.242 N 
ATOM     13  N   UNL     1      43.127 131.032  20.331  1.00  0.00    -0.201 NA
ATOM     14  C   UNL     1      44.517 132.332  18.957  1.00  0.00     0.283 C 
ATOM     15  C   UNL     1      42.347 131.952  19.501  1.00  0.00     0.204 C 
ATOM     16  O   UNL     1      43.198 132.687  18.637  1.00  0.00    -0.332 OA
ATOM     17  H   UNL     1      42.999 131.299  21.336  1.00  0.00     0.151 HD
ATOM     18  C   UNL     1      41.340 131.164  18.670  1.00  0.00     0.058 C 
BRANCH  14  19
ATOM     19  C   UNL     1      45.194 131.791  17.730  1.00  0.00     0.068 A 
ATOM     20  C   UNL     1      45.338 132.481  16.529  1.00  0.00     0.036 A 
ATOM     21  N   UNL     1      45.724 130.546  17.643  1.00  0.00    -0.355 N 
ATOM     22  C   UNL     1      45.997 131.606  15.694  1.00  0.00     0.000 A 
ATOM     23  C   UNL     1      46.214 130.449  16.397  1.00  0.00     0.049 A 
ATOM     24  C   UNL     1      46.415 131.755  14.374  1.00  0.00     0.013 A 
ATOM     25  C   UNL     1      46.868 129.358  15.827  1.00  0.00     0.065 A 
ATOM     26  C   UNL     1      47.078 130.669  13.771  1.00  0.00     0.040 A 
ATOM     27  C   UNL     1      47.304 129.476  14.495  1.00  0.00     0.125 A 
ATOM     28  H   UNL     1      45.754 129.818  18.391  1.00  0.00     0.166 HD
ATOM     29  F   UNL     1      47.945 128.439  13.901  1.00  0.00    -0.207 F 
ENDBRANCH  14  19
ENDBRANCH   1  12
TORSDOF 5
ENDMDL


