REMARK SMILES [O-]c1nccc2ccc(-c3cccc([C@H]4CO4)c3)cc12
REMARK SMILES IDX 1 1 2 2 3 3 4 4 5 5 6 6 7 7 8 8 9 9 19 10 20 11 10 12 11 13
REMARK SMILES IDX 18 14 12 15 14 16 13 17 15 18 16 19 17 20
REMARK H PARENT
ROOT
ATOM      1  O   UNL     1       0.484  -3.883  -2.796  1.00  0.00    -0.858 OA
ATOM      2  C   UNL     1       1.510  -2.994  -3.098  1.00  0.00    -0.005 A 
ATOM      3  N   UNL     1       2.289  -3.227  -4.188  1.00  0.00    -0.272 NA
ATOM      4  C   UNL     1       3.308  -2.398  -4.537  1.00  0.00     0.111 A 
ATOM      5  C   UNL     1       3.584  -1.264  -3.772  1.00  0.00     0.029 A 
ATOM      6  C   UNL     1       2.804  -0.990  -2.642  1.00  0.00    -0.016 A 
ATOM      7  C   UNL     1       3.058   0.142  -1.857  1.00  0.00     0.009 A 
ATOM      8  C   UNL     1       2.275   0.409  -0.732  1.00  0.00     0.009 A 
ATOM      9  C   UNL     1       1.222  -0.451  -0.370  1.00  0.00    -0.018 A 
ATOM     10  C   UNL     1       0.966  -1.588  -1.159  1.00  0.00     0.018 A 
ATOM     11  C   UNL     1       1.749  -1.864  -2.292  1.00  0.00    -0.007 A 
ENDROOT
BRANCH   9  12
ATOM     12  C   UNL     1       0.394  -0.162   0.828  1.00  0.00    -0.018 A 
ATOM     13  C   UNL     1       0.008  -1.198   1.697  1.00  0.00     0.009 A 
ATOM     14  C   UNL     1      -0.020   1.154   1.110  1.00  0.00     0.015 A 
ATOM     15  C   UNL     1      -0.777  -0.925   2.820  1.00  0.00     0.001 A 
ATOM     16  C   UNL     1      -0.793   1.431   2.248  1.00  0.00    -0.016 A 
ATOM     17  C   UNL     1      -1.183   0.382   3.092  1.00  0.00     0.006 A 
BRANCH  16  18
ATOM     18  C   UNL     1      -1.263   2.829   2.523  1.00  0.00     0.174 C 
ATOM     19  C   UNL     1      -0.755   3.454   3.766  1.00  0.00     0.198 C 
ATOM     20  O   UNL     1      -0.196   3.750   2.508  1.00  0.00    -0.368 OA
ENDBRANCH  16  18
ENDBRANCH   9  12
TORSDOF 2


