REMARK SMILES C#Cc1c[nH+]cc(Nc2cc(C)cc(-n3nc4ccc(F)cc4n3)c2[O-])c1
REMARK SMILES IDX 8 1 7 3 3 4 4 5 27 6 5 7 6 8 2 10 1 11 9 12 10 13 25 14
REMARK SMILES IDX 11 15 14 16 13 17 26 18 12 19 15 20 16 21 24 22 17 23 23 24
REMARK SMILES IDX 18 25 22 26 19 27 20 28 21 29
REMARK H PARENT 8 2 5 9
ROOT
ATOM      1  N   UNL     1       2.660   0.717  -2.253  1.00  0.00    -0.351 N 
ATOM      2  H   UNL     1       2.967   1.444  -2.939  1.00  0.00     0.167 HD
ENDROOT
BRANCH   1   3
ATOM      3  C   UNL     1       2.956  -0.659  -2.547  1.00  0.00     0.105 A 
ATOM      4  C   UNL     1       3.424  -2.939  -1.855  1.00  0.00     0.090 A 
ATOM      5  C   UNL     1       3.578  -3.294  -3.199  1.00  0.00     0.323 A 
ATOM      6  C   UNL     1       3.119  -1.614  -1.529  1.00  0.00     0.056 A 
ATOM      7  N   UNL     1       3.438  -2.355  -4.173  1.00  0.00    -0.215 N 
ATOM      8  C   UNL     1       3.139  -1.060  -3.878  1.00  0.00     0.332 A 
ATOM      9  H   UNL     1       3.562  -2.634  -5.172  1.00  0.00     0.453 HD
BRANCH   4  10
ATOM     10  C   UNL     1       3.583  -3.925  -0.819  1.00  0.00    -0.064 C 
ATOM     11  C   UNL     1       3.716  -4.751   0.050  1.00  0.00     0.010 C 
ENDBRANCH   4  10
ENDBRANCH   1   3
BRANCH   1  12
ATOM     12  C   UNL     1       2.065   1.168  -1.025  1.00  0.00     0.033 A 
ATOM     13  C   UNL     1       2.618   2.273  -0.368  1.00  0.00     0.029 A 
ATOM     14  C   UNL     1       0.907   0.555  -0.505  1.00  0.00    -0.056 A 
ATOM     15  C   UNL     1       2.056   2.751   0.820  1.00  0.00    -0.047 A 
ATOM     16  C   UNL     1       0.349   1.006   0.713  1.00  0.00     0.080 A 
ATOM     17  C   UNL     1       0.940   2.103   1.366  1.00  0.00     0.033 A 
ATOM     18  O   UNL     1       0.307  -0.479  -1.217  1.00  0.00    -0.870 OA
ATOM     19  C   UNL     1       2.691   3.901   1.546  1.00  0.00     0.044 C 
BRANCH  16  20
ATOM     20  N   UNL     1      -0.811   0.371   1.292  1.00  0.00    -0.151 N 
ATOM     21  N   UNL     1      -1.463   0.860   2.348  1.00  0.00    -0.148 NA
ATOM     22  N   UNL     1      -1.339  -0.770   0.849  1.00  0.00    -0.148 NA
ATOM     23  C   UNL     1      -2.454  -0.013   2.580  1.00  0.00     0.113 A 
ATOM     24  C   UNL     1      -2.378  -1.012   1.662  1.00  0.00     0.116 A 
ATOM     25  C   UNL     1      -3.433   0.015   3.567  1.00  0.00     0.035 A 
ATOM     26  C   UNL     1      -3.274  -2.076   1.645  1.00  0.00     0.071 A 
ATOM     27  C   UNL     1      -4.362  -1.044   3.586  1.00  0.00     0.041 A 
ATOM     28  C   UNL     1      -4.284  -2.086   2.628  1.00  0.00     0.125 A 
ATOM     29  F   UNL     1      -5.185  -3.098   2.659  1.00  0.00    -0.207 F 
ENDBRANCH  16  20
ENDBRANCH   1  12
TORSDOF 4


