REMARK SMILES Cc1cc([NH2+]N)c2cc3ccccc3cc2c1
REMARK SMILES IDX 5 1 4 4 2 5 3 6 17 7 16 8 7 9 15 10 8 11 14 12 9 13 13 14
REMARK SMILES IDX 10 15 12 16 11 17 1 18 6 19
REMARK H PARENT 5 2 5 3 6 20 6 21
ROOT
ATOM      1  N   UNL     1       0.149   0.841  -2.383  1.00  0.00    -0.239 N 
ATOM      2  H   UNL     1      -0.747   1.378  -2.430  1.00  0.00     0.376 HD
ATOM      3  H   UNL     1       0.913   1.474  -2.721  1.00  0.00     0.376 HD
ENDROOT
BRANCH   1   4
ATOM      4  C   UNL     1       0.393   0.390  -1.032  1.00  0.00     0.156 A 
ATOM      5  C   UNL     1       1.960   0.154   0.830  1.00  0.00    -0.045 A 
ATOM      6  C   UNL     1       1.674   0.563  -0.478  1.00  0.00     0.073 A 
ATOM      7  C   UNL     1       0.969  -0.475   1.589  1.00  0.00     0.012 A 
ATOM      8  C   UNL     1      -0.313  -0.677   1.062  1.00  0.00    -0.011 A 
ATOM      9  C   UNL     1      -0.616  -0.250  -0.258  1.00  0.00     0.045 A 
ATOM     10  C   UNL     1      -1.292  -1.310   1.843  1.00  0.00     0.017 A 
ATOM     11  C   UNL     1      -1.912  -0.485  -0.767  1.00  0.00     0.023 A 
ATOM     12  C   UNL     1      -2.576  -1.531   1.332  1.00  0.00    -0.018 A 
ATOM     13  C   UNL     1      -2.888  -1.117   0.017  1.00  0.00    -0.018 A 
ATOM     14  C   UNL     1      -3.557  -2.164   2.113  1.00  0.00     0.009 A 
ATOM     15  C   UNL     1      -4.176  -1.345  -0.494  1.00  0.00     0.009 A 
ATOM     16  C   UNL     1      -4.835  -2.384   1.592  1.00  0.00     0.001 A 
ATOM     17  C   UNL     1      -5.144  -1.976   0.293  1.00  0.00     0.001 A 
ATOM     18  C   UNL     1       3.344   0.322   1.386  1.00  0.00     0.044 C 
ENDBRANCH   1   4
BRANCH   1  19
ATOM     19  N   UNL     1       0.074  -0.282  -3.232  1.00  0.00    -0.178 NA
ATOM     20  H   UNL     1       1.039  -0.674  -3.349  1.00  0.00     0.183 HD
ATOM     21  H   UNL     1      -0.227   0.049  -4.179  1.00  0.00     0.183 HD
ENDBRANCH   1  19
TORSDOF 2


