MODEL 1
REMARK VINA RESULT:      -8.0      0.000      0.000
REMARK SMILES Cn1cc2ccc([NH2+]c3cccc(N)c3[O-])cc2[nH+]1
REMARK SMILES IDX 9 1 10 2 11 3 12 4 13 5 15 6 16 7 8 8 7 11 2 12 3 13 19 14
REMARK SMILES IDX 4 15 18 16 5 17 17 18 6 19 1 20 14 22
REMARK H PARENT 8 9 8 10 19 21 14 23 14 24
ROOT
ATOM      1  C   UNL     1      44.842 131.087  16.191  1.00  0.00     0.128 A 
ATOM      2  C   UNL     1      44.641 129.695  16.200  1.00  0.00     0.067 A 
ATOM      3  C   UNL     1      45.430 128.860  15.409  1.00  0.00     0.008 A 
ATOM      4  C   UNL     1      46.428 129.400  14.596  1.00  0.00     0.025 A 
ATOM      5  C   UNL     1      46.645 130.784  14.567  1.00  0.00     0.029 A 
ATOM      6  C   UNL     1      45.851 131.630  15.365  1.00  0.00    -0.021 A 
ATOM      7  O   UNL     1      46.066 133.005  15.338  1.00  0.00    -0.867 OA
ENDROOT
BRANCH   1   8
ATOM      8  N   UNL     1      43.997 131.941  16.992  1.00  0.00    -0.282 N 
ATOM      9  H   UNL     1      42.991 131.810  16.733  1.00  0.00     0.358 HD
ATOM     10  H   UNL     1      44.221 132.946  16.804  1.00  0.00     0.358 HD
BRANCH   8  11
ATOM     11  C   UNL     1      44.197 131.653  18.391  1.00  0.00     0.141 A 
ATOM     12  N   UNL     1      43.226 131.292  22.786  1.00  0.00    -0.165 N 
ATOM     13  C   UNL     1      44.464 130.864  22.438  1.00  0.00     0.165 A 
ATOM     14  N   UNL     1      42.582 131.738  21.713  1.00  0.00    -0.123 N 
ATOM     15  C   UNL     1      44.585 131.035  21.075  1.00  0.00     0.071 A 
ATOM     16  C   UNL     1      43.400 131.580  20.660  1.00  0.00     0.241 A 
ATOM     17  C   UNL     1      45.626 130.773  20.193  1.00  0.00     0.023 A 
ATOM     18  C   UNL     1      43.164 131.905  19.327  1.00  0.00     0.150 A 
ATOM     19  C   UNL     1      45.424 131.084  18.835  1.00  0.00     0.069 A 
ATOM     20  C   UNL     1      42.703 131.362  24.144  1.00  0.00     0.223 C 
ATOM     21  H   UNL     1      41.621 132.147  21.709  1.00  0.00     0.488 HD
ENDBRANCH   8  11
ENDBRANCH   1   8
BRANCH   5  22
ATOM     22  N   UNL     1      47.671 131.323  13.726  1.00  0.00    -0.399 N 
ATOM     23  H   UNL     1      48.113 132.242  13.948  1.00  0.00     0.156 HD
ATOM     24  H   UNL     1      48.002 130.813  12.878  1.00  0.00     0.156 HD
ENDBRANCH   5  22
TORSDOF 3
ENDMDL
MODEL 2
REMARK VINA RESULT:      -7.9      1.748      6.879
REMARK SMILES Cn1cc2ccc([NH2+]c3cccc(N)c3[O-])cc2[nH+]1
REMARK SMILES IDX 9 1 10 2 11 3 12 4 13 5 15 6 16 7 8 8 7 11 2 12 3 13 19 14
REMARK SMILES IDX 4 15 18 16 5 17 17 18 6 19 1 20 14 22
REMARK H PARENT 8 9 8 10 19 21 14 23 14 24
ROOT
ATOM      1  C   UNL     1      44.023 131.683  19.199  1.00  0.00     0.128 A 
ATOM      2  C   UNL     1      45.262 131.068  19.455  1.00  0.00     0.067 A 
ATOM      3  C   UNL     1      45.587 130.637  20.742  1.00  0.00     0.008 A 
ATOM      4  C   UNL     1      44.684 130.818  21.791  1.00  0.00     0.025 A 
ATOM      5  C   UNL     1      43.446 131.431  21.561  1.00  0.00     0.029 A 
ATOM      6  C   UNL     1      43.114 131.866  20.264  1.00  0.00    -0.021 A 
ATOM      7  O   UNL     1      41.884 132.475  20.034  1.00  0.00    -0.867 OA
ENDROOT
BRANCH   1   8
ATOM      8  N   UNL     1      43.714 132.151  17.868  1.00  0.00    -0.282 N 
ATOM      9  H   UNL     1      43.868 133.184  17.797  1.00  0.00     0.358 HD
ATOM     10  H   UNL     1      42.702 131.989  17.657  1.00  0.00     0.358 HD
BRANCH   8  11
ATOM     11  C   UNL     1      44.529 131.454  16.904  1.00  0.00     0.141 A 
ATOM     12  N   UNL     1      47.472 130.871  13.529  1.00  0.00    -0.165 N 
ATOM     13  C   UNL     1      47.006 129.726  14.084  1.00  0.00     0.165 A 
ATOM     14  N   UNL     1      46.923 131.922  14.130  1.00  0.00    -0.123 N 
ATOM     15  C   UNL     1      46.137 130.087  15.092  1.00  0.00     0.071 A 
ATOM     16  C   UNL     1      46.110 131.455  15.091  1.00  0.00     0.241 A 
ATOM     17  C   UNL     1      45.377 129.335  15.979  1.00  0.00     0.023 A 
ATOM     18  C   UNL     1      45.320 132.178  15.979  1.00  0.00     0.150 A 
ATOM     19  C   UNL     1      44.568 130.031  16.897  1.00  0.00     0.069 A 
ATOM     20  C   UNL     1      48.360 130.956  12.377  1.00  0.00     0.223 C 
ATOM     21  H   UNL     1      47.093 132.921  13.877  1.00  0.00     0.488 HD
ENDBRANCH   8  11
ENDBRANCH   1   8
BRANCH   5  22
ATOM     22  N   UNL     1      42.532 131.610  22.649  1.00  0.00    -0.399 N 
ATOM     23  H   UNL     1      42.883 131.789  23.616  1.00  0.00     0.156 HD
ATOM     24  H   UNL     1      41.500 131.569  22.504  1.00  0.00     0.156 HD
ENDBRANCH   5  22
TORSDOF 3
ENDMDL
MODEL 3
REMARK VINA RESULT:      -7.9      2.761      7.041
REMARK SMILES Cn1cc2ccc([NH2+]c3cccc(N)c3[O-])cc2[nH+]1
REMARK SMILES IDX 9 1 10 2 11 3 12 4 13 5 15 6 16 7 8 8 7 11 2 12 3 13 19 14
REMARK SMILES IDX 4 15 18 16 5 17 17 18 6 19 1 20 14 22
REMARK H PARENT 8 9 8 10 19 21 14 23 14 24
ROOT
ATOM      1  C   UNL     1      44.361 130.089  22.480  1.00  0.00     0.128 A 
ATOM      2  C   UNL     1      44.954 128.813  22.454  1.00  0.00     0.067 A 
ATOM      3  C   UNL     1      44.293 127.714  23.004  1.00  0.00     0.008 A 
ATOM      4  C   UNL     1      43.037 127.871  23.591  1.00  0.00     0.025 A 
ATOM      5  C   UNL     1      42.428 129.132  23.632  1.00  0.00     0.029 A 
ATOM      6  C   UNL     1      43.090 130.244  23.077  1.00  0.00    -0.021 A 
ATOM      7  O   UNL     1      42.487 131.497  23.117  1.00  0.00    -0.867 OA
ENDROOT
BRANCH   1   8
ATOM      8  N   UNL     1      45.070 131.223  21.935  1.00  0.00    -0.282 N 
ATOM      9  H   UNL     1      46.085 131.176  22.185  1.00  0.00     0.358 HD
ATOM     10  H   UNL     1      44.704 132.110  22.353  1.00  0.00     0.358 HD
BRANCH   8  11
ATOM     11  C   UNL     1      44.907 131.257  20.503  1.00  0.00     0.141 A 
ATOM     12  N   UNL     1      45.786 130.420  16.153  1.00  0.00    -0.165 N 
ATOM     13  C   UNL     1      44.657 131.134  16.380  1.00  0.00     0.165 A 
ATOM     14  N   UNL     1      46.383 130.139  17.306  1.00  0.00    -0.123 N 
ATOM     15  C   UNL     1      44.540 131.287  17.745  1.00  0.00     0.071 A 
ATOM     16  C   UNL     1      45.627 130.658  18.287  1.00  0.00     0.241 A 
ATOM     17  C   UNL     1      43.590 131.926  18.532  1.00  0.00     0.023 A 
ATOM     18  C   UNL     1      45.850 130.620  19.660  1.00  0.00     0.150 A 
ATOM     19  C   UNL     1      43.778 131.905  19.927  1.00  0.00     0.069 A 
ATOM     20  C   UNL     1      46.335 130.092  14.843  1.00  0.00     0.223 C 
ATOM     21  H   UNL     1      47.284 129.620  17.411  1.00  0.00     0.488 HD
ENDBRANCH   8  11
ENDBRANCH   1   8
BRANCH   5  22
ATOM     22  N   UNL     1      41.139 129.277  24.239  1.00  0.00    -0.399 N 
ATOM     23  H   UNL     1      40.989 129.963  25.012  1.00  0.00     0.156 HD
ATOM     24  H   UNL     1      40.324 128.706  23.927  1.00  0.00     0.156 HD
ENDBRANCH   5  22
TORSDOF 3
ENDMDL
MODEL 4
REMARK VINA RESULT:      -7.5      2.505      6.862
REMARK SMILES Cn1cc2ccc([NH2+]c3cccc(N)c3[O-])cc2[nH+]1
REMARK SMILES IDX 9 1 10 2 11 3 12 4 13 5 15 6 16 7 8 8 7 11 2 12 3 13 19 14
REMARK SMILES IDX 4 15 18 16 5 17 17 18 6 19 1 20 14 22
REMARK H PARENT 8 9 8 10 19 21 14 23 14 24
ROOT
ATOM      1  C   UNL     1      44.309 130.916  21.469  1.00  0.00     0.128 A 
ATOM      2  C   UNL     1      45.163 129.800  21.524  1.00  0.00     0.067 A 
ATOM      3  C   UNL     1      44.861 128.717  22.349  1.00  0.00     0.008 A 
ATOM      4  C   UNL     1      43.707 128.732  23.134  1.00  0.00     0.025 A 
ATOM      5  C   UNL     1      42.843 129.834  23.100  1.00  0.00     0.029 A 
ATOM      6  C   UNL     1      43.143 130.929  22.267  1.00  0.00    -0.021 A 
ATOM      7  O   UNL     1      42.285 132.024  22.232  1.00  0.00    -0.867 OA
ENDROOT
BRANCH   1   8
ATOM      8  N   UNL     1      44.650 132.044  20.634  1.00  0.00    -0.282 N 
ATOM      9  H   UNL     1      45.573 132.447  20.920  1.00  0.00     0.358 HD
ATOM     10  H   UNL     1      43.944 132.808  20.755  1.00  0.00     0.358 HD
BRANCH   8  11
ATOM     11  C   UNL     1      44.688 131.633  19.252  1.00  0.00     0.141 A 
ATOM     12  N   UNL     1      46.293 129.760  15.469  1.00  0.00    -0.165 N 
ATOM     13  C   UNL     1      45.047 130.283  15.363  1.00  0.00     0.165 A 
ATOM     14  N   UNL     1      46.757 129.941  16.701  1.00  0.00    -0.123 N 
ATOM     15  C   UNL     1      44.716 130.797  16.599  1.00  0.00     0.071 A 
ATOM     16  C   UNL     1      45.799 130.568  17.402  1.00  0.00     0.241 A 
ATOM     17  C   UNL     1      43.577 131.445  17.062  1.00  0.00     0.023 A 
ATOM     18  C   UNL     1      45.828 130.970  18.734  1.00  0.00     0.150 A 
ATOM     19  C   UNL     1      43.567 131.862  18.406  1.00  0.00     0.069 A 
ATOM     20  C   UNL     1      47.066 129.179  14.378  1.00  0.00     0.223 C 
ATOM     21  H   UNL     1      47.703 129.655  17.040  1.00  0.00     0.488 HD
ENDBRANCH   8  11
ENDBRANCH   1   8
BRANCH   5  22
ATOM     22  N   UNL     1      41.664 129.835  23.912  1.00  0.00    -0.399 N 
ATOM     23  H   UNL     1      41.360 128.969  24.410  1.00  0.00     0.156 HD
ATOM     24  H   UNL     1      41.084 130.695  24.028  1.00  0.00     0.156 HD
ENDBRANCH   5  22
TORSDOF 3
ENDMDL
MODEL 5
REMARK VINA RESULT:      -7.5      1.374      1.806
REMARK SMILES Cn1cc2ccc([NH2+]c3cccc(N)c3[O-])cc2[nH+]1
REMARK SMILES IDX 9 1 10 2 11 3 12 4 13 5 15 6 16 7 8 8 7 11 2 12 3 13 19 14
REMARK SMILES IDX 4 15 18 16 5 17 17 18 6 19 1 20 14 22
REMARK H PARENT 8 9 8 10 19 21 14 23 14 24
ROOT
ATOM      1  C   UNL     1      44.901 131.294  15.727  1.00  0.00     0.128 A 
ATOM      2  C   UNL     1      45.625 132.442  15.357  1.00  0.00     0.067 A 
ATOM      3  C   UNL     1      46.816 132.327  14.640  1.00  0.00     0.008 A 
ATOM      4  C   UNL     1      47.304 131.068  14.286  1.00  0.00     0.025 A 
ATOM      5  C   UNL     1      46.602 129.910  14.647  1.00  0.00     0.029 A 
ATOM      6  C   UNL     1      45.399 130.022  15.369  1.00  0.00    -0.021 A 
ATOM      7  O   UNL     1      44.700 128.873  15.728  1.00  0.00    -0.867 OA
ENDROOT
BRANCH   1   8
ATOM      8  N   UNL     1      43.685 131.428  16.496  1.00  0.00    -0.282 N 
ATOM      9  H   UNL     1      43.010 130.667  16.251  1.00  0.00     0.358 HD
ATOM     10  H   UNL     1      43.209 132.331  16.262  1.00  0.00     0.358 HD
BRANCH   8  11
ATOM     11  C   UNL     1      43.993 131.393  17.904  1.00  0.00     0.141 A 
ATOM     12  N   UNL     1      43.319 131.692  22.360  1.00  0.00    -0.165 N 
ATOM     13  C   UNL     1      44.567 131.309  21.995  1.00  0.00     0.165 A 
ATOM     14  N   UNL     1      42.576 131.902  21.278  1.00  0.00    -0.123 N 
ATOM     15  C   UNL     1      44.592 131.261  20.617  1.00  0.00     0.071 A 
ATOM     16  C   UNL     1      43.341 131.635  20.207  1.00  0.00     0.241 A 
ATOM     17  C   UNL     1      45.598 130.939  19.715  1.00  0.00     0.023 A 
ATOM     18  C   UNL     1      42.999 131.715  18.861  1.00  0.00     0.150 A 
ATOM     19  C   UNL     1      45.289 131.003  18.344  1.00  0.00     0.069 A 
ATOM     20  C   UNL     1      42.873 131.946  23.723  1.00  0.00     0.223 C 
ATOM     21  H   UNL     1      41.584 132.228  21.279  1.00  0.00     0.488 HD
ENDBRANCH   8  11
ENDBRANCH   1   8
BRANCH   5  22
ATOM     22  N   UNL     1      47.117 128.626  14.278  1.00  0.00    -0.399 N 
ATOM     23  H   UNL     1      47.296 127.896  15.002  1.00  0.00     0.156 HD
ATOM     24  H   UNL     1      47.323 128.388  13.283  1.00  0.00     0.156 HD
ENDBRANCH   5  22
TORSDOF 3
ENDMDL
MODEL 6
REMARK VINA RESULT:      -7.1      2.622      7.064
REMARK SMILES Cn1cc2ccc([NH2+]c3cccc(N)c3[O-])cc2[nH+]1
REMARK SMILES IDX 9 1 10 2 11 3 12 4 13 5 15 6 16 7 8 8 7 11 2 12 3 13 19 14
REMARK SMILES IDX 4 15 18 16 5 17 17 18 6 19 1 20 14 22
REMARK H PARENT 8 9 8 10 19 21 14 23 14 24
ROOT
ATOM      1  C   UNL     1      44.045 130.284  22.960  1.00  0.00     0.128 A 
ATOM      2  C   UNL     1      42.950 130.785  23.687  1.00  0.00     0.067 A 
ATOM      3  C   UNL     1      42.062 129.915  24.319  1.00  0.00     0.008 A 
ATOM      4  C   UNL     1      42.250 128.535  24.233  1.00  0.00     0.025 A 
ATOM      5  C   UNL     1      43.330 128.012  23.511  1.00  0.00     0.029 A 
ATOM      6  C   UNL     1      44.230 128.886  22.873  1.00  0.00    -0.021 A 
ATOM      7  O   UNL     1      45.305 128.368  22.156  1.00  0.00    -0.867 OA
ENDROOT
BRANCH   1   8
ATOM      8  N   UNL     1      44.939 131.196  22.285  1.00  0.00    -0.282 N 
ATOM      9  H   UNL     1      45.924 130.845  22.328  1.00  0.00     0.358 HD
ATOM     10  H   UNL     1      44.935 132.125  22.767  1.00  0.00     0.358 HD
BRANCH   8  11
ATOM     11  C   UNL     1      44.523 131.360  20.914  1.00  0.00     0.141 A 
ATOM     12  N   UNL     1      44.796 131.301  16.406  1.00  0.00    -0.165 N 
ATOM     13  C   UNL     1      43.590 131.674  16.901  1.00  0.00     0.165 A 
ATOM     14  N   UNL     1      45.634 131.043  17.404  1.00  0.00    -0.123 N 
ATOM     15  C   UNL     1      43.682 131.627  18.276  1.00  0.00     0.071 A 
ATOM     16  C   UNL     1      44.963 131.233  18.552  1.00  0.00     0.241 A 
ATOM     17  C   UNL     1      42.764 131.907  19.280  1.00  0.00     0.023 A 
ATOM     18  C   UNL     1      45.426 131.087  19.856  1.00  0.00     0.150 A 
ATOM     19  C   UNL     1      43.193 131.767  20.613  1.00  0.00     0.069 A 
ATOM     20  C   UNL     1      45.167 131.282  14.997  1.00  0.00     0.223 C 
ATOM     21  H   UNL     1      46.634 130.760  17.298  1.00  0.00     0.488 HD
ENDBRANCH   8  11
ENDBRANCH   1   8
BRANCH   5  22
ATOM     22  N   UNL     1      43.508 126.593  23.431  1.00  0.00    -0.399 N 
ATOM     23  H   UNL     1      44.125 126.174  22.700  1.00  0.00     0.156 HD
ATOM     24  H   UNL     1      43.030 125.947  24.096  1.00  0.00     0.156 HD
ENDBRANCH   5  22
TORSDOF 3
ENDMDL
MODEL 7
REMARK VINA RESULT:      -7.1      1.941      6.694
REMARK SMILES Cn1cc2ccc([NH2+]c3cccc(N)c3[O-])cc2[nH+]1
REMARK SMILES IDX 9 1 10 2 11 3 12 4 13 5 15 6 16 7 8 8 7 11 2 12 3 13 19 14
REMARK SMILES IDX 4 15 18 16 5 17 17 18 6 19 1 20 14 22
REMARK H PARENT 8 9 8 10 19 21 14 23 14 24
ROOT
ATOM      1  C   UNL     1      43.912 131.547  19.005  1.00  0.00     0.128 A 
ATOM      2  C   UNL     1      45.197 130.981  18.931  1.00  0.00     0.067 A 
ATOM      3  C   UNL     1      45.900 130.663  20.093  1.00  0.00     0.008 A 
ATOM      4  C   UNL     1      45.334 130.909  21.345  1.00  0.00     0.025 A 
ATOM      5  C   UNL     1      44.057 131.476  21.445  1.00  0.00     0.029 A 
ATOM      6  C   UNL     1      43.344 131.797  20.274  1.00  0.00    -0.021 A 
ATOM      7  O   UNL     1      42.075 132.360  20.372  1.00  0.00    -0.867 OA
ENDROOT
BRANCH   1   8
ATOM      8  N   UNL     1      43.210 131.900  17.794  1.00  0.00    -0.282 N 
ATOM      9  H   UNL     1      42.976 132.920  17.787  1.00  0.00     0.358 HD
ATOM     10  H   UNL     1      42.297 131.388  17.746  1.00  0.00     0.358 HD
BRANCH   8  11
ATOM     11  C   UNL     1      44.016 131.561  16.647  1.00  0.00     0.141 A 
ATOM     12  N   UNL     1      47.466 129.835  14.299  1.00  0.00    -0.165 N 
ATOM     13  C   UNL     1      46.494 130.407  13.548  1.00  0.00     0.165 A 
ATOM     14  N   UNL     1      47.159 129.934  15.588  1.00  0.00    -0.123 N 
ATOM     15  C   UNL     1      45.526 130.867  14.417  1.00  0.00     0.071 A 
ATOM     16  C   UNL     1      45.973 130.557  15.672  1.00  0.00     0.241 A 
ATOM     17  C   UNL     1      44.324 131.529  14.204  1.00  0.00     0.023 A 
ATOM     18  C   UNL     1      45.250 130.886  16.815  1.00  0.00     0.150 A 
ATOM     19  C   UNL     1      43.562 131.875  15.335  1.00  0.00     0.069 A 
ATOM     20  C   UNL     1      48.717 129.285  13.794  1.00  0.00     0.223 C 
ATOM     21  H   UNL     1      47.752 129.596  16.380  1.00  0.00     0.488 HD
ENDBRANCH   8  11
ENDBRANCH   1   8
BRANCH   5  22
ATOM     22  N   UNL     1      43.491 131.724  22.737  1.00  0.00    -0.399 N 
ATOM     23  H   UNL     1      42.490 131.499  22.932  1.00  0.00     0.156 HD
ATOM     24  H   UNL     1      44.061 132.130  23.511  1.00  0.00     0.156 HD
ENDBRANCH   5  22
TORSDOF 3
ENDMDL
MODEL 8
REMARK VINA RESULT:      -6.8      1.017      1.018
REMARK SMILES Cn1cc2ccc([NH2+]c3cccc(N)c3[O-])cc2[nH+]1
REMARK SMILES IDX 9 1 10 2 11 3 12 4 13 5 15 6 16 7 8 8 7 11 2 12 3 13 19 14
REMARK SMILES IDX 4 15 18 16 5 17 17 18 6 19 1 20 14 22
REMARK H PARENT 8 9 8 10 19 21 14 23 14 24
ROOT
ATOM      1  C   UNL     1      44.726 131.125  16.506  1.00  0.00     0.128 A 
ATOM      2  C   UNL     1      45.629 130.271  17.163  1.00  0.00     0.067 A 
ATOM      3  C   UNL     1      46.707 129.714  16.474  1.00  0.00     0.008 A 
ATOM      4  C   UNL     1      46.897 129.998  15.120  1.00  0.00     0.025 A 
ATOM      5  C   UNL     1      46.008 130.843  14.443  1.00  0.00     0.029 A 
ATOM      6  C   UNL     1      44.920 131.408  15.135  1.00  0.00    -0.021 A 
ATOM      7  O   UNL     1      44.036 132.248  14.464  1.00  0.00    -0.867 OA
ENDROOT
BRANCH   1   8
ATOM      8  N   UNL     1      43.597 131.669  17.224  1.00  0.00    -0.282 N 
ATOM      9  H   UNL     1      42.729 131.123  17.014  1.00  0.00     0.358 HD
ATOM     10  H   UNL     1      43.411 132.651  16.911  1.00  0.00     0.358 HD
BRANCH   8  11
ATOM     11  C   UNL     1      43.868 131.655  18.641  1.00  0.00     0.141 A 
ATOM     12  N   UNL     1      43.032 131.703  23.079  1.00  0.00    -0.165 N 
ATOM     13  C   UNL     1      44.339 131.572  22.745  1.00  0.00     0.165 A 
ATOM     14  N   UNL     1      42.292 131.798  21.979  1.00  0.00    -0.123 N 
ATOM     15  C   UNL     1      44.409 131.566  21.368  1.00  0.00     0.071 A 
ATOM     16  C   UNL     1      43.122 131.709  20.927  1.00  0.00     0.241 A 
ATOM     17  C   UNL     1      45.482 131.462  20.491  1.00  0.00     0.023 A 
ATOM     18  C   UNL     1      42.806 131.759  19.573  1.00  0.00     0.150 A 
ATOM     19  C   UNL     1      45.203 131.504  19.112  1.00  0.00     0.069 A 
ATOM     20  C   UNL     1      42.510 131.832  24.433  1.00  0.00     0.223 C 
ATOM     21  H   UNL     1      41.256 131.932  21.956  1.00  0.00     0.488 HD
ENDBRANCH   8  11
ENDBRANCH   1   8
BRANCH   5  22
ATOM     22  N   UNL     1      46.216 131.123  13.054  1.00  0.00    -0.399 N 
ATOM     23  H   UNL     1      46.956 131.794  12.751  1.00  0.00     0.156 HD
ATOM     24  H   UNL     1      45.639 130.665  12.315  1.00  0.00     0.156 HD
ENDBRANCH   5  22
TORSDOF 3
ENDMDL
MODEL 9
REMARK VINA RESULT:      -6.8      2.669      6.910
REMARK SMILES Cn1cc2ccc([NH2+]c3cccc(N)c3[O-])cc2[nH+]1
REMARK SMILES IDX 9 1 10 2 11 3 12 4 13 5 15 6 16 7 8 8 7 11 2 12 3 13 19 14
REMARK SMILES IDX 4 15 18 16 5 17 17 18 6 19 1 20 14 22
REMARK H PARENT 8 9 8 10 19 21 14 23 14 24
ROOT
ATOM      1  C   UNL     1      44.082 130.302  22.500  1.00  0.00     0.128 A 
ATOM      2  C   UNL     1      44.806 129.095  22.474  1.00  0.00     0.067 A 
ATOM      3  C   UNL     1      44.291 127.948  23.079  1.00  0.00     0.008 A 
ATOM      4  C   UNL     1      43.053 127.988  23.721  1.00  0.00     0.025 A 
ATOM      5  C   UNL     1      42.316 129.179  23.764  1.00  0.00     0.029 A 
ATOM      6  C   UNL     1      42.831 130.339  23.153  1.00  0.00    -0.021 A 
ATOM      7  O   UNL     1      42.100 131.522  23.194  1.00  0.00    -0.867 OA
ENDROOT
BRANCH   1   8
ATOM      8  N   UNL     1      44.642 131.488  21.897  1.00  0.00    -0.282 N 
ATOM      9  H   UNL     1      45.541 131.750  22.365  1.00  0.00     0.358 HD
ATOM     10  H   UNL     1      43.993 132.299  22.030  1.00  0.00     0.358 HD
BRANCH   8  11
ATOM     11  C   UNL     1      44.855 131.265  20.488  1.00  0.00     0.141 A 
ATOM     12  N   UNL     1      44.102 131.475  16.040  1.00  0.00    -0.165 N 
ATOM     13  C   UNL     1      45.243 130.836  16.397  1.00  0.00     0.165 A 
ATOM     14  N   UNL     1      43.458 131.890  17.126  1.00  0.00    -0.123 N 
ATOM     15  C   UNL     1      45.317 130.874  17.773  1.00  0.00     0.071 A 
ATOM     16  C   UNL     1      44.194 131.534  18.190  1.00  0.00     0.241 A 
ATOM     17  C   UNL     1      46.257 130.378  18.668  1.00  0.00     0.023 A 
ATOM     18  C   UNL     1      43.923 131.751  19.538  1.00  0.00     0.150 A 
ATOM     19  C   UNL     1      46.021 130.582  20.040  1.00  0.00     0.069 A 
ATOM     20  C   UNL     1      43.589 131.603  14.682  1.00  0.00     0.223 C 
ATOM     21  H   UNL     1      42.539 132.388  17.132  1.00  0.00     0.488 HD
ENDBRANCH   8  11
ENDBRANCH   1   8
BRANCH   5  22
ATOM     22  N   UNL     1      41.047 129.204  24.428  1.00  0.00    -0.399 N 
ATOM     23  H   UNL     1      40.782 130.008  25.039  1.00  0.00     0.156 HD
ATOM     24  H   UNL     1      40.361 128.426  24.317  1.00  0.00     0.156 HD
ENDBRANCH   5  22
TORSDOF 3
ENDMDL


