REMARK SMILES Cc1ccc(-c2ccc(NC(=O)C[C@H](N)C(=O)[O-])c(C=O)c2)cc1
REMARK SMILES IDX 10 1 11 2 12 3 9 5 6 6 7 7 22 8 8 9 19 10 5 11 2 12 3 13
REMARK SMILES IDX 24 14 4 15 23 16 1 17 20 18 21 19 13 20 14 21 15 22 16 25
REMARK SMILES IDX 17 26 18 27
REMARK H PARENT 10 4 15 23 15 24
ROOT
ATOM      1  N   UNL     1       0.205  -1.710   1.735  1.00  0.00    -0.325 N 
ATOM      2  C   UNL     1      -0.364  -2.956   1.305  1.00  0.00     0.226 C 
ATOM      3  O   UNL     1      -1.142  -2.994   0.312  1.00  0.00    -0.275 OA
ATOM      4  H   UNL     1       0.723  -1.687   2.642  1.00  0.00     0.169 HD
ENDROOT
BRANCH   1   5
ATOM      5  C   UNL     1       0.114  -0.499   0.966  1.00  0.00     0.051 A 
ATOM      6  C   UNL     1       0.129   1.875  -0.569  1.00  0.00    -0.018 A 
ATOM      7  C   UNL     1       0.410   0.637  -1.166  1.00  0.00     0.011 A 
ATOM      8  C   UNL     1      -0.160   1.917   0.806  1.00  0.00     0.022 A 
ATOM      9  C   UNL     1       0.408  -0.532  -0.407  1.00  0.00     0.027 A 
ATOM     10  C   UNL     1      -0.179   0.745   1.582  1.00  0.00     0.038 A 
BRANCH   6  11
ATOM     11  C   UNL     1       0.136   3.121  -1.377  1.00  0.00    -0.018 A 
ATOM     12  C   UNL     1       0.156   5.493  -2.903  1.00  0.00    -0.051 A 
ATOM     13  C   UNL     1       1.136   4.511  -3.108  1.00  0.00     0.004 A 
ATOM     14  C   UNL     1      -0.848   5.274  -1.949  1.00  0.00     0.004 A 
ATOM     15  C   UNL     1       1.130   3.338  -2.349  1.00  0.00     0.009 A 
ATOM     16  C   UNL     1      -0.855   4.101  -1.188  1.00  0.00     0.009 A 
ATOM     17  C   UNL     1       0.140   6.733  -3.747  1.00  0.00     0.044 C 
ENDBRANCH   6  11
BRANCH  10  18
ATOM     18  C   UNL     1      -0.540   0.874   3.012  1.00  0.00     0.262 C 
ATOM     19  O   UNL     1      -0.870  -0.122   3.709  1.00  0.00    -0.298 OA
ENDBRANCH  10  18
ENDBRANCH   1   5
BRANCH   2  20
ATOM     20  C   UNL     1      -0.086  -4.218   2.069  1.00  0.00     0.125 C 
BRANCH  20  21
ATOM     21  C   UNL     1      -1.262  -4.594   2.994  1.00  0.00     0.106 C 
BRANCH  21  22
ATOM     22  N   UNL     1      -1.485  -3.587   4.034  1.00  0.00    -0.323 NA
ATOM     23  H   UNL     1      -0.574  -3.327   4.478  1.00  0.00     0.119 HD
ATOM     24  H   UNL     1      -1.878  -2.724   3.591  1.00  0.00     0.119 HD
ENDBRANCH  21  22
BRANCH  21  25
ATOM     25  C   UNL     1      -1.000  -5.924   3.640  1.00  0.00     0.059 C 
ATOM     26  O   UNL     1      -1.668  -6.936   3.301  1.00  0.00    -0.548 OA
ATOM     27  O   UNL     1       0.000  -6.053   4.597  1.00  0.00    -0.548 OA
ENDBRANCH  21  25
ENDBRANCH  20  21
ENDBRANCH   2  20
TORSDOF 7


