REMARK SMILES C=Cc1cccc(-c2ccc3c(c2)[C@H](N=C=O)CC3)c1
REMARK SMILES IDX 8 1 9 2 10 3 11 4 12 5 13 6 14 7 18 8 19 9 7 10 3 11 4 12
REMARK SMILES IDX 20 13 5 14 6 15 2 16 1 17 15 18 16 19 17 20
REMARK H PARENT
ROOT
ATOM      1  C   UNL     1       0.636  -0.197  -0.596  1.00  0.00    -0.018 A 
ATOM      2  C   UNL     1       2.040  -0.074  -0.726  1.00  0.00     0.009 A 
ATOM      3  C   UNL     1       2.595   0.793  -1.678  1.00  0.00     0.005 A 
ATOM      4  C   UNL     1       1.739   1.531  -2.496  1.00  0.00    -0.042 A 
ATOM      5  C   UNL     1       0.377   1.413  -2.390  1.00  0.00    -0.019 A 
ATOM      6  C   UNL     1      -0.200   0.563  -1.442  1.00  0.00     0.015 A 
ATOM      7  C   UNL     1      -0.335   2.282  -3.366  1.00  0.00     0.149 C 
ATOM      8  C   UNL     1       0.800   3.127  -3.986  1.00  0.00     0.038 C 
ATOM      9  C   UNL     1       2.134   2.497  -3.546  1.00  0.00     0.038 C 
ENDROOT
BRANCH   1  10
ATOM     10  C   UNL     1       0.050  -1.114   0.415  1.00  0.00    -0.018 A 
ATOM     11  C   UNL     1       0.060  -2.081   2.666  1.00  0.00    -0.026 A 
ATOM     12  C   UNL     1      -1.072  -2.838   2.328  1.00  0.00     0.008 A 
ATOM     13  C   UNL     1       0.609  -1.209   1.703  1.00  0.00     0.016 A 
ATOM     14  C   UNL     1      -1.632  -2.748   1.052  1.00  0.00     0.001 A 
ATOM     15  C   UNL     1      -1.075  -1.895   0.099  1.00  0.00     0.009 A 
BRANCH  11  16
ATOM     16  C   UNL     1       0.611  -2.206   4.038  1.00  0.00     0.000 C 
ATOM     17  C   UNL     1       1.846  -1.839   4.385  1.00  0.00     0.009 C 
ENDBRANCH  11  16
ENDBRANCH   1  10
BRANCH   7  18
ATOM     18  N   UNL     1      -0.984   1.480  -4.401  1.00  0.00    -0.198 NA
BRANCH  18  19
ATOM     19  C   UNL     1      -2.033   0.797  -4.169  1.00  0.00     0.235 C 
ATOM     20  O   UNL     1      -3.053   0.134  -3.942  1.00  0.00    -0.211 OA
ENDBRANCH  18  19
ENDBRANCH   7  18
TORSDOF 4


