REMARK SMILES C=Cc1cc(-c2c[nH+]c3cc[nH+]n3c2)ccc1CC[NH3+]
REMARK SMILES IDX 18 1 17 2 3 3 4 4 5 5 16 6 15 7 2 8 1 9 6 10 7 11 14 12 8 13
REMARK SMILES IDX 13 14 9 15 12 16 10 17 11 18 19 21 20 22
REMARK H PARENT 8 19 12 20 20 23 20 24 20 25
ROOT
ATOM      1  C   UNL     1       3.143   1.472  -2.432  1.00  0.00     0.097 C 
ENDROOT
BRANCH   1   2
ATOM      2  C   UNL     1       1.937   1.319  -1.529  1.00  0.00    -0.035 A 
ATOM      3  C   UNL     1       1.796   2.043  -0.315  1.00  0.00    -0.022 A 
ATOM      4  C   UNL     1       0.652   1.827   0.480  1.00  0.00     0.017 A 
ATOM      5  C   UNL     1      -0.354   0.931   0.083  1.00  0.00    -0.010 A 
ATOM      6  C   UNL     1       0.926   0.424  -1.916  1.00  0.00     0.005 A 
ATOM      7  C   UNL     1      -0.205   0.234  -1.124  1.00  0.00     0.009 A 
BRANCH   3   8
ATOM      8  C   UNL     1       2.848   2.992   0.141  1.00  0.00     0.000 C 
ATOM      9  C   UNL     1       2.582   4.088   0.852  1.00  0.00     0.009 C 
ENDBRANCH   3   8
BRANCH   5  10
ATOM     10  C   UNL     1      -1.554   0.719   0.932  1.00  0.00     0.067 A 
ATOM     11  C   UNL     1      -2.177   1.804   1.601  1.00  0.00     0.210 A 
ATOM     12  C   UNL     1      -2.108  -0.566   1.098  1.00  0.00     0.290 A 
ATOM     13  N   UNL     1      -3.280   1.602   2.381  1.00  0.00    -0.242 N 
ATOM     14  N   UNL     1      -3.202  -0.692   1.886  1.00  0.00     0.008 N 
ATOM     15  C   UNL     1      -3.771   0.345   2.506  1.00  0.00     0.346 A 
ATOM     16  N   UNL     1      -3.868  -1.795   2.175  1.00  0.00    -0.055 N 
ATOM     17  C   UNL     1      -4.859  -0.083   3.236  1.00  0.00     0.180 A 
ATOM     18  C   UNL     1      -4.887  -1.456   2.998  1.00  0.00     0.364 A 
ATOM     19  H   UNL     1      -3.737   2.405   2.869  1.00  0.00     0.312 HD
ATOM     20  H   UNL     1      -3.638  -2.752   1.824  1.00  0.00     0.514 HD
ENDBRANCH   5  10
ENDBRANCH   1   2
BRANCH   1  21
ATOM     21  C   UNL     1       4.301   0.548  -2.015  1.00  0.00     0.263 C 
BRANCH  21  22
ATOM     22  N   UNL     1       3.986  -0.863  -2.248  1.00  0.00    -0.357 N 
ATOM     23  H   UNL     1       3.226  -1.175  -1.603  1.00  0.00     0.344 HD
ATOM     24  H   UNL     1       3.696  -1.012  -3.241  1.00  0.00     0.344 HD
ATOM     25  H   UNL     1       4.839  -1.437  -2.057  1.00  0.00     0.344 HD
ENDBRANCH  21  22
ENDBRANCH   1  21
TORSDOF 5


