MODEL 1
REMARK VINA RESULT:      -8.1      0.000      0.000
REMARK SMILES Cc1ccc(-c2cc(C=O)c([NH2+]C(F)(F)C(=O)Cl)cc2F)cc1
REMARK SMILES IDX 12 1 11 4 6 5 7 6 20 7 8 8 19 9 21 10 5 11 2 12 3 13 23 14
REMARK SMILES IDX 4 15 22 16 1 17 9 18 10 19 13 20 14 21 15 22 16 23 17 24
REMARK SMILES IDX 18 25
REMARK H PARENT 12 2 12 3
ROOT
ATOM      1  N   UNL     1      43.017 131.592  21.889  1.00  0.00    -0.244 N 
ATOM      2  H   UNL     1      43.053 132.599  22.173  1.00  0.00     0.358 HD
ATOM      3  H   UNL     1      42.000 131.356  21.846  1.00  0.00     0.358 HD
ENDROOT
BRANCH   1   4
ATOM      4  C   UNL     1      43.642 131.449  20.590  1.00  0.00     0.148 A 
ATOM      5  C   UNL     1      45.005 131.185  18.122  1.00  0.00     0.019 A 
ATOM      6  C   UNL     1      43.715 131.735  18.166  1.00  0.00     0.029 A 
ATOM      7  C   UNL     1      45.605 130.754  19.313  1.00  0.00     0.136 A 
ATOM      8  C   UNL     1      43.013 131.864  19.378  1.00  0.00     0.076 A 
ATOM      9  C   UNL     1      44.931 130.888  20.526  1.00  0.00     0.108 A 
ATOM     10  F   UNL     1      46.833 130.175  19.305  1.00  0.00    -0.206 F 
BRANCH   5  11
ATOM     11  C   UNL     1      45.712 131.061  16.823  1.00  0.00    -0.015 A 
ATOM     12  C   UNL     1      47.033 130.810  14.346  1.00  0.00    -0.051 A 
ATOM     13  C   UNL     1      46.974 129.722  15.229  1.00  0.00     0.004 A 
ATOM     14  C   UNL     1      46.447 132.029  14.715  1.00  0.00     0.004 A 
ATOM     15  C   UNL     1      46.311 129.844  16.454  1.00  0.00     0.009 A 
ATOM     16  C   UNL     1      45.785 132.152  15.940  1.00  0.00     0.009 A 
ATOM     17  C   UNL     1      47.777 130.691  13.049  1.00  0.00     0.044 C 
ENDBRANCH   5  11
BRANCH   8  18
ATOM     18  C   UNL     1      41.650 132.449  19.294  1.00  0.00     0.266 C 
ATOM     19  O   UNL     1      41.154 132.863  18.214  1.00  0.00    -0.298 OA
ENDBRANCH   8  18
ENDBRANCH   1   4
BRANCH   1  20
ATOM     20  C   UNL     1      43.713 130.790  22.914  1.00  0.00     0.468 C 
ATOM     21  F   UNL     1      44.382 129.724  22.331  1.00  0.00    -0.139 F 
ATOM     22  F   UNL     1      44.645 131.574  23.576  1.00  0.00    -0.139 F 
BRANCH  20  23
ATOM     23  C   UNL     1      42.726 130.270  23.927  1.00  0.00     0.354 C 
ATOM     24  O   UNL     1      42.099 131.051  24.625  1.00  0.00    -0.267 OA
ATOM     25  Cl  UNL     1      42.457 128.543  24.127  1.00  0.00    -0.030 Cl
ENDBRANCH  20  23
ENDBRANCH   1  20
TORSDOF 5
ENDMDL
MODEL 2
REMARK VINA RESULT:      -7.9      0.809      1.302
REMARK SMILES Cc1ccc(-c2cc(C=O)c([NH2+]C(F)(F)C(=O)Cl)cc2F)cc1
REMARK SMILES IDX 12 1 11 4 6 5 7 6 20 7 8 8 19 9 21 10 5 11 2 12 3 13 23 14
REMARK SMILES IDX 4 15 22 16 1 17 9 18 10 19 13 20 14 21 15 22 16 23 17 24
REMARK SMILES IDX 18 25
REMARK H PARENT 12 2 12 3
ROOT
ATOM      1  N   UNL     1      42.881 131.824  21.760  1.00  0.00    -0.244 N 
ATOM      2  H   UNL     1      42.629 132.837  21.849  1.00  0.00     0.358 HD
ATOM      3  H   UNL     1      41.973 131.311  21.807  1.00  0.00     0.358 HD
ENDROOT
BRANCH   1   4
ATOM      4  C   UNL     1      43.536 131.615  20.485  1.00  0.00     0.148 A 
ATOM      5  C   UNL     1      44.954 131.235  18.063  1.00  0.00     0.019 A 
ATOM      6  C   UNL     1      43.629 131.697  18.047  1.00  0.00     0.029 A 
ATOM      7  C   UNL     1      45.562 130.950  19.294  1.00  0.00     0.136 A 
ATOM      8  C   UNL     1      42.900 131.880  19.235  1.00  0.00     0.076 A 
ATOM      9  C   UNL     1      44.860 131.140  20.484  1.00  0.00     0.108 A 
ATOM     10  F   UNL     1      46.826 130.458  19.349  1.00  0.00    -0.206 F 
BRANCH   5  11
ATOM     11  C   UNL     1      45.689 131.049  16.787  1.00  0.00    -0.015 A 
ATOM     12  C   UNL     1      47.106 130.709  14.375  1.00  0.00    -0.051 A 
ATOM     13  C   UNL     1      46.572 131.961  14.712  1.00  0.00     0.004 A 
ATOM     14  C   UNL     1      46.910 129.622  15.240  1.00  0.00     0.004 A 
ATOM     15  C   UNL     1      45.876 132.132  15.912  1.00  0.00     0.009 A 
ATOM     16  C   UNL     1      46.214 129.792  16.441  1.00  0.00     0.009 A 
ATOM     17  C   UNL     1      47.819 130.517  13.070  1.00  0.00     0.044 C 
ENDBRANCH   5  11
BRANCH   8  18
ATOM     18  C   UNL     1      41.502 132.360  19.086  1.00  0.00     0.266 C 
ATOM     19  O   UNL     1      41.137 133.109  18.144  1.00  0.00    -0.298 OA
ENDBRANCH   8  18
ENDBRANCH   1   4
BRANCH   1  20
ATOM     20  C   UNL     1      43.763 131.461  22.887  1.00  0.00     0.468 C 
ATOM     21  F   UNL     1      45.096 131.550  22.513  1.00  0.00    -0.139 F 
ATOM     22  F   UNL     1      43.554 132.326  23.950  1.00  0.00    -0.139 F 
BRANCH  20  23
ATOM     23  C   UNL     1      43.465 130.059  23.351  1.00  0.00     0.354 C 
ATOM     24  O   UNL     1      42.433 129.825  23.960  1.00  0.00    -0.267 OA
ATOM     25  Cl  UNL     1      44.583 128.739  23.029  1.00  0.00    -0.030 Cl
ENDBRANCH  20  23
ENDBRANCH   1  20
TORSDOF 5
ENDMDL
MODEL 3
REMARK VINA RESULT:      -7.8      4.168      7.441
REMARK SMILES Cc1ccc(-c2cc(C=O)c([NH2+]C(F)(F)C(=O)Cl)cc2F)cc1
REMARK SMILES IDX 12 1 11 4 6 5 7 6 20 7 8 8 19 9 21 10 5 11 2 12 3 13 23 14
REMARK SMILES IDX 4 15 22 16 1 17 9 18 10 19 13 20 14 21 15 22 16 23 17 24
REMARK SMILES IDX 18 25
REMARK H PARENT 12 2 12 3
ROOT
ATOM      1  N   UNL     1      45.905 130.908  15.072  1.00  0.00    -0.244 N 
ATOM      2  H   UNL     1      45.112 130.755  14.404  1.00  0.00     0.358 HD
ATOM      3  H   UNL     1      46.382 131.773  14.736  1.00  0.00     0.358 HD
ENDROOT
BRANCH   1   4
ATOM      4  C   UNL     1      45.367 131.090  16.404  1.00  0.00     0.148 A 
ATOM      5  C   UNL     1      44.405 131.325  19.058  1.00  0.00     0.019 A 
ATOM      6  C   UNL     1      43.602 131.710  17.973  1.00  0.00     0.029 A 
ATOM      7  C   UNL     1      45.696 130.836  18.811  1.00  0.00     0.136 A 
ATOM      8  C   UNL     1      44.063 131.616  16.648  1.00  0.00     0.076 A 
ATOM      9  C   UNL     1      46.164 130.721  17.503  1.00  0.00     0.108 A 
ATOM     10  F   UNL     1      46.519 130.497  19.836  1.00  0.00    -0.206 F 
BRANCH   5  11
ATOM     11  C   UNL     1      43.885 131.445  20.443  1.00  0.00    -0.015 A 
ATOM     12  C   UNL     1      42.916 131.694  23.077  1.00  0.00    -0.051 A 
ATOM     13  C   UNL     1      44.167 131.109  22.836  1.00  0.00     0.004 A 
ATOM     14  C   UNL     1      42.142 132.134  21.993  1.00  0.00     0.004 A 
ATOM     15  C   UNL     1      44.652 130.993  21.530  1.00  0.00     0.009 A 
ATOM     16  C   UNL     1      42.625 132.019  20.687  1.00  0.00     0.009 A 
ATOM     17  C   UNL     1      42.379 131.783  24.475  1.00  0.00     0.044 C 
ENDBRANCH   5  11
BRANCH   8  18
ATOM     18  C   UNL     1      43.125 132.067  15.588  1.00  0.00     0.266 C 
ATOM     19  O   UNL     1      43.244 131.724  14.383  1.00  0.00    -0.298 OA
ENDBRANCH   8  18
ENDBRANCH   1   4
BRANCH   1  20
ATOM     20  C   UNL     1      46.803 129.737  15.007  1.00  0.00     0.468 C 
ATOM     21  F   UNL     1      47.582 129.655  16.151  1.00  0.00    -0.139 F 
ATOM     22  F   UNL     1      46.056 128.573  14.909  1.00  0.00    -0.139 F 
BRANCH  20  23
ATOM     23  C   UNL     1      47.695 129.832  13.797  1.00  0.00     0.354 C 
ATOM     24  O   UNL     1      48.591 129.018  13.635  1.00  0.00    -0.267 OA
ATOM     25  Cl  UNL     1      47.471 131.102  12.601  1.00  0.00    -0.030 Cl
ENDBRANCH  20  23
ENDBRANCH   1  20
TORSDOF 5
ENDMDL
MODEL 4
REMARK VINA RESULT:      -7.8      2.066      2.601
REMARK SMILES Cc1ccc(-c2cc(C=O)c([NH2+]C(F)(F)C(=O)Cl)cc2F)cc1
REMARK SMILES IDX 12 1 11 4 6 5 7 6 20 7 8 8 19 9 21 10 5 11 2 12 3 13 23 14
REMARK SMILES IDX 4 15 22 16 1 17 9 18 10 19 13 20 14 21 15 22 16 23 17 24
REMARK SMILES IDX 18 25
REMARK H PARENT 12 2 12 3
ROOT
ATOM      1  N   UNL     1      43.056 132.025  21.212  1.00  0.00    -0.244 N 
ATOM      2  H   UNL     1      43.447 132.862  21.706  1.00  0.00     0.358 HD
ATOM      3  H   UNL     1      42.064 132.270  21.000  1.00  0.00     0.358 HD
ENDROOT
BRANCH   1   4
ATOM      4  C   UNL     1      43.812 131.806  19.995  1.00  0.00     0.148 A 
ATOM      5  C   UNL     1      45.160 131.305  17.555  1.00  0.00     0.019 A 
ATOM      6  C   UNL     1      45.876 131.395  18.759  1.00  0.00     0.029 A 
ATOM      7  C   UNL     1      43.770 131.481  17.575  1.00  0.00     0.136 A 
ATOM      8  C   UNL     1      45.231 131.657  19.980  1.00  0.00     0.076 A 
ATOM      9  C   UNL     1      43.109 131.725  18.778  1.00  0.00     0.108 A 
ATOM     10  F   UNL     1      43.048 131.446  16.425  1.00  0.00    -0.206 F 
BRANCH   5  11
ATOM     11  C   UNL     1      45.879 131.033  16.285  1.00  0.00    -0.015 A 
ATOM     12  C   UNL     1      47.220 130.505  13.864  1.00  0.00    -0.051 A 
ATOM     13  C   UNL     1      47.003 129.476  14.792  1.00  0.00     0.004 A 
ATOM     14  C   UNL     1      46.782 131.804  14.162  1.00  0.00     0.004 A 
ATOM     15  C   UNL     1      46.330 129.736  15.989  1.00  0.00     0.009 A 
ATOM     16  C   UNL     1      46.110 132.065  15.359  1.00  0.00     0.009 A 
ATOM     17  C   UNL     1      47.975 130.234  12.597  1.00  0.00     0.044 C 
ENDBRANCH   5  11
BRANCH   8  18
ATOM     18  C   UNL     1      46.099 131.743  21.182  1.00  0.00     0.266 C 
ATOM     19  O   UNL     1      46.826 132.740  21.426  1.00  0.00    -0.298 OA
ENDBRANCH   8  18
ENDBRANCH   1   4
BRANCH   1  20
ATOM     20  C   UNL     1      43.143 130.862  22.117  1.00  0.00     0.468 C 
ATOM     21  F   UNL     1      41.930 130.192  22.170  1.00  0.00    -0.139 F 
ATOM     22  F   UNL     1      44.106 129.976  21.660  1.00  0.00    -0.139 F 
BRANCH  20  23
ATOM     23  C   UNL     1      43.530 131.309  23.503  1.00  0.00     0.354 C 
ATOM     24  O   UNL     1      44.618 130.999  23.962  1.00  0.00    -0.267 OA
ATOM     25  Cl  UNL     1      42.436 132.278  24.483  1.00  0.00    -0.030 Cl
ENDBRANCH  20  23
ENDBRANCH   1  20
TORSDOF 5
ENDMDL
MODEL 5
REMARK VINA RESULT:      -7.7      1.995      2.755
REMARK SMILES Cc1ccc(-c2cc(C=O)c([NH2+]C(F)(F)C(=O)Cl)cc2F)cc1
REMARK SMILES IDX 12 1 11 4 6 5 7 6 20 7 8 8 19 9 21 10 5 11 2 12 3 13 23 14
REMARK SMILES IDX 4 15 22 16 1 17 9 18 10 19 13 20 14 21 15 22 16 23 17 24
REMARK SMILES IDX 18 25
REMARK H PARENT 12 2 12 3
ROOT
ATOM      1  N   UNL     1      43.154 132.006  21.476  1.00  0.00    -0.244 N 
ATOM      2  H   UNL     1      43.641 132.746  22.035  1.00  0.00     0.358 HD
ATOM      3  H   UNL     1      42.194 132.379  21.305  1.00  0.00     0.358 HD
ENDROOT
BRANCH   1   4
ATOM      4  C   UNL     1      43.869 131.811  20.232  1.00  0.00     0.148 A 
ATOM      5  C   UNL     1      45.140 131.357  17.742  1.00  0.00     0.019 A 
ATOM      6  C   UNL     1      45.895 131.440  18.921  1.00  0.00     0.029 A 
ATOM      7  C   UNL     1      43.749 131.517  17.811  1.00  0.00     0.136 A 
ATOM      8  C   UNL     1      45.289 131.679  20.167  1.00  0.00     0.076 A 
ATOM      9  C   UNL     1      43.127 131.738  19.039  1.00  0.00     0.108 A 
ATOM     10  F   UNL     1      42.989 131.488  16.685  1.00  0.00    -0.206 F 
BRANCH   5  11
ATOM     11  C   UNL     1      45.817 131.110  16.445  1.00  0.00    -0.015 A 
ATOM     12  C   UNL     1      47.127 130.652  13.992  1.00  0.00    -0.051 A 
ATOM     13  C   UNL     1      46.703 131.943  14.337  1.00  0.00     0.004 A 
ATOM     14  C   UNL     1      46.874 129.587  14.869  1.00  0.00     0.004 A 
ATOM     15  C   UNL     1      46.061 132.173  15.558  1.00  0.00     0.009 A 
ATOM     16  C   UNL     1      46.231 129.815  16.089  1.00  0.00     0.009 A 
ATOM     17  C   UNL     1      47.781 130.400  12.666  1.00  0.00     0.044 C 
ENDBRANCH   5  11
BRANCH   8  18
ATOM     18  C   UNL     1      46.196 131.759  21.340  1.00  0.00     0.266 C 
ATOM     19  O   UNL     1      46.044 132.602  22.261  1.00  0.00    -0.298 OA
ENDBRANCH   8  18
ENDBRANCH   1   4
BRANCH   1  20
ATOM     20  C   UNL     1      43.114 130.765  22.276  1.00  0.00     0.468 C 
ATOM     21  F   UNL     1      41.838 130.223  22.275  1.00  0.00    -0.139 F 
ATOM     22  F   UNL     1      43.983 129.828  21.739  1.00  0.00    -0.139 F 
BRANCH  20  23
ATOM     23  C   UNL     1      43.540 131.047  23.694  1.00  0.00     0.354 C 
ATOM     24  O   UNL     1      44.413 130.371  24.214  1.00  0.00    -0.267 OA
ATOM     25  Cl  UNL     1      42.795 132.341  24.625  1.00  0.00    -0.030 Cl
ENDBRANCH  20  23
ENDBRANCH   1  20
TORSDOF 5
ENDMDL
MODEL 6
REMARK VINA RESULT:      -7.7      1.117      1.217
REMARK SMILES Cc1ccc(-c2cc(C=O)c([NH2+]C(F)(F)C(=O)Cl)cc2F)cc1
REMARK SMILES IDX 12 1 11 4 6 5 7 6 20 7 8 8 19 9 21 10 5 11 2 12 3 13 23 14
REMARK SMILES IDX 4 15 22 16 1 17 9 18 10 19 13 20 14 21 15 22 16 23 17 24
REMARK SMILES IDX 18 25
REMARK H PARENT 12 2 12 3
ROOT
ATOM      1  N   UNL     1      43.481 131.698  21.706  1.00  0.00    -0.244 N 
ATOM      2  H   UNL     1      44.157 132.268  22.268  1.00  0.00     0.358 HD
ATOM      3  H   UNL     1      42.600 132.259  21.686  1.00  0.00     0.358 HD
ENDROOT
BRANCH   1   4
ATOM      4  C   UNL     1      44.017 131.516  20.373  1.00  0.00     0.148 A 
ATOM      5  C   UNL     1      45.210 131.177  17.827  1.00  0.00     0.019 A 
ATOM      6  C   UNL     1      43.929 131.736  17.943  1.00  0.00     0.029 A 
ATOM      7  C   UNL     1      45.886 130.774  18.987  1.00  0.00     0.136 A 
ATOM      8  C   UNL     1      43.310 131.902  19.194  1.00  0.00     0.076 A 
ATOM      9  C   UNL     1      45.296 130.945  20.239  1.00  0.00     0.108 A 
ATOM     10  F   UNL     1      47.108 130.187  18.912  1.00  0.00    -0.206 F 
BRANCH   5  11
ATOM     11  C   UNL     1      45.828 131.013  16.487  1.00  0.00    -0.015 A 
ATOM     12  C   UNL     1      46.977 130.691  13.934  1.00  0.00    -0.051 A 
ATOM     13  C   UNL     1      46.794 129.582  14.773  1.00  0.00     0.004 A 
ATOM     14  C   UNL     1      46.603 131.965  14.387  1.00  0.00     0.004 A 
ATOM     15  C   UNL     1      46.216 129.740  16.036  1.00  0.00     0.009 A 
ATOM     16  C   UNL     1      46.026 132.124  15.650  1.00  0.00     0.009 A 
ATOM     17  C   UNL     1      47.632 130.527  12.595  1.00  0.00     0.044 C 
ENDBRANCH   5  11
BRANCH   8  18
ATOM     18  C   UNL     1      41.947 132.494  19.186  1.00  0.00     0.266 C 
ATOM     19  O   UNL     1      41.073 132.175  18.339  1.00  0.00    -0.298 OA
ENDBRANCH   8  18
ENDBRANCH   1   4
BRANCH   1  20
ATOM     20  C   UNL     1      43.279 130.404  22.388  1.00  0.00     0.468 C 
ATOM     21  F   UNL     1      42.067 129.840  22.018  1.00  0.00    -0.139 F 
ATOM     22  F   UNL     1      44.290 129.522  22.038  1.00  0.00    -0.139 F 
BRANCH  20  23
ATOM     23  C   UNL     1      43.310 130.593  23.883  1.00  0.00     0.354 C 
ATOM     24  O   UNL     1      42.961 129.684  24.619  1.00  0.00    -0.267 OA
ATOM     25  Cl  UNL     1      43.844 132.110  24.595  1.00  0.00    -0.030 Cl
ENDBRANCH  20  23
ENDBRANCH   1  20
TORSDOF 5
ENDMDL
MODEL 7
REMARK VINA RESULT:      -7.6      2.109      2.827
REMARK SMILES Cc1ccc(-c2cc(C=O)c([NH2+]C(F)(F)C(=O)Cl)cc2F)cc1
REMARK SMILES IDX 12 1 11 4 6 5 7 6 20 7 8 8 19 9 21 10 5 11 2 12 3 13 23 14
REMARK SMILES IDX 4 15 22 16 1 17 9 18 10 19 13 20 14 21 15 22 16 23 17 24
REMARK SMILES IDX 18 25
REMARK H PARENT 12 2 12 3
ROOT
ATOM      1  N   UNL     1      42.775 130.837  21.541  1.00  0.00    -0.244 N 
ATOM      2  H   UNL     1      41.758 130.832  21.290  1.00  0.00     0.358 HD
ATOM      3  H   UNL     1      42.933 129.943  22.057  1.00  0.00     0.358 HD
ENDROOT
BRANCH   1   4
ATOM      4  C   UNL     1      43.558 130.885  20.324  1.00  0.00     0.148 A 
ATOM      5  C   UNL     1      44.954 130.972  17.861  1.00  0.00     0.019 A 
ATOM      6  C   UNL     1      45.550 130.404  18.997  1.00  0.00     0.029 A 
ATOM      7  C   UNL     1      43.663 131.510  17.965  1.00  0.00     0.136 A 
ATOM      8  C   UNL     1      44.883 130.361  20.234  1.00  0.00     0.076 A 
ATOM      9  C   UNL     1      42.979 131.463  19.179  1.00  0.00     0.108 A 
ATOM     10  F   UNL     1      43.071 132.109  16.900  1.00  0.00    -0.206 F 
BRANCH   5  11
ATOM     11  C   UNL     1      45.693 131.004  16.575  1.00  0.00    -0.015 A 
ATOM     12  C   UNL     1      47.118 131.075  14.144  1.00  0.00    -0.051 A 
ATOM     13  C   UNL     1      46.513 132.238  14.644  1.00  0.00     0.004 A 
ATOM     14  C   UNL     1      46.989 129.873  14.854  1.00  0.00     0.004 A 
ATOM     15  C   UNL     1      45.814 132.204  15.854  1.00  0.00     0.009 A 
ATOM     16  C   UNL     1      46.289 129.838  16.063  1.00  0.00     0.009 A 
ATOM     17  C   UNL     1      47.835 131.103  12.827  1.00  0.00     0.044 C 
ENDBRANCH   5  11
BRANCH   8  18
ATOM     18  C   UNL     1      45.624 129.747  21.365  1.00  0.00     0.266 C 
ATOM     19  O   UNL     1      45.502 128.534  21.679  1.00  0.00    -0.298 OA
ENDBRANCH   8  18
ENDBRANCH   1   4
BRANCH   1  20
ATOM     20  C   UNL     1      43.039 132.008  22.400  1.00  0.00     0.468 C 
ATOM     21  F   UNL     1      44.098 132.752  21.901  1.00  0.00    -0.139 F 
ATOM     22  F   UNL     1      41.920 132.826  22.443  1.00  0.00    -0.139 F 
BRANCH  20  23
ATOM     23  C   UNL     1      43.355 131.564  23.805  1.00  0.00     0.354 C 
ATOM     24  O   UNL     1      44.302 132.053  24.401  1.00  0.00    -0.267 OA
ATOM     25  Cl  UNL     1      42.379 130.342  24.611  1.00  0.00    -0.030 Cl
ENDBRANCH  20  23
ENDBRANCH   1  20
TORSDOF 5
ENDMDL
MODEL 8
REMARK VINA RESULT:      -7.5      4.222      7.513
REMARK SMILES Cc1ccc(-c2cc(C=O)c([NH2+]C(F)(F)C(=O)Cl)cc2F)cc1
REMARK SMILES IDX 12 1 11 4 6 5 7 6 20 7 8 8 19 9 21 10 5 11 2 12 3 13 23 14
REMARK SMILES IDX 4 15 22 16 1 17 9 18 10 19 13 20 14 21 15 22 16 23 17 24
REMARK SMILES IDX 18 25
REMARK H PARENT 12 2 12 3
ROOT
ATOM      1  N   UNL     1      45.745 130.921  14.736  1.00  0.00    -0.244 N 
ATOM      2  H   UNL     1      44.950 130.639  14.115  1.00  0.00     0.358 HD
ATOM      3  H   UNL     1      46.094 131.822  14.340  1.00  0.00     0.358 HD
ENDROOT
BRANCH   1   4
ATOM      4  C   UNL     1      45.245 131.101  16.084  1.00  0.00     0.148 A 
ATOM      5  C   UNL     1      44.366 131.334  18.766  1.00  0.00     0.019 A 
ATOM      6  C   UNL     1      43.509 131.664  17.705  1.00  0.00     0.029 A 
ATOM      7  C   UNL     1      45.668 130.901  18.481  1.00  0.00     0.136 A 
ATOM      8  C   UNL     1      43.927 131.569  16.366  1.00  0.00     0.076 A 
ATOM      9  C   UNL     1      46.097 130.786  17.159  1.00  0.00     0.108 A 
ATOM     10  F   UNL     1      46.542 130.616  19.481  1.00  0.00    -0.206 F 
BRANCH   5  11
ATOM     11  C   UNL     1      43.889 131.452  20.166  1.00  0.00    -0.015 A 
ATOM     12  C   UNL     1      42.965 131.658  22.820  1.00  0.00    -0.051 A 
ATOM     13  C   UNL     1      42.250 132.259  21.774  1.00  0.00     0.004 A 
ATOM     14  C   UNL     1      44.155 130.972  22.537  1.00  0.00     0.004 A 
ATOM     15  C   UNL     1      42.704 132.150  20.456  1.00  0.00     0.009 A 
ATOM     16  C   UNL     1      44.610 130.863  21.219  1.00  0.00     0.009 A 
ATOM     17  C   UNL     1      42.498 131.808  24.238  1.00  0.00     0.044 C 
ENDBRANCH   5  11
BRANCH   8  18
ATOM     18  C   UNL     1      42.934 131.960  15.333  1.00  0.00     0.266 C 
ATOM     19  O   UNL     1      43.129 131.787  14.102  1.00  0.00    -0.298 OA
ENDBRANCH   8  18
ENDBRANCH   1   4
BRANCH   1  20
ATOM     20  C   UNL     1      46.780 129.870  14.679  1.00  0.00     0.468 C 
ATOM     21  F   UNL     1      47.506 129.834  15.860  1.00  0.00    -0.139 F 
ATOM     22  F   UNL     1      46.186 128.630  14.499  1.00  0.00    -0.139 F 
BRANCH  20  23
ATOM     23  C   UNL     1      47.713 130.120  13.522  1.00  0.00     0.354 C 
ATOM     24  O   UNL     1      47.498 131.045  12.754  1.00  0.00    -0.267 OA
ATOM     25  Cl  UNL     1      49.119 129.098  13.253  1.00  0.00    -0.030 Cl
ENDBRANCH  20  23
ENDBRANCH   1  20
TORSDOF 5
ENDMDL
MODEL 9
REMARK VINA RESULT:      -7.3      1.058      1.092
REMARK SMILES Cc1ccc(-c2cc(C=O)c([NH2+]C(F)(F)C(=O)Cl)cc2F)cc1
REMARK SMILES IDX 12 1 11 4 6 5 7 6 20 7 8 8 19 9 21 10 5 11 2 12 3 13 23 14
REMARK SMILES IDX 4 15 22 16 1 17 9 18 10 19 13 20 14 21 15 22 16 23 17 24
REMARK SMILES IDX 18 25
REMARK H PARENT 12 2 12 3
ROOT
ATOM      1  N   UNL     1      42.972 132.057  21.949  1.00  0.00    -0.244 N 
ATOM      2  H   UNL     1      42.903 133.093  22.088  1.00  0.00     0.358 HD
ATOM      3  H   UNL     1      41.987 131.712  21.969  1.00  0.00     0.358 HD
ENDROOT
BRANCH   1   4
ATOM      4  C   UNL     1      43.592 131.797  20.666  1.00  0.00     0.148 A 
ATOM      5  C   UNL     1      44.942 131.339  18.219  1.00  0.00     0.019 A 
ATOM      6  C   UNL     1      43.575 131.654  18.229  1.00  0.00     0.029 A 
ATOM      7  C   UNL     1      45.628 131.239  19.438  1.00  0.00     0.136 A 
ATOM      8  C   UNL     1      42.880 131.872  19.432  1.00  0.00     0.076 A 
ATOM      9  C   UNL     1      44.960 131.467  20.640  1.00  0.00     0.108 A 
ATOM     10  F   UNL     1      46.940 130.891  19.471  1.00  0.00    -0.206 F 
BRANCH   5  11
ATOM     11  C   UNL     1      45.640 131.110  16.929  1.00  0.00    -0.015 A 
ATOM     12  C   UNL     1      46.942 130.663  14.470  1.00  0.00    -0.051 A 
ATOM     13  C   UNL     1      46.826 129.627  15.409  1.00  0.00     0.004 A 
ATOM     14  C   UNL     1      46.423 131.929  14.776  1.00  0.00     0.004 A 
ATOM     15  C   UNL     1      46.172 129.846  16.625  1.00  0.00     0.009 A 
ATOM     16  C   UNL     1      45.770 132.150  15.992  1.00  0.00     0.009 A 
ATOM     17  C   UNL     1      47.676 130.438  13.182  1.00  0.00     0.044 C 
ENDBRANCH   5  11
BRANCH   8  18
ATOM     18  C   UNL     1      41.433 132.185  19.313  1.00  0.00     0.266 C 
ATOM     19  O   UNL     1      40.625 131.442  18.698  1.00  0.00    -0.298 OA
ENDBRANCH   8  18
ENDBRANCH   1   4
BRANCH   1  20
ATOM     20  C   UNL     1      43.764 131.488  23.058  1.00  0.00     0.468 C 
ATOM     21  F   UNL     1      45.108 131.792  22.905  1.00  0.00    -0.139 F 
ATOM     22  F   UNL     1      43.336 132.017  24.266  1.00  0.00    -0.139 F 
BRANCH  20  23
ATOM     23  C   UNL     1      43.589 129.992  23.108  1.00  0.00     0.354 C 
ATOM     24  O   UNL     1      44.491 129.260  22.730  1.00  0.00    -0.267 OA
ATOM     25  Cl  UNL     1      42.099 129.272  23.704  1.00  0.00    -0.030 Cl
ENDBRANCH  20  23
ENDBRANCH   1  20
TORSDOF 5
ENDMDL


