REMARK SMILES [H]/N=c1\[n-]cccc1[NH2+]c1ccc(C(C)=O)c(F)c1
REMARK SMILES IDX 9 1 8 4 3 5 4 6 5 7 7 8 6 9 2 10 1 11 10 12 11 13 19 14
REMARK SMILES IDX 12 15 17 16 13 17 18 18 14 19 16 20 15 21
REMARK H PARENT 9 2 9 3
ROOT
ATOM      1  N   UNL     1       1.349  -2.173  -0.365  1.00  0.00    -0.282 N 
ATOM      2  H   UNL     1       2.365  -2.337  -0.556  1.00  0.00     0.358 HD
ATOM      3  H   UNL     1       1.039  -2.956   0.257  1.00  0.00     0.358 HD
ENDROOT
BRANCH   1   4
ATOM      4  C   UNL     1       0.604  -2.183  -1.603  1.00  0.00     0.133 A 
ATOM      5  C   UNL     1      -0.752  -2.582  -1.652  1.00  0.00    -0.002 A 
ATOM      6  N   UNL     1      -1.426  -2.549  -2.836  1.00  0.00    -0.438 NA
ATOM      7  C   UNL     1      -0.839  -2.139  -3.990  1.00  0.00    -0.022 A 
ATOM      8  C   UNL     1       1.215  -1.754  -2.795  1.00  0.00     0.067 A 
ATOM      9  C   UNL     1       0.495  -1.733  -3.989  1.00  0.00     0.002 A 
BRANCH   5  10
ATOM     10  N   UNL     1      -1.362  -2.982  -0.582  1.00  0.00    -0.477 NA
ATOM     11  H   UNL     1      -2.363  -3.280  -0.601  1.00  0.00     0.020 HD
ENDBRANCH   5  10
ENDBRANCH   1   4
BRANCH   1  12
ATOM     12  C   UNL     1       1.182  -0.903   0.298  1.00  0.00     0.137 A 
ATOM     13  C   UNL     1       1.972   0.198  -0.066  1.00  0.00     0.069 A 
ATOM     14  C   UNL     1       0.205  -0.739   1.293  1.00  0.00     0.108 A 
ATOM     15  C   UNL     1       1.794   1.435   0.556  1.00  0.00     0.021 A 
ATOM     16  C   UNL     1       0.023   0.498   1.920  1.00  0.00     0.139 A 
ATOM     17  C   UNL     1       0.825   1.605   1.562  1.00  0.00     0.053 A 
ATOM     18  F   UNL     1      -0.959   0.604   2.850  1.00  0.00    -0.206 F 
BRANCH  17  19
ATOM     19  C   UNL     1       0.672   2.941   2.203  1.00  0.00     0.162 C 
ATOM     20  O   UNL     1       1.120   3.964   1.616  1.00  0.00    -0.294 OA
ATOM     21  C   UNL     1      -0.003   3.127   3.528  1.00  0.00     0.093 C 
ENDBRANCH  17  19
ENDBRANCH   1  12
TORSDOF 4


