MODEL 1
REMARK VINA RESULT:      -6.8      0.000      0.000
REMARK SMILES N[NH2+][C@H]1CCC[C@H](F)[C@@]1(CCC(=O)c1ccccc1)c1nc2ccccc2[n-]1
REMARK SMILES IDX 3 1 4 2 5 3 6 4 7 5 8 6 9 7 2 8 1 11 10 14 11 15 12 16 13 17
REMARK SMILES IDX 14 18 15 19 19 20 16 21 18 22 17 23 20 24 21 25 28 26 22 27
REMARK SMILES IDX 27 28 23 29 26 30 24 31 25 32
REMARK H PARENT 2 9 2 10 1 12 1 13
ROOT
ATOM      1  C   UNL     1      43.175 132.293  19.984  1.00  0.00     0.214 C 
ATOM      2  C   UNL     1      42.630 132.495  21.429  1.00  0.00     0.068 C 
ATOM      3  C   UNL     1      42.820 131.258  22.317  1.00  0.00     0.009 C 
ATOM      4  C   UNL     1      44.274 130.779  22.329  1.00  0.00     0.039 C 
ATOM      5  C   UNL     1      44.795 130.540  20.905  1.00  0.00     0.182 C 
ATOM      6  F   UNL     1      46.095 130.068  20.968  1.00  0.00    -0.246 F 
ATOM      7  C   UNL     1      44.682 131.813  19.998  1.00  0.00     0.073 C 
ENDROOT
BRANCH   1   8
ATOM      8  N   UNL     1      42.289 131.388  19.206  1.00  0.00    -0.268 N 
ATOM      9  H   UNL     1      41.544 130.977  19.813  1.00  0.00     0.370 HD
ATOM     10  H   UNL     1      42.828 130.604  18.770  1.00  0.00     0.370 HD
BRANCH   8  11
ATOM     11  N   UNL     1      41.665 132.108  18.165  1.00  0.00    -0.183 NA
ATOM     12  H   UNL     1      40.777 131.615  17.904  1.00  0.00     0.183 HD
ATOM     13  H   UNL     1      41.382 133.043  18.540  1.00  0.00     0.183 HD
ENDBRANCH   8  11
ENDBRANCH   1   8
BRANCH   7  14
ATOM     14  C   UNL     1      45.591 132.991  20.509  1.00  0.00     0.028 C 
BRANCH  14  15
ATOM     15  C   UNL     1      46.867 132.570  21.274  1.00  0.00     0.082 C 
BRANCH  15  16
ATOM     16  C   UNL     1      47.228 133.549  22.367  1.00  0.00     0.162 C 
ATOM     17  O   UNL     1      46.624 133.491  23.473  1.00  0.00    -0.294 OA
BRANCH  16  18
ATOM     18  C   UNL     1      48.320 134.541  22.191  1.00  0.00     0.017 A 
ATOM     19  C   UNL     1      49.469 134.522  23.007  1.00  0.00     0.012 A 
ATOM     20  C   UNL     1      48.212 135.535  21.198  1.00  0.00     0.012 A 
ATOM     21  C   UNL     1      50.484 135.465  22.825  1.00  0.00     0.001 A 
ATOM     22  C   UNL     1      49.231 136.475  21.020  1.00  0.00     0.001 A 
ATOM     23  C   UNL     1      50.367 136.439  21.831  1.00  0.00     0.000 A 
ENDBRANCH  16  18
ENDBRANCH  15  16
ENDBRANCH  14  15
ENDBRANCH   7  14
BRANCH   7  24
ATOM     24  C   UNL     1      45.118 131.490  18.573  1.00  0.00    -0.067 A 
ATOM     25  N   UNL     1      45.790 130.348  18.259  1.00  0.00    -0.439 NA
ATOM     26  N   UNL     1      44.884 132.309  17.509  1.00  0.00    -0.439 NA
ATOM     27  C   UNL     1      45.973 130.468  16.937  1.00  0.00    -0.038 A 
ATOM     28  C   UNL     1      45.435 131.635  16.491  1.00  0.00    -0.038 A 
ATOM     29  C   UNL     1      46.612 129.573  16.081  1.00  0.00     0.004 A 
ATOM     30  C   UNL     1      45.487 132.006  15.150  1.00  0.00     0.004 A 
ATOM     31  C   UNL     1      46.684 129.916  14.717  1.00  0.00     0.000 A 
ATOM     32  C   UNL     1      46.124 131.128  14.253  1.00  0.00     0.000 A 
ENDBRANCH   7  24
TORSDOF 7
ENDMDL
MODEL 2
REMARK VINA RESULT:      -6.8      0.128      1.113
REMARK SMILES N[NH2+][C@H]1CCC[C@H](F)[C@@]1(CCC(=O)c1ccccc1)c1nc2ccccc2[n-]1
REMARK SMILES IDX 3 1 4 2 5 3 6 4 7 5 8 6 9 7 2 8 1 11 10 14 11 15 12 16 13 17
REMARK SMILES IDX 14 18 15 19 19 20 16 21 18 22 17 23 20 24 21 25 28 26 22 27
REMARK SMILES IDX 27 28 23 29 26 30 24 31 25 32
REMARK H PARENT 2 9 2 10 1 12 1 13
ROOT
ATOM      1  C   UNL     1      43.131 132.205  20.100  1.00  0.00     0.214 C 
ATOM      2  C   UNL     1      42.592 132.398  21.548  1.00  0.00     0.068 C 
ATOM      3  C   UNL     1      42.827 131.173  22.441  1.00  0.00     0.009 C 
ATOM      4  C   UNL     1      44.294 130.738  22.444  1.00  0.00     0.039 C 
ATOM      5  C   UNL     1      44.811 130.508  21.017  1.00  0.00     0.182 C 
ATOM      6  F   UNL     1      46.126 130.076  21.073  1.00  0.00    -0.246 F 
ATOM      7  C   UNL     1      44.653 131.771  20.104  1.00  0.00     0.073 C 
ENDROOT
BRANCH   1   8
ATOM      8  N   UNL     1      42.268 131.269  19.334  1.00  0.00    -0.268 N 
ATOM      9  H   UNL     1      41.527 130.856  19.945  1.00  0.00     0.370 HD
ATOM     10  H   UNL     1      42.824 130.488  18.916  1.00  0.00     0.370 HD
BRANCH   8  11
ATOM     11  N   UNL     1      41.637 131.957  18.276  1.00  0.00    -0.183 NA
ATOM     12  H   UNL     1      41.886 132.973  18.343  1.00  0.00     0.183 HD
ATOM     13  H   UNL     1      42.045 131.614  17.375  1.00  0.00     0.183 HD
ENDBRANCH   8  11
ENDBRANCH   1   8
BRANCH   7  14
ATOM     14  C   UNL     1      45.530 132.979  20.603  1.00  0.00     0.028 C 
BRANCH  14  15
ATOM     15  C   UNL     1      46.880 132.604  21.254  1.00  0.00     0.082 C 
BRANCH  15  16
ATOM     16  C   UNL     1      47.273 133.565  22.352  1.00  0.00     0.162 C 
ATOM     17  O   UNL     1      46.731 133.461  23.487  1.00  0.00    -0.294 OA
BRANCH  16  18
ATOM     18  C   UNL     1      48.325 134.593  22.144  1.00  0.00     0.017 A 
ATOM     19  C   UNL     1      49.484 134.631  22.946  1.00  0.00     0.012 A 
ATOM     20  C   UNL     1      48.167 135.565  21.136  1.00  0.00     0.012 A 
ATOM     21  C   UNL     1      50.461 135.608  22.733  1.00  0.00     0.001 A 
ATOM     22  C   UNL     1      49.148 136.539  20.929  1.00  0.00     0.001 A 
ATOM     23  C   UNL     1      50.294 136.559  21.725  1.00  0.00     0.000 A 
ENDBRANCH  16  18
ENDBRANCH  15  16
ENDBRANCH  14  15
ENDBRANCH   7  14
BRANCH   7  24
ATOM     24  C   UNL     1      45.087 131.454  18.678  1.00  0.00    -0.067 A 
ATOM     25  N   UNL     1      44.815 132.284  17.633  1.00  0.00    -0.439 NA
ATOM     26  N   UNL     1      45.766 130.325  18.330  1.00  0.00    -0.439 NA
ATOM     27  C   UNL     1      45.358 131.636  16.594  1.00  0.00    -0.038 A 
ATOM     28  C   UNL     1      45.924 130.471  17.008  1.00  0.00    -0.038 A 
ATOM     29  C   UNL     1      45.378 132.035  15.259  1.00  0.00     0.004 A 
ATOM     30  C   UNL     1      46.560 129.604  16.123  1.00  0.00     0.004 A 
ATOM     31  C   UNL     1      46.013 131.183  14.334  1.00  0.00     0.000 A 
ATOM     32  C   UNL     1      46.602 129.972  14.765  1.00  0.00     0.000 A 
ENDBRANCH   7  24
TORSDOF 7
ENDMDL
MODEL 3
REMARK VINA RESULT:      -4.9      1.078      1.883
REMARK SMILES N[NH2+][C@H]1CCC[C@H](F)[C@@]1(CCC(=O)c1ccccc1)c1nc2ccccc2[n-]1
REMARK SMILES IDX 3 1 4 2 5 3 6 4 7 5 8 6 9 7 2 8 1 11 10 14 11 15 12 16 13 17
REMARK SMILES IDX 14 18 15 19 19 20 16 21 18 22 17 23 20 24 21 25 28 26 22 27
REMARK SMILES IDX 27 28 23 29 26 30 24 31 25 32
REMARK H PARENT 2 9 2 10 1 12 1 13
ROOT
ATOM      1  C   UNL     1      43.495 132.253  21.248  1.00  0.00     0.214 C 
ATOM      2  C   UNL     1      42.991 132.264  22.722  1.00  0.00     0.068 C 
ATOM      3  C   UNL     1      42.755 130.855  23.282  1.00  0.00     0.009 C 
ATOM      4  C   UNL     1      43.985 129.959  23.118  1.00  0.00     0.039 C 
ATOM      5  C   UNL     1      44.455 129.918  21.657  1.00  0.00     0.182 C 
ATOM      6  F   UNL     1      45.540 129.064  21.550  1.00  0.00    -0.246 F 
ATOM      7  C   UNL     1      44.776 131.340  21.083  1.00  0.00     0.073 C 
ENDROOT
BRANCH   1   8
ATOM      8  N   UNL     1      42.398 131.882  20.316  1.00  0.00    -0.268 N 
ATOM      9  H   UNL     1      41.805 131.121  20.718  1.00  0.00     0.370 HD
ATOM     10  H   UNL     1      42.771 131.557  19.394  1.00  0.00     0.370 HD
BRANCH   8  11
ATOM     11  N   UNL     1      41.576 133.003  20.073  1.00  0.00    -0.183 NA
ATOM     12  H   UNL     1      41.521 133.158  19.037  1.00  0.00     0.183 HD
ATOM     13  H   UNL     1      40.606 132.770  20.387  1.00  0.00     0.183 HD
ENDBRANCH   8  11
ENDBRANCH   1   8
BRANCH   7  14
ATOM     14  C   UNL     1      45.989 132.019  21.820  1.00  0.00     0.028 C 
BRANCH  14  15
ATOM     15  C   UNL     1      46.565 133.282  21.140  1.00  0.00     0.082 C 
BRANCH  15  16
ATOM     16  C   UNL     1      47.691 133.899  21.938  1.00  0.00     0.162 C 
ATOM     17  O   UNL     1      48.141 133.288  22.946  1.00  0.00    -0.294 OA
BRANCH  16  18
ATOM     18  C   UNL     1      48.319 135.181  21.529  1.00  0.00     0.017 A 
ATOM     19  C   UNL     1      47.660 136.080  20.665  1.00  0.00     0.012 A 
ATOM     20  C   UNL     1      49.606 135.513  21.997  1.00  0.00     0.012 A 
ATOM     21  C   UNL     1      48.270 137.281  20.292  1.00  0.00     0.001 A 
ATOM     22  C   UNL     1      50.211 136.716  21.620  1.00  0.00     0.001 A 
ATOM     23  C   UNL     1      49.544 137.600  20.771  1.00  0.00     0.000 A 
ENDBRANCH  16  18
ENDBRANCH  15  16
ENDBRANCH  14  15
ENDBRANCH   7  14
BRANCH   7  24
ATOM     24  C   UNL     1      45.138 131.248  19.606  1.00  0.00    -0.067 A 
ATOM     25  N   UNL     1      44.856 132.247  18.724  1.00  0.00    -0.439 NA
ATOM     26  N   UNL     1      45.757 130.171  19.046  1.00  0.00    -0.439 NA
ATOM     27  C   UNL     1      45.330 131.762  17.568  1.00  0.00    -0.038 A 
ATOM     28  C   UNL     1      45.865 130.527  17.760  1.00  0.00    -0.038 A 
ATOM     29  C   UNL     1      45.311 132.374  16.317  1.00  0.00     0.004 A 
ATOM     30  C   UNL     1      46.429 129.797  16.716  1.00  0.00     0.004 A 
ATOM     31  C   UNL     1      45.873 131.666  15.237  1.00  0.00     0.000 A 
ATOM     32  C   UNL     1      46.430 130.381  15.436  1.00  0.00     0.000 A 
ENDBRANCH   7  24
TORSDOF 7
ENDMDL
MODEL 4
REMARK VINA RESULT:      -4.7      1.016      1.454
REMARK SMILES N[NH2+][C@H]1CCC[C@H](F)[C@@]1(CCC(=O)c1ccccc1)c1nc2ccccc2[n-]1
REMARK SMILES IDX 3 1 4 2 5 3 6 4 7 5 8 6 9 7 2 8 1 11 10 14 11 15 12 16 13 17
REMARK SMILES IDX 14 18 15 19 19 20 16 21 18 22 17 23 20 24 21 25 28 26 22 27
REMARK SMILES IDX 27 28 23 29 26 30 24 31 25 32
REMARK H PARENT 2 9 2 10 1 12 1 13
ROOT
ATOM      1  C   UNL     1      43.954 131.890  21.127  1.00  0.00     0.214 C 
ATOM      2  C   UNL     1      43.747 131.846  22.670  1.00  0.00     0.068 C 
ATOM      3  C   UNL     1      43.618 130.417  23.214  1.00  0.00     0.009 C 
ATOM      4  C   UNL     1      44.789 129.531  22.782  1.00  0.00     0.039 C 
ATOM      5  C   UNL     1      44.965 129.543  21.257  1.00  0.00     0.182 C 
ATOM      6  F   UNL     1      46.004 128.697  20.910  1.00  0.00    -0.246 F 
ATOM      7  C   UNL     1      45.174 130.986  20.683  1.00  0.00     0.073 C 
ENDROOT
BRANCH   1   8
ATOM      8  N   UNL     1      42.695 131.549  20.414  1.00  0.00    -0.268 N 
ATOM      9  H   UNL     1      42.419 130.557  20.593  1.00  0.00     0.370 HD
ATOM     10  H   UNL     1      42.791 131.684  19.381  1.00  0.00     0.370 HD
BRANCH   8  11
ATOM     11  N   UNL     1      41.651 132.388  20.860  1.00  0.00    -0.183 NA
ATOM     12  H   UNL     1      41.811 133.351  20.479  1.00  0.00     0.183 HD
ATOM     13  H   UNL     1      40.757 132.049  20.433  1.00  0.00     0.183 HD
ENDBRANCH   8  11
ENDBRANCH   1   8
BRANCH   7  14
ATOM     14  C   UNL     1      46.511 131.641  21.193  1.00  0.00     0.028 C 
BRANCH  14  15
ATOM     15  C   UNL     1      46.617 133.173  21.016  1.00  0.00     0.082 C 
BRANCH  15  16
ATOM     16  C   UNL     1      47.054 133.868  22.285  1.00  0.00     0.162 C 
ATOM     17  O   UNL     1      46.300 133.838  23.297  1.00  0.00    -0.294 OA
BRANCH  16  18
ATOM     18  C   UNL     1      48.378 134.535  22.389  1.00  0.00     0.017 A 
ATOM     19  C   UNL     1      48.706 135.643  21.582  1.00  0.00     0.012 A 
ATOM     20  C   UNL     1      49.338 134.051  23.299  1.00  0.00     0.012 A 
ATOM     21  C   UNL     1      49.958 136.255  21.695  1.00  0.00     0.001 A 
ATOM     22  C   UNL     1      50.588 134.669  23.407  1.00  0.00     0.001 A 
ATOM     23  C   UNL     1      50.897 135.770  22.608  1.00  0.00     0.000 A 
ENDBRANCH  16  18
ENDBRANCH  15  16
ENDBRANCH  14  15
ENDBRANCH   7  14
BRANCH   7  24
ATOM     24  C   UNL     1      45.241 130.948  19.161  1.00  0.00    -0.067 A 
ATOM     25  N   UNL     1      45.865 129.944  18.485  1.00  0.00    -0.439 NA
ATOM     26  N   UNL     1      44.699 131.906  18.358  1.00  0.00    -0.439 NA
ATOM     27  C   UNL     1      45.693 130.299  17.204  1.00  0.00    -0.038 A 
ATOM     28  C   UNL     1      45.000 131.467  17.129  1.00  0.00    -0.038 A 
ATOM     29  C   UNL     1      46.131 129.624  16.067  1.00  0.00     0.004 A 
ATOM     30  C   UNL     1      44.684 132.060  15.909  1.00  0.00     0.004 A 
ATOM     31  C   UNL     1      45.830 130.194  14.815  1.00  0.00     0.000 A 
ATOM     32  C   UNL     1      45.110 131.408  14.736  1.00  0.00     0.000 A 
ENDBRANCH   7  24
TORSDOF 7
ENDMDL
MODEL 5
REMARK VINA RESULT:      -4.7      1.085      1.301
REMARK SMILES N[NH2+][C@H]1CCC[C@H](F)[C@@]1(CCC(=O)c1ccccc1)c1nc2ccccc2[n-]1
REMARK SMILES IDX 3 1 4 2 5 3 6 4 7 5 8 6 9 7 2 8 1 11 10 14 11 15 12 16 13 17
REMARK SMILES IDX 14 18 15 19 19 20 16 21 18 22 17 23 20 24 21 25 28 26 22 27
REMARK SMILES IDX 27 28 23 29 26 30 24 31 25 32
REMARK H PARENT 2 9 2 10 1 12 1 13
ROOT
ATOM      1  C   UNL     1      43.468 132.161  21.419  1.00  0.00     0.214 C 
ATOM      2  C   UNL     1      42.979 132.120  22.898  1.00  0.00     0.068 C 
ATOM      3  C   UNL     1      42.740 130.693  23.407  1.00  0.00     0.009 C 
ATOM      4  C   UNL     1      43.963 129.797  23.199  1.00  0.00     0.039 C 
ATOM      5  C   UNL     1      44.419 129.807  21.733  1.00  0.00     0.182 C 
ATOM      6  F   UNL     1      45.497 128.951  21.585  1.00  0.00    -0.246 F 
ATOM      7  C   UNL     1      44.743 131.247  21.209  1.00  0.00     0.073 C 
ENDROOT
BRANCH   1   8
ATOM      8  N   UNL     1      42.361 131.830  20.485  1.00  0.00    -0.268 N 
ATOM      9  H   UNL     1      41.753 131.076  20.876  1.00  0.00     0.370 HD
ATOM     10  H   UNL     1      42.724 131.513  19.557  1.00  0.00     0.370 HD
BRANCH   8  11
ATOM     11  N   UNL     1      41.564 132.973  20.264  1.00  0.00    -0.183 NA
ATOM     12  H   UNL     1      41.497 133.139  19.232  1.00  0.00     0.183 HD
ATOM     13  H   UNL     1      40.592 132.760  20.591  1.00  0.00     0.183 HD
ENDBRANCH   8  11
ENDBRANCH   1   8
BRANCH   7  14
ATOM     14  C   UNL     1      45.966 131.892  21.959  1.00  0.00     0.028 C 
BRANCH  14  15
ATOM     15  C   UNL     1      46.667 133.056  21.222  1.00  0.00     0.082 C 
BRANCH  15  16
ATOM     16  C   UNL     1      47.643 133.792  22.111  1.00  0.00     0.162 C 
ATOM     17  O   UNL     1      47.941 133.306  23.237  1.00  0.00    -0.294 OA
BRANCH  16  18
ATOM     18  C   UNL     1      48.306 135.045  21.665  1.00  0.00     0.017 A 
ATOM     19  C   UNL     1      49.585 135.406  22.135  1.00  0.00     0.012 A 
ATOM     20  C   UNL     1      47.647 135.905  20.765  1.00  0.00     0.012 A 
ATOM     21  C   UNL     1      50.190 136.590  21.704  1.00  0.00     0.001 A 
ATOM     22  C   UNL     1      48.258 137.087  20.336  1.00  0.00     0.001 A 
ATOM     23  C   UNL     1      49.528 137.429  20.804  1.00  0.00     0.000 A 
ENDBRANCH  16  18
ENDBRANCH  15  16
ENDBRANCH  14  15
ENDBRANCH   7  14
BRANCH   7  24
ATOM     24  C   UNL     1      45.090 131.207  19.725  1.00  0.00    -0.067 A 
ATOM     25  N   UNL     1      45.792 130.181  19.170  1.00  0.00    -0.439 NA
ATOM     26  N   UNL     1      44.743 132.185  18.843  1.00  0.00    -0.439 NA
ATOM     27  C   UNL     1      45.875 130.543  17.883  1.00  0.00    -0.038 A 
ATOM     28  C   UNL     1      45.251 131.736  17.688  1.00  0.00    -0.038 A 
ATOM     29  C   UNL     1      46.492 129.853  16.842  1.00  0.00     0.004 A 
ATOM     30  C   UNL     1      45.189 132.340  16.435  1.00  0.00     0.004 A 
ATOM     31  C   UNL     1      46.451 130.434  15.560  1.00  0.00     0.000 A 
ATOM     32  C   UNL     1      45.802 131.674  15.357  1.00  0.00     0.000 A 
ENDBRANCH   7  24
TORSDOF 7
ENDMDL
MODEL 6
REMARK VINA RESULT:      -4.7      0.439      1.496
REMARK SMILES N[NH2+][C@H]1CCC[C@H](F)[C@@]1(CCC(=O)c1ccccc1)c1nc2ccccc2[n-]1
REMARK SMILES IDX 3 1 4 2 5 3 6 4 7 5 8 6 9 7 2 8 1 11 10 14 11 15 12 16 13 17
REMARK SMILES IDX 14 18 15 19 19 20 16 21 18 22 17 23 20 24 21 25 28 26 22 27
REMARK SMILES IDX 27 28 23 29 26 30 24 31 25 32
REMARK H PARENT 2 9 2 10 1 12 1 13
ROOT
ATOM      1  C   UNL     1      43.472 132.277  19.999  1.00  0.00     0.214 C 
ATOM      2  C   UNL     1      42.966 132.436  21.464  1.00  0.00     0.068 C 
ATOM      3  C   UNL     1      43.041 131.130  22.265  1.00  0.00     0.009 C 
ATOM      4  C   UNL     1      44.439 130.510  22.222  1.00  0.00     0.039 C 
ATOM      5  C   UNL     1      44.919 130.316  20.776  1.00  0.00     0.182 C 
ATOM      6  F   UNL     1      46.165 129.714  20.786  1.00  0.00    -0.246 F 
ATOM      7  C   UNL     1      44.924 131.650  19.956  1.00  0.00     0.073 C 
ENDROOT
BRANCH   1   8
ATOM      8  N   UNL     1      42.492 131.518  19.179  1.00  0.00    -0.268 N 
ATOM      9  H   UNL     1      42.323 130.568  19.580  1.00  0.00     0.370 HD
ATOM     10  H   UNL     1      42.822 131.406  18.193  1.00  0.00     0.370 HD
BRANCH   8  11
ATOM     11  N   UNL     1      41.262 132.209  19.143  1.00  0.00    -0.183 NA
ATOM     12  H   UNL     1      41.172 132.681  18.211  1.00  0.00     0.183 HD
ATOM     13  H   UNL     1      40.491 131.503  19.191  1.00  0.00     0.183 HD
ENDBRANCH   8  11
ENDBRANCH   1   8
BRANCH   7  14
ATOM     14  C   UNL     1      45.952 132.696  20.527  1.00  0.00     0.028 C 
BRANCH  14  15
ATOM     15  C   UNL     1      46.498 132.396  21.942  1.00  0.00     0.082 C 
BRANCH  15  16
ATOM     16  C   UNL     1      46.794 133.656  22.721  1.00  0.00     0.162 C 
ATOM     17  O   UNL     1      46.009 134.009  23.644  1.00  0.00    -0.294 OA
BRANCH  16  18
ATOM     18  C   UNL     1      48.018 134.458  22.466  1.00  0.00     0.017 A 
ATOM     19  C   UNL     1      48.023 135.513  21.532  1.00  0.00     0.012 A 
ATOM     20  C   UNL     1      49.209 134.158  23.156  1.00  0.00     0.012 A 
ATOM     21  C   UNL     1      49.186 136.255  21.306  1.00  0.00     0.001 A 
ATOM     22  C   UNL     1      50.369 134.904  22.926  1.00  0.00     0.001 A 
ATOM     23  C   UNL     1      50.358 135.952  22.004  1.00  0.00     0.000 A 
ENDBRANCH  16  18
ENDBRANCH  15  16
ENDBRANCH  14  15
ENDBRANCH   7  14
BRANCH   7  24
ATOM     24  C   UNL     1      45.310 131.382  18.506  1.00  0.00    -0.067 A 
ATOM     25  N   UNL     1      44.968 132.225  17.493  1.00  0.00    -0.439 NA
ATOM     26  N   UNL     1      46.012 130.286  18.103  1.00  0.00    -0.439 NA
ATOM     27  C   UNL     1      45.489 131.621  16.417  1.00  0.00    -0.038 A 
ATOM     28  C   UNL     1      46.110 130.467  16.780  1.00  0.00    -0.038 A 
ATOM     29  C   UNL     1      45.442 132.051  15.093  1.00  0.00     0.004 A 
ATOM     30  C   UNL     1      46.738 129.643  15.849  1.00  0.00     0.004 A 
ATOM     31  C   UNL     1      46.066 131.243  14.123  1.00  0.00     0.000 A 
ATOM     32  C   UNL     1      46.712 130.043  14.500  1.00  0.00     0.000 A 
ENDBRANCH   7  24
TORSDOF 7
ENDMDL
MODEL 7
REMARK VINA RESULT:      -4.6      3.185      6.132
REMARK SMILES N[NH2+][C@H]1CCC[C@H](F)[C@@]1(CCC(=O)c1ccccc1)c1nc2ccccc2[n-]1
REMARK SMILES IDX 3 1 4 2 5 3 6 4 7 5 8 6 9 7 2 8 1 11 10 14 11 15 12 16 13 17
REMARK SMILES IDX 14 18 15 19 19 20 16 21 18 22 17 23 20 24 21 25 28 26 22 27
REMARK SMILES IDX 27 28 23 29 26 30 24 31 25 32
REMARK H PARENT 2 9 2 10 1 12 1 13
ROOT
ATOM      1  C   UNL     1      45.534 131.633  21.696  1.00  0.00     0.214 C 
ATOM      2  C   UNL     1      45.020 131.770  23.160  1.00  0.00     0.068 C 
ATOM      3  C   UNL     1      43.682 132.515  23.255  1.00  0.00     0.009 C 
ATOM      4  C   UNL     1      42.617 131.899  22.345  1.00  0.00     0.039 C 
ATOM      5  C   UNL     1      43.111 131.804  20.894  1.00  0.00     0.182 C 
ATOM      6  F   UNL     1      42.101 131.283  20.102  1.00  0.00    -0.246 F 
ATOM      7  C   UNL     1      44.438 130.982  20.759  1.00  0.00     0.073 C 
ENDROOT
BRANCH   1   8
ATOM      8  N   UNL     1      46.028 132.938  21.184  1.00  0.00    -0.268 N 
ATOM      9  H   UNL     1      45.366 133.710  21.421  1.00  0.00     0.370 HD
ATOM     10  H   UNL     1      46.156 132.920  20.146  1.00  0.00     0.370 HD
BRANCH   8  11
ATOM     11  N   UNL     1      47.281 133.235  21.763  1.00  0.00    -0.183 NA
ATOM     12  H   UNL     1      47.348 134.272  21.901  1.00  0.00     0.183 HD
ATOM     13  H   UNL     1      47.307 132.809  22.718  1.00  0.00     0.183 HD
ENDBRANCH   8  11
ENDBRANCH   1   8
BRANCH   7  14
ATOM     14  C   UNL     1      44.248 129.473  21.164  1.00  0.00     0.028 C 
BRANCH  14  15
ATOM     15  C   UNL     1      45.304 128.902  22.137  1.00  0.00     0.082 C 
BRANCH  15  16
ATOM     16  C   UNL     1      44.674 128.225  23.333  1.00  0.00     0.162 C 
ATOM     17  O   UNL     1      44.769 128.766  24.469  1.00  0.00    -0.294 OA
BRANCH  16  18
ATOM     18  C   UNL     1      43.895 126.968  23.192  1.00  0.00     0.017 A 
ATOM     19  C   UNL     1      44.390 125.876  22.451  1.00  0.00     0.012 A 
ATOM     20  C   UNL     1      42.627 126.857  23.796  1.00  0.00     0.012 A 
ATOM     21  C   UNL     1      43.640 124.703  22.331  1.00  0.00     0.001 A 
ATOM     22  C   UNL     1      41.882 125.680  23.672  1.00  0.00     0.001 A 
ATOM     23  C   UNL     1      42.388 124.604  22.942  1.00  0.00     0.000 A 
ENDBRANCH  16  18
ENDBRANCH  15  16
ENDBRANCH  14  15
ENDBRANCH   7  14
BRANCH   7  24
ATOM     24  C   UNL     1      44.933 131.006  19.318  1.00  0.00    -0.067 A 
ATOM     25  N   UNL     1      45.639 129.976  18.774  1.00  0.00    -0.439 NA
ATOM     26  N   UNL     1      44.724 132.048  18.466  1.00  0.00    -0.439 NA
ATOM     27  C   UNL     1      45.870 130.404  17.526  1.00  0.00    -0.038 A 
ATOM     28  C   UNL     1      45.326 131.636  17.342  1.00  0.00    -0.038 A 
ATOM     29  C   UNL     1      46.558 129.740  16.512  1.00  0.00     0.004 A 
ATOM     30  C   UNL     1      45.422 132.312  16.128  1.00  0.00     0.004 A 
ATOM     31  C   UNL     1      46.676 130.393  15.270  1.00  0.00     0.000 A 
ATOM     32  C   UNL     1      46.110 131.674  15.078  1.00  0.00     0.000 A 
ENDBRANCH   7  24
TORSDOF 7
ENDMDL
MODEL 8
REMARK VINA RESULT:      -4.4      3.462      6.175
REMARK SMILES N[NH2+][C@H]1CCC[C@H](F)[C@@]1(CCC(=O)c1ccccc1)c1nc2ccccc2[n-]1
REMARK SMILES IDX 3 1 4 2 5 3 6 4 7 5 8 6 9 7 2 8 1 11 10 14 11 15 12 16 13 17
REMARK SMILES IDX 14 18 15 19 19 20 16 21 18 22 17 23 20 24 21 25 28 26 22 27
REMARK SMILES IDX 27 28 23 29 26 30 24 31 25 32
REMARK H PARENT 2 9 2 10 1 12 1 13
ROOT
ATOM      1  C   UNL     1      45.496 131.592  21.721  1.00  0.00     0.214 C 
ATOM      2  C   UNL     1      44.972 131.726  23.182  1.00  0.00     0.068 C 
ATOM      3  C   UNL     1      43.642 132.486  23.271  1.00  0.00     0.009 C 
ATOM      4  C   UNL     1      42.578 131.888  22.348  1.00  0.00     0.039 C 
ATOM      5  C   UNL     1      43.082 131.796  20.901  1.00  0.00     0.182 C 
ATOM      6  F   UNL     1      42.073 131.292  20.098  1.00  0.00    -0.246 F 
ATOM      7  C   UNL     1      44.400 130.959  20.771  1.00  0.00     0.073 C 
ENDROOT
BRANCH   1   8
ATOM      8  N   UNL     1      46.010 132.894  21.222  1.00  0.00    -0.268 N 
ATOM      9  H   UNL     1      45.428 133.687  21.573  1.00  0.00     0.370 HD
ATOM     10  H   UNL     1      46.018 132.928  20.176  1.00  0.00     0.370 HD
BRANCH   8  11
ATOM     11  N   UNL     1      47.336 133.086  21.665  1.00  0.00    -0.183 NA
ATOM     12  H   UNL     1      47.310 133.538  22.610  1.00  0.00     0.183 HD
ATOM     13  H   UNL     1      47.774 132.145  21.801  1.00  0.00     0.183 HD
ENDBRANCH   8  11
ENDBRANCH   1   8
BRANCH   7  14
ATOM     14  C   UNL     1      44.189 129.451  21.165  1.00  0.00     0.028 C 
BRANCH  14  15
ATOM     15  C   UNL     1      45.279 128.835  22.072  1.00  0.00     0.082 C 
BRANCH  15  16
ATOM     16  C   UNL     1      44.723 127.779  22.999  1.00  0.00     0.162 C 
ATOM     17  O   UNL     1      43.991 128.129  23.966  1.00  0.00    -0.294 OA
BRANCH  16  18
ATOM     18  C   UNL     1      44.971 126.333  22.766  1.00  0.00     0.017 A 
ATOM     19  C   UNL     1      43.908 125.413  22.667  1.00  0.00     0.012 A 
ATOM     20  C   UNL     1      46.292 125.857  22.652  1.00  0.00     0.012 A 
ATOM     21  C   UNL     1      44.163 124.056  22.448  1.00  0.00     0.001 A 
ATOM     22  C   UNL     1      46.540 124.498  22.432  1.00  0.00     0.001 A 
ATOM     23  C   UNL     1      45.478 123.600  22.328  1.00  0.00     0.000 A 
ENDBRANCH  16  18
ENDBRANCH  15  16
ENDBRANCH  14  15
ENDBRANCH   7  14
BRANCH   7  24
ATOM     24  C   UNL     1      44.907 130.986  19.334  1.00  0.00    -0.067 A 
ATOM     25  N   UNL     1      44.590 131.989  18.470  1.00  0.00    -0.439 NA
ATOM     26  N   UNL     1      45.702 130.019  18.797  1.00  0.00    -0.439 NA
ATOM     27  C   UNL     1      45.225 131.624  17.348  1.00  0.00    -0.038 A 
ATOM     28  C   UNL     1      45.886 130.451  17.542  1.00  0.00    -0.038 A 
ATOM     29  C   UNL     1      45.249 132.292  16.126  1.00  0.00     0.004 A 
ATOM     30  C   UNL     1      46.630 129.847  16.532  1.00  0.00     0.004 A 
ATOM     31  C   UNL     1      45.991 131.712  15.080  1.00  0.00     0.000 A 
ATOM     32  C   UNL     1      46.679 130.493  15.282  1.00  0.00     0.000 A 
ENDBRANCH   7  24
TORSDOF 7
ENDMDL
MODEL 9
REMARK VINA RESULT:      -4.3      0.831      1.248
REMARK SMILES N[NH2+][C@H]1CCC[C@H](F)[C@@]1(CCC(=O)c1ccccc1)c1nc2ccccc2[n-]1
REMARK SMILES IDX 3 1 4 2 5 3 6 4 7 5 8 6 9 7 2 8 1 11 10 14 11 15 12 16 13 17
REMARK SMILES IDX 14 18 15 19 19 20 16 21 18 22 17 23 20 24 21 25 28 26 22 27
REMARK SMILES IDX 27 28 23 29 26 30 24 31 25 32
REMARK H PARENT 2 9 2 10 1 12 1 13
ROOT
ATOM      1  C   UNL     1      43.069 132.215  19.971  1.00  0.00     0.214 C 
ATOM      2  C   UNL     1      42.600 132.439  21.440  1.00  0.00     0.068 C 
ATOM      3  C   UNL     1      42.897 131.240  22.350  1.00  0.00     0.009 C 
ATOM      4  C   UNL     1      44.369 130.826  22.290  1.00  0.00     0.039 C 
ATOM      5  C   UNL     1      44.817 130.565  20.845  1.00  0.00     0.182 C 
ATOM      6  F   UNL     1      46.138 130.152  20.845  1.00  0.00    -0.246 F 
ATOM      7  C   UNL     1      44.595 131.802  19.909  1.00  0.00     0.073 C 
ENDROOT
BRANCH   1   8
ATOM      8  N   UNL     1      42.181 131.248  19.274  1.00  0.00    -0.268 N 
ATOM      9  H   UNL     1      41.489 130.829  19.935  1.00  0.00     0.370 HD
ATOM     10  H   UNL     1      42.728 130.473  18.834  1.00  0.00     0.370 HD
BRANCH   8  11
ATOM     11  N   UNL     1      41.471 131.905  18.246  1.00  0.00    -0.183 NA
ATOM     12  H   UNL     1      41.916 132.839  18.078  1.00  0.00     0.183 HD
ATOM     13  H   UNL     1      41.595 131.357  17.363  1.00  0.00     0.183 HD
ENDBRANCH   8  11
ENDBRANCH   1   8
BRANCH   7  14
ATOM     14  C   UNL     1      45.478 133.034  20.332  1.00  0.00     0.028 C 
BRANCH  14  15
ATOM     15  C   UNL     1      46.228 132.892  21.675  1.00  0.00     0.082 C 
BRANCH  15  16
ATOM     16  C   UNL     1      47.729 132.879  21.495  1.00  0.00     0.162 C 
ATOM     17  O   UNL     1      48.262 131.951  20.827  1.00  0.00    -0.294 OA
BRANCH  16  18
ATOM     18  C   UNL     1      48.585 133.966  22.036  1.00  0.00     0.017 A 
ATOM     19  C   UNL     1      48.729 135.193  21.358  1.00  0.00     0.012 A 
ATOM     20  C   UNL     1      49.282 133.774  23.245  1.00  0.00     0.012 A 
ATOM     21  C   UNL     1      49.540 136.203  21.885  1.00  0.00     0.001 A 
ATOM     22  C   UNL     1      50.091 134.788  23.767  1.00  0.00     0.001 A 
ATOM     23  C   UNL     1      50.219 136.001  23.089  1.00  0.00     0.000 A 
ENDBRANCH  16  18
ENDBRANCH  15  16
ENDBRANCH  14  15
ENDBRANCH   7  14
BRANCH   7  24
ATOM     24  C   UNL     1      44.961 131.453  18.472  1.00  0.00    -0.067 A 
ATOM     25  N   UNL     1      45.833 130.454  18.165  1.00  0.00    -0.439 NA
ATOM     26  N   UNL     1      44.462 132.108  17.386  1.00  0.00    -0.439 NA
ATOM     27  C   UNL     1      45.868 130.493  16.826  1.00  0.00    -0.038 A 
ATOM     28  C   UNL     1      45.052 131.477  16.363  1.00  0.00    -0.038 A 
ATOM     29  C   UNL     1      46.606 129.679  15.969  1.00  0.00     0.004 A 
ATOM     30  C   UNL     1      44.904 131.733  15.002  1.00  0.00     0.004 A 
ATOM     31  C   UNL     1      46.481 129.908  14.585  1.00  0.00     0.000 A 
ATOM     32  C   UNL     1      45.633 130.931  14.103  1.00  0.00     0.000 A 
ENDBRANCH   7  24
TORSDOF 7
ENDMDL


