MODEL 1
REMARK VINA RESULT:      -4.4      0.000      0.000
REMARK SMILES N[NH2+][C@@H]1CCC[C@H]2OC=C[C@@]12c1nc2ccccc2[nH]1
REMARK SMILES IDX 3 1 4 2 5 3 6 4 7 5 8 6 9 7 10 8 11 9 2 10 1 13 12 16 13 17
REMARK SMILES IDX 20 18 14 19 19 20 15 21 18 22 16 23 17 24
REMARK H PARENT 2 11 2 12 1 14 1 15 20 25
ROOT
ATOM      1  C   UNL     1      44.031 129.491  23.423  1.00  0.00     0.223 C 
ATOM      2  C   UNL     1      42.740 128.663  23.198  1.00  0.00     0.068 C 
ATOM      3  C   UNL     1      41.466 129.278  23.816  1.00  0.00     0.010 C 
ATOM      4  C   UNL     1      41.738 130.546  24.624  1.00  0.00     0.047 C 
ATOM      5  C   UNL     1      42.494 131.578  23.779  1.00  0.00     0.196 C 
ATOM      6  O   UNL     1      42.947 132.624  24.624  1.00  0.00    -0.497 OA
ATOM      7  C   UNL     1      44.317 132.749  24.572  1.00  0.00     0.184 C 
ATOM      8  C   UNL     1      44.852 131.876  23.748  1.00  0.00     0.036 C 
ATOM      9  C   UNL     1      43.796 131.016  23.099  1.00  0.00     0.139 C 
ENDROOT
BRANCH   1  10
ATOM     10  N   UNL     1      45.139 128.876  22.654  1.00  0.00    -0.268 N 
ATOM     11  H   UNL     1      45.909 129.564  22.482  1.00  0.00     0.370 HD
ATOM     12  H   UNL     1      44.788 128.546  21.722  1.00  0.00     0.370 HD
BRANCH  10  13
ATOM     13  N   UNL     1      45.662 127.763  23.344  1.00  0.00    -0.183 NA
ATOM     14  H   UNL     1      46.205 127.176  22.669  1.00  0.00     0.183 HD
ATOM     15  H   UNL     1      46.350 128.114  24.051  1.00  0.00     0.183 HD
ENDBRANCH  10  13
ENDBRANCH   1  10
BRANCH   9  16
ATOM     16  C   UNL     1      43.777 131.278  21.600  1.00  0.00     0.127 A 
ATOM     17  N   UNL     1      44.870 131.112  20.802  1.00  0.00    -0.232 NA
ATOM     18  N   UNL     1      42.654 131.604  20.907  1.00  0.00    -0.341 N 
ATOM     19  C   UNL     1      44.390 131.370  19.573  1.00  0.00     0.089 A 
ATOM     20  C   UNL     1      43.063 131.663  19.634  1.00  0.00     0.066 A 
ATOM     21  C   UNL     1      45.083 131.344  18.366  1.00  0.00     0.030 A 
ATOM     22  C   UNL     1      42.313 131.955  18.497  1.00  0.00     0.028 A 
ATOM     23  C   UNL     1      44.361 131.638  17.192  1.00  0.00     0.002 A 
ATOM     24  C   UNL     1      42.981 131.942  17.258  1.00  0.00     0.002 A 
ATOM     25  H   UNL     1      41.689 131.764  21.270  1.00  0.00     0.168 HD
ENDBRANCH   9  16
TORSDOF 3
ENDMDL
MODEL 2
REMARK VINA RESULT:      -4.2      0.429      1.375
REMARK SMILES N[NH2+][C@@H]1CCC[C@H]2OC=C[C@@]12c1nc2ccccc2[nH]1
REMARK SMILES IDX 3 1 4 2 5 3 6 4 7 5 8 6 9 7 10 8 11 9 2 10 1 13 12 16 13 17
REMARK SMILES IDX 20 18 14 19 19 20 15 21 18 22 16 23 17 24
REMARK H PARENT 2 11 2 12 1 14 1 15 20 25
ROOT
ATOM      1  C   UNL     1      44.221 129.178  23.502  1.00  0.00     0.223 C 
ATOM      2  C   UNL     1      43.030 128.219  23.248  1.00  0.00     0.068 C 
ATOM      3  C   UNL     1      41.678 128.709  23.810  1.00  0.00     0.010 C 
ATOM      4  C   UNL     1      41.790 130.008  24.604  1.00  0.00     0.047 C 
ATOM      5  C   UNL     1      42.466 131.101  23.767  1.00  0.00     0.196 C 
ATOM      6  O   UNL     1      42.779 132.200  24.609  1.00  0.00    -0.497 OA
ATOM      7  C   UNL     1      44.130 132.465  24.601  1.00  0.00     0.184 C 
ATOM      8  C   UNL     1      44.781 131.640  23.813  1.00  0.00     0.036 C 
ATOM      9  C   UNL     1      43.843 130.666  23.143  1.00  0.00     0.139 C 
ENDROOT
BRANCH   1  10
ATOM     10  N   UNL     1      45.413 128.670  22.783  1.00  0.00    -0.268 N 
ATOM     11  H   UNL     1      46.291 128.861  23.320  1.00  0.00     0.370 HD
ATOM     12  H   UNL     1      45.497 129.142  21.850  1.00  0.00     0.370 HD
BRANCH  10  13
ATOM     13  N   UNL     1      45.302 127.281  22.563  1.00  0.00    -0.183 NA
ATOM     14  H   UNL     1      45.755 127.051  21.647  1.00  0.00     0.183 HD
ATOM     15  H   UNL     1      45.860 126.790  23.300  1.00  0.00     0.183 HD
ENDBRANCH  10  13
ENDBRANCH   1  10
BRANCH   9  16
ATOM     16  C   UNL     1      43.851 130.903  21.640  1.00  0.00     0.127 A 
ATOM     17  N   UNL     1      42.743 131.283  20.942  1.00  0.00    -0.232 NA
ATOM     18  N   UNL     1      44.974 130.856  20.876  1.00  0.00    -0.341 N 
ATOM     19  C   UNL     1      43.214 131.454  19.694  1.00  0.00     0.089 A 
ATOM     20  C   UNL     1      44.551 131.199  19.654  1.00  0.00     0.066 A 
ATOM     21  C   UNL     1      42.506 131.847  18.562  1.00  0.00     0.030 A 
ATOM     22  C   UNL     1      45.295 131.317  18.481  1.00  0.00     0.028 A 
ATOM     23  C   UNL     1      43.221 131.973  17.354  1.00  0.00     0.002 A 
ATOM     24  C   UNL     1      44.610 131.709  17.315  1.00  0.00     0.002 A 
ATOM     25  H   UNL     1      45.949 130.619  21.164  1.00  0.00     0.168 HD
ENDBRANCH   9  16
TORSDOF 3
ENDMDL
MODEL 3
REMARK VINA RESULT:      -4.0      2.777      3.791
REMARK SMILES N[NH2+][C@@H]1CCC[C@H]2OC=C[C@@]12c1nc2ccccc2[nH]1
REMARK SMILES IDX 3 1 4 2 5 3 6 4 7 5 8 6 9 7 10 8 11 9 2 10 1 13 12 16 13 17
REMARK SMILES IDX 20 18 14 19 19 20 15 21 18 22 16 23 17 24
REMARK H PARENT 2 11 2 12 1 14 1 15 20 25
ROOT
ATOM      1  C   UNL     1      45.156 132.042  21.090  1.00  0.00     0.223 C 
ATOM      2  C   UNL     1      45.594 130.630  21.556  1.00  0.00     0.068 C 
ATOM      3  C   UNL     1      44.431 129.691  21.943  1.00  0.00     0.010 C 
ATOM      4  C   UNL     1      43.064 130.369  21.890  1.00  0.00     0.047 C 
ATOM      5  C   UNL     1      42.824 131.004  20.515  1.00  0.00     0.196 C 
ATOM      6  O   UNL     1      41.673 131.830  20.583  1.00  0.00    -0.497 OA
ATOM      7  C   UNL     1      41.974 133.132  20.252  1.00  0.00     0.184 C 
ATOM      8  C   UNL     1      43.245 133.274  19.950  1.00  0.00     0.036 C 
ATOM      9  C   UNL     1      43.981 131.960  20.043  1.00  0.00     0.139 C 
ENDROOT
BRANCH   1  10
ATOM     10  N   UNL     1      46.345 132.781  20.603  1.00  0.00    -0.268 N 
ATOM     11  H   UNL     1      46.068 133.640  20.074  1.00  0.00     0.370 HD
ATOM     12  H   UNL     1      46.906 132.172  19.959  1.00  0.00     0.370 HD
BRANCH  10  13
ATOM     13  N   UNL     1      47.172 133.153  21.683  1.00  0.00    -0.183 NA
ATOM     14  H   UNL     1      47.234 132.348  22.350  1.00  0.00     0.183 HD
ATOM     15  H   UNL     1      48.139 133.307  21.313  1.00  0.00     0.183 HD
ENDBRANCH  10  13
ENDBRANCH   1  10
BRANCH   9  16
ATOM     16  C   UNL     1      44.481 131.558  18.663  1.00  0.00     0.127 A 
ATOM     17  N   UNL     1      45.518 130.695  18.470  1.00  0.00    -0.232 NA
ATOM     18  N   UNL     1      43.883 131.941  17.504  1.00  0.00    -0.341 N 
ATOM     19  C   UNL     1      45.562 130.566  17.133  1.00  0.00     0.089 A 
ATOM     20  C   UNL     1      44.582 131.311  16.553  1.00  0.00     0.066 A 
ATOM     21  C   UNL     1      46.440 129.791  16.380  1.00  0.00     0.030 A 
ATOM     22  C   UNL     1      44.393 131.346  15.173  1.00  0.00     0.028 A 
ATOM     23  C   UNL     1      46.285 129.803  14.979  1.00  0.00     0.002 A 
ATOM     24  C   UNL     1      45.265 130.577  14.379  1.00  0.00     0.002 A 
ATOM     25  H   UNL     1      43.061 132.572  17.373  1.00  0.00     0.168 HD
ENDBRANCH   9  16
TORSDOF 3
ENDMDL
MODEL 4
REMARK VINA RESULT:      -3.5      2.744      3.955
REMARK SMILES N[NH2+][C@@H]1CCC[C@H]2OC=C[C@@]12c1nc2ccccc2[nH]1
REMARK SMILES IDX 3 1 4 2 5 3 6 4 7 5 8 6 9 7 10 8 11 9 2 10 1 13 12 16 13 17
REMARK SMILES IDX 20 18 14 19 19 20 15 21 18 22 16 23 17 24
REMARK H PARENT 2 11 2 12 1 14 1 15 20 25
ROOT
ATOM      1  C   UNL     1      45.102 132.053  21.066  1.00  0.00     0.223 C 
ATOM      2  C   UNL     1      45.526 130.660  21.598  1.00  0.00     0.068 C 
ATOM      3  C   UNL     1      44.356 129.759  22.048  1.00  0.00     0.010 C 
ATOM      4  C   UNL     1      42.998 130.454  21.977  1.00  0.00     0.047 C 
ATOM      5  C   UNL     1      42.748 131.021  20.573  1.00  0.00     0.196 C 
ATOM      6  O   UNL     1      41.610 131.867  20.613  1.00  0.00    -0.497 OA
ATOM      7  C   UNL     1      41.925 133.145  20.211  1.00  0.00     0.184 C 
ATOM      8  C   UNL     1      43.194 133.252  19.887  1.00  0.00     0.036 C 
ATOM      9  C   UNL     1      43.912 131.934  20.038  1.00  0.00     0.139 C 
ENDROOT
BRANCH   1  10
ATOM     10  N   UNL     1      46.295 132.748  20.526  1.00  0.00    -0.268 N 
ATOM     11  H   UNL     1      46.030 133.638  20.044  1.00  0.00     0.370 HD
ATOM     12  H   UNL     1      46.781 132.135  19.828  1.00  0.00     0.370 HD
BRANCH  10  13
ATOM     13  N   UNL     1      47.207 133.040  21.562  1.00  0.00    -0.183 NA
ATOM     14  H   UNL     1      46.924 132.506  22.416  1.00  0.00     0.183 HD
ATOM     15  H   UNL     1      48.145 132.672  21.280  1.00  0.00     0.183 HD
ENDBRANCH  10  13
ENDBRANCH   1  10
BRANCH   9  16
ATOM     16  C   UNL     1      44.388 131.455  18.675  1.00  0.00     0.127 A 
ATOM     17  N   UNL     1      43.810 131.849  17.505  1.00  0.00    -0.232 NA
ATOM     18  N   UNL     1      45.486 130.675  18.492  1.00  0.00    -0.341 N 
ATOM     19  C   UNL     1      44.581 131.264  16.573  1.00  0.00     0.089 A 
ATOM     20  C   UNL     1      45.587 130.561  17.163  1.00  0.00     0.066 A 
ATOM     21  C   UNL     1      44.446 131.333  15.189  1.00  0.00     0.030 A 
ATOM     22  C   UNL     1      46.543 129.869  16.422  1.00  0.00     0.028 A 
ATOM     23  C   UNL     1      45.391 130.642  14.404  1.00  0.00     0.002 A 
ATOM     24  C   UNL     1      46.435 129.913  15.019  1.00  0.00     0.002 A 
ATOM     25  H   UNL     1      46.119 130.262  19.212  1.00  0.00     0.168 HD
ENDBRANCH   9  16
TORSDOF 3
ENDMDL
MODEL 5
REMARK VINA RESULT:      -3.4      8.258     10.151
REMARK SMILES N[NH2+][C@@H]1CCC[C@H]2OC=C[C@@]12c1nc2ccccc2[nH]1
REMARK SMILES IDX 3 1 4 2 5 3 6 4 7 5 8 6 9 7 10 8 11 9 2 10 1 13 12 16 13 17
REMARK SMILES IDX 20 18 14 19 19 20 15 21 18 22 16 23 17 24
REMARK H PARENT 2 11 2 12 1 14 1 15 20 25
ROOT
ATOM      1  C   UNL     1      52.178 124.586  21.346  1.00  0.00     0.223 C 
ATOM      2  C   UNL     1      52.202 123.036  21.316  1.00  0.00     0.068 C 
ATOM      3  C   UNL     1      52.885 122.379  22.535  1.00  0.00     0.010 C 
ATOM      4  C   UNL     1      53.502 123.390  23.498  1.00  0.00     0.047 C 
ATOM      5  C   UNL     1      52.461 124.425  23.943  1.00  0.00     0.196 C 
ATOM      6  O   UNL     1      53.121 125.480  24.624  1.00  0.00    -0.497 OA
ATOM      7  C   UNL     1      52.898 126.690  24.006  1.00  0.00     0.184 C 
ATOM      8  C   UNL     1      52.126 126.559  22.951  1.00  0.00     0.036 C 
ATOM      9  C   UNL     1      51.707 125.123  22.752  1.00  0.00     0.139 C 
ENDROOT
BRANCH   1  10
ATOM     10  N   UNL     1      51.364 125.079  20.210  1.00  0.00    -0.268 N 
ATOM     11  H   UNL     1      51.965 125.308  19.384  1.00  0.00     0.370 HD
ATOM     12  H   UNL     1      50.853 125.952  20.488  1.00  0.00     0.370 HD
BRANCH  10  13
ATOM     13  N   UNL     1      50.409 124.114  19.831  1.00  0.00    -0.183 NA
ATOM     14  H   UNL     1      49.832 124.503  19.049  1.00  0.00     0.183 HD
ATOM     15  H   UNL     1      50.920 123.288  19.440  1.00  0.00     0.183 HD
ENDBRANCH  10  13
ENDBRANCH   1  10
BRANCH   9  16
ATOM     16  C   UNL     1      50.200 125.004  22.926  1.00  0.00     0.127 A 
ATOM     17  N   UNL     1      49.310 125.792  22.258  1.00  0.00    -0.232 NA
ATOM     18  N   UNL     1      49.602 124.044  23.680  1.00  0.00    -0.341 N 
ATOM     19  C   UNL     1      48.120 125.299  22.643  1.00  0.00     0.089 A 
ATOM     20  C   UNL     1      48.294 124.251  23.494  1.00  0.00     0.066 A 
ATOM     21  C   UNL     1      46.854 125.732  22.258  1.00  0.00     0.030 A 
ATOM     22  C   UNL     1      47.220 123.545  24.032  1.00  0.00     0.028 A 
ATOM     23  C   UNL     1      45.741 125.046  22.785  1.00  0.00     0.002 A 
ATOM     24  C   UNL     1      45.924 123.958  23.668  1.00  0.00     0.002 A 
ATOM     25  H   UNL     1      50.049 123.305  24.266  1.00  0.00     0.168 HD
ENDBRANCH   9  16
TORSDOF 3
ENDMDL
MODEL 6
REMARK VINA RESULT:      -3.0      2.589      5.271
REMARK SMILES N[NH2+][C@@H]1CCC[C@H]2OC=C[C@@]12c1nc2ccccc2[nH]1
REMARK SMILES IDX 3 1 4 2 5 3 6 4 7 5 8 6 9 7 10 8 11 9 2 10 1 13 12 16 13 17
REMARK SMILES IDX 20 18 14 19 19 20 15 21 18 22 16 23 17 24
REMARK H PARENT 2 11 2 12 1 14 1 15 20 25
ROOT
ATOM      1  C   UNL     1      44.323 132.093  22.289  1.00  0.00     0.223 C 
ATOM      2  C   UNL     1      42.787 132.147  22.487  1.00  0.00     0.068 C 
ATOM      3  C   UNL     1      41.967 132.090  21.180  1.00  0.00     0.010 C 
ATOM      4  C   UNL     1      42.834 132.094  19.923  1.00  0.00     0.047 C 
ATOM      5  C   UNL     1      43.870 130.964  19.972  1.00  0.00     0.196 C 
ATOM      6  O   UNL     1      44.808 131.152  18.925  1.00  0.00    -0.497 OA
ATOM      7  C   UNL     1      46.087 131.275  19.419  1.00  0.00     0.184 C 
ATOM      8  C   UNL     1      46.112 131.179  20.729  1.00  0.00     0.036 C 
ATOM      9  C   UNL     1      44.731 130.945  21.289  1.00  0.00     0.139 C 
ENDROOT
BRANCH   1  10
ATOM     10  N   UNL     1      44.979 131.997  23.615  1.00  0.00    -0.268 N 
ATOM     11  H   UNL     1      45.511 132.869  23.839  1.00  0.00     0.370 HD
ATOM     12  H   UNL     1      45.655 131.195  23.622  1.00  0.00     0.370 HD
BRANCH  10  13
ATOM     13  N   UNL     1      44.021 131.770  24.624  1.00  0.00    -0.183 NA
ATOM     14  H   UNL     1      43.127 131.462  24.174  1.00  0.00     0.183 HD
ATOM     15  H   UNL     1      44.350 130.967  25.210  1.00  0.00     0.183 HD
ENDBRANCH  10  13
ENDBRANCH   1  10
BRANCH   9  16
ATOM     16  C   UNL     1      44.674 129.574  21.948  1.00  0.00     0.127 A 
ATOM     17  N   UNL     1      43.774 129.254  22.921  1.00  0.00    -0.232 NA
ATOM     18  N   UNL     1      45.443 128.522  21.564  1.00  0.00    -0.341 N 
ATOM     19  C   UNL     1      44.024 127.954  23.149  1.00  0.00     0.089 A 
ATOM     20  C   UNL     1      45.023 127.513  22.336  1.00  0.00     0.066 A 
ATOM     21  C   UNL     1      43.387 127.109  24.055  1.00  0.00     0.030 A 
ATOM     22  C   UNL     1      45.471 126.194  22.357  1.00  0.00     0.028 A 
ATOM     23  C   UNL     1      43.814 125.768  24.109  1.00  0.00     0.002 A 
ATOM     24  C   UNL     1      44.852 125.312  23.263  1.00  0.00     0.002 A 
ATOM     25  H   UNL     1      46.186 128.491  20.832  1.00  0.00     0.168 HD
ENDBRANCH   9  16
TORSDOF 3
ENDMDL
MODEL 7
REMARK VINA RESULT:      -3.0      4.978      7.058
REMARK SMILES N[NH2+][C@@H]1CCC[C@H]2OC=C[C@@]12c1nc2ccccc2[nH]1
REMARK SMILES IDX 3 1 4 2 5 3 6 4 7 5 8 6 9 7 10 8 11 9 2 10 1 13 12 16 13 17
REMARK SMILES IDX 20 18 14 19 19 20 15 21 18 22 16 23 17 24
REMARK H PARENT 2 11 2 12 1 14 1 15 20 25
ROOT
ATOM      1  C   UNL     1      45.468 123.442  22.245  1.00  0.00     0.223 C 
ATOM      2  C   UNL     1      44.774 122.663  23.391  1.00  0.00     0.068 C 
ATOM      3  C   UNL     1      45.667 122.396  24.622  1.00  0.00     0.010 C 
ATOM      4  C   UNL     1      47.108 122.867  24.435  1.00  0.00     0.047 C 
ATOM      5  C   UNL     1      47.150 124.347  24.034  1.00  0.00     0.196 C 
ATOM      6  O   UNL     1      48.468 124.678  23.628  1.00  0.00    -0.497 OA
ATOM      7  C   UNL     1      48.488 125.144  22.332  1.00  0.00     0.184 C 
ATOM      8  C   UNL     1      47.282 125.171  21.809  1.00  0.00     0.036 C 
ATOM      9  C   UNL     1      46.244 124.699  22.797  1.00  0.00     0.139 C 
ENDROOT
BRANCH   1  10
ATOM     10  N   UNL     1      44.465 123.765  21.202  1.00  0.00    -0.268 N 
ATOM     11  H   UNL     1      44.638 123.217  20.327  1.00  0.00     0.370 HD
ATOM     12  H   UNL     1      44.516 124.784  20.960  1.00  0.00     0.370 HD
BRANCH  10  13
ATOM     13  N   UNL     1      43.163 123.490  21.668  1.00  0.00    -0.183 NA
ATOM     14  H   UNL     1      43.089 122.465  21.866  1.00  0.00     0.183 HD
ATOM     15  H   UNL     1      43.036 123.979  22.585  1.00  0.00     0.183 HD
ENDBRANCH  10  13
ENDBRANCH   1  10
BRANCH   9  16
ATOM     16  C   UNL     1      45.300 125.845  23.130  1.00  0.00     0.127 A 
ATOM     17  N   UNL     1      45.449 127.102  22.623  1.00  0.00    -0.232 NA
ATOM     18  N   UNL     1      44.174 125.700  23.877  1.00  0.00    -0.341 N 
ATOM     19  C   UNL     1      44.375 127.751  23.103  1.00  0.00     0.089 A 
ATOM     20  C   UNL     1      43.609 126.912  23.853  1.00  0.00     0.066 A 
ATOM     21  C   UNL     1      44.020 129.081  22.894  1.00  0.00     0.030 A 
ATOM     22  C   UNL     1      42.424 127.328  24.457  1.00  0.00     0.028 A 
ATOM     23  C   UNL     1      42.830 129.542  23.492  1.00  0.00     0.002 A 
ATOM     24  C   UNL     1      42.036 128.668  24.270  1.00  0.00     0.002 A 
ATOM     25  H   UNL     1      43.815 124.844  24.355  1.00  0.00     0.168 HD
ENDBRANCH   9  16
TORSDOF 3
ENDMDL
MODEL 8
REMARK VINA RESULT:      -2.8      1.989      5.509
REMARK SMILES N[NH2+][C@@H]1CCC[C@H]2OC=C[C@@]12c1nc2ccccc2[nH]1
REMARK SMILES IDX 3 1 4 2 5 3 6 4 7 5 8 6 9 7 10 8 11 9 2 10 1 13 12 16 13 17
REMARK SMILES IDX 20 18 14 19 19 20 15 21 18 22 16 23 17 24
REMARK H PARENT 2 11 2 12 1 14 1 15 20 25
ROOT
ATOM      1  C   UNL     1      43.190 132.343  20.455  1.00  0.00     0.223 C 
ATOM      2  C   UNL     1      42.596 131.554  19.260  1.00  0.00     0.068 C 
ATOM      3  C   UNL     1      43.643 131.015  18.260  1.00  0.00     0.010 C 
ATOM      4  C   UNL     1      45.070 131.451  18.587  1.00  0.00     0.047 C 
ATOM      5  C   UNL     1      45.439 131.074  20.027  1.00  0.00     0.196 C 
ATOM      6  O   UNL     1      46.658 131.710  20.373  1.00  0.00    -0.497 OA
ATOM      7  C   UNL     1      46.500 132.529  21.468  1.00  0.00     0.184 C 
ATOM      8  C   UNL     1      45.265 132.505  21.916  1.00  0.00     0.036 C 
ATOM      9  C   UNL     1      44.404 131.572  21.102  1.00  0.00     0.139 C 
ENDROOT
BRANCH   1  10
ATOM     10  N   UNL     1      42.103 132.664  21.410  1.00  0.00    -0.268 N 
ATOM     11  H   UNL     1      42.458 133.239  22.209  1.00  0.00     0.370 HD
ATOM     12  H   UNL     1      41.699 131.779  21.803  1.00  0.00     0.370 HD
BRANCH  10  13
ATOM     13  N   UNL     1      41.068 133.367  20.761  1.00  0.00    -0.183 NA
ATOM     14  H   UNL     1      40.912 134.272  21.264  1.00  0.00     0.183 HD
ATOM     15  H   UNL     1      41.397 133.616  19.799  1.00  0.00     0.183 HD
ENDBRANCH  10  13
ENDBRANCH   1  10
BRANCH   9  16
ATOM     16  C   UNL     1      43.938 130.416  21.976  1.00  0.00     0.127 A 
ATOM     17  N   UNL     1      42.679 130.336  22.492  1.00  0.00    -0.232 NA
ATOM     18  N   UNL     1      44.695 129.319  22.240  1.00  0.00    -0.341 N 
ATOM     19  C   UNL     1      42.681 129.144  23.113  1.00  0.00     0.089 A 
ATOM     20  C   UNL     1      43.888 128.533  22.962  1.00  0.00     0.066 A 
ATOM     21  C   UNL     1      41.637 128.546  23.815  1.00  0.00     0.030 A 
ATOM     22  C   UNL     1      44.156 127.274  23.496  1.00  0.00     0.028 A 
ATOM     23  C   UNL     1      41.870 127.274  24.375  1.00  0.00     0.002 A 
ATOM     24  C   UNL     1      43.125 126.642  24.216  1.00  0.00     0.002 A 
ATOM     25  H   UNL     1      45.676 129.118  21.945  1.00  0.00     0.168 HD
ENDBRANCH   9  16
TORSDOF 3
ENDMDL
MODEL 9
REMARK VINA RESULT:      -2.3      1.867      5.094
REMARK SMILES N[NH2+][C@@H]1CCC[C@H]2OC=C[C@@]12c1nc2ccccc2[nH]1
REMARK SMILES IDX 3 1 4 2 5 3 6 4 7 5 8 6 9 7 10 8 11 9 2 10 1 13 12 16 13 17
REMARK SMILES IDX 20 18 14 19 19 20 15 21 18 22 16 23 17 24
REMARK H PARENT 2 11 2 12 1 14 1 15 20 25
ROOT
ATOM      1  C   UNL     1      43.568 131.771  21.279  1.00  0.00     0.223 C 
ATOM      2  C   UNL     1      44.876 131.639  20.458  1.00  0.00     0.068 C 
ATOM      3  C   UNL     1      46.130 132.219  21.148  1.00  0.00     0.010 C 
ATOM      4  C   UNL     1      45.824 132.908  22.476  1.00  0.00     0.047 C 
ATOM      5  C   UNL     1      45.065 131.965  23.417  1.00  0.00     0.196 C 
ATOM      6  O   UNL     1      44.581 132.708  24.524  1.00  0.00    -0.497 OA
ATOM      7  C   UNL     1      43.210 132.624  24.621  1.00  0.00     0.184 C 
ATOM      8  C   UNL     1      42.703 131.873  23.669  1.00  0.00     0.036 C 
ATOM      9  C   UNL     1      43.783 131.317  22.774  1.00  0.00     0.139 C 
ENDROOT
BRANCH   1  10
ATOM     10  N   UNL     1      42.483 131.042  20.580  1.00  0.00    -0.268 N 
ATOM     11  H   UNL     1      41.616 131.000  21.165  1.00  0.00     0.370 HD
ATOM     12  H   UNL     1      42.784 130.057  20.379  1.00  0.00     0.370 HD
BRANCH  10  13
ATOM     13  N   UNL     1      42.180 131.666  19.353  1.00  0.00    -0.183 NA
ATOM     14  H   UNL     1      41.734 130.961  18.720  1.00  0.00     0.183 HD
ATOM     15  H   UNL     1      41.457 132.401  19.532  1.00  0.00     0.183 HD
ENDBRANCH  10  13
ENDBRANCH   1  10
BRANCH   9  16
ATOM     16  C   UNL     1      43.823 129.802  22.905  1.00  0.00     0.127 A 
ATOM     17  N   UNL     1      42.790 129.073  23.416  1.00  0.00    -0.232 NA
ATOM     18  N   UNL     1      44.841 129.032  22.437  1.00  0.00    -0.341 N 
ATOM     19  C   UNL     1      43.212 127.805  23.270  1.00  0.00     0.089 A 
ATOM     20  C   UNL     1      44.440 127.779  22.682  1.00  0.00     0.066 A 
ATOM     21  C   UNL     1      42.543 126.637  23.626  1.00  0.00     0.030 A 
ATOM     22  C   UNL     1      45.103 126.587  22.399  1.00  0.00     0.028 A 
ATOM     23  C   UNL     1      43.183 125.410  23.361  1.00  0.00     0.002 A 
ATOM     24  C   UNL     1      44.457 125.386  22.750  1.00  0.00     0.002 A 
ATOM     25  H   UNL     1      45.730 129.334  21.982  1.00  0.00     0.168 HD
ENDBRANCH   9  16
TORSDOF 3
ENDMDL


