MODEL 1
REMARK VINA RESULT:     -10.2      0.000      0.000
REMARK SMILES Cc1ccc(Nc2cc(F)c(C)cc2N)c(F)[nH+]1
REMARK SMILES IDX 7 1 8 2 9 3 10 4 11 5 12 6 13 7 14 8 6 9 5 11 2 12 3 13
REMARK SMILES IDX 18 14 4 15 16 16 1 17 17 19 15 20
REMARK H PARENT 6 10 18 18 15 21 15 22
ROOT
ATOM      1  C   UNL     1      44.050 131.530  17.998  1.00  0.00     0.065 A 
ATOM      2  C   UNL     1      45.209 131.101  18.658  1.00  0.00     0.067 A 
ATOM      3  C   UNL     1      45.262 131.065  20.052  1.00  0.00     0.128 A 
ATOM      4  F   UNL     1      46.397 130.640  20.663  1.00  0.00    -0.207 F 
ATOM      5  C   UNL     1      44.149 131.459  20.810  1.00  0.00    -0.013 A 
ATOM      6  C   UNL     1      44.212 131.447  22.311  1.00  0.00     0.047 C 
ATOM      7  C   UNL     1      43.002 131.932  20.155  1.00  0.00     0.034 A 
ATOM      8  C   UNL     1      42.944 131.979  18.754  1.00  0.00     0.056 A 
ENDROOT
BRANCH   1   9
ATOM      9  N   UNL     1      44.029 131.526  16.563  1.00  0.00    -0.346 N 
ATOM     10  H   UNL     1      43.233 132.015  16.094  1.00  0.00     0.167 HD
BRANCH   9  11
ATOM     11  C   UNL     1      45.125 131.066  15.748  1.00  0.00     0.144 A 
ATOM     12  C   UNL     1      47.209 130.105  14.159  1.00  0.00     0.179 A 
ATOM     13  C   UNL     1      47.026 131.485  14.300  1.00  0.00     0.076 A 
ATOM     14  N   UNL     1      46.377 129.244  14.813  1.00  0.00    -0.182 N 
ATOM     15  C   UNL     1      45.979 131.964  15.087  1.00  0.00     0.042 A 
ATOM     16  C   UNL     1      45.349 129.689  15.586  1.00  0.00     0.381 A 
ATOM     17  C   UNL     1      48.354 129.578  13.347  1.00  0.00     0.123 C 
ATOM     18  H   UNL     1      46.526 128.213  14.726  1.00  0.00     0.456 HD
ATOM     19  F   UNL     1      44.549 128.790  16.214  1.00  0.00    -0.134 F 
ENDBRANCH   9  11
ENDBRANCH   1   9
BRANCH   8  20
ATOM     20  N   UNL     1      41.780 132.525  18.120  1.00  0.00    -0.397 N 
ATOM     21  H   UNL     1      41.648 132.487  17.086  1.00  0.00     0.156 HD
ATOM     22  H   UNL     1      41.059 133.033  18.680  1.00  0.00     0.156 HD
ENDBRANCH   8  20
TORSDOF 3
ENDMDL
MODEL 2
REMARK VINA RESULT:      -9.8      1.315      1.617
REMARK SMILES Cc1ccc(Nc2cc(F)c(C)cc2N)c(F)[nH+]1
REMARK SMILES IDX 7 1 8 2 9 3 10 4 11 5 12 6 13 7 14 8 6 9 5 11 2 12 3 13
REMARK SMILES IDX 18 14 4 15 16 16 1 17 17 19 15 20
REMARK H PARENT 6 10 18 18 15 21 15 22
ROOT
ATOM      1  C   UNL     1      43.932 131.655  18.278  1.00  0.00     0.065 A 
ATOM      2  C   UNL     1      45.080 131.218  18.951  1.00  0.00     0.067 A 
ATOM      3  C   UNL     1      45.096 131.123  20.343  1.00  0.00     0.128 A 
ATOM      4  F   UNL     1      46.222 130.691  20.967  1.00  0.00    -0.207 F 
ATOM      5  C   UNL     1      43.956 131.465  21.087  1.00  0.00    -0.013 A 
ATOM      6  C   UNL     1      43.979 131.389  22.586  1.00  0.00     0.047 C 
ATOM      7  C   UNL     1      42.819 131.947  20.421  1.00  0.00     0.034 A 
ATOM      8  C   UNL     1      42.798 132.053  19.022  1.00  0.00     0.056 A 
ENDROOT
BRANCH   1   9
ATOM      9  N   UNL     1      43.950 131.713  16.844  1.00  0.00    -0.346 N 
ATOM     10  H   UNL     1      43.257 132.343  16.381  1.00  0.00     0.167 HD
BRANCH   9  11
ATOM     11  C   UNL     1      44.979 131.114  16.033  1.00  0.00     0.144 A 
ATOM     12  C   UNL     1      47.022 130.012  14.483  1.00  0.00     0.179 A 
ATOM     13  C   UNL     1      45.990 129.192  14.950  1.00  0.00     0.076 A 
ATOM     14  N   UNL     1      47.011 131.345  14.776  1.00  0.00    -0.182 N 
ATOM     15  C   UNL     1      44.975 129.742  15.732  1.00  0.00     0.042 A 
ATOM     16  C   UNL     1      46.030 131.903  15.537  1.00  0.00     0.381 A 
ATOM     17  C   UNL     1      48.100 129.442  13.609  1.00  0.00     0.123 C 
ATOM     18  H   UNL     1      47.770 131.963  14.410  1.00  0.00     0.456 HD
ATOM     19  F   UNL     1      46.067 133.233  15.801  1.00  0.00    -0.134 F 
ENDBRANCH   9  11
ENDBRANCH   1   9
BRANCH   8  20
ATOM     20  N   UNL     1      41.642 132.606  18.380  1.00  0.00    -0.397 N 
ATOM     21  H   UNL     1      40.939 132.003  17.899  1.00  0.00     0.156 HD
ATOM     22  H   UNL     1      41.508 133.640  18.325  1.00  0.00     0.156 HD
ENDBRANCH   8  20
TORSDOF 3
ENDMDL
MODEL 3
REMARK VINA RESULT:      -9.3      1.257      1.410
REMARK SMILES Cc1ccc(Nc2cc(F)c(C)cc2N)c(F)[nH+]1
REMARK SMILES IDX 7 1 8 2 9 3 10 4 11 5 12 6 13 7 14 8 6 9 5 11 2 12 3 13
REMARK SMILES IDX 18 14 4 15 16 16 1 17 17 19 15 20
REMARK H PARENT 6 10 18 18 15 21 15 22
ROOT
ATOM      1  C   UNL     1      43.806 131.667  18.371  1.00  0.00     0.065 A 
ATOM      2  C   UNL     1      44.977 131.219  18.997  1.00  0.00     0.067 A 
ATOM      3  C   UNL     1      45.052 131.136  20.388  1.00  0.00     0.128 A 
ATOM      4  F   UNL     1      46.198 130.693  20.966  1.00  0.00    -0.207 F 
ATOM      5  C   UNL     1      43.951 131.502  21.177  1.00  0.00    -0.013 A 
ATOM      6  C   UNL     1      44.040 131.439  22.675  1.00  0.00     0.047 C 
ATOM      7  C   UNL     1      42.793 131.994  20.557  1.00  0.00     0.034 A 
ATOM      8  C   UNL     1      42.712 132.088  19.160  1.00  0.00     0.056 A 
ENDROOT
BRANCH   1   9
ATOM      9  N   UNL     1      43.762 131.711  16.937  1.00  0.00    -0.346 N 
ATOM     10  H   UNL     1      42.994 132.269  16.498  1.00  0.00     0.167 HD
BRANCH   9  11
ATOM     11  C   UNL     1      44.810 131.204  16.088  1.00  0.00     0.144 A 
ATOM     12  C   UNL     1      46.823 130.278  14.391  1.00  0.00     0.179 A 
ATOM     13  C   UNL     1      46.904 130.023  15.764  1.00  0.00     0.076 A 
ATOM     14  N   UNL     1      45.753 130.963  13.895  1.00  0.00    -0.182 N 
ATOM     15  C   UNL     1      45.903 130.494  16.612  1.00  0.00     0.042 A 
ATOM     16  C   UNL     1      44.764 131.432  14.704  1.00  0.00     0.381 A 
ATOM     17  C   UNL     1      47.874 129.744  13.464  1.00  0.00     0.123 C 
ATOM     18  H   UNL     1      45.680 131.136  12.866  1.00  0.00     0.456 HD
ATOM     19  F   UNL     1      43.722 132.109  14.158  1.00  0.00    -0.134 F 
ENDBRANCH   9  11
ENDBRANCH   1   9
BRANCH   8  20
ATOM     20  N   UNL     1      41.537 132.652  18.564  1.00  0.00    -0.397 N 
ATOM     21  H   UNL     1      40.629 132.698  19.076  1.00  0.00     0.156 HD
ATOM     22  H   UNL     1      41.547 132.976  17.571  1.00  0.00     0.156 HD
ENDBRANCH   8  20
TORSDOF 3
ENDMDL
MODEL 4
REMARK VINA RESULT:      -8.5      1.922      6.113
REMARK SMILES Cc1ccc(Nc2cc(F)c(C)cc2N)c(F)[nH+]1
REMARK SMILES IDX 7 1 8 2 9 3 10 4 11 5 12 6 13 7 14 8 6 9 5 11 2 12 3 13
REMARK SMILES IDX 18 14 4 15 16 16 1 17 17 19 15 20
REMARK H PARENT 6 10 18 18 15 21 15 22
ROOT
ATOM      1  C   UNL     1      45.297 131.084  15.692  1.00  0.00     0.065 A 
ATOM      2  C   UNL     1      46.160 131.944  15.001  1.00  0.00     0.067 A 
ATOM      3  C   UNL     1      47.164 131.432  14.178  1.00  0.00     0.128 A 
ATOM      4  F   UNL     1      47.982 132.290  13.516  1.00  0.00    -0.207 F 
ATOM      5  C   UNL     1      47.321 130.045  14.034  1.00  0.00    -0.013 A 
ATOM      6  C   UNL     1      48.418 129.492  13.171  1.00  0.00     0.047 C 
ATOM      7  C   UNL     1      46.488 129.180  14.760  1.00  0.00     0.034 A 
ATOM      8  C   UNL     1      45.481 129.686  15.596  1.00  0.00     0.056 A 
ENDROOT
BRANCH   1   9
ATOM      9  N   UNL     1      44.260 131.652  16.507  1.00  0.00    -0.346 N 
ATOM     10  H   UNL     1      43.408 132.008  16.018  1.00  0.00     0.167 HD
BRANCH   9  11
ATOM     11  C   UNL     1      44.244 131.580  17.946  1.00  0.00     0.144 A 
ATOM     12  C   UNL     1      44.134 131.428  20.731  1.00  0.00     0.179 A 
ATOM     13  C   UNL     1      45.331 131.136  20.069  1.00  0.00     0.076 A 
ATOM     14  N   UNL     1      43.037 131.799  20.008  1.00  0.00    -0.182 N 
ATOM     15  C   UNL     1      45.382 131.203  18.677  1.00  0.00     0.042 A 
ATOM     16  C   UNL     1      43.065 131.872  18.650  1.00  0.00     0.381 A 
ATOM     17  C   UNL     1      44.075 131.396  22.229  1.00  0.00     0.123 C 
ATOM     18  H   UNL     1      42.147 132.038  20.503  1.00  0.00     0.456 HD
ATOM     19  F   UNL     1      41.945 132.245  17.979  1.00  0.00    -0.134 F 
ENDBRANCH   9  11
ENDBRANCH   1   9
BRANCH   8  20
ATOM     20  N   UNL     1      44.690 128.775  16.368  1.00  0.00    -0.397 N 
ATOM     21  H   UNL     1      44.917 128.555  17.363  1.00  0.00     0.156 HD
ATOM     22  H   UNL     1      43.895 128.257  15.930  1.00  0.00     0.156 HD
ENDBRANCH   8  20
TORSDOF 3
ENDMDL
MODEL 5
REMARK VINA RESULT:      -8.5      1.381      2.025
REMARK SMILES Cc1ccc(Nc2cc(F)c(C)cc2N)c(F)[nH+]1
REMARK SMILES IDX 7 1 8 2 9 3 10 4 11 5 12 6 13 7 14 8 6 9 5 11 2 12 3 13
REMARK SMILES IDX 18 14 4 15 16 16 1 17 17 19 15 20
REMARK H PARENT 6 10 18 18 15 21 15 22
ROOT
ATOM      1  C   UNL     1      44.105 131.426  17.815  1.00  0.00     0.065 A 
ATOM      2  C   UNL     1      42.984 131.915  18.498  1.00  0.00     0.067 A 
ATOM      3  C   UNL     1      42.983 132.004  19.891  1.00  0.00     0.128 A 
ATOM      4  F   UNL     1      41.884 132.488  20.525  1.00  0.00    -0.207 F 
ATOM      5  C   UNL     1      44.110 131.603  20.624  1.00  0.00    -0.013 A 
ATOM      6  C   UNL     1      44.101 131.672  22.124  1.00  0.00     0.047 C 
ATOM      7  C   UNL     1      45.217 131.069  19.948  1.00  0.00     0.034 A 
ATOM      8  C   UNL     1      45.223 130.969  18.548  1.00  0.00     0.056 A 
ENDROOT
BRANCH   1   9
ATOM      9  N   UNL     1      44.074 131.376  16.381  1.00  0.00    -0.346 N 
ATOM     10  H   UNL     1      43.249 131.807  15.904  1.00  0.00     0.167 HD
BRANCH   9  11
ATOM     11  C   UNL     1      45.188 130.951  15.571  1.00  0.00     0.144 A 
ATOM     12  C   UNL     1      47.305 130.060  13.986  1.00  0.00     0.179 A 
ATOM     13  C   UNL     1      47.133 131.431  14.204  1.00  0.00     0.076 A 
ATOM     14  N   UNL     1      46.445 129.172  14.564  1.00  0.00    -0.182 N 
ATOM     15  C   UNL     1      46.069 131.876  14.988  1.00  0.00     0.042 A 
ATOM     16  C   UNL     1      45.401 129.584  15.333  1.00  0.00     0.381 A 
ATOM     17  C   UNL     1      48.467 129.567  13.175  1.00  0.00     0.123 C 
ATOM     18  H   UNL     1      46.585 128.146  14.420  1.00  0.00     0.456 HD
ATOM     19  F   UNL     1      44.574 128.659  15.884  1.00  0.00    -0.134 F 
ENDBRANCH   9  11
ENDBRANCH   1   9
BRANCH   8  20
ATOM     20  N   UNL     1      46.346 130.363  17.896  1.00  0.00    -0.397 N 
ATOM     21  H   UNL     1      46.803 129.504  18.272  1.00  0.00     0.156 HD
ATOM     22  H   UNL     1      46.775 130.808  17.054  1.00  0.00     0.156 HD
ENDBRANCH   8  20
TORSDOF 3
ENDMDL
MODEL 6
REMARK VINA RESULT:      -8.3      1.933      5.917
REMARK SMILES Cc1ccc(Nc2cc(F)c(C)cc2N)c(F)[nH+]1
REMARK SMILES IDX 7 1 8 2 9 3 10 4 11 5 12 6 13 7 14 8 6 9 5 11 2 12 3 13
REMARK SMILES IDX 18 14 4 15 16 16 1 17 17 19 15 20
REMARK H PARENT 6 10 18 18 15 21 15 22
ROOT
ATOM      1  C   UNL     1      44.467 131.343  16.222  1.00  0.00     0.065 A 
ATOM      2  C   UNL     1      45.587 130.663  16.718  1.00  0.00     0.067 A 
ATOM      3  C   UNL     1      46.586 130.214  15.853  1.00  0.00     0.128 A 
ATOM      4  F   UNL     1      47.663 129.563  16.363  1.00  0.00    -0.207 F 
ATOM      5  C   UNL     1      46.479 130.440  14.472  1.00  0.00    -0.013 A 
ATOM      6  C   UNL     1      47.539 129.934  13.537  1.00  0.00     0.047 C 
ATOM      7  C   UNL     1      45.337 131.080  13.967  1.00  0.00     0.034 A 
ATOM      8  C   UNL     1      44.324 131.527  14.829  1.00  0.00     0.056 A 
ENDROOT
BRANCH   1   9
ATOM      9  N   UNL     1      43.476 131.811  17.149  1.00  0.00    -0.346 N 
ATOM     10  H   UNL     1      42.555 132.111  16.755  1.00  0.00     0.167 HD
BRANCH   9  11
ATOM     11  C   UNL     1      43.607 131.706  18.580  1.00  0.00     0.144 A 
ATOM     12  C   UNL     1      43.783 131.485  21.357  1.00  0.00     0.179 A 
ATOM     13  C   UNL     1      44.930 131.315  20.575  1.00  0.00     0.076 A 
ATOM     14  N   UNL     1      42.593 131.773  20.754  1.00  0.00    -0.182 N 
ATOM     15  C   UNL     1      44.839 131.416  19.188  1.00  0.00     0.042 A 
ATOM     16  C   UNL     1      42.481 131.877  19.402  1.00  0.00     0.381 A 
ATOM     17  C   UNL     1      43.874 131.415  22.852  1.00  0.00     0.123 C 
ATOM     18  H   UNL     1      41.738 131.922  21.339  1.00  0.00     0.456 HD
ATOM     19  F   UNL     1      41.274 132.164  18.853  1.00  0.00    -0.134 F 
ENDBRANCH   9  11
ENDBRANCH   1   9
BRANCH   8  20
ATOM     20  N   UNL     1      43.145 132.122  14.272  1.00  0.00    -0.397 N 
ATOM     21  H   UNL     1      43.041 132.281  13.246  1.00  0.00     0.156 HD
ATOM     22  H   UNL     1      42.381 132.469  14.894  1.00  0.00     0.156 HD
ENDBRANCH   8  20
TORSDOF 3
ENDMDL
MODEL 7
REMARK VINA RESULT:      -8.0      1.862      6.065
REMARK SMILES Cc1ccc(Nc2cc(F)c(C)cc2N)c(F)[nH+]1
REMARK SMILES IDX 7 1 8 2 9 3 10 4 11 5 12 6 13 7 14 8 6 9 5 11 2 12 3 13
REMARK SMILES IDX 18 14 4 15 16 16 1 17 17 19 15 20
REMARK H PARENT 6 10 18 18 15 21 15 22
ROOT
ATOM      1  C   UNL     1      45.167 130.975  15.292  1.00  0.00     0.065 A 
ATOM      2  C   UNL     1      46.059 131.824  14.624  1.00  0.00     0.067 A 
ATOM      3  C   UNL     1      47.182 131.307  13.975  1.00  0.00     0.128 A 
ATOM      4  F   UNL     1      48.026 132.154  13.333  1.00  0.00    -0.207 F 
ATOM      5  C   UNL     1      47.429 129.926  13.985  1.00  0.00    -0.013 A 
ATOM      6  C   UNL     1      48.651 129.371  13.311  1.00  0.00     0.047 C 
ATOM      7  C   UNL     1      46.563 129.077  14.690  1.00  0.00     0.034 A 
ATOM      8  C   UNL     1      45.437 129.589  15.352  1.00  0.00     0.056 A 
ENDROOT
BRANCH   1   9
ATOM      9  N   UNL     1      44.010 131.545  15.923  1.00  0.00    -0.346 N 
ATOM     10  H   UNL     1      43.207 131.804  15.306  1.00  0.00     0.167 HD
BRANCH   9  11
ATOM     11  C   UNL     1      43.822 131.595  17.351  1.00  0.00     0.144 A 
ATOM     12  C   UNL     1      43.534 131.713  20.124  1.00  0.00     0.179 A 
ATOM     13  C   UNL     1      42.417 131.904  19.304  1.00  0.00     0.076 A 
ATOM     14  N   UNL     1      44.749 131.454  19.560  1.00  0.00    -0.182 N 
ATOM     15  C   UNL     1      42.564 131.855  17.918  1.00  0.00     0.042 A 
ATOM     16  C   UNL     1      44.916 131.401  18.210  1.00  0.00     0.381 A 
ATOM     17  C   UNL     1      43.383 131.726  21.616  1.00  0.00     0.123 C 
ATOM     18  H   UNL     1      45.581 131.290  20.172  1.00  0.00     0.456 HD
ATOM     19  F   UNL     1      46.146 131.143  17.700  1.00  0.00    -0.134 F 
ENDBRANCH   9  11
ENDBRANCH   1   9
BRANCH   8  20
ATOM     20  N   UNL     1      44.609 128.701  16.113  1.00  0.00    -0.397 N 
ATOM     21  H   UNL     1      44.954 127.772  16.441  1.00  0.00     0.156 HD
ATOM     22  H   UNL     1      43.610 128.938  16.305  1.00  0.00     0.156 HD
ENDBRANCH   8  20
TORSDOF 3
ENDMDL
MODEL 8
REMARK VINA RESULT:      -7.9      1.858      2.553
REMARK SMILES Cc1ccc(Nc2cc(F)c(C)cc2N)c(F)[nH+]1
REMARK SMILES IDX 7 1 8 2 9 3 10 4 11 5 12 6 13 7 14 8 6 9 5 11 2 12 3 13
REMARK SMILES IDX 18 14 4 15 16 16 1 17 17 19 15 20
REMARK H PARENT 6 10 18 18 15 21 15 22
ROOT
ATOM      1  C   UNL     1      44.022 131.503  18.249  1.00  0.00     0.065 A 
ATOM      2  C   UNL     1      42.932 132.008  18.969  1.00  0.00     0.067 A 
ATOM      3  C   UNL     1      42.956 132.041  20.364  1.00  0.00     0.128 A 
ATOM      4  F   UNL     1      41.886 132.541  21.035  1.00  0.00    -0.207 F 
ATOM      5  C   UNL     1      44.077 131.567  21.062  1.00  0.00    -0.013 A 
ATOM      6  C   UNL     1      44.093 131.576  22.564  1.00  0.00     0.047 C 
ATOM      7  C   UNL     1      45.152 131.018  20.347  1.00  0.00     0.034 A 
ATOM      8  C   UNL     1      45.132 130.974  18.945  1.00  0.00     0.056 A 
ENDROOT
BRANCH   1   9
ATOM      9  N   UNL     1      43.967 131.512  16.814  1.00  0.00    -0.346 N 
ATOM     10  H   UNL     1      43.188 132.047  16.368  1.00  0.00     0.167 HD
BRANCH   9  11
ATOM     11  C   UNL     1      45.018 131.001  15.971  1.00  0.00     0.144 A 
ATOM     12  C   UNL     1      47.100 130.070  14.362  1.00  0.00     0.179 A 
ATOM     13  C   UNL     1      46.104 129.184  14.786  1.00  0.00     0.076 A 
ATOM     14  N   UNL     1      47.033 131.384  14.725  1.00  0.00    -0.182 N 
ATOM     15  C   UNL     1      45.070 129.648  15.598  1.00  0.00     0.042 A 
ATOM     16  C   UNL     1      46.033 131.859  15.517  1.00  0.00     0.381 A 
ATOM     17  C   UNL     1      48.197 129.593  13.458  1.00  0.00     0.123 C 
ATOM     18  H   UNL     1      47.765 132.052  14.392  1.00  0.00     0.456 HD
ATOM     19  F   UNL     1      46.015 133.174  15.851  1.00  0.00    -0.134 F 
ENDBRANCH   9  11
ENDBRANCH   1   9
BRANCH   8  20
ATOM     20  N   UNL     1      46.220 130.352  18.250  1.00  0.00    -0.397 N 
ATOM     21  H   UNL     1      46.796 130.871  17.551  1.00  0.00     0.156 HD
ATOM     22  H   UNL     1      46.426 129.337  18.383  1.00  0.00     0.156 HD
ENDBRANCH   8  20
TORSDOF 3
ENDMDL
MODEL 9
REMARK VINA RESULT:      -7.9      2.484      6.389
REMARK SMILES Cc1ccc(Nc2cc(F)c(C)cc2N)c(F)[nH+]1
REMARK SMILES IDX 7 1 8 2 9 3 10 4 11 5 12 6 13 7 14 8 6 9 5 11 2 12 3 13
REMARK SMILES IDX 18 14 4 15 16 16 1 17 17 19 15 20
REMARK H PARENT 6 10 18 18 15 21 15 22
ROOT
ATOM      1  C   UNL     1      44.654 131.576  18.753  1.00  0.00     0.065 A 
ATOM      2  C   UNL     1      45.777 130.879  18.290  1.00  0.00     0.067 A 
ATOM      3  C   UNL     1      45.863 130.474  16.957  1.00  0.00     0.128 A 
ATOM      4  F   UNL     1      46.966 129.804  16.537  1.00  0.00    -0.207 F 
ATOM      5  C   UNL     1      44.821 130.763  16.063  1.00  0.00    -0.013 A 
ATOM      6  C   UNL     1      44.900 130.305  14.635  1.00  0.00     0.047 C 
ATOM      7  C   UNL     1      43.674 131.421  16.532  1.00  0.00     0.034 A 
ATOM      8  C   UNL     1      43.576 131.824  17.873  1.00  0.00     0.056 A 
ENDROOT
BRANCH   1   9
ATOM      9  N   UNL     1      44.617 131.997  20.125  1.00  0.00    -0.346 N 
ATOM     10  H   UNL     1      44.796 133.008  20.320  1.00  0.00     0.167 HD
BRANCH   9  11
ATOM     11  C   UNL     1      44.162 131.161  21.206  1.00  0.00     0.144 A 
ATOM     12  C   UNL     1      43.204 129.563  23.285  1.00  0.00     0.179 A 
ATOM     13  C   UNL     1      44.431 129.258  22.686  1.00  0.00     0.076 A 
ATOM     14  N   UNL     1      42.496 130.648  22.857  1.00  0.00    -0.182 N 
ATOM     15  C   UNL     1      44.904 130.051  21.642  1.00  0.00     0.042 A 
ATOM     16  C   UNL     1      42.939 131.436  21.839  1.00  0.00     0.381 A 
ATOM     17  C   UNL     1      42.702 128.740  24.434  1.00  0.00     0.123 C 
ATOM     18  H   UNL     1      41.589 130.890  23.317  1.00  0.00     0.456 HD
ATOM     19  F   UNL     1      42.195 132.503  21.450  1.00  0.00    -0.134 F 
ENDBRANCH   9  11
ENDBRANCH   1   9
BRANCH   8  20
ATOM     20  N   UNL     1      42.366 132.440  18.331  1.00  0.00    -0.397 N 
ATOM     21  H   UNL     1      42.252 133.477  18.359  1.00  0.00     0.156 HD
ATOM     22  H   UNL     1      41.585 131.859  18.710  1.00  0.00     0.156 HD
ENDBRANCH   8  20
TORSDOF 3
ENDMDL


