REMARK SMILES CC(=O)c1ccc(/C(N=[N+]=[N-])=N/[C@@H]2C=CCC2)c(F)c1[O-]
REMARK SMILES IDX 8 1 12 2 13 3 15 4 14 5 16 6 17 7 9 8 10 9 11 10 7 11 6 12
REMARK SMILES IDX 18 13 5 14 20 15 4 16 19 17 21 18 2 19 3 20 1 21
REMARK H PARENT
ROOT
ATOM      1  C   UNL     1       0.715   0.332  -0.372  1.00  0.00     0.132 C 
ENDROOT
BRANCH   1   2
ATOM      2  N   UNL     1       0.687  -0.479   0.645  1.00  0.00    -0.275 NA
BRANCH   2   3
ATOM      3  C   UNL     1       1.842  -0.813   1.479  1.00  0.00     0.128 C 
ATOM      4  C   UNL     1       2.804  -2.938   1.312  1.00  0.00    -0.029 C 
ATOM      5  C   UNL     1       2.755  -1.742   0.753  1.00  0.00    -0.005 C 
ATOM      6  C   UNL     1       1.939  -3.035   2.515  1.00  0.00     0.029 C 
ATOM      7  C   UNL     1       1.397  -1.616   2.710  1.00  0.00     0.035 C 
ENDBRANCH   2   3
ENDBRANCH   1   2
BRANCH   1   8
ATOM      8  N   UNL     1       1.942   0.988  -0.733  1.00  0.00    -0.041 NA
BRANCH   8   9
ATOM      9  N   UNL     1       2.075   1.594  -1.797  1.00  0.00     0.007 N 
ATOM     10  N   UNL     1       2.210   2.199  -2.859  1.00  0.00    -0.003 NA
ENDBRANCH   8   9
ENDBRANCH   1   8
BRANCH   1  11
ATOM     11  C   UNL     1      -0.538   0.564  -1.131  1.00  0.00     0.037 A 
ATOM     12  C   UNL     1      -0.913   1.865  -1.495  1.00  0.00     0.014 A 
ATOM     13  C   UNL     1      -1.384  -0.508  -1.463  1.00  0.00     0.125 A 
ATOM     14  C   UNL     1      -2.100   2.093  -2.194  1.00  0.00     0.012 A 
ATOM     15  C   UNL     1      -2.574  -0.285  -2.167  1.00  0.00    -0.060 A 
ATOM     16  C   UNL     1      -2.950   1.025  -2.542  1.00  0.00     0.012 A 
ATOM     17  F   UNL     1      -1.042  -1.780  -1.130  1.00  0.00    -0.207 F 
ATOM     18  O   UNL     1      -3.368  -1.380  -2.497  1.00  0.00    -0.870 OA
BRANCH  16  19
ATOM     19  C   UNL     1      -4.218   1.284  -3.284  1.00  0.00     0.159 C 
ATOM     20  O   UNL     1      -5.114   0.400  -3.334  1.00  0.00    -0.295 OA
ATOM     21  C   UNL     1      -4.482   2.597  -3.959  1.00  0.00     0.093 C 
ENDBRANCH  16  19
ENDBRANCH   1  11
TORSDOF 6


