REMARK SMILES C=CCC(=O)Sc1cccc(-c2ccc3c(c2)CC3)c1
REMARK SMILES IDX 4 1 5 2 3 3 2 4 1 5 6 6 7 7 8 8 20 9 9 10 11 11 10 12 12 13
REMARK SMILES IDX 13 14 17 15 14 16 16 17 15 18 18 19 19 20
REMARK H PARENT
ROOT
ATOM      1  C   UNL     1       1.125   3.836  -2.253  1.00  0.00     0.197 C 
ATOM      2  O   UNL     1       0.243   4.532  -2.731  1.00  0.00    -0.286 OA
ENDROOT
BRANCH   1   3
ATOM      3  C   UNL     1       1.754   2.750  -3.077  1.00  0.00     0.115 C 
BRANCH   3   4
ATOM      4  C   UNL     1       1.143   1.412  -2.775  1.00  0.00    -0.026 C 
ATOM      5  C   UNL     1      -0.132   1.136  -3.063  1.00  0.00     0.004 C 
ENDBRANCH   3   4
ENDBRANCH   1   3
BRANCH   1   6
ATOM      6  S   UNL     1       1.657   4.126  -0.561  1.00  0.00    -0.052 SA
BRANCH   6   7
ATOM      7  C   UNL     1       0.343   3.126   0.141  1.00  0.00     0.016 A 
ATOM      8  C   UNL     1      -0.910   3.695   0.388  1.00  0.00     0.015 A 
ATOM      9  C   UNL     1       0.575   1.782   0.457  1.00  0.00     0.024 A 
ATOM     10  C   UNL     1      -1.934   2.920   0.935  1.00  0.00     0.002 A 
ATOM     11  C   UNL     1      -0.451   0.991   1.006  1.00  0.00    -0.017 A 
ATOM     12  C   UNL     1      -1.709   1.575   1.242  1.00  0.00     0.009 A 
BRANCH  11  13
ATOM     13  C   UNL     1      -0.211  -0.436   1.332  1.00  0.00    -0.018 A 
ATOM     14  C   UNL     1       0.544  -1.262   0.425  1.00  0.00     0.009 A 
ATOM     15  C   UNL     1      -0.732  -0.980   2.542  1.00  0.00     0.012 A 
ATOM     16  C   UNL     1       0.803  -2.629   0.689  1.00  0.00     0.004 A 
ATOM     17  C   UNL     1      -0.462  -2.314   2.769  1.00  0.00    -0.044 A 
ATOM     18  C   UNL     1       0.283  -3.114   1.870  1.00  0.00    -0.044 A 
ATOM     19  C   UNL     1      -0.630  -3.473   3.690  1.00  0.00     0.040 C 
ATOM     20  C   UNL     1       0.133  -4.294   2.767  1.00  0.00     0.040 C 
ENDBRANCH  11  13
ENDBRANCH   6   7
ENDBRANCH   1   6
TORSDOF 5


