REMARK SMILES C=Cc1cc(-c2ccc(C(C)=O)[nH+]c2)cc([NH2+]c2ccc(C)c(F)c2)c1O
REMARK SMILES IDX 3 1 4 2 5 3 15 4 16 5 26 6 2 7 1 8 27 9 6 11 7 12 14 13 8 14
REMARK SMILES IDX 13 15 9 16 10 18 11 19 12 20 17 21 18 24 19 25 25 26 20 27
REMARK SMILES IDX 23 28 21 29 24 30 22 31
REMARK H PARENT 27 10 13 17 17 22 17 23
ROOT
ATOM      1  C   UNL     1       0.277  -3.418  -1.143  1.00  0.00     0.023 A 
ATOM      2  C   UNL     1       0.465  -2.327  -2.011  1.00  0.00     0.021 A 
ATOM      3  C   UNL     1       0.726  -1.042  -1.514  1.00  0.00    -0.006 A 
ATOM      4  C   UNL     1       0.811  -0.852  -0.128  1.00  0.00     0.081 A 
ATOM      5  C   UNL     1       0.634  -1.923   0.763  1.00  0.00     0.178 A 
ATOM      6  C   UNL     1       0.356  -3.211   0.255  1.00  0.00     0.184 A 
ENDROOT
BRANCH   1   7
ATOM      7  C   UNL     1       0.061  -4.776  -1.701  1.00  0.00     0.004 C 
ATOM      8  C   UNL     1      -0.660  -4.998  -2.800  1.00  0.00     0.009 C 
ENDBRANCH   1   7
BRANCH   6   9
ATOM      9  O   UNL     1       0.146  -4.257   1.159  1.00  0.00    -0.502 OA
ATOM     10  H   UNL     1      -0.152  -5.184   0.886  1.00  0.00     0.293 HD
ENDBRANCH   6   9
BRANCH   3  11
ATOM     11  C   UNL     1       0.917   0.100  -2.444  1.00  0.00     0.046 A 
ATOM     12  C   UNL     1       0.105   0.247  -3.577  1.00  0.00     0.022 A 
ATOM     13  C   UNL     1       1.914   1.061  -2.212  1.00  0.00     0.315 A 
ATOM     14  C   UNL     1       0.292   1.325  -4.441  1.00  0.00     0.084 A 
ATOM     15  N   UNL     1       2.083   2.107  -3.067  1.00  0.00    -0.208 N 
ATOM     16  C   UNL     1       1.299   2.267  -4.176  1.00  0.00     0.246 A 
ATOM     17  H   UNL     1       2.842   2.788  -2.846  1.00  0.00     0.454 HD
BRANCH  16  18
ATOM     18  C   UNL     1       1.500   3.418  -5.098  1.00  0.00     0.223 C 
ATOM     19  C   UNL     1       2.559   4.449  -4.851  1.00  0.00     0.100 C 
ATOM     20  O   UNL     1       0.767   3.541  -6.117  1.00  0.00    -0.288 OA
ENDBRANCH  16  18
ENDBRANCH   3  11
BRANCH   5  21
ATOM     21  N   UNL     1       0.684  -1.682   2.187  1.00  0.00    -0.278 N 
ATOM     22  H   UNL     1       1.054  -2.522   2.690  1.00  0.00     0.358 HD
ATOM     23  H   UNL     1       1.350  -0.901   2.396  1.00  0.00     0.358 HD
BRANCH  21  24
ATOM     24  C   UNL     1      -0.630  -1.340   2.674  1.00  0.00     0.137 A 
ATOM     25  C   UNL     1      -1.100  -0.017   2.585  1.00  0.00     0.068 A 
ATOM     26  C   UNL     1      -1.474  -2.327   3.212  1.00  0.00     0.107 A 
ATOM     27  C   UNL     1      -2.383   0.311   3.029  1.00  0.00     0.012 A 
ATOM     28  C   UNL     1      -2.758  -2.000   3.658  1.00  0.00     0.132 A 
ATOM     29  C   UNL     1      -3.217  -0.675   3.578  1.00  0.00    -0.015 A 
ATOM     30  F   UNL     1      -3.554  -2.975   4.164  1.00  0.00    -0.206 F 
ATOM     31  C   UNL     1      -4.606  -0.328   4.030  1.00  0.00     0.047 C 
ENDBRANCH  21  24
ENDBRANCH   5  21
TORSDOF 6


