MODEL 1
REMARK VINA RESULT:      -5.1      0.000      0.000
REMARK SMILES CC1=CCC=C[C@H]1C(=O)Oc1ccc(N(C(=O)CC#N)c2ccc3cc[nH]c3c2)c(F)c1
REMARK SMILES IDX 11 1 12 2 13 3 14 4 30 5 31 6 32 7 10 8 8 9 9 10 7 11 2 12
REMARK SMILES IDX 3 13 4 14 6 15 5 16 1 17 15 18 16 19 17 20 18 21 19 22 20 23
REMARK SMILES IDX 21 24 22 25 29 26 23 27 28 28 24 29 27 30 25 31 26 32
REMARK H PARENT 27 33
ROOT
ATOM      1  C   UNL     1      44.265 131.695  17.960  1.00  0.00     0.133 A 
ATOM      2  C   UNL     1      45.386 131.078  18.543  1.00  0.00     0.049 A 
ATOM      3  C   UNL     1      45.432 130.861  19.922  1.00  0.00     0.034 A 
ATOM      4  C   UNL     1      44.353 131.236  20.734  1.00  0.00     0.085 A 
ATOM      5  C   UNL     1      43.230 131.845  20.152  1.00  0.00     0.151 A 
ATOM      6  F   UNL     1      42.194 132.257  20.926  1.00  0.00    -0.205 F 
ATOM      7  C   UNL     1      43.185 132.061  18.773  1.00  0.00     0.088 A 
ENDROOT
BRANCH   1   8
ATOM      8  O   UNL     1      44.167 131.925  16.579  1.00  0.00    -0.426 OA
BRANCH   8   9
ATOM      9  C   UNL     1      45.240 131.927  15.678  1.00  0.00     0.322 C 
ATOM     10  O   UNL     1      46.157 132.788  15.764  1.00  0.00    -0.251 OA
BRANCH   9  11
ATOM     11  C   UNL     1      45.247 130.950  14.540  1.00  0.00     0.147 C 
ATOM     12  C   UNL     1      46.677 130.616  14.150  1.00  0.00    -0.059 C 
ATOM     13  C   UNL     1      47.272 129.497  14.611  1.00  0.00    -0.023 C 
ATOM     14  C   UNL     1      46.561 128.554  15.548  1.00  0.00     0.054 C 
ATOM     15  C   UNL     1      44.460 129.720  14.925  1.00  0.00    -0.012 C 
ATOM     16  C   UNL     1      45.066 128.614  15.380  1.00  0.00    -0.026 C 
ATOM     17  C   UNL     1      47.459 131.567  13.286  1.00  0.00     0.040 C 
ENDBRANCH   9  11
ENDBRANCH   8   9
ENDBRANCH   1   8
BRANCH   4  18
ATOM     18  N   UNL     1      44.412 131.016  22.154  1.00  0.00    -0.277 N 
BRANCH  18  19
ATOM     19  C   UNL     1      44.924 132.046  23.026  1.00  0.00     0.245 C 
ATOM     20  O   UNL     1      44.472 132.158  24.198  1.00  0.00    -0.273 OA
BRANCH  19  21
ATOM     21  C   UNL     1      45.993 132.997  22.570  1.00  0.00     0.220 C 
BRANCH  21  22
ATOM     22  C   UNL     1      46.571 133.703  23.719  1.00  0.00     0.072 C 
ATOM     23  N   UNL     1      47.026 134.259  24.625  1.00  0.00    -0.198 NA
ENDBRANCH  21  22
ENDBRANCH  19  21
ENDBRANCH  18  19
BRANCH  18  24
ATOM     24  C   UNL     1      43.948 129.761  22.696  1.00  0.00     0.051 A 
ATOM     25  C   UNL     1      42.624 129.638  23.197  1.00  0.00     0.027 A 
ATOM     26  C   UNL     1      44.802 128.632  22.708  1.00  0.00     0.053 A 
ATOM     27  C   UNL     1      42.159 128.415  23.713  1.00  0.00     0.012 A 
ATOM     28  C   UNL     1      44.308 127.437  23.226  1.00  0.00     0.047 A 
ATOM     29  C   UNL     1      43.034 127.333  23.711  1.00  0.00    -0.000 A 
ATOM     30  N   UNL     1      44.955 126.265  23.331  1.00  0.00    -0.361 N 
ATOM     31  C   UNL     1      42.860 126.037  24.142  1.00  0.00     0.028 A 
ATOM     32  C   UNL     1      44.072 125.405  23.889  1.00  0.00     0.083 A 
ATOM     33  H   UNL     1      45.937 126.056  23.042  1.00  0.00     0.166 HD
ENDBRANCH  18  24
ENDBRANCH   4  18
TORSDOF 8
ENDMDL
MODEL 2
REMARK VINA RESULT:      -3.8      1.586      2.169
REMARK SMILES CC1=CCC=C[C@H]1C(=O)Oc1ccc(N(C(=O)CC#N)c2ccc3cc[nH]c3c2)c(F)c1
REMARK SMILES IDX 11 1 12 2 13 3 14 4 30 5 31 6 32 7 10 8 8 9 9 10 7 11 2 12
REMARK SMILES IDX 3 13 4 14 6 15 5 16 1 17 15 18 16 19 17 20 18 21 19 22 20 23
REMARK SMILES IDX 21 24 22 25 29 26 23 27 28 28 24 29 27 30 25 31 26 32
REMARK H PARENT 27 33
ROOT
ATOM      1  C   UNL     1      44.897 131.641  18.520  1.00  0.00     0.133 A 
ATOM      2  C   UNL     1      45.897 130.879  19.152  1.00  0.00     0.049 A 
ATOM      3  C   UNL     1      45.721 130.439  20.465  1.00  0.00     0.034 A 
ATOM      4  C   UNL     1      44.540 130.735  21.160  1.00  0.00     0.085 A 
ATOM      5  C   UNL     1      43.538 131.489  20.528  1.00  0.00     0.151 A 
ATOM      6  F   UNL     1      42.406 131.825  21.197  1.00  0.00    -0.205 F 
ATOM      7  C   UNL     1      43.715 131.928  19.214  1.00  0.00     0.088 A 
ENDROOT
BRANCH   1   8
ATOM      8  O   UNL     1      45.022 132.097  17.199  1.00  0.00    -0.426 OA
BRANCH   8   9
ATOM      9  C   UNL     1      44.181 131.745  16.135  1.00  0.00     0.322 C 
ATOM     10  O   UNL     1      42.938 131.949  16.197  1.00  0.00    -0.251 OA
BRANCH   9  11
ATOM     11  C   UNL     1      44.755 131.030  14.948  1.00  0.00     0.147 C 
ATOM     12  C   UNL     1      46.267 131.177  14.933  1.00  0.00    -0.059 C 
ATOM     13  C   UNL     1      47.057 130.199  15.421  1.00  0.00    -0.023 C 
ATOM     14  C   UNL     1      46.480 128.944  16.023  1.00  0.00     0.054 C 
ATOM     15  C   UNL     1      44.323 129.583  14.972  1.00  0.00    -0.012 C 
ATOM     16  C   UNL     1      45.122 128.622  15.459  1.00  0.00    -0.026 C 
ATOM     17  C   UNL     1      46.891 132.446  14.420  1.00  0.00     0.040 C 
ENDBRANCH   9  11
ENDBRANCH   8   9
ENDBRANCH   1   8
BRANCH   4  18
ATOM     18  N   UNL     1      44.372 130.285  22.515  1.00  0.00    -0.277 N 
BRANCH  18  19
ATOM     19  C   UNL     1      44.322 131.242  23.595  1.00  0.00     0.245 C 
ATOM     20  O   UNL     1      45.212 132.129  23.688  1.00  0.00    -0.273 OA
BRANCH  19  21
ATOM     21  C   UNL     1      43.226 131.207  24.621  1.00  0.00     0.220 C 
BRANCH  21  22
ATOM     22  C   UNL     1      42.051 131.939  24.136  1.00  0.00     0.072 C 
ATOM     23  N   UNL     1      41.123 132.515  23.755  1.00  0.00    -0.198 NA
ENDBRANCH  21  22
ENDBRANCH  19  21
ENDBRANCH  18  19
BRANCH  18  24
ATOM     24  C   UNL     1      44.245 128.871  22.781  1.00  0.00     0.051 A 
ATOM     25  C   UNL     1      45.256 127.965  22.357  1.00  0.00     0.027 A 
ATOM     26  C   UNL     1      43.125 128.378  23.491  1.00  0.00     0.053 A 
ATOM     27  C   UNL     1      45.148 126.589  22.625  1.00  0.00     0.012 A 
ATOM     28  C   UNL     1      43.051 127.010  23.739  1.00  0.00     0.047 A 
ATOM     29  C   UNL     1      44.027 126.147  23.320  1.00  0.00    -0.000 A 
ATOM     30  N   UNL     1      42.077 126.349  24.386  1.00  0.00    -0.361 N 
ATOM     31  C   UNL     1      43.659 124.882  23.720  1.00  0.00     0.028 A 
ATOM     32  C   UNL     1      42.445 125.047  24.378  1.00  0.00     0.083 A 
ATOM     33  H   UNL     1      41.212 126.754  24.809  1.00  0.00     0.166 HD
ENDBRANCH  18  24
ENDBRANCH   4  18
TORSDOF 8
ENDMDL
MODEL 3
REMARK VINA RESULT:      -3.6      1.204      1.593
REMARK SMILES CC1=CCC=C[C@H]1C(=O)Oc1ccc(N(C(=O)CC#N)c2ccc3cc[nH]c3c2)c(F)c1
REMARK SMILES IDX 11 1 12 2 13 3 14 4 30 5 31 6 32 7 10 8 8 9 9 10 7 11 2 12
REMARK SMILES IDX 3 13 4 14 6 15 5 16 1 17 15 18 16 19 17 20 18 21 19 22 20 23
REMARK SMILES IDX 21 24 22 25 29 26 23 27 28 28 24 29 27 30 25 31 26 32
REMARK H PARENT 27 33
ROOT
ATOM      1  C   UNL     1      44.421 131.962  17.610  1.00  0.00     0.133 A 
ATOM      2  C   UNL     1      45.479 131.628  18.475  1.00  0.00     0.049 A 
ATOM      3  C   UNL     1      45.220 131.283  19.803  1.00  0.00     0.034 A 
ATOM      4  C   UNL     1      43.903 131.246  20.281  1.00  0.00     0.085 A 
ATOM      5  C   UNL     1      42.845 131.571  19.417  1.00  0.00     0.151 A 
ATOM      6  F   UNL     1      41.566 131.585  19.872  1.00  0.00    -0.205 F 
ATOM      7  C   UNL     1      43.106 131.916  18.089  1.00  0.00     0.088 A 
ENDROOT
BRANCH   1   8
ATOM      8  O   UNL     1      44.628 132.305  16.266  1.00  0.00    -0.426 OA
BRANCH   8   9
ATOM      9  C   UNL     1      45.706 131.883  15.476  1.00  0.00     0.322 C 
ATOM     10  O   UNL     1      46.843 132.415  15.596  1.00  0.00    -0.251 OA
BRANCH   9  11
ATOM     11  C   UNL     1      45.481 130.852  14.412  1.00  0.00     0.147 C 
ATOM     12  C   UNL     1      46.812 130.398  13.836  1.00  0.00    -0.059 C 
ATOM     13  C   UNL     1      47.398 129.264  14.273  1.00  0.00    -0.023 C 
ATOM     14  C   UNL     1      46.779 128.423  15.359  1.00  0.00     0.054 C 
ATOM     15  C   UNL     1      44.685 129.702  14.982  1.00  0.00    -0.012 C 
ATOM     16  C   UNL     1      45.282 128.580  15.409  1.00  0.00    -0.026 C 
ATOM     17  C   UNL     1      47.513 131.246  12.811  1.00  0.00     0.040 C 
ENDBRANCH   9  11
ENDBRANCH   8   9
ENDBRANCH   1   8
BRANCH   4  18
ATOM     18  N   UNL     1      43.646 130.897  21.653  1.00  0.00    -0.277 N 
BRANCH  18  19
ATOM     19  C   UNL     1      43.061 131.866  22.549  1.00  0.00     0.245 C 
ATOM     20  O   UNL     1      42.297 132.760  22.094  1.00  0.00    -0.273 OA
BRANCH  19  21
ATOM     21  C   UNL     1      43.341 131.836  24.024  1.00  0.00     0.220 C 
BRANCH  21  22
ATOM     22  C   UNL     1      44.522 132.648  24.336  1.00  0.00     0.072 C 
ATOM     23  N   UNL     1      45.454 133.288  24.580  1.00  0.00    -0.198 NA
ENDBRANCH  21  22
ENDBRANCH  19  21
ENDBRANCH  18  19
BRANCH  18  24
ATOM     24  C   UNL     1      43.972 129.570  22.118  1.00  0.00     0.051 A 
ATOM     25  C   UNL     1      45.057 128.852  21.547  1.00  0.00     0.027 A 
ATOM     26  C   UNL     1      43.227 128.982  23.168  1.00  0.00     0.053 A 
ATOM     27  C   UNL     1      45.391 127.564  22.005  1.00  0.00     0.012 A 
ATOM     28  C   UNL     1      43.585 127.706  23.596  1.00  0.00     0.047 A 
ATOM     29  C   UNL     1      44.628 127.023  23.035  1.00  0.00    -0.000 A 
ATOM     30  N   UNL     1      43.006 126.979  24.567  1.00  0.00    -0.361 N 
ATOM     31  C   UNL     1      44.720 125.807  23.676  1.00  0.00     0.028 A 
ATOM     32  C   UNL     1      43.698 125.817  24.620  1.00  0.00     0.083 A 
ATOM     33  H   UNL     1      42.191 127.251  25.159  1.00  0.00     0.166 HD
ENDBRANCH  18  24
ENDBRANCH   4  18
TORSDOF 8
ENDMDL
MODEL 4
REMARK VINA RESULT:      -2.9      1.954      4.700
REMARK SMILES CC1=CCC=C[C@H]1C(=O)Oc1ccc(N(C(=O)CC#N)c2ccc3cc[nH]c3c2)c(F)c1
REMARK SMILES IDX 11 1 12 2 13 3 14 4 30 5 31 6 32 7 10 8 8 9 9 10 7 11 2 12
REMARK SMILES IDX 3 13 4 14 6 15 5 16 1 17 15 18 16 19 17 20 18 21 19 22 20 23
REMARK SMILES IDX 21 24 22 25 29 26 23 27 28 28 24 29 27 30 25 31 26 32
REMARK H PARENT 27 33
ROOT
ATOM      1  C   UNL     1      43.697 131.854  17.798  1.00  0.00     0.133 A 
ATOM      2  C   UNL     1      44.878 131.249  18.263  1.00  0.00     0.049 A 
ATOM      3  C   UNL     1      45.098 131.097  19.634  1.00  0.00     0.034 A 
ATOM      4  C   UNL     1      44.135 131.527  20.558  1.00  0.00     0.085 A 
ATOM      5  C   UNL     1      42.952 132.124  20.095  1.00  0.00     0.151 A 
ATOM      6  F   UNL     1      42.027 132.587  20.973  1.00  0.00    -0.205 F 
ATOM      7  C   UNL     1      42.733 132.275  18.723  1.00  0.00     0.088 A 
ENDROOT
BRANCH   1   8
ATOM      8  O   UNL     1      43.425 132.021  16.432  1.00  0.00    -0.426 OA
BRANCH   8   9
ATOM      9  C   UNL     1      44.200 131.512  15.381  1.00  0.00     0.322 C 
ATOM     10  O   UNL     1      43.710 131.365  14.229  1.00  0.00    -0.251 OA
BRANCH   9  11
ATOM     11  C   UNL     1      45.599 131.049  15.655  1.00  0.00     0.147 C 
ATOM     12  C   UNL     1      45.882 129.765  14.892  1.00  0.00    -0.059 C 
ATOM     13  C   UNL     1      46.532 129.797  13.711  1.00  0.00    -0.023 C 
ATOM     14  C   UNL     1      46.976 131.096  13.088  1.00  0.00     0.054 C 
ATOM     15  C   UNL     1      46.573 132.148  15.301  1.00  0.00    -0.012 C 
ATOM     16  C   UNL     1      47.214 132.164  14.122  1.00  0.00    -0.026 C 
ATOM     17  C   UNL     1      45.385 128.451  15.429  1.00  0.00     0.040 C 
ENDBRANCH   9  11
ENDBRANCH   8   9
ENDBRANCH   1   8
BRANCH   4  18
ATOM     18  N   UNL     1      44.374 131.373  21.968  1.00  0.00    -0.277 N 
BRANCH  18  19
ATOM     19  C   UNL     1      43.652 130.375  22.720  1.00  0.00     0.245 C 
ATOM     20  O   UNL     1      44.119 129.208  22.823  1.00  0.00    -0.273 OA
BRANCH  19  21
ATOM     21  C   UNL     1      42.347 130.693  23.391  1.00  0.00     0.220 C 
BRANCH  21  22
ATOM     22  C   UNL     1      41.568 129.468  23.600  1.00  0.00     0.072 C 
ATOM     23  N   UNL     1      40.955 128.503  23.766  1.00  0.00    -0.198 NA
ENDBRANCH  21  22
ENDBRANCH  19  21
ENDBRANCH  18  19
BRANCH  18  24
ATOM     24  C   UNL     1      45.346 132.220  22.618  1.00  0.00     0.051 A 
ATOM     25  C   UNL     1      45.160 132.626  23.967  1.00  0.00     0.027 A 
ATOM     26  C   UNL     1      46.508 132.632  21.923  1.00  0.00     0.053 A 
ATOM     27  C   UNL     1      46.109 133.439  24.613  1.00  0.00     0.012 A 
ATOM     28  C   UNL     1      47.427 133.437  22.593  1.00  0.00     0.047 A 
ATOM     29  C   UNL     1      47.233 133.825  23.890  1.00  0.00    -0.000 A 
ATOM     30  N   UNL     1      48.579 133.933  22.113  1.00  0.00    -0.361 N 
ATOM     31  C   UNL     1      48.311 134.603  24.254  1.00  0.00     0.028 A 
ATOM     32  C   UNL     1      49.124 134.646  23.126  1.00  0.00     0.083 A 
ATOM     33  H   UNL     1      48.975 133.798  21.157  1.00  0.00     0.166 HD
ENDBRANCH  18  24
ENDBRANCH   4  18
TORSDOF 8
ENDMDL
MODEL 5
REMARK VINA RESULT:      -2.9      1.823      4.679
REMARK SMILES CC1=CCC=C[C@H]1C(=O)Oc1ccc(N(C(=O)CC#N)c2ccc3cc[nH]c3c2)c(F)c1
REMARK SMILES IDX 11 1 12 2 13 3 14 4 30 5 31 6 32 7 10 8 8 9 9 10 7 11 2 12
REMARK SMILES IDX 3 13 4 14 6 15 5 16 1 17 15 18 16 19 17 20 18 21 19 22 20 23
REMARK SMILES IDX 21 24 22 25 29 26 23 27 28 28 24 29 27 30 25 31 26 32
REMARK H PARENT 27 33
ROOT
ATOM      1  C   UNL     1      43.569 131.714  17.754  1.00  0.00     0.133 A 
ATOM      2  C   UNL     1      42.555 132.220  18.587  1.00  0.00     0.049 A 
ATOM      3  C   UNL     1      42.726 132.235  19.973  1.00  0.00     0.034 A 
ATOM      4  C   UNL     1      43.916 131.766  20.545  1.00  0.00     0.085 A 
ATOM      5  C   UNL     1      44.932 131.267  19.714  1.00  0.00     0.151 A 
ATOM      6  F   UNL     1      46.074 130.767  20.250  1.00  0.00    -0.205 F 
ATOM      7  C   UNL     1      44.760 131.253  18.328  1.00  0.00     0.088 A 
ENDROOT
BRANCH   1   8
ATOM      8  O   UNL     1      43.449 131.687  16.356  1.00  0.00    -0.426 OA
BRANCH   8   9
ATOM      9  C   UNL     1      44.420 131.207  15.467  1.00  0.00     0.322 C 
ATOM     10  O   UNL     1      44.090 130.555  14.439  1.00  0.00    -0.251 OA
BRANCH   9  11
ATOM     11  C   UNL     1      45.872 131.392  15.791  1.00  0.00     0.147 C 
ATOM     12  C   UNL     1      46.522 130.044  16.056  1.00  0.00    -0.059 C 
ATOM     13  C   UNL     1      47.213 129.412  15.085  1.00  0.00    -0.023 C 
ATOM     14  C   UNL     1      47.345 129.994  13.702  1.00  0.00     0.054 C 
ATOM     15  C   UNL     1      46.550 132.140  14.667  1.00  0.00    -0.012 C 
ATOM     16  C   UNL     1      47.235 131.496  13.710  1.00  0.00    -0.026 C 
ATOM     17  C   UNL     1      46.349 129.379  17.394  1.00  0.00     0.040 C 
ENDBRANCH   9  11
ENDBRANCH   8   9
ENDBRANCH   1   8
BRANCH   4  18
ATOM     18  N   UNL     1      44.080 131.778  21.974  1.00  0.00    -0.277 N 
BRANCH  18  19
ATOM     19  C   UNL     1      43.141 131.076  22.817  1.00  0.00     0.245 C 
ATOM     20  O   UNL     1      42.314 131.726  23.511  1.00  0.00    -0.273 OA
BRANCH  19  21
ATOM     21  C   UNL     1      43.123 129.576  22.888  1.00  0.00     0.220 C 
BRANCH  21  22
ATOM     22  C   UNL     1      44.173 129.096  23.792  1.00  0.00     0.072 C 
ATOM     23  N   UNL     1      45.001 128.719  24.505  1.00  0.00    -0.198 NA
ENDBRANCH  21  22
ENDBRANCH  19  21
ENDBRANCH  18  19
BRANCH  18  24
ATOM     24  C   UNL     1      45.194 132.491  22.553  1.00  0.00     0.051 A 
ATOM     25  C   UNL     1      45.224 132.771  23.946  1.00  0.00     0.027 A 
ATOM     26  C   UNL     1      46.280 132.894  21.740  1.00  0.00     0.053 A 
ATOM     27  C   UNL     1      46.312 133.452  24.521  1.00  0.00     0.012 A 
ATOM     28  C   UNL     1      47.341 133.566  22.343  1.00  0.00     0.047 A 
ATOM     29  C   UNL     1      47.356 133.835  23.684  1.00  0.00    -0.000 A 
ATOM     30  N   UNL     1      48.453 134.032  21.751  1.00  0.00    -0.361 N 
ATOM     31  C   UNL     1      48.529 134.501  23.959  1.00  0.00     0.028 A 
ATOM     32  C   UNL     1      49.184 134.604  22.736  1.00  0.00     0.083 A 
ATOM     33  H   UNL     1      48.705 133.969  20.740  1.00  0.00     0.166 HD
ENDBRANCH  18  24
ENDBRANCH   4  18
TORSDOF 8
ENDMDL
MODEL 6
REMARK VINA RESULT:      -2.4      1.707      2.407
REMARK SMILES CC1=CCC=C[C@H]1C(=O)Oc1ccc(N(C(=O)CC#N)c2ccc3cc[nH]c3c2)c(F)c1
REMARK SMILES IDX 11 1 12 2 13 3 14 4 30 5 31 6 32 7 10 8 8 9 9 10 7 11 2 12
REMARK SMILES IDX 3 13 4 14 6 15 5 16 1 17 15 18 16 19 17 20 18 21 19 22 20 23
REMARK SMILES IDX 21 24 22 25 29 26 23 27 28 28 24 29 27 30 25 31 26 32
REMARK H PARENT 27 33
ROOT
ATOM      1  C   UNL     1      43.534 131.795  18.260  1.00  0.00     0.133 A 
ATOM      2  C   UNL     1      42.419 131.855  19.116  1.00  0.00     0.049 A 
ATOM      3  C   UNL     1      42.557 131.551  20.473  1.00  0.00     0.034 A 
ATOM      4  C   UNL     1      43.810 131.205  20.997  1.00  0.00     0.085 A 
ATOM      5  C   UNL     1      44.925 131.152  20.145  1.00  0.00     0.151 A 
ATOM      6  F   UNL     1      46.138 130.775  20.623  1.00  0.00    -0.205 F 
ATOM      7  C   UNL     1      44.785 131.456  18.789  1.00  0.00     0.088 A 
ENDROOT
BRANCH   1   8
ATOM      8  O   UNL     1      43.449 132.101  16.894  1.00  0.00    -0.426 OA
BRANCH   8   9
ATOM      9  C   UNL     1      44.290 131.594  15.894  1.00  0.00     0.322 C 
ATOM     10  O   UNL     1      43.814 131.136  14.819  1.00  0.00    -0.251 OA
BRANCH   9  11
ATOM     11  C   UNL     1      45.765 131.510  16.145  1.00  0.00     0.147 C 
ATOM     12  C   UNL     1      46.191 130.057  16.267  1.00  0.00    -0.059 C 
ATOM     13  C   UNL     1      46.721 129.405  15.211  1.00  0.00    -0.023 C 
ATOM     14  C   UNL     1      46.885 130.075  13.871  1.00  0.00     0.054 C 
ATOM     15  C   UNL     1      46.507 132.231  15.044  1.00  0.00    -0.012 C 
ATOM     16  C   UNL     1      47.031 131.568  14.002  1.00  0.00    -0.026 C 
ATOM     17  C   UNL     1      45.970 129.317  17.558  1.00  0.00     0.040 C 
ENDBRANCH   9  11
ENDBRANCH   8   9
ENDBRANCH   1   8
BRANCH   4  18
ATOM     18  N   UNL     1      43.941 130.886  22.393  1.00  0.00    -0.277 N 
BRANCH  18  19
ATOM     19  C   UNL     1      43.521 131.836  23.396  1.00  0.00     0.245 C 
ATOM     20  O   UNL     1      42.456 131.637  24.041  1.00  0.00    -0.273 OA
BRANCH  19  21
ATOM     21  C   UNL     1      44.329 133.066  23.694  1.00  0.00     0.220 C 
BRANCH  21  22
ATOM     22  C   UNL     1      45.657 132.966  23.080  1.00  0.00     0.072 C 
ATOM     23  N   UNL     1      46.704 132.886  22.597  1.00  0.00    -0.198 NA
ENDBRANCH  21  22
ENDBRANCH  19  21
ENDBRANCH  18  19
BRANCH  18  24
ATOM     24  C   UNL     1      44.488 129.606  22.779  1.00  0.00     0.051 A 
ATOM     25  C   UNL     1      44.381 129.152  24.122  1.00  0.00     0.027 A 
ATOM     26  C   UNL     1      45.113 128.780  21.815  1.00  0.00     0.053 A 
ATOM     27  C   UNL     1      44.897 127.901  24.503  1.00  0.00     0.012 A 
ATOM     28  C   UNL     1      45.613 127.547  22.228  1.00  0.00     0.047 A 
ATOM     29  C   UNL     1      45.509 127.124  23.525  1.00  0.00    -0.000 A 
ATOM     30  N   UNL     1      46.240 126.628  21.476  1.00  0.00    -0.361 N 
ATOM     31  C   UNL     1      46.093 125.879  23.602  1.00  0.00     0.028 A 
ATOM     32  C   UNL     1      46.534 125.605  22.311  1.00  0.00     0.083 A 
ATOM     33  H   UNL     1      46.457 126.687  20.456  1.00  0.00     0.166 HD
ENDBRANCH  18  24
ENDBRANCH   4  18
TORSDOF 8
ENDMDL


