REMARK SMILES Cc1c(F)c(F)c(CCC([O-])=C2CCC2)c(N)c1Nc1ccc(F)cc1
REMARK SMILES IDX 1 1 2 2 3 3 4 4 5 5 6 6 7 7 16 8 18 9 19 10 20 12 21 13
REMARK SMILES IDX 26 14 22 15 25 16 23 17 24 18 17 19 8 22 9 23 10 24 11 25
REMARK SMILES IDX 12 26 13 27 15 28 14 29
REMARK H PARENT 19 11 17 20 17 21
ROOT
ATOM      1  C   UNL     1      -0.980  -0.870  -2.055  1.00  0.00     0.050 C 
ATOM      2  C   UNL     1      -0.518   0.286  -1.203  1.00  0.00     0.013 A 
ATOM      3  C   UNL     1      -1.426   1.300  -0.871  1.00  0.00     0.164 A 
ATOM      4  F   UNL     1      -2.713   1.239  -1.297  1.00  0.00    -0.203 F 
ATOM      5  C   UNL     1      -1.020   2.392  -0.105  1.00  0.00     0.164 A 
ATOM      6  F   UNL     1      -1.931   3.356   0.186  1.00  0.00    -0.203 F 
ATOM      7  C   UNL     1       0.303   2.492   0.363  1.00  0.00     0.016 A 
ATOM      8  C   UNL     1       1.220   1.444   0.081  1.00  0.00     0.062 A 
ATOM      9  C   UNL     1       0.800   0.340  -0.698  1.00  0.00     0.068 A 
ENDROOT
BRANCH   9  10
ATOM     10  N   UNL     1       1.732  -0.708  -1.005  1.00  0.00    -0.354 N 
ATOM     11  H   UNL     1       2.545  -0.464  -1.615  1.00  0.00     0.167 HD
BRANCH  10  12
ATOM     12  C   UNL     1       1.656  -2.034  -0.449  1.00  0.00     0.039 A 
ATOM     13  C   UNL     1       2.547  -3.021  -0.899  1.00  0.00     0.029 A 
ATOM     14  C   UNL     1       0.720  -2.364   0.551  1.00  0.00     0.029 A 
ATOM     15  C   UNL     1       2.500  -4.314  -0.369  1.00  0.00     0.041 A 
ATOM     16  C   UNL     1       0.676  -3.658   1.078  1.00  0.00     0.041 A 
ATOM     17  C   UNL     1       1.564  -4.633   0.618  1.00  0.00     0.123 A 
ATOM     18  F   UNL     1       1.520  -5.887   1.131  1.00  0.00    -0.207 F 
ENDBRANCH  10  12
ENDBRANCH   9  10
BRANCH   8  19
ATOM     19  N   UNL     1       2.562   1.470   0.601  1.00  0.00    -0.397 N 
ATOM     20  H   UNL     1       2.916   2.233   1.215  1.00  0.00     0.156 HD
ATOM     21  H   UNL     1       3.234   0.693   0.417  1.00  0.00     0.156 HD
ENDBRANCH   8  19
BRANCH   7  22
ATOM     22  C   UNL     1       0.692   3.697   1.199  1.00  0.00     0.044 C 
BRANCH  22  23
ATOM     23  C   UNL     1       0.641   3.397   2.705  1.00  0.00     0.023 C 
BRANCH  23  24
ATOM     24  C   UNL     1      -0.771   3.210   3.184  1.00  0.00    -0.133 C 
ATOM     25  O   UNL     1      -1.563   4.326   3.424  1.00  0.00    -0.875 OA
BRANCH  24  26
ATOM     26  C   UNL     1      -1.288   1.995   3.350  1.00  0.00    -0.082 C 
ATOM     27  C   UNL     1      -2.622   1.405   3.761  1.00  0.00     0.030 C 
ATOM     28  C   UNL     1      -0.838   0.554   3.205  1.00  0.00     0.030 C 
ATOM     29  C   UNL     1      -2.162  -0.009   3.609  1.00  0.00     0.009 C 
ENDBRANCH  24  26
ENDBRANCH  23  24
ENDBRANCH  22  23
ENDBRANCH   7  22
TORSDOF 7


