REMARK SMILES CC(=O)c1ccc([C@@H]2[C@H](F)[C@H](C)CCN2/C(S)=[NH+]\c2nc3ccccc3s2)cc1F
REMARK SMILES IDX 15 1 14 2 13 3 11 4 12 5 9 6 10 7 8 8 16 9 17 10 18 12 19 14
REMARK SMILES IDX 20 15 27 16 21 17 26 18 22 19 25 20 23 21 24 22 7 23 6 24
REMARK SMILES IDX 28 25 5 26 29 27 4 28 30 29 2 30 3 31 1 32
REMARK H PARENT 17 11 18 13
ROOT
ATOM      1  N   UNL     1      -0.794  -0.560   0.824  1.00  0.00    -0.277 N 
ATOM      2  C   UNL     1      -2.068  -1.295   0.827  1.00  0.00     0.198 C 
ATOM      3  C   UNL     1      -2.291  -2.032  -0.497  1.00  0.00     0.044 C 
ATOM      4  C   UNL     1      -1.074  -2.902  -0.851  1.00  0.00     0.027 C 
ATOM      5  C   UNL     1      -1.306  -3.645  -2.172  1.00  0.00     0.011 C 
ATOM      6  C   UNL     1       0.195  -2.034  -0.917  1.00  0.00     0.211 C 
ATOM      7  F   UNL     1       0.083  -1.121  -1.956  1.00  0.00    -0.243 F 
ATOM      8  C   UNL     1       0.421  -1.303   0.424  1.00  0.00     0.210 C 
ENDROOT
BRANCH   1   9
ATOM      9  C   UNL     1      -0.693   0.523   1.769  1.00  0.00     0.255 C 
BRANCH   9  10
ATOM     10  S   UNL     1       0.115   0.227   3.345  1.00  0.00    -0.074 SA
ATOM     11  H   UNL     1      -1.088  -0.201   3.937  1.00  0.00     0.114 HD
ENDBRANCH   9  10
BRANCH   9  12
ATOM     12  N   UNL     1      -1.214   1.697   1.533  1.00  0.00    -0.229 N 
ATOM     13  H   UNL     1      -1.151   2.422   2.282  1.00  0.00     0.268 HD
BRANCH  12  14
ATOM     14  C   UNL     1      -1.859   2.095   0.310  1.00  0.00     0.320 A 
ATOM     15  N   UNL     1      -1.884   1.347  -0.821  1.00  0.00    -0.092 NA
ATOM     16  S   UNL     1      -2.628   3.591   0.108  1.00  0.00    -0.061 S 
ATOM     17  C   UNL     1      -2.534   1.995  -1.819  1.00  0.00     0.157 A 
ATOM     18  C   UNL     1      -3.017   3.252  -1.489  1.00  0.00     0.076 A 
ATOM     19  C   UNL     1      -2.725   1.478  -3.101  1.00  0.00     0.048 A 
ATOM     20  C   UNL     1      -3.703   4.043  -2.406  1.00  0.00     0.023 A 
ATOM     21  C   UNL     1      -3.415   2.257  -4.045  1.00  0.00     0.004 A 
ATOM     22  C   UNL     1      -3.902   3.534  -3.700  1.00  0.00     0.002 A 
ENDBRANCH  12  14
ENDBRANCH   9  12
ENDBRANCH   1   9
BRANCH   8  23
ATOM     23  C   UNL     1       1.656  -0.414   0.338  1.00  0.00    -0.005 A 
ATOM     24  C   UNL     1       1.644   0.787  -0.388  1.00  0.00     0.008 A 
ATOM     25  C   UNL     1       2.844  -0.806   0.976  1.00  0.00     0.047 A 
ATOM     26  C   UNL     1       2.786   1.587  -0.458  1.00  0.00     0.015 A 
ATOM     27  C   UNL     1       3.991  -0.009   0.908  1.00  0.00     0.134 A 
ATOM     28  C   UNL     1       3.978   1.202   0.182  1.00  0.00     0.053 A 
ATOM     29  F   UNL     1       5.094  -0.421   1.581  1.00  0.00    -0.206 F 
BRANCH  28  30
ATOM     30  C   UNL     1       5.173   2.084   0.077  1.00  0.00     0.162 C 
ATOM     31  O   UNL     1       5.024   3.294  -0.243  1.00  0.00    -0.294 OA
ATOM     32  C   UNL     1       6.563   1.592   0.347  1.00  0.00     0.093 C 
ENDBRANCH  28  30
ENDBRANCH   8  23
TORSDOF 6


