REMARK SMILES Cc1[nH]nc2cc(-c3ccc([O-])cc3)ccc12
REMARK SMILES IDX 1 1 2 2 3 3 4 4 5 5 6 6 7 7 15 8 16 9 17 10 8 12 9 13 14 14
REMARK SMILES IDX 10 15 13 16 11 17 12 18
REMARK H PARENT 3 11
ROOT
ATOM      1  C   UNL     1       0.513  -2.995   3.492  1.00  0.00     0.067 C 
ATOM      2  C   UNL     1      -0.615  -2.285   2.816  1.00  0.00     0.040 A 
ATOM      3  N   UNL     1      -1.919  -2.406   3.154  1.00  0.00    -0.282 N 
ATOM      4  N   UNL     1      -2.661  -1.601   2.400  1.00  0.00    -0.175 NA
ATOM      5  C   UNL     1      -1.813  -0.954   1.579  1.00  0.00     0.093 A 
ATOM      6  C   UNL     1      -2.125   0.000   0.615  1.00  0.00     0.039 A 
ATOM      7  C   UNL     1      -1.063   0.564  -0.135  1.00  0.00    -0.016 A 
ATOM      8  C   UNL     1       0.273   0.144   0.122  1.00  0.00     0.009 A 
ATOM      9  C   UNL     1       0.550  -0.822   1.106  1.00  0.00     0.013 A 
ATOM     10  C   UNL     1      -0.526  -1.350   1.811  1.00  0.00     0.023 A 
ATOM     11  H   UNL     1      -2.307  -3.029   3.898  1.00  0.00     0.190 HD
ENDROOT
BRANCH   7  12
ATOM     12  C   UNL     1      -1.342   1.585  -1.176  1.00  0.00    -0.018 A 
ATOM     13  C   UNL     1      -2.305   2.588  -0.956  1.00  0.00     0.008 A 
ATOM     14  C   UNL     1      -0.647   1.567  -2.401  1.00  0.00     0.008 A 
ATOM     15  C   UNL     1      -2.566   3.548  -1.938  1.00  0.00    -0.008 A 
ATOM     16  C   UNL     1      -0.912   2.529  -3.380  1.00  0.00    -0.008 A 
ATOM     17  C   UNL     1      -1.870   3.519  -3.150  1.00  0.00    -0.109 A 
ATOM     18  O   UNL     1      -2.131   4.475  -4.124  1.00  0.00    -0.872 OA
ENDBRANCH   7  12
TORSDOF 1


