REMARK SMILES C=Cc1ccc(-c2cnc3oc[nH+]c3c2)c(NC[C@@H](C)C(C)C)c1F
REMARK SMILES IDX 17 1 16 3 3 4 4 5 24 6 5 7 6 8 25 9 2 10 1 11 7 12 8 13
REMARK SMILES IDX 15 14 9 15 14 16 10 17 13 18 11 19 12 20 18 22 19 23 20 24
REMARK SMILES IDX 21 25 22 26 23 27
REMARK H PARENT 17 2 13 21
ROOT
ATOM      1  N   UNL     1      -0.109  -0.518  -1.821  1.00  0.00    -0.382 N 
ATOM      2  H   UNL     1      -0.087  -0.924  -2.783  1.00  0.00     0.160 HD
ENDROOT
BRANCH   1   3
ATOM      3  C   UNL     1      -0.777   0.743  -1.671  1.00  0.00     0.079 A 
ATOM      4  C   UNL     1      -1.123   3.032  -2.456  1.00  0.00     0.012 A 
ATOM      5  C   UNL     1      -1.987   3.256  -1.377  1.00  0.00     0.012 A 
ATOM      6  C   UNL     1      -0.536   1.759  -2.612  1.00  0.00     0.154 A 
ATOM      7  C   UNL     1      -2.246   2.245  -0.451  1.00  0.00     0.012 A 
ATOM      8  C   UNL     1      -1.655   0.980  -0.589  1.00  0.00     0.010 A 
ATOM      9  F   UNL     1       0.253   1.488  -3.683  1.00  0.00    -0.204 F 
BRANCH   4  10
ATOM     10  C   UNL     1      -0.894   4.139  -3.413  1.00  0.00     0.003 C 
ATOM     11  C   UNL     1       0.272   4.354  -4.022  1.00  0.00     0.009 C 
ENDBRANCH   4  10
BRANCH   8  12
ATOM     12  C   UNL     1      -2.018  -0.089   0.370  1.00  0.00     0.009 A 
ATOM     13  C   UNL     1      -2.497  -1.346  -0.094  1.00  0.00     0.124 A 
ATOM     14  C   UNL     1      -1.929   0.142   1.762  1.00  0.00     0.095 A 
ATOM     15  N   UNL     1      -2.857  -2.328   0.788  1.00  0.00    -0.215 NA
ATOM     16  C   UNL     1      -2.308  -0.895   2.604  1.00  0.00     0.270 A 
ATOM     17  C   UNL     1      -2.752  -2.078   2.115  1.00  0.00     0.297 A 
ATOM     18  N   UNL     1      -2.305  -0.952   3.942  1.00  0.00    -0.175 N 
ATOM     19  O   UNL     1      -3.033  -2.886   3.104  1.00  0.00    -0.384 OA
ATOM     20  C   UNL     1      -2.761  -2.203   4.207  1.00  0.00     0.522 A 
ATOM     21  H   UNL     1      -2.017  -0.213   4.622  1.00  0.00     0.457 HD
ENDBRANCH   8  12
ENDBRANCH   1   3
BRANCH   1  22
ATOM     22  C   UNL     1       0.940  -0.921  -0.880  1.00  0.00     0.116 C 
BRANCH  22  23
ATOM     23  C   UNL     1       0.991  -2.463  -0.710  1.00  0.00     0.008 C 
ATOM     24  C   UNL     1       1.661  -3.091  -1.951  1.00  0.00     0.010 C 
BRANCH  23  25
ATOM     25  C   UNL     1       1.720  -2.863   0.620  1.00  0.00    -0.013 C 
ATOM     26  C   UNL     1       0.843  -2.578   1.855  1.00  0.00     0.008 C 
ATOM     27  C   UNL     1       2.132  -4.348   0.661  1.00  0.00     0.008 C 
ENDBRANCH  23  25
ENDBRANCH  22  23
ENDBRANCH   1  22
TORSDOF 6


