MODEL 1
REMARK VINA RESULT:     -10.2      0.000      0.000
REMARK SMILES Nc1cc(F)c[nH]/c1=N\c1c[nH]c2nccc-2c1
REMARK SMILES IDX 8 1 2 2 3 3 4 4 5 5 6 6 7 7 9 9 10 10 15 11 14 12 16 13
REMARK SMILES IDX 13 14 17 15 12 16 18 17 11 18 1 20
REMARK H PARENT 7 8 12 19 1 21 1 22
ROOT
ATOM      1  C   UNL     1      43.869 131.672  18.242  1.00  0.00     0.154 A 
ATOM      2  C   UNL     1      42.717 132.182  18.876  1.00  0.00     0.078 A 
ATOM      3  C   UNL     1      42.653 132.180  20.276  1.00  0.00     0.070 A 
ATOM      4  C   UNL     1      43.721 131.692  21.024  1.00  0.00     0.141 A 
ATOM      5  F   UNL     1      43.664 131.691  22.379  1.00  0.00    -0.205 F 
ATOM      6  C   UNL     1      44.854 131.218  20.368  1.00  0.00     0.123 A 
ATOM      7  N   UNL     1      44.914 131.221  19.008  1.00  0.00    -0.342 N 
ATOM      8  H   UNL     1      45.807 130.900  18.574  1.00  0.00     0.168 HD
ENDROOT
BRANCH   1   9
ATOM      9  N   UNL     1      43.930 131.676  16.937  1.00  0.00    -0.228 NA
BRANCH   9  10
ATOM     10  C   UNL     1      44.889 131.007  16.107  1.00  0.00     0.082 A 
ATOM     11  C   UNL     1      48.193 130.200  13.155  1.00  0.00     0.114 A 
ATOM     12  N   UNL     1      47.780 129.135  13.892  1.00  0.00    -0.239 NA
ATOM     13  C   UNL     1      47.495 131.372  13.461  1.00  0.00     0.032 A 
ATOM     14  C   UNL     1      46.806 129.630  14.671  1.00  0.00     0.137 A 
ATOM     15  C   UNL     1      46.598 131.017  14.435  1.00  0.00     0.021 A 
ATOM     16  N   UNL     1      46.098 128.956  15.609  1.00  0.00    -0.344 N 
ATOM     17  C   UNL     1      45.651 131.726  15.155  1.00  0.00     0.042 A 
ATOM     18  C   UNL     1      45.152 129.630  16.333  1.00  0.00     0.112 A 
ATOM     19  H   UNL     1      46.275 127.941  15.781  1.00  0.00     0.168 HD
ENDBRANCH   9  10
ENDBRANCH   1   9
BRANCH   2  20
ATOM     20  N   UNL     1      41.608 132.688  18.120  1.00  0.00    -0.396 N 
ATOM     21  H   UNL     1      40.879 133.279  18.577  1.00  0.00     0.156 HD
ATOM     22  H   UNL     1      41.501 132.484  17.101  1.00  0.00     0.156 HD
ENDBRANCH   2  20
TORSDOF 3
ENDMDL
MODEL 2
REMARK VINA RESULT:      -9.7      1.619      2.473
REMARK SMILES Nc1cc(F)c[nH]/c1=N\c1c[nH]c2nccc-2c1
REMARK SMILES IDX 8 1 2 2 3 3 4 4 5 5 6 6 7 7 9 9 10 10 15 11 14 12 16 13
REMARK SMILES IDX 13 14 17 15 12 16 18 17 11 18 1 20
REMARK H PARENT 7 8 12 19 1 21 1 22
ROOT
ATOM      1  C   UNL     1      44.182 131.354  18.881  1.00  0.00     0.154 A 
ATOM      2  C   UNL     1      44.191 131.627  20.265  1.00  0.00     0.078 A 
ATOM      3  C   UNL     1      43.113 132.323  20.828  1.00  0.00     0.070 A 
ATOM      4  C   UNL     1      42.046 132.725  20.029  1.00  0.00     0.141 A 
ATOM      5  F   UNL     1      41.000 133.397  20.571  1.00  0.00    -0.205 F 
ATOM      6  C   UNL     1      42.057 132.419  18.671  1.00  0.00     0.123 A 
ATOM      7  N   UNL     1      43.105 131.742  18.125  1.00  0.00    -0.342 N 
ATOM      8  H   UNL     1      43.035 131.499  17.114  1.00  0.00     0.168 HD
ENDROOT
BRANCH   1   9
ATOM      9  N   UNL     1      45.186 130.704  18.356  1.00  0.00    -0.228 NA
BRANCH   9  10
ATOM     10  C   UNL     1      45.774 130.902  17.063  1.00  0.00     0.082 A 
ATOM     11  C   UNL     1      47.811 130.174  13.113  1.00  0.00     0.114 A 
ATOM     12  N   UNL     1      47.260 131.406  13.280  1.00  0.00    -0.239 NA
ATOM     13  C   UNL     1      47.636 129.349  14.227  1.00  0.00     0.032 A 
ATOM     14  C   UNL     1      46.734 131.368  14.515  1.00  0.00     0.137 A 
ATOM     15  C   UNL     1      46.946 130.106  15.137  1.00  0.00     0.021 A 
ATOM     16  N   UNL     1      46.046 132.357  15.133  1.00  0.00    -0.344 N 
ATOM     17  C   UNL     1      46.459 129.851  16.408  1.00  0.00     0.042 A 
ATOM     18  C   UNL     1      45.558 132.135  16.392  1.00  0.00     0.112 A 
ATOM     19  H   UNL     1      45.885 133.272  14.655  1.00  0.00     0.168 HD
ENDBRANCH   9  10
ENDBRANCH   1   9
BRANCH   2  20
ATOM     20  N   UNL     1      45.282 131.220  21.102  1.00  0.00    -0.396 N 
ATOM     21  H   UNL     1      45.767 130.310  20.936  1.00  0.00     0.156 HD
ATOM     22  H   UNL     1      45.620 131.815  21.890  1.00  0.00     0.156 HD
ENDBRANCH   2  20
TORSDOF 3
ENDMDL
MODEL 3
REMARK VINA RESULT:      -9.3      2.930      6.417
REMARK SMILES Nc1cc(F)c[nH]/c1=N\c1c[nH]c2nccc-2c1
REMARK SMILES IDX 8 1 2 2 3 3 4 4 5 5 6 6 7 7 9 9 10 10 15 11 14 12 16 13
REMARK SMILES IDX 13 14 17 15 12 16 18 17 11 18 1 20
REMARK H PARENT 7 8 12 19 1 21 1 22
ROOT
ATOM      1  C   UNL     1      45.590 130.899  14.885  1.00  0.00     0.154 A 
ATOM      2  C   UNL     1      45.926 129.530  14.935  1.00  0.00     0.078 A 
ATOM      3  C   UNL     1      47.100 129.094  14.307  1.00  0.00     0.070 A 
ATOM      4  C   UNL     1      47.924 130.007  13.655  1.00  0.00     0.141 A 
ATOM      5  F   UNL     1      49.063 129.589  13.048  1.00  0.00    -0.205 F 
ATOM      6  C   UNL     1      47.577 131.355  13.645  1.00  0.00     0.123 A 
ATOM      7  N   UNL     1      46.436 131.777  14.257  1.00  0.00    -0.342 N 
ATOM      8  H   UNL     1      46.253 132.804  14.258  1.00  0.00     0.168 HD
ENDROOT
BRANCH   1   9
ATOM      9  N   UNL     1      44.496 131.306  15.473  1.00  0.00    -0.228 NA
BRANCH   9  10
ATOM     10  C   UNL     1      44.241 131.389  16.881  1.00  0.00     0.082 A 
ATOM     11  C   UNL     1      44.802 131.507  21.348  1.00  0.00     0.114 A 
ATOM     12  N   UNL     1      43.565 131.843  20.895  1.00  0.00    -0.239 NA
ATOM     13  C   UNL     1      45.685 131.181  20.316  1.00  0.00     0.032 A 
ATOM     14  C   UNL     1      43.658 131.723  19.561  1.00  0.00     0.137 A 
ATOM     15  C   UNL     1      44.960 131.315  19.160  1.00  0.00     0.021 A 
ATOM     16  N   UNL     1      42.685 131.980  18.655  1.00  0.00    -0.344 N 
ATOM     17  C   UNL     1      45.274 131.156  17.821  1.00  0.00     0.042 A 
ATOM     18  C   UNL     1      42.965 131.827  17.324  1.00  0.00     0.112 A 
ATOM     19  H   UNL     1      41.738 132.295  18.966  1.00  0.00     0.168 HD
ENDBRANCH   9  10
ENDBRANCH   1   9
BRANCH   2  20
ATOM     20  N   UNL     1      45.087 128.577  15.602  1.00  0.00    -0.396 N 
ATOM     21  H   UNL     1      44.047 128.632  15.515  1.00  0.00     0.156 HD
ATOM     22  H   UNL     1      45.486 127.809  16.186  1.00  0.00     0.156 HD
ENDBRANCH   2  20
TORSDOF 3
ENDMDL
MODEL 4
REMARK VINA RESULT:      -9.0      2.907      6.556
REMARK SMILES Nc1cc(F)c[nH]/c1=N\c1c[nH]c2nccc-2c1
REMARK SMILES IDX 8 1 2 2 3 3 4 4 5 5 6 6 7 7 9 9 10 10 15 11 14 12 16 13
REMARK SMILES IDX 13 14 17 15 12 16 18 17 11 18 1 20
REMARK H PARENT 7 8 12 19 1 21 1 22
ROOT
ATOM      1  C   UNL     1      45.366 131.036  15.529  1.00  0.00     0.154 A 
ATOM      2  C   UNL     1      45.719 129.731  15.128  1.00  0.00     0.078 A 
ATOM      3  C   UNL     1      46.765 129.559  14.212  1.00  0.00     0.070 A 
ATOM      4  C   UNL     1      47.450 130.665  13.719  1.00  0.00     0.141 A 
ATOM      5  F   UNL     1      48.465 130.503  12.834  1.00  0.00    -0.205 F 
ATOM      6  C   UNL     1      47.094 131.940  14.152  1.00  0.00     0.123 A 
ATOM      7  N   UNL     1      46.077 132.104  15.043  1.00  0.00    -0.342 N 
ATOM      8  H   UNL     1      45.887 133.077  15.368  1.00  0.00     0.168 HD
ENDROOT
BRANCH   1   9
ATOM      9  N   UNL     1      44.392 131.197  16.384  1.00  0.00    -0.228 NA
BRANCH   9  10
ATOM     10  C   UNL     1      44.486 131.246  17.814  1.00  0.00     0.082 A 
ATOM     11  C   UNL     1      43.455 131.717  22.173  1.00  0.00     0.114 A 
ATOM     12  N   UNL     1      44.674 131.178  21.905  1.00  0.00    -0.239 NA
ATOM     13  C   UNL     1      42.737 132.030  21.016  1.00  0.00     0.032 A 
ATOM     14  C   UNL     1      44.736 131.153  20.564  1.00  0.00     0.137 A 
ATOM     15  C   UNL     1      43.552 131.673  19.974  1.00  0.00     0.021 A 
ATOM     16  N   UNL     1      45.753 130.672  19.810  1.00  0.00    -0.344 N 
ATOM     17  C   UNL     1      43.404 131.715  18.597  1.00  0.00     0.042 A 
ATOM     18  C   UNL     1      45.636 130.705  18.446  1.00  0.00     0.112 A 
ATOM     19  H   UNL     1      46.610 130.278  20.260  1.00  0.00     0.168 HD
ENDBRANCH   9  10
ENDBRANCH   1   9
BRANCH   2  20
ATOM     20  N   UNL     1      45.022 128.581  15.628  1.00  0.00    -0.396 N 
ATOM     21  H   UNL     1      44.579 128.597  16.573  1.00  0.00     0.156 HD
ATOM     22  H   UNL     1      44.938 127.704  15.066  1.00  0.00     0.156 HD
ENDBRANCH   2  20
TORSDOF 3
ENDMDL
MODEL 5
REMARK VINA RESULT:      -8.6      1.175      1.609
REMARK SMILES Nc1cc(F)c[nH]/c1=N\c1c[nH]c2nccc-2c1
REMARK SMILES IDX 8 1 2 2 3 3 4 4 5 5 6 6 7 7 9 9 10 10 15 11 14 12 16 13
REMARK SMILES IDX 13 14 17 15 12 16 18 17 11 18 1 20
REMARK H PARENT 7 8 12 19 1 21 1 22
ROOT
ATOM      1  C   UNL     1      44.163 131.412  18.789  1.00  0.00     0.154 A 
ATOM      2  C   UNL     1      43.090 131.850  19.593  1.00  0.00     0.078 A 
ATOM      3  C   UNL     1      43.237 131.847  20.986  1.00  0.00     0.070 A 
ATOM      4  C   UNL     1      44.434 131.429  21.561  1.00  0.00     0.141 A 
ATOM      5  F   UNL     1      44.582 131.428  22.910  1.00  0.00    -0.205 F 
ATOM      6  C   UNL     1      45.483 131.026  20.739  1.00  0.00     0.123 A 
ATOM      7  N   UNL     1      45.338 131.030  19.386  1.00  0.00    -0.342 N 
ATOM      8  H   UNL     1      46.174 130.764  18.821  1.00  0.00     0.168 HD
ENDROOT
BRANCH   1   9
ATOM      9  N   UNL     1      44.027 131.416  17.490  1.00  0.00    -0.228 NA
BRANCH   9  10
ATOM     10  C   UNL     1      45.061 131.300  16.504  1.00  0.00     0.082 A 
ATOM     11  C   UNL     1      47.999 129.610  13.538  1.00  0.00     0.114 A 
ATOM     12  N   UNL     1      47.857 130.962  13.530  1.00  0.00    -0.239 NA
ATOM     13  C   UNL     1      47.186 128.987  14.489  1.00  0.00     0.032 A 
ATOM     14  C   UNL     1      46.950 131.205  14.490  1.00  0.00     0.137 A 
ATOM     15  C   UNL     1      46.507 130.003  15.109  1.00  0.00     0.021 A 
ATOM     16  N   UNL     1      46.451 132.412  14.846  1.00  0.00    -0.344 N 
ATOM     17  C   UNL     1      45.551 130.032  16.110  1.00  0.00     0.042 A 
ATOM     18  C   UNL     1      45.508 132.471  15.836  1.00  0.00     0.112 A 
ATOM     19  H   UNL     1      46.775 133.284  14.369  1.00  0.00     0.168 HD
ENDBRANCH   9  10
ENDBRANCH   1   9
BRANCH   2  20
ATOM     20  N   UNL     1      41.851 132.283  19.015  1.00  0.00    -0.396 N 
ATOM     21  H   UNL     1      40.946 131.856  19.316  1.00  0.00     0.156 HD
ATOM     22  H   UNL     1      41.818 133.031  18.287  1.00  0.00     0.156 HD
ENDBRANCH   2  20
TORSDOF 3
ENDMDL
MODEL 6
REMARK VINA RESULT:      -8.6      2.725      6.442
REMARK SMILES Nc1cc(F)c[nH]/c1=N\c1c[nH]c2nccc-2c1
REMARK SMILES IDX 8 1 2 2 3 3 4 4 5 5 6 6 7 7 9 9 10 10 15 11 14 12 16 13
REMARK SMILES IDX 13 14 17 15 12 16 18 17 11 18 1 20
REMARK H PARENT 7 8 12 19 1 21 1 22
ROOT
ATOM      1  C   UNL     1      44.937 130.933  15.800  1.00  0.00     0.154 A 
ATOM      2  C   UNL     1      46.005 131.681  15.262  1.00  0.00     0.078 A 
ATOM      3  C   UNL     1      47.032 131.012  14.585  1.00  0.00     0.070 A 
ATOM      4  C   UNL     1      46.986 129.628  14.437  1.00  0.00     0.141 A 
ATOM      5  F   UNL     1      47.977 128.976  13.779  1.00  0.00    -0.205 F 
ATOM      6  C   UNL     1      45.906 128.921  14.958  1.00  0.00     0.123 A 
ATOM      7  N   UNL     1      44.908 129.574  15.616  1.00  0.00    -0.342 N 
ATOM      8  H   UNL     1      44.102 128.998  15.942  1.00  0.00     0.168 HD
ENDROOT
BRANCH   1   9
ATOM      9  N   UNL     1      43.978 131.557  16.431  1.00  0.00    -0.228 NA
BRANCH   9  10
ATOM     10  C   UNL     1      43.722 131.564  17.841  1.00  0.00     0.082 A 
ATOM     11  C   UNL     1      44.277 131.444  22.309  1.00  0.00     0.114 A 
ATOM     12  N   UNL     1      43.039 131.800  21.873  1.00  0.00    -0.239 NA
ATOM     13  C   UNL     1      45.162 131.176  21.262  1.00  0.00     0.032 A 
ATOM     14  C   UNL     1      43.134 131.752  20.534  1.00  0.00     0.137 A 
ATOM     15  C   UNL     1      44.438 131.370  20.114  1.00  0.00     0.021 A 
ATOM     16  N   UNL     1      42.161 132.054  19.642  1.00  0.00    -0.344 N 
ATOM     17  C   UNL     1      44.754 131.283  18.769  1.00  0.00     0.042 A 
ATOM     18  C   UNL     1      42.443 131.973  18.305  1.00  0.00     0.112 A 
ATOM     19  H   UNL     1      41.214 132.350  19.968  1.00  0.00     0.168 HD
ENDBRANCH   9  10
ENDBRANCH   1   9
BRANCH   2  20
ATOM     20  N   UNL     1      46.067 133.107  15.406  1.00  0.00    -0.396 N 
ATOM     21  H   UNL     1      46.537 133.537  16.234  1.00  0.00     0.156 HD
ATOM     22  H   UNL     1      45.652 133.748  14.695  1.00  0.00     0.156 HD
ENDBRANCH   2  20
TORSDOF 3
ENDMDL
MODEL 7
REMARK VINA RESULT:      -8.4      2.779      6.579
REMARK SMILES Nc1cc(F)c[nH]/c1=N\c1c[nH]c2nccc-2c1
REMARK SMILES IDX 8 1 2 2 3 3 4 4 5 5 6 6 7 7 9 9 10 10 15 11 14 12 16 13
REMARK SMILES IDX 13 14 17 15 12 16 18 17 11 18 1 20
REMARK H PARENT 7 8 12 19 1 21 1 22
ROOT
ATOM      1  C   UNL     1      45.199 130.835  16.151  1.00  0.00     0.154 A 
ATOM      2  C   UNL     1      46.044 131.658  15.377  1.00  0.00     0.078 A 
ATOM      3  C   UNL     1      46.951 131.060  14.491  1.00  0.00     0.070 A 
ATOM      4  C   UNL     1      47.002 129.674  14.373  1.00  0.00     0.141 A 
ATOM      5  F   UNL     1      47.876 129.092  13.514  1.00  0.00    -0.205 F 
ATOM      6  C   UNL     1      46.137 128.891  15.133  1.00  0.00     0.123 A 
ATOM      7  N   UNL     1      45.257 129.473  15.993  1.00  0.00    -0.342 N 
ATOM      8  H   UNL     1      44.602 128.839  16.499  1.00  0.00     0.168 HD
ENDROOT
BRANCH   1   9
ATOM      9  N   UNL     1      44.353 131.391  16.976  1.00  0.00    -0.228 NA
BRANCH   9  10
ATOM     10  C   UNL     1      44.405 131.394  18.409  1.00  0.00     0.082 A 
ATOM     11  C   UNL     1      43.236 131.683  22.748  1.00  0.00     0.114 A 
ATOM     12  N   UNL     1      44.478 131.191  22.499  1.00  0.00    -0.239 NA
ATOM     13  C   UNL     1      42.541 132.013  21.582  1.00  0.00     0.032 A 
ATOM     14  C   UNL     1      44.580 131.215  21.160  1.00  0.00     0.137 A 
ATOM     15  C   UNL     1      43.396 131.718  20.553  1.00  0.00     0.021 A 
ATOM     16  N   UNL     1      45.633 130.792  20.421  1.00  0.00    -0.344 N 
ATOM     17  C   UNL     1      43.286 131.802  19.175  1.00  0.00     0.042 A 
ATOM     18  C   UNL     1      45.554 130.868  19.056  1.00  0.00     0.112 A 
ATOM     19  H   UNL     1      46.488 130.409  20.882  1.00  0.00     0.168 HD
ENDBRANCH   9  10
ENDBRANCH   1   9
BRANCH   2  20
ATOM     20  N   UNL     1      46.004 133.087  15.488  1.00  0.00    -0.396 N 
ATOM     21  H   UNL     1      45.528 133.663  14.758  1.00  0.00     0.156 HD
ATOM     22  H   UNL     1      46.443 133.586  16.294  1.00  0.00     0.156 HD
ENDBRANCH   2  20
TORSDOF 3
ENDMDL
MODEL 8
REMARK VINA RESULT:      -8.3      0.676      1.656
REMARK SMILES Nc1cc(F)c[nH]/c1=N\c1c[nH]c2nccc-2c1
REMARK SMILES IDX 8 1 2 2 3 3 4 4 5 5 6 6 7 7 9 9 10 10 15 11 14 12 16 13
REMARK SMILES IDX 13 14 17 15 12 16 18 17 11 18 1 20
REMARK H PARENT 7 8 12 19 1 21 1 22
ROOT
ATOM      1  C   UNL     1      43.437 131.775  17.650  1.00  0.00     0.154 A 
ATOM      2  C   UNL     1      44.526 131.528  18.512  1.00  0.00     0.078 A 
ATOM      3  C   UNL     1      44.336 131.633  19.896  1.00  0.00     0.070 A 
ATOM      4  C   UNL     1      43.083 131.965  20.406  1.00  0.00     0.141 A 
ATOM      5  F   UNL     1      42.895 132.065  21.745  1.00  0.00    -0.205 F 
ATOM      6  C   UNL     1      42.023 132.178  19.529  1.00  0.00     0.123 A 
ATOM      7  N   UNL     1      42.210 132.075  18.185  1.00  0.00    -0.342 N 
ATOM      8  H   UNL     1      41.369 132.197  17.581  1.00  0.00     0.168 HD
ENDROOT
BRANCH   1   9
ATOM      9  N   UNL     1      43.613 131.675  16.359  1.00  0.00    -0.228 NA
BRANCH   9  10
ATOM     10  C   UNL     1      44.658 130.972  15.673  1.00  0.00     0.082 A 
ATOM     11  C   UNL     1      48.303 130.047  13.194  1.00  0.00     0.114 A 
ATOM     12  N   UNL     1      47.775 129.004  13.889  1.00  0.00    -0.239 NA
ATOM     13  C   UNL     1      47.595 131.237  13.386  1.00  0.00     0.032 A 
ATOM     14  C   UNL     1      46.717 129.532  14.525  1.00  0.00     0.137 A 
ATOM     15  C   UNL     1      46.572 130.918  14.240  1.00  0.00     0.021 A 
ATOM     16  N   UNL     1      45.879 128.890  15.373  1.00  0.00    -0.344 N 
ATOM     17  C   UNL     1      45.553 131.658  14.817  1.00  0.00     0.042 A 
ATOM     18  C   UNL     1      44.861 129.595  15.955  1.00  0.00     0.112 A 
ATOM     19  H   UNL     1      46.011 127.875  15.585  1.00  0.00     0.168 HD
ENDBRANCH   9  10
ENDBRANCH   1   9
BRANCH   2  20
ATOM     20  N   UNL     1      45.822 131.186  18.002  1.00  0.00    -0.396 N 
ATOM     21  H   UNL     1      46.545 131.925  17.850  1.00  0.00     0.156 HD
ATOM     22  H   UNL     1      46.078 130.200  17.772  1.00  0.00     0.156 HD
ENDBRANCH   2  20
TORSDOF 3
ENDMDL
MODEL 9
REMARK VINA RESULT:      -8.2      2.761      6.463
REMARK SMILES Nc1cc(F)c[nH]/c1=N\c1c[nH]c2nccc-2c1
REMARK SMILES IDX 8 1 2 2 3 3 4 4 5 5 6 6 7 7 9 9 10 10 15 11 14 12 16 13
REMARK SMILES IDX 13 14 17 15 12 16 18 17 11 18 1 20
REMARK H PARENT 7 8 12 19 1 21 1 22
ROOT
ATOM      1  C   UNL     1      44.623 131.171  16.225  1.00  0.00     0.154 A 
ATOM      2  C   UNL     1      44.581 131.166  14.815  1.00  0.00     0.078 A 
ATOM      3  C   UNL     1      45.619 130.547  14.105  1.00  0.00     0.070 A 
ATOM      4  C   UNL     1      46.666 129.935  14.790  1.00  0.00     0.141 A 
ATOM      5  F   UNL     1      47.671 129.333  14.107  1.00  0.00    -0.205 F 
ATOM      6  C   UNL     1      46.665 129.936  16.182  1.00  0.00     0.123 A 
ATOM      7  N   UNL     1      45.655 130.538  16.870  1.00  0.00    -0.342 N 
ATOM      8  H   UNL     1      45.683 130.465  17.909  1.00  0.00     0.168 HD
ENDROOT
BRANCH   1   9
ATOM      9  N   UNL     1      43.654 131.746  16.886  1.00  0.00    -0.228 NA
BRANCH   9  10
ATOM     10  C   UNL     1      43.427 131.717  18.302  1.00  0.00     0.082 A 
ATOM     11  C   UNL     1      44.077 131.494  22.753  1.00  0.00     0.114 A 
ATOM     12  N   UNL     1      42.829 131.851  22.351  1.00  0.00    -0.239 NA
ATOM     13  C   UNL     1      44.943 131.258  21.681  1.00  0.00     0.032 A 
ATOM     14  C   UNL     1      42.896 131.837  21.010  1.00  0.00     0.137 A 
ATOM     15  C   UNL     1      44.193 131.474  20.554  1.00  0.00     0.021 A 
ATOM     16  N   UNL     1      41.902 132.153  20.146  1.00  0.00    -0.344 N 
ATOM     17  C   UNL     1      44.481 131.422  19.200  1.00  0.00     0.042 A 
ATOM     18  C   UNL     1      42.156 132.106  18.802  1.00  0.00     0.112 A 
ATOM     19  H   UNL     1      40.960 132.434  20.499  1.00  0.00     0.168 HD
ENDBRANCH   9  10
ENDBRANCH   1   9
BRANCH   2  20
ATOM     20  N   UNL     1      43.510 131.791  14.095  1.00  0.00    -0.396 N 
ATOM     21  H   UNL     1      42.951 132.557  14.534  1.00  0.00     0.156 HD
ATOM     22  H   UNL     1      43.262 131.503  13.122  1.00  0.00     0.156 HD
ENDBRANCH   2  20
TORSDOF 3
ENDMDL


