MODEL 1
REMARK VINA RESULT:      -9.6      0.000      0.000
REMARK SMILES CC(=O)c1ccc(-c2nccc(C)c2F)c2c[nH][nH+]c12
REMARK SMILES IDX 4 1 5 2 6 3 7 4 16 5 17 6 18 7 19 8 20 9 2 12 1 13 3 14 8 15
REMARK SMILES IDX 9 16 14 17 10 18 12 19 11 20 15 21 13 22
REMARK H PARENT 18 10 19 11
ROOT
ATOM      1  C   UNL     1      44.283 131.154  21.237  1.00  0.00     0.092 A 
ATOM      2  C   UNL     1      45.433 130.564  20.664  1.00  0.00     0.019 A 
ATOM      3  C   UNL     1      45.628 130.551  19.266  1.00  0.00     0.012 A 
ATOM      4  C   UNL     1      44.680 131.129  18.395  1.00  0.00     0.019 A 
ATOM      5  C   UNL     1      43.543 131.695  18.984  1.00  0.00     0.080 A 
ATOM      6  C   UNL     1      42.437 132.323  18.443  1.00  0.00     0.163 A 
ATOM      7  N   UNL     1      41.625 132.674  19.462  1.00  0.00    -0.174 N 
ATOM      8  N   UNL     1      42.169 132.305  20.613  1.00  0.00    -0.125 N 
ATOM      9  C   UNL     1      43.350 131.713  20.345  1.00  0.00     0.247 A 
ATOM     10  H   UNL     1      40.703 133.158  19.373  1.00  0.00     0.238 HD
ATOM     11  H   UNL     1      41.718 132.449  21.542  1.00  0.00     0.488 HD
ENDROOT
BRANCH   1  12
ATOM     12  C   UNL     1      44.101 131.190  22.711  1.00  0.00     0.166 C 
ATOM     13  C   UNL     1      44.307 129.965  23.550  1.00  0.00     0.094 C 
ATOM     14  O   UNL     1      43.823 132.273  23.290  1.00  0.00    -0.294 OA
ENDBRANCH   1  12
BRANCH   4  15
ATOM     15  C   UNL     1      44.863 131.092  16.927  1.00  0.00     0.107 A 
ATOM     16  N   UNL     1      43.958 131.724  16.128  1.00  0.00    -0.253 NA
ATOM     17  C   UNL     1      45.950 130.417  16.339  1.00  0.00     0.152 A 
ATOM     18  C   UNL     1      44.065 131.724  14.774  1.00  0.00     0.112 A 
ATOM     19  C   UNL     1      46.073 130.392  14.940  1.00  0.00    -0.012 A 
ATOM     20  C   UNL     1      45.125 131.061  14.155  1.00  0.00     0.026 A 
ATOM     21  F   UNL     1      46.897 129.827  17.113  1.00  0.00    -0.204 F 
ATOM     22  C   UNL     1      47.242 129.706  14.295  1.00  0.00     0.047 C 
ENDBRANCH   4  15
TORSDOF 2
ENDMDL
MODEL 2
REMARK VINA RESULT:      -9.1      2.478      6.108
REMARK SMILES CC(=O)c1ccc(-c2nccc(C)c2F)c2c[nH][nH+]c12
REMARK SMILES IDX 4 1 5 2 6 3 7 4 16 5 17 6 18 7 19 8 20 9 2 12 1 13 3 14 8 15
REMARK SMILES IDX 9 16 14 17 10 18 12 19 11 20 15 21 13 22
REMARK H PARENT 18 10 19 11
ROOT
ATOM      1  C   UNL     1      44.688 131.418  17.562  1.00  0.00     0.092 A 
ATOM      2  C   UNL     1      45.727 130.825  18.318  1.00  0.00     0.019 A 
ATOM      3  C   UNL     1      45.602 130.638  19.710  1.00  0.00     0.012 A 
ATOM      4  C   UNL     1      44.433 131.035  20.394  1.00  0.00     0.019 A 
ATOM      5  C   UNL     1      43.424 131.632  19.629  1.00  0.00     0.080 A 
ATOM      6  C   UNL     1      42.183 132.137  19.967  1.00  0.00     0.163 A 
ATOM      7  N   UNL     1      41.612 132.611  18.840  1.00  0.00    -0.174 N 
ATOM      8  N   UNL     1      42.428 132.423  17.813  1.00  0.00    -0.125 N 
ATOM      9  C   UNL     1      43.540 131.814  18.271  1.00  0.00     0.247 A 
ATOM     10  H   UNL     1      40.673 133.064  18.773  1.00  0.00     0.238 HD
ATOM     11  H   UNL     1      42.216 132.725  16.839  1.00  0.00     0.488 HD
ENDROOT
BRANCH   1  12
ATOM     12  C   UNL     1      44.818 131.583  16.091  1.00  0.00     0.166 C 
ATOM     13  C   UNL     1      46.161 131.690  15.435  1.00  0.00     0.094 C 
ATOM     14  O   UNL     1      43.791 131.581  15.361  1.00  0.00    -0.294 OA
ENDBRANCH   1  12
BRANCH   4  15
ATOM     15  C   UNL     1      44.307 130.870  21.860  1.00  0.00     0.107 A 
ATOM     16  N   UNL     1      43.907 131.930  22.617  1.00  0.00    -0.253 NA
ATOM     17  C   UNL     1      44.594 129.644  22.489  1.00  0.00     0.152 A 
ATOM     18  C   UNL     1      43.775 131.848  23.966  1.00  0.00     0.112 A 
ATOM     19  C   UNL     1      44.479 129.538  23.884  1.00  0.00    -0.012 A 
ATOM     20  C   UNL     1      44.056 130.651  24.625  1.00  0.00     0.026 A 
ATOM     21  F   UNL     1      44.940 128.555  21.754  1.00  0.00    -0.204 F 
ATOM     22  C   UNL     1      44.748 128.230  24.570  1.00  0.00     0.047 C 
ENDBRANCH   4  15
TORSDOF 2
ENDMDL
MODEL 3
REMARK VINA RESULT:      -9.1      3.188      6.508
REMARK SMILES CC(=O)c1ccc(-c2nccc(C)c2F)c2c[nH][nH+]c12
REMARK SMILES IDX 4 1 5 2 6 3 7 4 16 5 17 6 18 7 19 8 20 9 2 12 1 13 3 14 8 15
REMARK SMILES IDX 9 16 14 17 10 18 12 19 11 20 15 21 13 22
REMARK H PARENT 18 10 19 11
ROOT
ATOM      1  C   UNL     1      46.798 130.911  14.401  1.00  0.00     0.092 A 
ATOM      2  C   UNL     1      46.628 132.210  14.937  1.00  0.00     0.019 A 
ATOM      3  C   UNL     1      45.799 132.436  16.056  1.00  0.00     0.012 A 
ATOM      4  C   UNL     1      45.113 131.371  16.678  1.00  0.00     0.019 A 
ATOM      5  C   UNL     1      45.285 130.098  16.123  1.00  0.00     0.080 A 
ATOM      6  C   UNL     1      44.768 128.862  16.465  1.00  0.00     0.163 A 
ATOM      7  N   UNL     1      45.252 127.958  15.589  1.00  0.00    -0.174 N 
ATOM      8  N   UNL     1      46.050 128.562  14.719  1.00  0.00    -0.125 N 
ATOM      9  C   UNL     1      46.094 129.871  15.035  1.00  0.00     0.247 A 
ATOM     10  H   UNL     1      45.036 126.935  15.580  1.00  0.00     0.238 HD
ATOM     11  H   UNL     1      46.527 128.074  13.932  1.00  0.00     0.488 HD
ENDROOT
BRANCH   1  12
ATOM     12  C   UNL     1      47.697 130.679  13.242  1.00  0.00     0.166 C 
ATOM     13  C   UNL     1      48.729 129.592  13.262  1.00  0.00     0.094 C 
ATOM     14  O   UNL     1      47.566 131.363  12.192  1.00  0.00    -0.294 OA
ENDBRANCH   1  12
BRANCH   4  15
ATOM     15  C   UNL     1      44.217 131.606  17.833  1.00  0.00     0.107 A 
ATOM     16  N   UNL     1      42.924 131.970  17.608  1.00  0.00    -0.253 NA
ATOM     17  C   UNL     1      44.672 131.461  19.157  1.00  0.00     0.152 A 
ATOM     18  C   UNL     1      42.051 132.205  18.621  1.00  0.00     0.112 A 
ATOM     19  C   UNL     1      43.792 131.712  20.222  1.00  0.00    -0.012 A 
ATOM     20  C   UNL     1      42.467 132.078  19.947  1.00  0.00     0.026 A 
ATOM     21  F   UNL     1      45.939 131.044  19.410  1.00  0.00    -0.204 F 
ATOM     22  C   UNL     1      44.248 131.532  21.641  1.00  0.00     0.047 C 
ENDBRANCH   4  15
TORSDOF 2
ENDMDL
MODEL 4
REMARK VINA RESULT:      -8.7      1.432      1.655
REMARK SMILES CC(=O)c1ccc(-c2nccc(C)c2F)c2c[nH][nH+]c12
REMARK SMILES IDX 4 1 5 2 6 3 7 4 16 5 17 6 18 7 19 8 20 9 2 12 1 13 3 14 8 15
REMARK SMILES IDX 9 16 14 17 10 18 12 19 11 20 15 21 13 22
REMARK H PARENT 18 10 19 11
ROOT
ATOM      1  C   UNL     1      43.940 131.560  21.022  1.00  0.00     0.092 A 
ATOM      2  C   UNL     1      45.167 130.871  20.870  1.00  0.00     0.019 A 
ATOM      3  C   UNL     1      45.661 130.532  19.593  1.00  0.00     0.012 A 
ATOM      4  C   UNL     1      44.946 130.870  18.424  1.00  0.00     0.019 A 
ATOM      5  C   UNL     1      43.729 131.538  18.599  1.00  0.00     0.080 A 
ATOM      6  C   UNL     1      42.790 131.999  17.695  1.00  0.00     0.163 A 
ATOM      7  N   UNL     1      41.788 132.566  18.399  1.00  0.00    -0.174 N 
ATOM      8  N   UNL     1      42.054 132.490  19.696  1.00  0.00    -0.125 N 
ATOM      9  C   UNL     1      43.244 131.874  19.840  1.00  0.00     0.247 A 
ATOM     10  H   UNL     1      40.925 132.999  17.999  1.00  0.00     0.238 HD
ATOM     11  H   UNL     1      41.418 132.842  20.442  1.00  0.00     0.488 HD
ENDROOT
BRANCH   1  12
ATOM     12  C   UNL     1      43.443 131.939  22.369  1.00  0.00     0.166 C 
ATOM     13  C   UNL     1      44.352 131.943  23.561  1.00  0.00     0.094 C 
ATOM     14  O   UNL     1      42.252 132.320  22.520  1.00  0.00    -0.294 OA
ENDBRANCH   1  12
BRANCH   4  15
ATOM     15  C   UNL     1      45.444 130.490  17.082  1.00  0.00     0.107 A 
ATOM     16  N   UNL     1      45.387 129.184  16.698  1.00  0.00    -0.253 NA
ATOM     17  C   UNL     1      45.975 131.447  16.197  1.00  0.00     0.152 A 
ATOM     18  C   UNL     1      45.830 128.767  15.484  1.00  0.00     0.112 A 
ATOM     19  C   UNL     1      46.452 131.038  14.941  1.00  0.00    -0.012 A 
ATOM     20  C   UNL     1      46.368 129.685  14.582  1.00  0.00     0.026 A 
ATOM     21  F   UNL     1      45.991 132.763  16.531  1.00  0.00    -0.204 F 
ATOM     22  C   UNL     1      46.992 132.047  13.970  1.00  0.00     0.047 C 
ENDBRANCH   4  15
TORSDOF 2
ENDMDL
MODEL 5
REMARK VINA RESULT:      -8.6      2.116      2.998
REMARK SMILES CC(=O)c1ccc(-c2nccc(C)c2F)c2c[nH][nH+]c12
REMARK SMILES IDX 4 1 5 2 6 3 7 4 16 5 17 6 18 7 19 8 20 9 2 12 1 13 3 14 8 15
REMARK SMILES IDX 9 16 14 17 10 18 12 19 11 20 15 21 13 22
REMARK H PARENT 18 10 19 11
ROOT
ATOM      1  C   UNL     1      43.087 132.056  19.724  1.00  0.00     0.092 A 
ATOM      2  C   UNL     1      42.561 132.084  18.410  1.00  0.00     0.019 A 
ATOM      3  C   UNL     1      43.299 131.583  17.317  1.00  0.00     0.012 A 
ATOM      4  C   UNL     1      44.587 131.035  17.500  1.00  0.00     0.019 A 
ATOM      5  C   UNL     1      45.092 131.030  18.805  1.00  0.00     0.080 A 
ATOM      6  C   UNL     1      46.293 130.590  19.330  1.00  0.00     0.163 A 
ATOM      7  N   UNL     1      46.274 130.831  20.657  1.00  0.00    -0.174 N 
ATOM      8  N   UNL     1      45.121 131.393  20.992  1.00  0.00    -0.125 N 
ATOM      9  C   UNL     1      44.377 131.514  19.874  1.00  0.00     0.247 A 
ATOM     10  H   UNL     1      47.044 130.618  21.331  1.00  0.00     0.238 HD
ATOM     11  H   UNL     1      44.879 131.692  21.961  1.00  0.00     0.488 HD
ENDROOT
BRANCH   1  12
ATOM     12  C   UNL     1      42.291 132.558  20.873  1.00  0.00     0.166 C 
ATOM     13  C   UNL     1      41.118 133.469  20.668  1.00  0.00     0.094 C 
ATOM     14  O   UNL     1      42.558 132.178  22.043  1.00  0.00    -0.294 OA
ENDBRANCH   1  12
BRANCH   4  15
ATOM     15  C   UNL     1      45.379 130.536  16.353  1.00  0.00     0.107 A 
ATOM     16  N   UNL     1      45.387 129.201  16.082  1.00  0.00    -0.253 NA
ATOM     17  C   UNL     1      46.124 131.410  15.539  1.00  0.00     0.152 A 
ATOM     18  C   UNL     1      46.095 128.677  15.048  1.00  0.00     0.112 A 
ATOM     19  C   UNL     1      46.875 130.890  14.473  1.00  0.00    -0.012 A 
ATOM     20  C   UNL     1      46.850 129.511  14.223  1.00  0.00     0.026 A 
ATOM     21  F   UNL     1      46.088 132.751  15.751  1.00  0.00    -0.204 F 
ATOM     22  C   UNL     1      47.650 131.807  13.572  1.00  0.00     0.047 C 
ENDBRANCH   4  15
TORSDOF 2
ENDMDL
MODEL 6
REMARK VINA RESULT:      -8.4      2.779      6.187
REMARK SMILES CC(=O)c1ccc(-c2nccc(C)c2F)c2c[nH][nH+]c12
REMARK SMILES IDX 4 1 5 2 6 3 7 4 16 5 17 6 18 7 19 8 20 9 2 12 1 13 3 14 8 15
REMARK SMILES IDX 9 16 14 17 10 18 12 19 11 20 15 21 13 22
REMARK H PARENT 18 10 19 11
ROOT
ATOM      1  C   UNL     1      46.454 130.375  15.149  1.00  0.00     0.092 A 
ATOM      2  C   UNL     1      46.914 130.144  16.467  1.00  0.00     0.019 A 
ATOM      3  C   UNL     1      46.123 130.481  17.586  1.00  0.00     0.012 A 
ATOM      4  C   UNL     1      44.845 131.059  17.425  1.00  0.00     0.019 A 
ATOM      5  C   UNL     1      44.417 131.291  16.113  1.00  0.00     0.080 A 
ATOM      6  C   UNL     1      43.255 131.838  15.602  1.00  0.00     0.163 A 
ATOM      7  N   UNL     1      43.358 131.839  14.257  1.00  0.00    -0.174 N 
ATOM      8  N   UNL     1      44.522 131.315  13.898  1.00  0.00    -0.125 N 
ATOM      9  C   UNL     1      45.182 130.962  15.019  1.00  0.00     0.247 A 
ATOM     10  H   UNL     1      42.641 132.199  13.587  1.00  0.00     0.238 HD
ATOM     11  H   UNL     1      44.840 131.227  12.910  1.00  0.00     0.488 HD
ENDROOT
BRANCH   1  12
ATOM     12  C   UNL     1      47.281 129.989  13.977  1.00  0.00     0.166 C 
ATOM     13  C   UNL     1      47.629 130.982  12.909  1.00  0.00     0.094 C 
ATOM     14  O   UNL     1      47.754 128.825  13.891  1.00  0.00    -0.294 OA
ENDBRANCH   1  12
BRANCH   4  15
ATOM     15  C   UNL     1      44.024 131.444  18.595  1.00  0.00     0.107 A 
ATOM     16  N   UNL     1      42.810 132.029  18.391  1.00  0.00    -0.253 NA
ATOM     17  C   UNL     1      44.469 131.219  19.911  1.00  0.00     0.152 A 
ATOM     18  C   UNL     1      42.009 132.410  19.419  1.00  0.00     0.112 A 
ATOM     19  C   UNL     1      43.664 131.617  20.991  1.00  0.00    -0.012 A 
ATOM     20  C   UNL     1      42.419 132.209  20.738  1.00  0.00     0.026 A 
ATOM     21  F   UNL     1      45.648 130.586  20.143  1.00  0.00    -0.204 F 
ATOM     22  C   UNL     1      44.105 131.357  22.402  1.00  0.00     0.047 C 
ENDBRANCH   4  15
TORSDOF 2
ENDMDL
MODEL 7
REMARK VINA RESULT:      -8.1      1.005      1.126
REMARK SMILES CC(=O)c1ccc(-c2nccc(C)c2F)c2c[nH][nH+]c12
REMARK SMILES IDX 4 1 5 2 6 3 7 4 16 5 17 6 18 7 19 8 20 9 2 12 1 13 3 14 8 15
REMARK SMILES IDX 9 16 14 17 10 18 12 19 11 20 15 21 13 22
REMARK H PARENT 18 10 19 11
ROOT
ATOM      1  C   UNL     1      44.022 131.344  21.287  1.00  0.00     0.092 A 
ATOM      2  C   UNL     1      45.326 130.883  20.988  1.00  0.00     0.019 A 
ATOM      3  C   UNL     1      45.814 130.881  19.664  1.00  0.00     0.012 A 
ATOM      4  C   UNL     1      45.016 131.341  18.595  1.00  0.00     0.019 A 
ATOM      5  C   UNL     1      43.725 131.779  18.913  1.00  0.00     0.080 A 
ATOM      6  C   UNL     1      42.697 132.273  18.131  1.00  0.00     0.163 A 
ATOM      7  N   UNL     1      41.654 132.537  18.944  1.00  0.00    -0.174 N 
ATOM      8  N   UNL     1      41.977 132.242  20.196  1.00  0.00    -0.125 N 
ATOM      9  C   UNL     1      43.246 131.786  20.201  1.00  0.00     0.247 A 
ATOM     10  H   UNL     1      40.725 132.913  18.648  1.00  0.00     0.238 HD
ATOM     11  H   UNL     1      41.326 132.341  21.004  1.00  0.00     0.488 HD
ENDROOT
BRANCH   1  12
ATOM     12  C   UNL     1      43.528 131.370  22.688  1.00  0.00     0.166 C 
ATOM     13  C   UNL     1      42.145 131.844  23.017  1.00  0.00     0.094 C 
ATOM     14  O   UNL     1      44.253 130.937  23.623  1.00  0.00    -0.294 OA
ENDBRANCH   1  12
BRANCH   4  15
ATOM     15  C   UNL     1      45.510 131.313  17.200  1.00  0.00     0.107 A 
ATOM     16  N   UNL     1      45.523 132.467  16.476  1.00  0.00    -0.253 NA
ATOM     17  C   UNL     1      45.966 130.121  16.606  1.00  0.00     0.152 A 
ATOM     18  C   UNL     1      45.959 132.510  15.190  1.00  0.00     0.112 A 
ATOM     19  C   UNL     1      46.408 130.137  15.273  1.00  0.00    -0.012 A 
ATOM     20  C   UNL     1      46.413 131.348  14.566  1.00  0.00     0.026 A 
ATOM     21  F   UNL     1      46.018 128.968  17.322  1.00  0.00    -0.204 F 
ATOM     22  C   UNL     1      46.929 128.884  14.631  1.00  0.00     0.047 C 
ENDBRANCH   4  15
TORSDOF 2
ENDMDL
MODEL 8
REMARK VINA RESULT:      -7.9      2.625      6.147
REMARK SMILES CC(=O)c1ccc(-c2nccc(C)c2F)c2c[nH][nH+]c12
REMARK SMILES IDX 4 1 5 2 6 3 7 4 16 5 17 6 18 7 19 8 20 9 2 12 1 13 3 14 8 15
REMARK SMILES IDX 9 16 14 17 10 18 12 19 11 20 15 21 13 22
REMARK H PARENT 18 10 19 11
ROOT
ATOM      1  C   UNL     1      44.705 131.232  17.144  1.00  0.00     0.092 A 
ATOM      2  C   UNL     1      45.652 130.692  18.046  1.00  0.00     0.019 A 
ATOM      3  C   UNL     1      45.408 130.672  19.436  1.00  0.00     0.012 A 
ATOM      4  C   UNL     1      44.209 131.189  19.971  1.00  0.00     0.019 A 
ATOM      5  C   UNL     1      43.293 131.730  19.061  1.00  0.00     0.080 A 
ATOM      6  C   UNL     1      42.054 132.317  19.236  1.00  0.00     0.163 A 
ATOM      7  N   UNL     1      41.596 132.678  18.019  1.00  0.00    -0.174 N 
ATOM      8  N   UNL     1      42.481 132.342  17.091  1.00  0.00    -0.125 N 
ATOM      9  C   UNL     1      43.524 131.750  17.706  1.00  0.00     0.247 A 
ATOM     10  H   UNL     1      40.687 133.156  17.822  1.00  0.00     0.238 HD
ATOM     11  H   UNL     1      42.361 132.538  16.074  1.00  0.00     0.488 HD
ENDROOT
BRANCH   1  12
ATOM     12  C   UNL     1      44.957 131.221  15.680  1.00  0.00     0.166 C 
ATOM     13  C   UNL     1      46.261 130.740  15.119  1.00  0.00     0.094 C 
ATOM     14  O   UNL     1      44.050 131.568  14.879  1.00  0.00    -0.294 OA
ENDBRANCH   1  12
BRANCH   4  15
ATOM     15  C   UNL     1      43.960 131.199  21.430  1.00  0.00     0.107 A 
ATOM     16  N   UNL     1      42.966 130.420  21.940  1.00  0.00    -0.253 NA
ATOM     17  C   UNL     1      44.728 131.996  22.300  1.00  0.00     0.152 A 
ATOM     18  C   UNL     1      42.683 130.386  23.268  1.00  0.00     0.112 A 
ATOM     19  C   UNL     1      44.444 131.988  23.676  1.00  0.00    -0.012 A 
ATOM     20  C   UNL     1      43.418 131.167  24.161  1.00  0.00     0.026 A 
ATOM     21  F   UNL     1      45.762 132.738  21.827  1.00  0.00    -0.204 F 
ATOM     22  C   UNL     1      45.272 132.806  24.625  1.00  0.00     0.047 C 
ENDBRANCH   4  15
TORSDOF 2
ENDMDL
MODEL 9
REMARK VINA RESULT:      -7.6      1.356      1.857
REMARK SMILES CC(=O)c1ccc(-c2nccc(C)c2F)c2c[nH][nH+]c12
REMARK SMILES IDX 4 1 5 2 6 3 7 4 16 5 17 6 18 7 19 8 20 9 2 12 1 13 3 14 8 15
REMARK SMILES IDX 9 16 14 17 10 18 12 19 11 20 15 21 13 22
REMARK H PARENT 18 10 19 11
ROOT
ATOM      1  C   UNL     1      44.171 131.227  21.543  1.00  0.00     0.092 A 
ATOM      2  C   UNL     1      45.332 130.598  21.034  1.00  0.00     0.019 A 
ATOM      3  C   UNL     1      45.605 130.579  19.650  1.00  0.00     0.012 A 
ATOM      4  C   UNL     1      44.727 131.188  18.727  1.00  0.00     0.019 A 
ATOM      5  C   UNL     1      43.578 131.792  19.252  1.00  0.00     0.080 A 
ATOM      6  C   UNL     1      42.526 132.456  18.651  1.00  0.00     0.163 A 
ATOM      7  N   UNL     1      41.670 132.834  19.623  1.00  0.00    -0.174 N 
ATOM      8  N   UNL     1      42.135 132.447  20.803  1.00  0.00    -0.125 N 
ATOM      9  C   UNL     1      43.309 131.817  20.600  1.00  0.00     0.247 A 
ATOM     10  H   UNL     1      40.771 133.349  19.483  1.00  0.00     0.238 HD
ATOM     11  H   UNL     1      41.638 132.607  21.705  1.00  0.00     0.488 HD
ENDROOT
BRANCH   1  12
ATOM     12  C   UNL     1      43.908 131.269  23.004  1.00  0.00     0.166 C 
ATOM     13  C   UNL     1      42.997 130.275  23.659  1.00  0.00     0.094 C 
ATOM     14  O   UNL     1      44.496 132.113  23.730  1.00  0.00    -0.294 OA
ENDBRANCH   1  12
BRANCH   4  15
ATOM     15  C   UNL     1      44.991 131.145  17.271  1.00  0.00     0.107 A 
ATOM     16  N   UNL     1      46.229 130.783  16.831  1.00  0.00    -0.253 NA
ATOM     17  C   UNL     1      43.993 131.470  16.333  1.00  0.00     0.152 A 
ATOM     18  C   UNL     1      46.539 130.727  15.510  1.00  0.00     0.112 A 
ATOM     19  C   UNL     1      44.294 131.432  14.962  1.00  0.00    -0.012 A 
ATOM     20  C   UNL     1      45.577 131.047  14.551  1.00  0.00     0.026 A 
ATOM     21  F   UNL     1      42.735 131.778  16.742  1.00  0.00    -0.204 F 
ATOM     22  C   UNL     1      43.235 131.743  13.945  1.00  0.00     0.047 C 
ENDBRANCH   4  15
TORSDOF 2
ENDMDL


