MODEL 1
REMARK VINA RESULT:     -10.1      0.000      0.000
REMARK SMILES [O-]C(N[C@H]1Cc2ccccc2[C@@H]1O)=C1CCCC1
REMARK SMILES IDX 4 1 5 2 6 3 7 4 8 5 9 6 10 7 11 8 12 9 3 10 2 12 1 13 14 14
REMARK SMILES IDX 15 15 18 16 16 17 17 18 13 19
REMARK H PARENT 3 11 13 20
ROOT
ATOM      1  C   UNL     1      44.645 130.660  15.927  1.00  0.00     0.115 C 
ATOM      2  C   UNL     1      44.936 131.505  14.661  1.00  0.00     0.063 C 
ATOM      3  C   UNL     1      46.197 130.934  14.136  1.00  0.00    -0.040 A 
ATOM      4  C   UNL     1      46.958 131.424  13.071  1.00  0.00     0.004 A 
ATOM      5  C   UNL     1      48.123 130.736  12.700  1.00  0.00     0.000 A 
ATOM      6  C   UNL     1      48.505 129.572  13.391  1.00  0.00     0.000 A 
ATOM      7  C   UNL     1      47.724 129.094  14.453  1.00  0.00     0.007 A 
ATOM      8  C   UNL     1      46.567 129.795  14.807  1.00  0.00    -0.014 A 
ATOM      9  C   UNL     1      45.608 129.445  15.886  1.00  0.00     0.167 C 
ENDROOT
BRANCH   1  10
ATOM     10  N   UNL     1      44.870 131.442  17.149  1.00  0.00    -0.391 N 
ATOM     11  H   UNL     1      45.835 131.781  17.361  1.00  0.00     0.159 HD
BRANCH  10  12
ATOM     12  C   UNL     1      43.801 131.700  18.077  1.00  0.00    -0.046 C 
ATOM     13  O   UNL     1      42.549 132.066  17.587  1.00  0.00    -0.860 OA
BRANCH  12  14
ATOM     14  C   UNL     1      43.978 131.593  19.404  1.00  0.00    -0.062 C 
ATOM     15  C   UNL     1      45.258 131.208  20.064  1.00  0.00     0.032 C 
ATOM     16  C   UNL     1      42.893 131.849  20.392  1.00  0.00     0.032 C 
ATOM     17  C   UNL     1      44.995 131.388  21.554  1.00  0.00     0.005 C 
ATOM     18  C   UNL     1      43.477 131.413  21.729  1.00  0.00     0.005 C 
ENDBRANCH  12  14
ENDBRANCH  10  12
ENDBRANCH   1  10
BRANCH   9  19
ATOM     19  O   UNL     1      44.901 128.282  15.541  1.00  0.00    -0.386 OA
ATOM     20  H   UNL     1      44.898 127.701  16.346  1.00  0.00     0.211 HD
ENDBRANCH   9  19
TORSDOF 4
ENDMDL
MODEL 2
REMARK VINA RESULT:      -9.9      0.468      1.075
REMARK SMILES [O-]C(N[C@H]1Cc2ccccc2[C@@H]1O)=C1CCCC1
REMARK SMILES IDX 4 1 5 2 6 3 7 4 8 5 9 6 10 7 11 8 12 9 3 10 2 12 1 13 14 14
REMARK SMILES IDX 15 15 18 16 16 17 17 18 13 19
REMARK H PARENT 3 11 13 20
ROOT
ATOM      1  C   UNL     1      44.548 130.809  15.652  1.00  0.00     0.115 C 
ATOM      2  C   UNL     1      44.867 131.487  14.296  1.00  0.00     0.063 C 
ATOM      3  C   UNL     1      46.167 130.899  13.902  1.00  0.00    -0.040 A 
ATOM      4  C   UNL     1      46.957 131.270  12.810  1.00  0.00     0.004 A 
ATOM      5  C   UNL     1      48.158 130.582  12.581  1.00  0.00     0.000 A 
ATOM      6  C   UNL     1      48.547 129.536  13.437  1.00  0.00     0.000 A 
ATOM      7  C   UNL     1      47.736 129.175  14.523  1.00  0.00     0.007 A 
ATOM      8  C   UNL     1      46.543 129.874  14.734  1.00  0.00    -0.014 A 
ATOM      9  C   UNL     1      45.550 129.636  15.813  1.00  0.00     0.167 C 
ENDROOT
BRANCH   1  10
ATOM     10  N   UNL     1      44.696 131.755  16.766  1.00  0.00    -0.391 N 
ATOM     11  H   UNL     1      45.462 132.464  16.728  1.00  0.00     0.159 HD
BRANCH  10  12
ATOM     12  C   UNL     1      43.841 131.685  17.921  1.00  0.00    -0.046 C 
ATOM     13  O   UNL     1      42.466 131.849  17.762  1.00  0.00    -0.860 OA
BRANCH  12  14
ATOM     14  C   UNL     1      44.335 131.462  19.151  1.00  0.00    -0.062 C 
ATOM     15  C   UNL     1      43.678 131.882  20.422  1.00  0.00     0.032 C 
ATOM     16  C   UNL     1      45.625 130.757  19.392  1.00  0.00     0.032 C 
ATOM     17  C   UNL     1      44.533 131.264  21.521  1.00  0.00     0.005 C 
ATOM     18  C   UNL     1      45.878 130.918  20.885  1.00  0.00     0.005 C 
ENDBRANCH  12  14
ENDBRANCH  10  12
ENDBRANCH   1  10
BRANCH   9  19
ATOM     19  O   UNL     1      44.895 128.412  15.601  1.00  0.00    -0.386 OA
ATOM     20  H   UNL     1      45.506 127.852  15.054  1.00  0.00     0.211 HD
ENDBRANCH   9  19
TORSDOF 4
ENDMDL
MODEL 3
REMARK VINA RESULT:      -9.5      1.174      1.633
REMARK SMILES [O-]C(N[C@H]1Cc2ccccc2[C@@H]1O)=C1CCCC1
REMARK SMILES IDX 4 1 5 2 6 3 7 4 8 5 9 6 10 7 11 8 12 9 3 10 2 12 1 13 14 14
REMARK SMILES IDX 15 15 18 16 16 17 17 18 13 19
REMARK H PARENT 3 11 13 20
ROOT
ATOM      1  C   UNL     1      44.870 130.847  15.965  1.00  0.00     0.115 C 
ATOM      2  C   UNL     1      45.118 131.604  14.636  1.00  0.00     0.063 C 
ATOM      3  C   UNL     1      46.331 130.960  14.082  1.00  0.00    -0.040 A 
ATOM      4  C   UNL     1      47.046 131.359  12.950  1.00  0.00     0.004 A 
ATOM      5  C   UNL     1      48.168 130.611  12.562  1.00  0.00     0.000 A 
ATOM      6  C   UNL     1      48.552 129.478  13.303  1.00  0.00     0.000 A 
ATOM      7  C   UNL     1      47.815 129.092  14.431  1.00  0.00     0.007 A 
ATOM      8  C   UNL     1      46.701 129.851  14.802  1.00  0.00    -0.014 A 
ATOM      9  C   UNL     1      45.792 129.600  15.949  1.00  0.00     0.167 C 
ENDROOT
BRANCH   1  10
ATOM     10  N   UNL     1      45.186 131.693  17.123  1.00  0.00    -0.391 N 
ATOM     11  H   UNL     1      45.650 132.615  16.963  1.00  0.00     0.159 HD
BRANCH  10  12
ATOM     12  C   UNL     1      44.913 131.251  18.465  1.00  0.00    -0.046 C 
ATOM     13  O   UNL     1      45.800 130.374  19.086  1.00  0.00    -0.860 OA
BRANCH  12  14
ATOM     14  C   UNL     1      43.825 131.666  19.136  1.00  0.00    -0.062 C 
ATOM     15  C   UNL     1      42.578 132.180  18.502  1.00  0.00     0.032 C 
ATOM     16  C   UNL     1      43.739 131.664  20.623  1.00  0.00     0.032 C 
ATOM     17  C   UNL     1      41.603 132.361  19.659  1.00  0.00     0.005 C 
ATOM     18  C   UNL     1      42.441 132.397  20.936  1.00  0.00     0.005 C 
ENDBRANCH  12  14
ENDBRANCH  10  12
ENDBRANCH   1  10
BRANCH   9  19
ATOM     19  O   UNL     1      45.032 128.443  15.714  1.00  0.00    -0.386 OA
ATOM     20  H   UNL     1      45.475 127.956  14.972  1.00  0.00     0.211 HD
ENDBRANCH   9  19
TORSDOF 4
ENDMDL
MODEL 4
REMARK VINA RESULT:      -9.1      1.109      1.146
REMARK SMILES [O-]C(N[C@H]1Cc2ccccc2[C@@H]1O)=C1CCCC1
REMARK SMILES IDX 4 1 5 2 6 3 7 4 8 5 9 6 10 7 11 8 12 9 3 10 2 12 1 13 14 14
REMARK SMILES IDX 15 15 18 16 16 17 17 18 13 19
REMARK H PARENT 3 11 13 20
ROOT
ATOM      1  C   UNL     1      44.391 130.602  15.674  1.00  0.00     0.115 C 
ATOM      2  C   UNL     1      44.717 131.382  14.376  1.00  0.00     0.063 C 
ATOM      3  C   UNL     1      46.049 130.871  13.980  1.00  0.00    -0.040 A 
ATOM      4  C   UNL     1      46.851 131.345  12.938  1.00  0.00     0.004 A 
ATOM      5  C   UNL     1      48.083 130.720  12.697  1.00  0.00     0.000 A 
ATOM      6  C   UNL     1      48.492 129.633  13.492  1.00  0.00     0.000 A 
ATOM      7  C   UNL     1      47.668 129.169  14.528  1.00  0.00     0.007 A 
ATOM      8  C   UNL     1      46.444 129.807  14.752  1.00  0.00    -0.014 A 
ATOM      9  C   UNL     1      45.434 129.459  15.784  1.00  0.00     0.167 C 
ENDROOT
BRANCH   1  10
ATOM     10  N   UNL     1      44.473 131.475  16.852  1.00  0.00    -0.391 N 
ATOM     11  H   UNL     1      44.125 132.457  16.778  1.00  0.00     0.159 HD
BRANCH  10  12
ATOM     12  C   UNL     1      45.068 131.016  18.079  1.00  0.00    -0.046 C 
ATOM     13  O   UNL     1      46.250 130.281  18.030  1.00  0.00    -0.860 OA
BRANCH  12  14
ATOM     14  C   UNL     1      44.512 131.281  19.274  1.00  0.00    -0.062 C 
ATOM     15  C   UNL     1      45.098 130.898  20.590  1.00  0.00     0.032 C 
ATOM     16  C   UNL     1      43.217 132.001  19.425  1.00  0.00     0.032 C 
ATOM     17  C   UNL     1      44.192 131.556  21.623  1.00  0.00     0.005 C 
ATOM     18  C   UNL     1      42.884 131.890  20.907  1.00  0.00     0.005 C 
ENDBRANCH  12  14
ENDBRANCH  10  12
ENDBRANCH   1  10
BRANCH   9  19
ATOM     19  O   UNL     1      44.833 128.229  15.472  1.00  0.00    -0.386 OA
ATOM     20  H   UNL     1      45.318 127.535  15.992  1.00  0.00     0.211 HD
ENDBRANCH   9  19
TORSDOF 4
ENDMDL
MODEL 5
REMARK VINA RESULT:      -8.8      1.499      1.842
REMARK SMILES [O-]C(N[C@H]1Cc2ccccc2[C@@H]1O)=C1CCCC1
REMARK SMILES IDX 4 1 5 2 6 3 7 4 8 5 9 6 10 7 11 8 12 9 3 10 2 12 1 13 14 14
REMARK SMILES IDX 15 15 18 16 16 17 17 18 13 19
REMARK H PARENT 3 11 13 20
ROOT
ATOM      1  C   UNL     1      45.356 130.740  17.064  1.00  0.00     0.115 C 
ATOM      2  C   UNL     1      45.570 131.859  16.014  1.00  0.00     0.063 C 
ATOM      3  C   UNL     1      46.484 131.246  15.023  1.00  0.00    -0.040 A 
ATOM      4  C   UNL     1      47.088 131.883  13.936  1.00  0.00     0.004 A 
ATOM      5  C   UNL     1      47.915 131.132  13.088  1.00  0.00     0.000 A 
ATOM      6  C   UNL     1      48.120 129.762  13.333  1.00  0.00     0.000 A 
ATOM      7  C   UNL     1      47.497 129.141  14.425  1.00  0.00     0.007 A 
ATOM      8  C   UNL     1      46.678 129.908  15.259  1.00  0.00    -0.014 A 
ATOM      9  C   UNL     1      45.928 129.436  16.451  1.00  0.00     0.167 C 
ENDROOT
BRANCH   1  10
ATOM     10  N   UNL     1      46.049 131.053  18.321  1.00  0.00    -0.391 N 
ATOM     11  H   UNL     1      47.000 131.483  18.279  1.00  0.00     0.159 HD
BRANCH  10  12
ATOM     12  C   UNL     1      45.463 130.730  19.595  1.00  0.00    -0.046 C 
ATOM     13  O   UNL     1      46.087 129.789  20.412  1.00  0.00    -0.860 OA
BRANCH  12  14
ATOM     14  C   UNL     1      44.331 131.317  20.018  1.00  0.00    -0.062 C 
ATOM     15  C   UNL     1      43.753 131.166  21.384  1.00  0.00     0.032 C 
ATOM     16  C   UNL     1      43.502 132.202  19.153  1.00  0.00     0.032 C 
ATOM     17  C   UNL     1      42.580 132.138  21.417  1.00  0.00     0.005 C 
ATOM     18  C   UNL     1      42.239 132.460  19.964  1.00  0.00     0.005 C 
ENDBRANCH  12  14
ENDBRANCH  10  12
ENDBRANCH   1  10
BRANCH   9  19
ATOM     19  O   UNL     1      44.879 128.591  16.054  1.00  0.00    -0.386 OA
ATOM     20  H   UNL     1      44.086 128.846  16.595  1.00  0.00     0.211 HD
ENDBRANCH   9  19
TORSDOF 4
ENDMDL
MODEL 6
REMARK VINA RESULT:      -8.6      1.197      1.298
REMARK SMILES [O-]C(N[C@H]1Cc2ccccc2[C@@H]1O)=C1CCCC1
REMARK SMILES IDX 4 1 5 2 6 3 7 4 8 5 9 6 10 7 11 8 12 9 3 10 2 12 1 13 14 14
REMARK SMILES IDX 15 15 18 16 16 17 17 18 13 19
REMARK H PARENT 3 11 13 20
ROOT
ATOM      1  C   UNL     1      44.036 130.385  15.266  1.00  0.00     0.115 C 
ATOM      2  C   UNL     1      44.473 131.121  13.975  1.00  0.00     0.063 C 
ATOM      3  C   UNL     1      45.900 130.759  13.825  1.00  0.00    -0.040 A 
ATOM      4  C   UNL     1      46.798 131.267  12.882  1.00  0.00     0.004 A 
ATOM      5  C   UNL     1      48.117 130.789  12.879  1.00  0.00     0.000 A 
ATOM      6  C   UNL     1      48.515 129.811  13.809  1.00  0.00     0.000 A 
ATOM      7  C   UNL     1      47.596 129.310  14.742  1.00  0.00     0.007 A 
ATOM      8  C   UNL     1      46.287 129.800  14.728  1.00  0.00    -0.014 A 
ATOM      9  C   UNL     1      45.172 129.391  15.620  1.00  0.00     0.167 C 
ENDROOT
BRANCH   1  10
ATOM     10  N   UNL     1      43.828 131.329  16.371  1.00  0.00    -0.391 N 
ATOM     11  H   UNL     1      42.869 131.708  16.538  1.00  0.00     0.159 HD
BRANCH  10  12
ATOM     12  C   UNL     1      44.927 131.774  17.186  1.00  0.00    -0.046 C 
ATOM     13  O   UNL     1      45.927 132.557  16.613  1.00  0.00    -0.860 OA
BRANCH  12  14
ATOM     14  C   UNL     1      45.012 131.456  18.489  1.00  0.00    -0.062 C 
ATOM     15  C   UNL     1      45.819 130.331  19.041  1.00  0.00     0.032 C 
ATOM     16  C   UNL     1      44.290 132.205  19.556  1.00  0.00     0.032 C 
ATOM     17  C   UNL     1      45.717 130.487  20.553  1.00  0.00     0.005 C 
ATOM     18  C   UNL     1      44.508 131.382  20.819  1.00  0.00     0.005 C 
ENDBRANCH  12  14
ENDBRANCH  10  12
ENDBRANCH   1  10
BRANCH   9  19
ATOM     19  O   UNL     1      44.774 128.078  15.319  1.00  0.00    -0.386 OA
ATOM     20  H   UNL     1      45.231 127.828  14.473  1.00  0.00     0.211 HD
ENDBRANCH   9  19
TORSDOF 4
ENDMDL
MODEL 7
REMARK VINA RESULT:      -8.3      1.149      1.532
REMARK SMILES [O-]C(N[C@H]1Cc2ccccc2[C@@H]1O)=C1CCCC1
REMARK SMILES IDX 4 1 5 2 6 3 7 4 8 5 9 6 10 7 11 8 12 9 3 10 2 12 1 13 14 14
REMARK SMILES IDX 15 15 18 16 16 17 17 18 13 19
REMARK H PARENT 3 11 13 20
ROOT
ATOM      1  C   UNL     1      45.136 130.355  16.837  1.00  0.00     0.115 C 
ATOM      2  C   UNL     1      45.343 131.575  15.904  1.00  0.00     0.063 C 
ATOM      3  C   UNL     1      46.367 131.114  14.939  1.00  0.00    -0.040 A 
ATOM      4  C   UNL     1      47.000 131.884  13.960  1.00  0.00     0.004 A 
ATOM      5  C   UNL     1      47.937 131.268  13.117  1.00  0.00     0.000 A 
ATOM      6  C   UNL     1      48.222 129.898  13.261  1.00  0.00     0.000 A 
ATOM      7  C   UNL     1      47.570 129.142  14.246  1.00  0.00     0.007 A 
ATOM      8  C   UNL     1      46.640 129.775  15.076  1.00  0.00    -0.014 A 
ATOM      9  C   UNL     1      45.842 129.150  16.161  1.00  0.00     0.167 C 
ENDROOT
BRANCH   1  10
ATOM     10  N   UNL     1      45.713 130.598  18.165  1.00  0.00    -0.391 N 
ATOM     11  H   UNL     1      46.585 130.090  18.437  1.00  0.00     0.159 HD
BRANCH  10  12
ATOM     12  C   UNL     1      45.072 131.478  19.106  1.00  0.00    -0.046 C 
ATOM     13  O   UNL     1      44.928 132.826  18.788  1.00  0.00    -0.860 OA
BRANCH  12  14
ATOM     14  C   UNL     1      44.605 131.030  20.284  1.00  0.00    -0.062 C 
ATOM     15  C   UNL     1      43.348 131.498  20.935  1.00  0.00     0.032 C 
ATOM     16  C   UNL     1      45.305 129.995  21.094  1.00  0.00     0.032 C 
ATOM     17  C   UNL     1      43.177 130.587  22.144  1.00  0.00     0.005 C 
ATOM     18  C   UNL     1      44.543 129.956  22.412  1.00  0.00     0.005 C 
ENDBRANCH  12  14
ENDBRANCH  10  12
ENDBRANCH   1  10
BRANCH   9  19
ATOM     19  O   UNL     1      44.887 128.278  15.614  1.00  0.00    -0.386 OA
ATOM     20  H   UNL     1      45.262 127.362  15.688  1.00  0.00     0.211 HD
ENDBRANCH   9  19
TORSDOF 4
ENDMDL
MODEL 8
REMARK VINA RESULT:      -8.1      1.609      6.516
REMARK SMILES [O-]C(N[C@H]1Cc2ccccc2[C@@H]1O)=C1CCCC1
REMARK SMILES IDX 4 1 5 2 6 3 7 4 8 5 9 6 10 7 11 8 12 9 3 10 2 12 1 13 14 14
REMARK SMILES IDX 15 15 18 16 16 17 17 18 13 19
REMARK H PARENT 3 11 13 20
ROOT
ATOM      1  C   UNL     1      45.960 130.649  17.889  1.00  0.00     0.115 C 
ATOM      2  C   UNL     1      44.788 131.616  17.587  1.00  0.00     0.063 C 
ATOM      3  C   UNL     1      44.021 131.651  18.852  1.00  0.00    -0.040 A 
ATOM      4  C   UNL     1      42.793 132.282  19.069  1.00  0.00     0.004 A 
ATOM      5  C   UNL     1      42.221 132.224  20.349  1.00  0.00     0.000 A 
ATOM      6  C   UNL     1      42.883 131.545  21.388  1.00  0.00     0.000 A 
ATOM      7  C   UNL     1      44.118 130.925  21.151  1.00  0.00     0.007 A 
ATOM      8  C   UNL     1      44.671 130.994  19.868  1.00  0.00    -0.014 A 
ATOM      9  C   UNL     1      45.964 130.416  19.423  1.00  0.00     0.167 C 
ENDROOT
BRANCH   1  10
ATOM     10  N   UNL     1      45.789 129.371  17.186  1.00  0.00    -0.391 N 
ATOM     11  H   UNL     1      45.894 128.481  17.722  1.00  0.00     0.159 HD
BRANCH  10  12
ATOM     12  C   UNL     1      45.532 129.329  15.771  1.00  0.00    -0.046 C 
ATOM     13  O   UNL     1      44.358 128.736  15.309  1.00  0.00    -0.860 OA
BRANCH  12  14
ATOM     14  C   UNL     1      46.395 129.850  14.882  1.00  0.00    -0.062 C 
ATOM     15  C   UNL     1      46.259 131.193  14.249  1.00  0.00     0.032 C 
ATOM     16  C   UNL     1      47.611 129.129  14.413  1.00  0.00     0.032 C 
ATOM     17  C   UNL     1      47.549 131.381  13.460  1.00  0.00     0.005 C 
ATOM     18  C   UNL     1      48.159 129.991  13.283  1.00  0.00     0.005 C 
ENDBRANCH  12  14
ENDBRANCH  10  12
ENDBRANCH   1  10
BRANCH   9  19
ATOM     19  O   UNL     1      47.030 131.115  20.012  1.00  0.00    -0.386 OA
ATOM     20  H   UNL     1      47.711 130.438  20.264  1.00  0.00     0.211 HD
ENDBRANCH   9  19
TORSDOF 4
ENDMDL
MODEL 9
REMARK VINA RESULT:      -8.0      1.680      6.769
REMARK SMILES [O-]C(N[C@H]1Cc2ccccc2[C@@H]1O)=C1CCCC1
REMARK SMILES IDX 4 1 5 2 6 3 7 4 8 5 9 6 10 7 11 8 12 9 3 10 2 12 1 13 14 14
REMARK SMILES IDX 15 15 18 16 16 17 17 18 13 19
REMARK H PARENT 3 11 13 20
ROOT
ATOM      1  C   UNL     1      45.681 131.248  18.571  1.00  0.00     0.115 C 
ATOM      2  C   UNL     1      44.454 132.177  18.752  1.00  0.00     0.063 C 
ATOM      3  C   UNL     1      43.915 131.800  20.078  1.00  0.00    -0.040 A 
ATOM      4  C   UNL     1      42.730 132.257  20.661  1.00  0.00     0.004 A 
ATOM      5  C   UNL     1      42.388 131.801  21.943  1.00  0.00     0.000 A 
ATOM      6  C   UNL     1      43.234 130.906  22.622  1.00  0.00     0.000 A 
ATOM      7  C   UNL     1      44.423 130.466  22.022  1.00  0.00     0.007 A 
ATOM      8  C   UNL     1      44.744 130.931  20.744  1.00  0.00    -0.014 A 
ATOM      9  C   UNL     1      45.954 130.595  19.951  1.00  0.00     0.167 C 
ENDROOT
BRANCH   1  10
ATOM     10  N   UNL     1      45.418 130.212  17.564  1.00  0.00    -0.391 N 
ATOM     11  H   UNL     1      45.489 129.208  17.844  1.00  0.00     0.159 HD
BRANCH  10  12
ATOM     12  C   UNL     1      45.118 130.557  16.200  1.00  0.00    -0.046 C 
ATOM     13  O   UNL     1      43.832 130.980  15.872  1.00  0.00    -0.860 OA
BRANCH  12  14
ATOM     14  C   UNL     1      46.049 130.485  15.234  1.00  0.00    -0.062 C 
ATOM     15  C   UNL     1      46.152 131.421  14.079  1.00  0.00     0.032 C 
ATOM     16  C   UNL     1      47.107 129.437  15.203  1.00  0.00     0.032 C 
ATOM     17  C   UNL     1      47.444 131.025  13.374  1.00  0.00     0.005 C 
ATOM     18  C   UNL     1      47.787 129.615  13.852  1.00  0.00     0.005 C 
ENDBRANCH  12  14
ENDBRANCH  10  12
ENDBRANCH   1  10
BRANCH   9  19
ATOM     19  O   UNL     1      47.090 131.172  20.540  1.00  0.00    -0.386 OA
ATOM     20  H   UNL     1      46.967 132.156  20.493  1.00  0.00     0.211 HD
ENDBRANCH   9  19
TORSDOF 4
ENDMDL


