REMARK SMILES Cc1ccc(-c2ccc(N/C(O)=C/[C@H]([NH3+])C(=O)[O-])c(C=O)c2)cc1
REMARK SMILES IDX 11 1 12 2 13 4 14 5 16 6 17 7 18 8 15 9 10 13 9 15 8 16
REMARK SMILES IDX 19 17 7 18 22 19 6 20 20 21 21 22 5 23 4 24 23 25 3 26 24 27
REMARK SMILES IDX 2 28 1 29
REMARK H PARENT 12 3 15 10 15 11 15 12 10 14
ROOT
ATOM      1  C   UNL     1      -3.243  -0.823  -0.546  1.00  0.00     0.190 C 
ENDROOT
BRANCH   1   2
ATOM      2  O   UNL     1      -2.839  -2.147  -0.363  1.00  0.00    -0.495 OA
ATOM      3  H   UNL     1      -1.883  -2.443  -0.511  1.00  0.00     0.295 HD
ENDBRANCH   1   2
BRANCH   1   4
ATOM      4  C   UNL     1      -4.540  -0.494  -0.446  1.00  0.00     0.109 C 
BRANCH   4   5
ATOM      5  C   UNL     1      -5.645  -1.472  -0.113  1.00  0.00     0.257 C 
BRANCH   5   6
ATOM      6  C   UNL     1      -5.724  -2.576  -1.136  1.00  0.00     0.104 C 
ATOM      7  O   UNL     1      -5.276  -3.727  -0.886  1.00  0.00    -0.544 OA
ATOM      8  O   UNL     1      -6.267  -2.314  -2.388  1.00  0.00    -0.544 OA
ENDBRANCH   5   6
BRANCH   5   9
ATOM      9  N   UNL     1      -5.506  -1.992   1.255  1.00  0.00    -0.347 N 
ATOM     10  H   UNL     1      -6.328  -2.598   1.484  1.00  0.00     0.345 HD
ATOM     11  H   UNL     1      -5.489  -1.196   1.933  1.00  0.00     0.345 HD
ATOM     12  H   UNL     1      -4.630  -2.551   1.366  1.00  0.00     0.345 HD
ENDBRANCH   5   9
ENDBRANCH   4   5
ENDBRANCH   1   4
BRANCH   1  13
ATOM     13  N   UNL     1      -2.277   0.192  -0.869  1.00  0.00    -0.326 N 
ATOM     14  H   UNL     1      -2.609   1.101  -1.266  1.00  0.00     0.170 HD
BRANCH  13  15
ATOM     15  C   UNL     1      -0.874   0.053  -0.593  1.00  0.00     0.051 A 
ATOM     16  C   UNL     1      -0.465  -0.377   0.679  1.00  0.00     0.027 A 
ATOM     17  C   UNL     1       0.103   0.424  -1.549  1.00  0.00     0.038 A 
ATOM     18  C   UNL     1       0.888  -0.446   1.008  1.00  0.00     0.011 A 
ATOM     19  C   UNL     1       1.463   0.362  -1.198  1.00  0.00     0.022 A 
ATOM     20  C   UNL     1       1.867  -0.074   0.075  1.00  0.00    -0.018 A 
BRANCH  17  21
ATOM     21  C   UNL     1      -0.236   0.848  -2.927  1.00  0.00     0.262 C 
ATOM     22  O   UNL     1      -1.385   0.674  -3.412  1.00  0.00    -0.298 OA
ENDBRANCH  17  21
BRANCH  20  23
ATOM     23  C   UNL     1       3.308  -0.143   0.427  1.00  0.00    -0.018 A 
ATOM     24  C   UNL     1       4.248  -0.629  -0.499  1.00  0.00     0.009 A 
ATOM     25  C   UNL     1       3.755   0.271   1.696  1.00  0.00     0.009 A 
ATOM     26  C   UNL     1       5.604  -0.695  -0.167  1.00  0.00     0.004 A 
ATOM     27  C   UNL     1       5.112   0.205   2.026  1.00  0.00     0.004 A 
ATOM     28  C   UNL     1       6.047  -0.263   1.092  1.00  0.00    -0.051 A 
ATOM     29  C   UNL     1       7.496  -0.371   1.462  1.00  0.00     0.044 C 
ENDBRANCH  20  23
ENDBRANCH  13  15
ENDBRANCH   1  13
TORSDOF 9


