REMARK SMILES CCOC(=O)c1cc(/N=C(/S)n2[n-]c(=O)/c(=N/N)cc2-c2ccc3[nH]ccc3c2)ccc1F
REMARK SMILES IDX 9 1 10 2 11 3 12 5 13 6 20 7 14 8 19 9 16 10 15 11 21 12
REMARK SMILES IDX 22 13 29 14 23 15 28 16 24 17 27 18 25 19 26 20 17 22 18 23
REMARK SMILES IDX 8 26 30 27 7 28 31 29 6 30 32 31 33 32 4 33 5 34 3 35 2 36
REMARK SMILES IDX 1 37
REMARK H PARENT 11 4 25 21 18 24 18 25
ROOT
ATOM      1  N   UNL     1       0.226   0.059  -0.645  1.00  0.00    -0.226 NA
ENDROOT
BRANCH   1   2
ATOM      2  C   UNL     1      -0.391   1.082  -0.125  1.00  0.00     0.152 C 
BRANCH   2   3
ATOM      3  S   UNL     1      -0.710   2.497  -1.177  1.00  0.00    -0.106 SA
ATOM      4  H   UNL     1       0.550   3.058  -0.894  1.00  0.00     0.111 HD
ENDBRANCH   2   3
BRANCH   2   5
ATOM      5  N   UNL     1      -0.667   1.168   1.285  1.00  0.00    -0.393 N 
ATOM      6  N   UNL     1       0.357   0.998   2.125  1.00  0.00    -0.552 NA
ATOM      7  C   UNL     1      -1.917   1.479   1.768  1.00  0.00     0.039 A 
ATOM      8  C   UNL     1       0.226   1.108   3.470  1.00  0.00     0.118 A 
ATOM      9  C   UNL     1      -2.100   1.616   3.151  1.00  0.00     0.058 A 
ATOM     10  C   UNL     1      -1.016   1.431   4.026  1.00  0.00     0.111 A 
ATOM     11  O   UNL     1       1.233   0.922   4.205  1.00  0.00    -0.312 OA
BRANCH   7  12
ATOM     12  C   UNL     1      -3.093   1.645   0.877  1.00  0.00    -0.002 A 
ATOM     13  C   UNL     1      -3.463   0.618  -0.032  1.00  0.00     0.012 A 
ATOM     14  C   UNL     1      -3.866   2.827   0.947  1.00  0.00     0.020 A 
ATOM     15  C   UNL     1      -4.579   0.770  -0.874  1.00  0.00     0.027 A 
ATOM     16  C   UNL     1      -4.964   2.943   0.099  1.00  0.00     0.000 A 
ATOM     17  C   UNL     1      -5.308   1.953  -0.780  1.00  0.00     0.045 A 
ATOM     18  C   UNL     1      -5.873   3.967  -0.056  1.00  0.00     0.028 A 
ATOM     19  N   UNL     1      -6.396   2.300  -1.487  1.00  0.00    -0.361 N 
ATOM     20  C   UNL     1      -6.745   3.531  -1.048  1.00  0.00     0.083 A 
ATOM     21  H   UNL     1      -6.875   1.738  -2.226  1.00  0.00     0.166 HD
ENDBRANCH   7  12
BRANCH  10  22
ATOM     22  N   UNL     1      -1.118   1.534   5.325  1.00  0.00    -0.181 NA
BRANCH  22  23
ATOM     23  N   UNL     1      -2.276   1.879   6.043  1.00  0.00    -0.323 N 
ATOM     24  H   UNL     1      -3.155   2.218   5.592  1.00  0.00     0.179 HD
ATOM     25  H   UNL     1      -2.242   1.872   7.086  1.00  0.00     0.179 HD
ENDBRANCH  22  23
ENDBRANCH  10  22
ENDBRANCH   2   5
ENDBRANCH   1   2
BRANCH   1  26
ATOM     26  C   UNL     1       0.574  -1.178   0.001  1.00  0.00     0.067 A 
ATOM     27  C   UNL     1      -0.266  -1.790   0.948  1.00  0.00     0.031 A 
ATOM     28  C   UNL     1       1.749  -1.831  -0.393  1.00  0.00     0.047 A 
ATOM     29  C   UNL     1       0.097  -3.007   1.525  1.00  0.00     0.042 A 
ATOM     30  C   UNL     1       2.126  -3.060   0.182  1.00  0.00     0.097 A 
ATOM     31  C   UNL     1       1.285  -3.641   1.154  1.00  0.00     0.137 A 
ATOM     32  F   UNL     1       1.598  -4.824   1.740  1.00  0.00    -0.206 F 
BRANCH  30  33
ATOM     33  C   UNL     1       3.388  -3.720  -0.236  1.00  0.00     0.341 C 
ATOM     34  O   UNL     1       4.122  -3.180  -1.110  1.00  0.00    -0.246 OA
BRANCH  33  35
ATOM     35  O   UNL     1       3.771  -4.937   0.337  1.00  0.00    -0.462 OA
BRANCH  35  36
ATOM     36  C   UNL     1       4.973  -5.612  -0.018  1.00  0.00     0.230 C 
ATOM     37  C   UNL     1       5.090  -6.897   0.787  1.00  0.00     0.049 C 
ENDBRANCH  35  36
ENDBRANCH  33  35
ENDBRANCH  30  33
ENDBRANCH   1  26
TORSDOF 10


