REMARK SMILES CCCC[C@H](CC)C[N-]C(=O)N1N[C@@H](C)O[C@H]1c1cc2ccc(F)cc2[nH]1
REMARK SMILES IDX 8 1 5 2 4 3 3 4 2 5 1 6 6 7 7 8 9 9 10 10 11 11 12 12 13 13
REMARK SMILES IDX 17 14 14 15 16 16 15 18 18 19 19 20 27 21 20 22 26 23 21 24
REMARK SMILES IDX 25 25 22 26 23 27 24 29
REMARK H PARENT 13 17 27 28
ROOT
ATOM      1  C   UNL     1      -1.847  -0.776  -1.308  1.00  0.00     0.007 C 
ENDROOT
BRANCH   1   2
ATOM      2  C   UNL     1      -1.393  -1.616  -2.527  1.00  0.00    -0.012 C 
BRANCH   2   3
ATOM      3  C   UNL     1       0.060  -2.143  -2.371  1.00  0.00     0.003 C 
BRANCH   3   4
ATOM      4  C   UNL     1       0.244  -3.071  -1.156  1.00  0.00    -0.000 C 
BRANCH   4   5
ATOM      5  C   UNL     1       1.639  -3.711  -1.167  1.00  0.00    -0.003 C 
ATOM      6  C   UNL     1       1.831  -4.636   0.031  1.00  0.00     0.004 C 
ENDBRANCH   4   5
ENDBRANCH   3   4
ENDBRANCH   2   3
BRANCH   2   7
ATOM      7  C   UNL     1      -1.507  -0.811  -3.849  1.00  0.00    -0.000 C 
ATOM      8  C   UNL     1      -2.950  -0.473  -4.229  1.00  0.00     0.004 C 
ENDBRANCH   2   7
ENDBRANCH   1   2
BRANCH   1   9
ATOM      9  N   UNL     1      -0.915   0.325  -1.073  1.00  0.00    -0.430 NA
BRANCH   9  10
ATOM     10  C   UNL     1      -1.304   1.701  -0.900  1.00  0.00     0.169 C 
ATOM     11  O   UNL     1      -2.521   2.041  -0.959  1.00  0.00    -0.298 OA
BRANCH  10  12
ATOM     12  N   UNL     1      -0.300   2.699  -0.671  1.00  0.00    -0.349 N 
ATOM     13  N   UNL     1      -0.606   4.037  -0.442  1.00  0.00    -0.274 NA
ATOM     14  C   UNL     1       1.122   2.460  -0.698  1.00  0.00     0.188 C 
ATOM     15  C   UNL     1       0.715   4.664  -0.329  1.00  0.00     0.185 C 
ATOM     16  O   UNL     1       1.740   3.682  -0.395  1.00  0.00    -0.353 OA
ATOM     17  H   UNL     1      -1.072   4.399  -1.309  1.00  0.00     0.128 HD
ATOM     18  C   UNL     1       0.815   5.414   0.995  1.00  0.00     0.056 C 
BRANCH  14  19
ATOM     19  C   UNL     1       1.521   1.432   0.322  1.00  0.00     0.046 A 
ATOM     20  C   UNL     1       2.332   0.327   0.070  1.00  0.00     0.034 A 
ATOM     21  N   UNL     1       1.126   1.463   1.617  1.00  0.00    -0.356 N 
ATOM     22  C   UNL     1       2.415  -0.330   1.277  1.00  0.00    -0.000 A 
ATOM     23  C   UNL     1       1.673   0.379   2.189  1.00  0.00     0.049 A 
ATOM     24  C   UNL     1       3.076  -1.503   1.627  1.00  0.00     0.013 A 
ATOM     25  C   UNL     1       1.524  -0.048   3.507  1.00  0.00     0.065 A 
ATOM     26  C   UNL     1       2.943  -1.960   2.953  1.00  0.00     0.040 A 
ATOM     27  C   UNL     1       2.166  -1.238   3.889  1.00  0.00     0.125 A 
ATOM     28  H   UNL     1       0.506   2.171   2.071  1.00  0.00     0.166 HD
ATOM     29  F   UNL     1       2.040  -1.696   5.164  1.00  0.00    -0.207 F 
ENDBRANCH  14  19
ENDBRANCH  10  12
ENDBRANCH   9  10
ENDBRANCH   1   9
TORSDOF 9


