MODEL 1
REMARK VINA RESULT:      -5.5      0.000      0.000
REMARK SMILES Cc1cc(N)c(/N=C(\O)OC(C)(C)C)c(-n2[nH+]c3ccccc3[nH+]2)c1
REMARK SMILES IDX 8 1 9 2 7 4 6 5 4 6 15 7 3 8 25 9 2 10 1 11 5 12 16 15 17 16
REMARK SMILES IDX 24 17 18 18 23 19 19 20 22 21 20 22 21 23 10 26 11 27 12 28
REMARK SMILES IDX 13 29 14 30
REMARK H PARENT 9 3 5 13 5 14 17 24 24 25
ROOT
ATOM      1  C   UNL     1      45.478 128.787  21.467  1.00  0.00     0.386 C 
ENDROOT
BRANCH   1   2
ATOM      2  O   UNL     1      46.491 127.900  21.111  1.00  0.00    -0.466 OA
ATOM      3  H   UNL     1      46.354 126.900  21.193  1.00  0.00     0.298 HD
ENDBRANCH   1   2
BRANCH   1   4
ATOM      4  N   UNL     1      45.524 130.026  21.075  1.00  0.00    -0.174 NA
BRANCH   4   5
ATOM      5  C   UNL     1      44.402 130.924  21.102  1.00  0.00     0.129 A 
ATOM      6  C   UNL     1      43.824 131.277  22.339  1.00  0.00     0.061 A 
ATOM      7  C   UNL     1      43.872 131.466  19.905  1.00  0.00     0.196 A 
ATOM      8  C   UNL     1      42.699 132.111  22.370  1.00  0.00     0.031 A 
ATOM      9  C   UNL     1      42.733 132.280  19.957  1.00  0.00     0.044 A 
ATOM     10  C   UNL     1      42.133 132.593  21.183  1.00  0.00    -0.046 A 
ATOM     11  C   UNL     1      40.946 133.509  21.229  1.00  0.00     0.044 C 
BRANCH   6  12
ATOM     12  N   UNL     1      44.353 130.770  23.571  1.00  0.00    -0.397 N 
ATOM     13  H   UNL     1      45.306 131.027  23.907  1.00  0.00     0.156 HD
ATOM     14  H   UNL     1      43.793 130.113  24.159  1.00  0.00     0.156 HD
ENDBRANCH   6  12
BRANCH   7  15
ATOM     15  N   UNL     1      44.503 131.228  18.637  1.00  0.00     0.082 N 
ATOM     16  N   UNL     1      45.520 130.387  18.455  1.00  0.00    -0.062 N 
ATOM     17  N   UNL     1      44.136 131.806  17.495  1.00  0.00    -0.062 N 
ATOM     18  C   UNL     1      45.821 130.449  17.147  1.00  0.00     0.306 A 
ATOM     19  C   UNL     1      44.964 131.327  16.553  1.00  0.00     0.306 A 
ATOM     20  C   UNL     1      46.811 129.780  16.434  1.00  0.00     0.089 A 
ATOM     21  C   UNL     1      45.016 131.614  15.192  1.00  0.00     0.089 A 
ATOM     22  C   UNL     1      46.898 130.044  15.051  1.00  0.00     0.007 A 
ATOM     23  C   UNL     1      46.007 130.956  14.434  1.00  0.00     0.007 A 
ATOM     24  H   UNL     1      45.991 129.819  19.194  1.00  0.00     0.495 HD
ATOM     25  H   UNL     1      43.344 132.473  17.369  1.00  0.00     0.495 HD
ENDBRANCH   7  15
ENDBRANCH   4   5
ENDBRANCH   1   4
BRANCH   1  26
ATOM     26  O   UNL     1      44.409 128.305  22.240  1.00  0.00    -0.445 OA
BRANCH  26  27
ATOM     27  C   UNL     1      44.447 127.253  23.216  1.00  0.00     0.106 C 
ATOM     28  C   UNL     1      44.211 125.934  22.464  1.00  0.00     0.056 C 
ATOM     29  C   UNL     1      43.330 127.437  24.259  1.00  0.00     0.056 C 
ATOM     30  C   UNL     1      45.826 127.192  23.901  1.00  0.00     0.056 C 
ENDBRANCH  26  27
ENDBRANCH   1  26
TORSDOF 7
ENDMDL
MODEL 2
REMARK VINA RESULT:      -5.3      0.483      1.449
REMARK SMILES Cc1cc(N)c(/N=C(\O)OC(C)(C)C)c(-n2[nH+]c3ccccc3[nH+]2)c1
REMARK SMILES IDX 8 1 9 2 7 4 6 5 4 6 15 7 3 8 25 9 2 10 1 11 5 12 16 15 17 16
REMARK SMILES IDX 24 17 18 18 23 19 19 20 22 21 20 22 21 23 10 26 11 27 12 28
REMARK SMILES IDX 13 29 14 30
REMARK H PARENT 9 3 5 13 5 14 17 24 24 25
ROOT
ATOM      1  C   UNL     1      45.658 128.963  21.488  1.00  0.00     0.386 C 
ENDROOT
BRANCH   1   2
ATOM      2  O   UNL     1      46.241 128.005  20.662  1.00  0.00    -0.466 OA
ATOM      3  H   UNL     1      46.745 128.280  19.829  1.00  0.00     0.298 HD
ENDBRANCH   1   2
BRANCH   1   4
ATOM      4  N   UNL     1      45.662 130.216  21.141  1.00  0.00    -0.174 NA
BRANCH   4   5
ATOM      5  C   UNL     1      44.490 131.049  21.108  1.00  0.00     0.129 A 
ATOM      6  C   UNL     1      43.840 131.380  22.315  1.00  0.00     0.061 A 
ATOM      7  C   UNL     1      43.984 131.548  19.884  1.00  0.00     0.196 A 
ATOM      8  C   UNL     1      42.669 132.149  22.287  1.00  0.00     0.031 A 
ATOM      9  C   UNL     1      42.799 132.296  19.876  1.00  0.00     0.044 A 
ATOM     10  C   UNL     1      42.129 132.586  21.071  1.00  0.00    -0.046 A 
ATOM     11  C   UNL     1      40.891 133.434  21.055  1.00  0.00     0.044 C 
BRANCH   6  12
ATOM     12  N   UNL     1      44.342 130.917  23.574  1.00  0.00    -0.397 N 
ATOM     13  H   UNL     1      44.398 129.900  23.803  1.00  0.00     0.156 HD
ATOM     14  H   UNL     1      44.654 131.595  24.305  1.00  0.00     0.156 HD
ENDBRANCH   6  12
BRANCH   7  15
ATOM     15  N   UNL     1      44.682 131.334  18.647  1.00  0.00     0.082 N 
ATOM     16  N   UNL     1      44.784 132.245  17.680  1.00  0.00    -0.062 N 
ATOM     17  N   UNL     1      45.322 130.210  18.330  1.00  0.00    -0.062 N 
ATOM     18  C   UNL     1      45.503 131.667  16.702  1.00  0.00     0.306 A 
ATOM     19  C   UNL     1      45.836 130.408  17.105  1.00  0.00     0.306 A 
ATOM     20  C   UNL     1      45.887 132.177  15.466  1.00  0.00     0.089 A 
ATOM     21  C   UNL     1      46.585 129.546  16.310  1.00  0.00     0.089 A 
ATOM     22  C   UNL     1      46.647 131.334  14.630  1.00  0.00     0.007 A 
ATOM     23  C   UNL     1      46.993 130.026  15.049  1.00  0.00     0.007 A 
ATOM     24  H   UNL     1      44.366 133.201  17.688  1.00  0.00     0.495 HD
ATOM     25  H   UNL     1      45.419 129.365  18.933  1.00  0.00     0.495 HD
ENDBRANCH   7  15
ENDBRANCH   4   5
ENDBRANCH   1   4
BRANCH   1  26
ATOM     26  O   UNL     1      45.059 128.539  22.685  1.00  0.00    -0.445 OA
BRANCH  26  27
ATOM     27  C   UNL     1      44.934 127.191  23.164  1.00  0.00     0.106 C 
ATOM     28  C   UNL     1      46.312 126.777  23.703  1.00  0.00     0.056 C 
ATOM     29  C   UNL     1      44.542 126.240  22.019  1.00  0.00     0.056 C 
ATOM     30  C   UNL     1      43.909 127.111  24.312  1.00  0.00     0.056 C 
ENDBRANCH  26  27
ENDBRANCH   1  26
TORSDOF 7
ENDMDL
MODEL 3
REMARK VINA RESULT:      -5.0      1.820      2.703
REMARK SMILES Cc1cc(N)c(/N=C(\O)OC(C)(C)C)c(-n2[nH+]c3ccccc3[nH+]2)c1
REMARK SMILES IDX 8 1 9 2 7 4 6 5 4 6 15 7 3 8 25 9 2 10 1 11 5 12 16 15 17 16
REMARK SMILES IDX 24 17 18 18 23 19 19 20 22 21 20 22 21 23 10 26 11 27 12 28
REMARK SMILES IDX 13 29 14 30
REMARK H PARENT 9 3 5 13 5 14 17 24 24 25
ROOT
ATOM      1  C   UNL     1      45.423 127.116  22.161  1.00  0.00     0.386 C 
ENDROOT
BRANCH   1   2
ATOM      2  O   UNL     1      44.186 126.518  22.394  1.00  0.00    -0.466 OA
ATOM      3  H   UNL     1      43.838 126.404  23.337  1.00  0.00     0.298 HD
ENDBRANCH   1   2
BRANCH   1   4
ATOM      4  N   UNL     1      45.489 128.363  21.800  1.00  0.00    -0.174 NA
BRANCH   4   5
ATOM      5  C   UNL     1      44.780 129.431  22.450  1.00  0.00     0.129 A 
ATOM      6  C   UNL     1      44.568 129.377  23.843  1.00  0.00     0.061 A 
ATOM      7  C   UNL     1      44.298 130.541  21.715  1.00  0.00     0.196 A 
ATOM      8  C   UNL     1      43.834 130.388  24.477  1.00  0.00     0.031 A 
ATOM      9  C   UNL     1      43.547 131.531  22.364  1.00  0.00     0.044 A 
ATOM     10  C   UNL     1      43.299 131.452  23.739  1.00  0.00    -0.046 A 
ATOM     11  C   UNL     1      42.540 132.545  24.433  1.00  0.00     0.044 C 
BRANCH   6  12
ATOM     12  N   UNL     1      45.067 128.282  24.622  1.00  0.00    -0.397 N 
ATOM     13  H   UNL     1      45.959 127.798  24.382  1.00  0.00     0.156 HD
ATOM     14  H   UNL     1      44.534 127.932  25.450  1.00  0.00     0.156 HD
ENDBRANCH   6  12
BRANCH   7  15
ATOM     15  N   UNL     1      44.595 130.695  20.318  1.00  0.00     0.082 N 
ATOM     16  N   UNL     1      43.918 131.492  19.494  1.00  0.00    -0.062 N 
ATOM     17  N   UNL     1      45.591 130.074  19.689  1.00  0.00    -0.062 N 
ATOM     18  C   UNL     1      44.496 131.356  18.289  1.00  0.00     0.306 A 
ATOM     19  C   UNL     1      45.533 130.478  18.411  1.00  0.00     0.306 A 
ATOM     20  C   UNL     1      44.170 131.956  17.077  1.00  0.00     0.089 A 
ATOM     21  C   UNL     1      46.338 130.123  17.332  1.00  0.00     0.089 A 
ATOM     22  C   UNL     1      44.961 131.621  15.959  1.00  0.00     0.007 A 
ATOM     23  C   UNL     1      46.038 130.710  16.086  1.00  0.00     0.007 A 
ATOM     24  H   UNL     1      43.092 132.080  19.745  1.00  0.00     0.495 HD
ATOM     25  H   UNL     1      46.286 129.428  20.123  1.00  0.00     0.495 HD
ENDBRANCH   7  15
ENDBRANCH   4   5
ENDBRANCH   1   4
BRANCH   1  26
ATOM     26  O   UNL     1      46.583 126.345  22.341  1.00  0.00    -0.445 OA
BRANCH  26  27
ATOM     27  C   UNL     1      46.696 125.095  23.039  1.00  0.00     0.106 C 
ATOM     28  C   UNL     1      46.370 123.985  22.028  1.00  0.00     0.056 C 
ATOM     29  C   UNL     1      45.683 125.024  24.197  1.00  0.00     0.056 C 
ATOM     30  C   UNL     1      48.131 124.887  23.559  1.00  0.00     0.056 C 
ENDBRANCH  26  27
ENDBRANCH   1  26
TORSDOF 7
ENDMDL
MODEL 4
REMARK VINA RESULT:      -4.8      0.567      1.046
REMARK SMILES Cc1cc(N)c(/N=C(\O)OC(C)(C)C)c(-n2[nH+]c3ccccc3[nH+]2)c1
REMARK SMILES IDX 8 1 9 2 7 4 6 5 4 6 15 7 3 8 25 9 2 10 1 11 5 12 16 15 17 16
REMARK SMILES IDX 24 17 18 18 23 19 19 20 22 21 20 22 21 23 10 26 11 27 12 28
REMARK SMILES IDX 13 29 14 30
REMARK H PARENT 9 3 5 13 5 14 17 24 24 25
ROOT
ATOM      1  C   UNL     1      45.572 129.070  21.213  1.00  0.00     0.386 C 
ENDROOT
BRANCH   1   2
ATOM      2  O   UNL     1      45.515 128.216  20.115  1.00  0.00    -0.466 OA
ATOM      3  H   UNL     1      45.739 127.233  20.212  1.00  0.00     0.298 HD
ENDBRANCH   1   2
BRANCH   1   4
ATOM      4  N   UNL     1      45.564 130.359  21.042  1.00  0.00    -0.174 NA
BRANCH   4   5
ATOM      5  C   UNL     1      44.376 131.169  21.065  1.00  0.00     0.129 A 
ATOM      6  C   UNL     1      43.808 131.533  22.303  1.00  0.00     0.061 A 
ATOM      7  C   UNL     1      43.772 131.612  19.863  1.00  0.00     0.196 A 
ATOM      8  C   UNL     1      42.623 132.280  22.332  1.00  0.00     0.031 A 
ATOM      9  C   UNL     1      42.574 132.339  19.915  1.00  0.00     0.044 A 
ATOM     10  C   UNL     1      41.988 132.660  21.144  1.00  0.00    -0.046 A 
ATOM     11  C   UNL     1      40.734 133.485  21.188  1.00  0.00     0.044 C 
BRANCH   6  12
ATOM     12  N   UNL     1      44.409 131.126  23.538  1.00  0.00    -0.397 N 
ATOM     13  H   UNL     1      44.908 130.215  23.632  1.00  0.00     0.156 HD
ATOM     14  H   UNL     1      44.347 131.733  24.385  1.00  0.00     0.156 HD
ENDBRANCH   6  12
BRANCH   7  15
ATOM     15  N   UNL     1      44.384 131.365  18.587  1.00  0.00     0.082 N 
ATOM     16  N   UNL     1      45.415 130.543  18.400  1.00  0.00    -0.062 N 
ATOM     17  N   UNL     1      43.981 131.913  17.442  1.00  0.00    -0.062 N 
ATOM     18  C   UNL     1      45.690 130.587  17.085  1.00  0.00     0.306 A 
ATOM     19  C   UNL     1      44.801 131.435  16.493  1.00  0.00     0.306 A 
ATOM     20  C   UNL     1      46.680 129.927  16.365  1.00  0.00     0.089 A 
ATOM     21  C   UNL     1      44.821 131.697  15.126  1.00  0.00     0.089 A 
ATOM     22  C   UNL     1      46.735 130.167  14.977  1.00  0.00     0.007 A 
ATOM     23  C   UNL     1      45.811 131.048  14.361  1.00  0.00     0.007 A 
ATOM     24  H   UNL     1      45.913 130.000  19.140  1.00  0.00     0.495 HD
ATOM     25  H   UNL     1      43.172 132.560  17.320  1.00  0.00     0.495 HD
ENDBRANCH   7  15
ENDBRANCH   4   5
ENDBRANCH   1   4
BRANCH   1  26
ATOM     26  O   UNL     1      45.623 128.505  22.498  1.00  0.00    -0.445 OA
BRANCH  26  27
ATOM     27  C   UNL     1      44.709 127.552  23.065  1.00  0.00     0.106 C 
ATOM     28  C   UNL     1      45.151 127.316  24.517  1.00  0.00     0.056 C 
ATOM     29  C   UNL     1      44.774 126.216  22.303  1.00  0.00     0.056 C 
ATOM     30  C   UNL     1      43.272 128.107  23.068  1.00  0.00     0.056 C 
ENDBRANCH  26  27
ENDBRANCH   1  26
TORSDOF 7
ENDMDL
MODEL 5
REMARK VINA RESULT:      -4.1      0.916      1.928
REMARK SMILES Cc1cc(N)c(/N=C(\O)OC(C)(C)C)c(-n2[nH+]c3ccccc3[nH+]2)c1
REMARK SMILES IDX 8 1 9 2 7 4 6 5 4 6 15 7 3 8 25 9 2 10 1 11 5 12 16 15 17 16
REMARK SMILES IDX 24 17 18 18 23 19 19 20 22 21 20 22 21 23 10 26 11 27 12 28
REMARK SMILES IDX 13 29 14 30
REMARK H PARENT 9 3 5 13 5 14 17 24 24 25
ROOT
ATOM      1  C   UNL     1      44.953 128.847  22.113  1.00  0.00     0.386 C 
ENDROOT
BRANCH   1   2
ATOM      2  O   UNL     1      44.016 128.622  23.119  1.00  0.00    -0.466 OA
ATOM      3  H   UNL     1      44.010 129.191  23.956  1.00  0.00     0.298 HD
ENDBRANCH   1   2
BRANCH   1   4
ATOM      4  N   UNL     1      45.017 130.006  21.526  1.00  0.00    -0.174 NA
BRANCH   4   5
ATOM      5  C   UNL     1      43.949 130.968  21.520  1.00  0.00     0.129 A 
ATOM      6  C   UNL     1      43.351 131.350  22.739  1.00  0.00     0.061 A 
ATOM      7  C   UNL     1      43.494 131.545  20.309  1.00  0.00     0.196 A 
ATOM      8  C   UNL     1      42.277 132.249  22.736  1.00  0.00     0.031 A 
ATOM      9  C   UNL     1      42.403 132.425  20.327  1.00  0.00     0.044 A 
ATOM     10  C   UNL     1      41.781 132.768  21.534  1.00  0.00    -0.046 A 
ATOM     11  C   UNL     1      40.649 133.753  21.546  1.00  0.00     0.044 C 
BRANCH   6  12
ATOM     12  N   UNL     1      43.807 130.808  23.985  1.00  0.00    -0.397 N 
ATOM     13  H   UNL     1      43.510 131.210  24.900  1.00  0.00     0.156 HD
ATOM     14  H   UNL     1      44.465 129.997  24.003  1.00  0.00     0.156 HD
ENDBRANCH   6  12
BRANCH   7  15
ATOM     15  N   UNL     1      44.152 131.275  19.062  1.00  0.00     0.082 N 
ATOM     16  N   UNL     1      43.751 131.755  17.886  1.00  0.00    -0.062 N 
ATOM     17  N   UNL     1      45.249 130.530  18.937  1.00  0.00    -0.062 N 
ATOM     18  C   UNL     1      44.618 131.279  16.976  1.00  0.00     0.306 A 
ATOM     19  C   UNL     1      45.545 130.521  17.628  1.00  0.00     0.306 A 
ATOM     20  C   UNL     1      44.646 131.467  15.598  1.00  0.00     0.089 A 
ATOM     21  C   UNL     1      46.587 129.884  16.960  1.00  0.00     0.089 A 
ATOM     22  C   UNL     1      45.686 130.836  14.885  1.00  0.00     0.007 A 
ATOM     23  C   UNL     1      46.650 130.049  15.562  1.00  0.00     0.007 A 
ATOM     24  H   UNL     1      42.916 132.360  17.720  1.00  0.00     0.495 HD
ATOM     25  H   UNL     1      45.775 130.074  19.713  1.00  0.00     0.495 HD
ENDBRANCH   7  15
ENDBRANCH   4   5
ENDBRANCH   1   4
BRANCH   1  26
ATOM     26  O   UNL     1      45.826 127.804  21.766  1.00  0.00    -0.445 OA
BRANCH  26  27
ATOM     27  C   UNL     1      45.921 126.510  22.382  1.00  0.00     0.106 C 
ATOM     28  C   UNL     1      46.113 126.743  23.889  1.00  0.00     0.056 C 
ATOM     29  C   UNL     1      47.138 125.737  21.841  1.00  0.00     0.056 C 
ATOM     30  C   UNL     1      44.625 125.704  22.167  1.00  0.00     0.056 C 
ENDBRANCH  26  27
ENDBRANCH   1  26
TORSDOF 7
ENDMDL
MODEL 6
REMARK VINA RESULT:      -3.8      1.697      2.501
REMARK SMILES Cc1cc(N)c(/N=C(\O)OC(C)(C)C)c(-n2[nH+]c3ccccc3[nH+]2)c1
REMARK SMILES IDX 8 1 9 2 7 4 6 5 4 6 15 7 3 8 25 9 2 10 1 11 5 12 16 15 17 16
REMARK SMILES IDX 24 17 18 18 23 19 19 20 22 21 20 22 21 23 10 26 11 27 12 28
REMARK SMILES IDX 13 29 14 30
REMARK H PARENT 9 3 5 13 5 14 17 24 24 25
ROOT
ATOM      1  C   UNL     1      45.452 127.435  22.235  1.00  0.00     0.386 C 
ENDROOT
BRANCH   1   2
ATOM      2  O   UNL     1      46.596 127.302  23.018  1.00  0.00    -0.466 OA
ATOM      3  H   UNL     1      46.556 127.443  24.019  1.00  0.00     0.298 HD
ENDBRANCH   1   2
BRANCH   1   4
ATOM      4  N   UNL     1      45.146 128.585  21.711  1.00  0.00    -0.174 NA
BRANCH   4   5
ATOM      5  C   UNL     1      44.517 129.659  22.430  1.00  0.00     0.129 A 
ATOM      6  C   UNL     1      44.396 129.578  23.833  1.00  0.00     0.061 A 
ATOM      7  C   UNL     1      44.023 130.800  21.753  1.00  0.00     0.196 A 
ATOM      8  C   UNL     1      43.740 130.597  24.535  1.00  0.00     0.031 A 
ATOM      9  C   UNL     1      43.349 131.797  22.472  1.00  0.00     0.044 A 
ATOM     10  C   UNL     1      43.191 131.693  23.858  1.00  0.00    -0.046 A 
ATOM     11  C   UNL     1      42.515 132.793  24.625  1.00  0.00     0.044 C 
BRANCH   6  12
ATOM     12  N   UNL     1      44.911 128.452  24.553  1.00  0.00    -0.397 N 
ATOM     13  H   UNL     1      44.287 127.692  24.903  1.00  0.00     0.156 HD
ATOM     14  H   UNL     1      45.932 128.372  24.759  1.00  0.00     0.156 HD
ENDBRANCH   6  12
BRANCH   7  15
ATOM     15  N   UNL     1      44.231 130.977  20.343  1.00  0.00     0.082 N 
ATOM     16  N   UNL     1      43.321 131.481  19.511  1.00  0.00    -0.062 N 
ATOM     17  N   UNL     1      45.361 130.674  19.706  1.00  0.00    -0.062 N 
ATOM     18  C   UNL     1      43.892 131.481  18.294  1.00  0.00     0.306 A 
ATOM     19  C   UNL     1      45.155 130.981  18.416  1.00  0.00     0.306 A 
ATOM     20  C   UNL     1      43.371 131.892  17.072  1.00  0.00     0.089 A 
ATOM     21  C   UNL     1      46.012 130.850  17.327  1.00  0.00     0.089 A 
ATOM     22  C   UNL     1      44.207 131.774  15.943  1.00  0.00     0.007 A 
ATOM     23  C   UNL     1      45.520 131.256  16.070  1.00  0.00     0.007 A 
ATOM     24  H   UNL     1      42.357 131.789  19.765  1.00  0.00     0.495 HD
ATOM     25  H   UNL     1      46.232 130.300  20.142  1.00  0.00     0.495 HD
ENDBRANCH   7  15
ENDBRANCH   4   5
ENDBRANCH   1   4
BRANCH   1  26
ATOM     26  O   UNL     1      44.654 126.299  22.020  1.00  0.00    -0.445 OA
BRANCH  26  27
ATOM     27  C   UNL     1      44.288 125.298  22.982  1.00  0.00     0.106 C 
ATOM     28  C   UNL     1      42.890 124.793  22.595  1.00  0.00     0.056 C 
ATOM     29  C   UNL     1      44.224 125.902  24.397  1.00  0.00     0.056 C 
ATOM     30  C   UNL     1      45.272 124.113  22.940  1.00  0.00     0.056 C 
ENDBRANCH  26  27
ENDBRANCH   1  26
TORSDOF 7
ENDMDL
MODEL 7
REMARK VINA RESULT:      -3.4      2.141      6.240
REMARK SMILES Cc1cc(N)c(/N=C(\O)OC(C)(C)C)c(-n2[nH+]c3ccccc3[nH+]2)c1
REMARK SMILES IDX 8 1 9 2 7 4 6 5 4 6 15 7 3 8 25 9 2 10 1 11 5 12 16 15 17 16
REMARK SMILES IDX 24 17 18 18 23 19 19 20 22 21 20 22 21 23 10 26 11 27 12 28
REMARK SMILES IDX 13 29 14 30
REMARK H PARENT 9 3 5 13 5 14 17 24 24 25
ROOT
ATOM      1  C   UNL     1      45.517 130.594  19.024  1.00  0.00     0.386 C 
ENDROOT
BRANCH   1   2
ATOM      2  O   UNL     1      46.860 130.959  19.090  1.00  0.00    -0.466 OA
ATOM      3  H   UNL     1      47.478 130.533  19.770  1.00  0.00     0.298 HD
ENDBRANCH   1   2
BRANCH   1   4
ATOM      4  N   UNL     1      44.986 129.875  19.968  1.00  0.00    -0.174 NA
BRANCH   4   5
ATOM      5  C   UNL     1      44.328 130.419  21.124  1.00  0.00     0.129 A 
ATOM      6  C   UNL     1      43.759 131.707  21.057  1.00  0.00     0.061 A 
ATOM      7  C   UNL     1      44.237 129.679  22.328  1.00  0.00     0.196 A 
ATOM      8  C   UNL     1      43.160 132.265  22.195  1.00  0.00     0.031 A 
ATOM      9  C   UNL     1      43.654 130.264  23.461  1.00  0.00     0.044 A 
ATOM     10  C   UNL     1      43.130 131.560  23.405  1.00  0.00    -0.046 A 
ATOM     11  C   UNL     1      42.460 132.156  24.608  1.00  0.00     0.044 C 
BRANCH   6  12
ATOM     12  N   UNL     1      43.808 132.473  19.847  1.00  0.00    -0.397 N 
ATOM     13  H   UNL     1      44.671 132.979  19.551  1.00  0.00     0.156 HD
ATOM     14  H   UNL     1      42.966 132.553  19.234  1.00  0.00     0.156 HD
ENDBRANCH   6  12
BRANCH   7  15
ATOM     15  N   UNL     1      44.697 128.320  22.403  1.00  0.00     0.082 N 
ATOM     16  N   UNL     1      43.979 127.315  22.901  1.00  0.00    -0.062 N 
ATOM     17  N   UNL     1      45.885 127.904  21.969  1.00  0.00    -0.062 N 
ATOM     18  C   UNL     1      44.751 126.220  22.795  1.00  0.00     0.306 A 
ATOM     19  C   UNL     1      45.931 126.586  22.218  1.00  0.00     0.306 A 
ATOM     20  C   UNL     1      44.486 124.910  23.179  1.00  0.00     0.089 A 
ATOM     21  C   UNL     1      46.952 125.673  21.969  1.00  0.00     0.089 A 
ATOM     22  C   UNL     1      45.496 123.954  22.945  1.00  0.00     0.007 A 
ATOM     23  C   UNL     1      46.722 124.333  22.344  1.00  0.00     0.007 A 
ATOM     24  H   UNL     1      43.019 127.385  23.308  1.00  0.00     0.495 HD
ATOM     25  H   UNL     1      46.612 128.492  21.506  1.00  0.00     0.495 HD
ENDBRANCH   7  15
ENDBRANCH   4   5
ENDBRANCH   1   4
BRANCH   1  26
ATOM     26  O   UNL     1      44.759 131.035  17.927  1.00  0.00    -0.445 OA
BRANCH  26  27
ATOM     27  C   UNL     1      45.080 130.892  16.535  1.00  0.00     0.106 C 
ATOM     28  C   UNL     1      43.759 130.993  15.757  1.00  0.00     0.056 C 
ATOM     29  C   UNL     1      45.712 129.515  16.260  1.00  0.00     0.056 C 
ATOM     30  C   UNL     1      46.017 132.023  16.070  1.00  0.00     0.056 C 
ENDBRANCH  26  27
ENDBRANCH   1  26
TORSDOF 7
ENDMDL
MODEL 8
REMARK VINA RESULT:      -3.3      2.794      3.852
REMARK SMILES Cc1cc(N)c(/N=C(\O)OC(C)(C)C)c(-n2[nH+]c3ccccc3[nH+]2)c1
REMARK SMILES IDX 8 1 9 2 7 4 6 5 4 6 15 7 3 8 25 9 2 10 1 11 5 12 16 15 17 16
REMARK SMILES IDX 24 17 18 18 23 19 19 20 22 21 20 22 21 23 10 26 11 27 12 28
REMARK SMILES IDX 13 29 14 30
REMARK H PARENT 9 3 5 13 5 14 17 24 24 25
ROOT
ATOM      1  C   UNL     1      47.207 132.066  20.958  1.00  0.00     0.386 C 
ENDROOT
BRANCH   1   2
ATOM      2  O   UNL     1      48.521 131.672  20.713  1.00  0.00    -0.466 OA
ATOM      3  H   UNL     1      49.150 132.270  20.193  1.00  0.00     0.298 HD
ENDBRANCH   1   2
BRANCH   1   4
ATOM      4  N   UNL     1      46.223 131.252  20.713  1.00  0.00    -0.174 NA
BRANCH   4   5
ATOM      5  C   UNL     1      44.848 131.658  20.601  1.00  0.00     0.129 A 
ATOM      6  C   UNL     1      44.137 132.029  21.761  1.00  0.00     0.061 A 
ATOM      7  C   UNL     1      44.200 131.699  19.343  1.00  0.00     0.196 A 
ATOM      8  C   UNL     1      42.784 132.377  21.667  1.00  0.00     0.031 A 
ATOM      9  C   UNL     1      42.839 132.029  19.274  1.00  0.00     0.044 A 
ATOM     10  C   UNL     1      42.123 132.352  20.433  1.00  0.00    -0.046 A 
ATOM     11  C   UNL     1      40.680 132.756  20.340  1.00  0.00     0.044 C 
BRANCH   6  12
ATOM     12  N   UNL     1      44.771 132.026  23.047  1.00  0.00    -0.397 N 
ATOM     13  H   UNL     1      44.927 131.144  23.581  1.00  0.00     0.156 HD
ATOM     14  H   UNL     1      45.081 132.920  23.488  1.00  0.00     0.156 HD
ENDBRANCH   6  12
BRANCH   7  15
ATOM     15  N   UNL     1      44.919 131.446  18.126  1.00  0.00     0.082 N 
ATOM     16  N   UNL     1      45.578 130.318  17.869  1.00  0.00    -0.062 N 
ATOM     17  N   UNL     1      44.996 132.300  17.108  1.00  0.00    -0.062 N 
ATOM     18  C   UNL     1      46.111 130.471  16.645  1.00  0.00     0.306 A 
ATOM     19  C   UNL     1      45.749 131.699  16.174  1.00  0.00     0.306 A 
ATOM     20  C   UNL     1      46.903 129.596  15.908  1.00  0.00     0.089 A 
ATOM     21  C   UNL     1      46.145 132.161  14.923  1.00  0.00     0.089 A 
ATOM     22  C   UNL     1      47.326 130.029  14.635  1.00  0.00     0.007 A 
ATOM     23  C   UNL     1      46.950 131.304  14.145  1.00  0.00     0.007 A 
ATOM     24  H   UNL     1      45.671 129.499  18.510  1.00  0.00     0.495 HD
ATOM     25  H   UNL     1      44.535 133.235  17.051  1.00  0.00     0.495 HD
ENDBRANCH   7  15
ENDBRANCH   4   5
ENDBRANCH   1   4
BRANCH   1  26
ATOM     26  O   UNL     1      46.981 133.347  21.487  1.00  0.00    -0.445 OA
BRANCH  26  27
ATOM     27  C   UNL     1      47.888 134.136  22.272  1.00  0.00     0.106 C 
ATOM     28  C   UNL     1      47.153 134.508  23.569  1.00  0.00     0.056 C 
ATOM     29  C   UNL     1      48.269 135.429  21.529  1.00  0.00     0.056 C 
ATOM     30  C   UNL     1      49.148 133.325  22.632  1.00  0.00     0.056 C 
ENDBRANCH  26  27
ENDBRANCH   1  26
TORSDOF 7
ENDMDL
MODEL 9
REMARK VINA RESULT:      -3.0      2.068      2.956
REMARK SMILES Cc1cc(N)c(/N=C(\O)OC(C)(C)C)c(-n2[nH+]c3ccccc3[nH+]2)c1
REMARK SMILES IDX 8 1 9 2 7 4 6 5 4 6 15 7 3 8 25 9 2 10 1 11 5 12 16 15 17 16
REMARK SMILES IDX 24 17 18 18 23 19 19 20 22 21 20 22 21 23 10 26 11 27 12 28
REMARK SMILES IDX 13 29 14 30
REMARK H PARENT 9 3 5 13 5 14 17 24 24 25
ROOT
ATOM      1  C   UNL     1      43.012 130.057  22.697  1.00  0.00     0.386 C 
ENDROOT
BRANCH   1   2
ATOM      2  O   UNL     1      42.091 130.245  23.724  1.00  0.00    -0.466 OA
ATOM      3  H   UNL     1      41.142 130.534  23.521  1.00  0.00     0.298 HD
ENDBRANCH   1   2
BRANCH   1   4
ATOM      4  N   UNL     1      43.389 131.062  21.963  1.00  0.00    -0.174 NA
BRANCH   4   5
ATOM      5  C   UNL     1      44.550 131.867  22.231  1.00  0.00     0.129 A 
ATOM      6  C   UNL     1      44.803 132.305  23.547  1.00  0.00     0.061 A 
ATOM      7  C   UNL     1      45.447 132.221  21.194  1.00  0.00     0.196 A 
ATOM      8  C   UNL     1      45.904 133.131  23.807  1.00  0.00     0.031 A 
ATOM      9  C   UNL     1      46.530 133.067  21.471  1.00  0.00     0.044 A 
ATOM     10  C   UNL     1      46.753 133.537  22.770  1.00  0.00    -0.046 A 
ATOM     11  C   UNL     1      47.947 134.399  23.066  1.00  0.00     0.044 C 
BRANCH   6  12
ATOM     12  N   UNL     1      43.932 131.941  24.625  1.00  0.00    -0.397 N 
ATOM     13  H   UNL     1      44.249 131.322  25.403  1.00  0.00     0.156 HD
ATOM     14  H   UNL     1      42.944 132.280  24.649  1.00  0.00     0.156 HD
ENDBRANCH   6  12
BRANCH   7  15
ATOM     15  N   UNL     1      45.292 131.699  19.864  1.00  0.00     0.082 N 
ATOM     16  N   UNL     1      45.978 130.663  19.385  1.00  0.00    -0.062 N 
ATOM     17  N   UNL     1      44.436 132.178  18.964  1.00  0.00    -0.062 N 
ATOM     18  C   UNL     1      45.551 130.489  18.122  1.00  0.00     0.306 A 
ATOM     19  C   UNL     1      44.596 131.428  17.863  1.00  0.00     0.306 A 
ATOM     20  C   UNL     1      45.951 129.555  17.173  1.00  0.00     0.089 A 
ATOM     21  C   UNL     1      43.953 131.513  16.632  1.00  0.00     0.089 A 
ATOM     22  C   UNL     1      45.324 129.609  15.911  1.00  0.00     0.007 A 
ATOM     23  C   UNL     1      44.331 130.583  15.642  1.00  0.00     0.007 A 
ATOM     24  H   UNL     1      46.711 130.120  19.893  1.00  0.00     0.495 HD
ATOM     25  H   UNL     1      43.762 132.961  19.110  1.00  0.00     0.495 HD
ENDBRANCH   7  15
ENDBRANCH   4   5
ENDBRANCH   1   4
BRANCH   1  26
ATOM     26  O   UNL     1      43.528 128.768  22.489  1.00  0.00    -0.445 OA
BRANCH  26  27
ATOM     27  C   UNL     1      44.002 127.850  23.487  1.00  0.00     0.106 C 
ATOM     28  C   UNL     1      44.605 128.693  24.622  1.00  0.00     0.056 C 
ATOM     29  C   UNL     1      45.099 126.937  22.911  1.00  0.00     0.056 C 
ATOM     30  C   UNL     1      42.840 127.013  24.056  1.00  0.00     0.056 C 
ENDBRANCH  26  27
ENDBRANCH   1  26
TORSDOF 7
ENDMDL


