REMARK SMILES Cc1ccc(-c2cc(F)c3[nH+]cccc3c2)c(F)[nH+]1
REMARK SMILES IDX 6 1 7 2 8 3 9 4 10 5 11 6 12 7 13 8 14 9 15 10 16 11 5 13
REMARK SMILES IDX 2 14 3 15 19 16 4 17 17 18 1 19 18 21
REMARK H PARENT 11 12 19 20
ROOT
ATOM      1  C   UNL     1      -0.737  -0.203  -0.569  1.00  0.00    -0.005 A 
ATOM      2  C   UNL     1      -1.738  -1.100  -0.980  1.00  0.00     0.055 A 
ATOM      3  C   UNL     1      -3.088  -0.812  -0.758  1.00  0.00     0.195 A 
ATOM      4  F   UNL     1      -4.030  -1.697  -1.174  1.00  0.00    -0.200 F 
ATOM      5  C   UNL     1      -3.460   0.379  -0.114  1.00  0.00     0.246 A 
ATOM      6  N   UNL     1      -4.775   0.674   0.111  1.00  0.00    -0.209 N 
ATOM      7  C   UNL     1      -5.149   1.824   0.737  1.00  0.00     0.307 A 
ATOM      8  C   UNL     1      -4.186   2.737   1.169  1.00  0.00     0.071 A 
ATOM      9  C   UNL     1      -2.836   2.466   0.955  1.00  0.00     0.021 A 
ATOM     10  C   UNL     1      -2.457   1.282   0.308  1.00  0.00     0.050 A 
ATOM     11  C   UNL     1      -1.105   0.987   0.081  1.00  0.00     0.024 A 
ATOM     12  H   UNL     1      -5.526   0.015  -0.196  1.00  0.00     0.453 HD
ENDROOT
BRANCH   1  13
ATOM     13  C   UNL     1       0.693  -0.521  -0.804  1.00  0.00     0.086 A 
ATOM     14  C   UNL     1       3.389  -1.108  -1.230  1.00  0.00     0.179 A 
ATOM     15  C   UNL     1       2.538  -2.094  -0.717  1.00  0.00     0.075 A 
ATOM     16  N   UNL     1       2.886   0.121  -1.544  1.00  0.00    -0.183 N 
ATOM     17  C   UNL     1       1.193  -1.797  -0.502  1.00  0.00     0.025 A 
ATOM     18  C   UNL     1       1.576   0.434  -1.341  1.00  0.00     0.366 A 
ATOM     19  C   UNL     1       4.829  -1.427  -1.503  1.00  0.00     0.123 C 
ATOM     20  H   UNL     1       3.514   0.847  -1.958  1.00  0.00     0.456 HD
ATOM     21  F   UNL     1       1.127   1.664  -1.700  1.00  0.00    -0.136 F 
ENDBRANCH   1  13
TORSDOF 1


