MODEL 1
REMARK VINA RESULT:      -7.4      0.000      0.000
REMARK SMILES [H]/N=c1\c([NH2+]c2ccc3c(c2)nnn3C)cccn1C(=S)Nc1ccccc1
REMARK SMILES IDX 3 1 4 2 16 3 17 4 18 5 19 6 2 7 1 8 5 9 6 12 7 13 11 14 8 15
REMARK SMILES IDX 10 16 9 17 12 18 14 19 13 20 15 21 20 22 22 23 21 24 23 26
REMARK SMILES IDX 24 27 28 28 25 29 27 30 26 31
REMARK H PARENT 5 10 5 11 22 25
ROOT
ATOM      1  C   UNL     1      44.873 131.061  18.993  1.00  0.00     0.194 A 
ATOM      2  C   UNL     1      44.159 131.663  20.070  1.00  0.00     0.177 A 
ATOM      3  C   UNL     1      42.911 132.246  19.798  1.00  0.00     0.074 A 
ATOM      4  C   UNL     1      42.387 132.230  18.513  1.00  0.00     0.025 A 
ATOM      5  C   UNL     1      43.111 131.632  17.487  1.00  0.00     0.096 A 
ATOM      6  N   UNL     1      44.328 131.064  17.729  1.00  0.00    -0.274 N 
ENDROOT
BRANCH   1   7
ATOM      7  N   UNL     1      46.030 130.496  19.183  1.00  0.00    -0.279 NA
ATOM      8  H   UNL     1      46.648 130.123  18.434  1.00  0.00     0.190 HD
ENDBRANCH   1   7
BRANCH   2   9
ATOM      9  N   UNL     1      44.658 131.671  21.431  1.00  0.00    -0.278 N 
ATOM     10  H   UNL     1      44.324 132.523  21.939  1.00  0.00     0.358 HD
ATOM     11  H   UNL     1      45.701 131.735  21.427  1.00  0.00     0.358 HD
BRANCH   9  12
ATOM     12  C   UNL     1      44.194 130.511  22.157  1.00  0.00     0.137 A 
ATOM     13  C   UNL     1      44.989 129.328  22.207  1.00  0.00     0.070 A 
ATOM     14  C   UNL     1      42.918 130.517  22.775  1.00  0.00     0.100 A 
ATOM     15  C   UNL     1      44.539 128.183  22.893  1.00  0.00     0.036 A 
ATOM     16  C   UNL     1      42.514 129.366  23.442  1.00  0.00     0.119 A 
ATOM     17  C   UNL     1      43.290 128.254  23.502  1.00  0.00     0.089 A 
ATOM     18  N   UNL     1      41.361 129.130  24.096  1.00  0.00    -0.130 NA
ATOM     19  N   UNL     1      42.613 127.333  24.201  1.00  0.00    -0.248 N 
ATOM     20  N   UNL     1      41.451 127.879  24.546  1.00  0.00    -0.066 NA
ATOM     21  C   UNL     1      43.016 125.967  24.508  1.00  0.00     0.176 C 
ENDBRANCH   9  12
ENDBRANCH   2   9
BRANCH   6  22
ATOM     22  C   UNL     1      45.030 130.467  16.623  1.00  0.00     0.183 C 
ATOM     23  N   UNL     1      46.373 130.889  16.327  1.00  0.00    -0.332 N 
ATOM     24  S   UNL     1      44.411 129.107  15.934  1.00  0.00    -0.040 S 
ATOM     25  H   UNL     1      46.903 131.397  17.071  1.00  0.00     0.169 HD
BRANCH  23  26
ATOM     26  C   UNL     1      47.032 130.677  15.068  1.00  0.00     0.040 A 
ATOM     27  C   UNL     1      46.933 131.655  14.065  1.00  0.00     0.026 A 
ATOM     28  C   UNL     1      47.716 129.480  14.792  1.00  0.00     0.026 A 
ATOM     29  C   UNL     1      47.542 131.458  12.822  1.00  0.00     0.002 A 
ATOM     30  C   UNL     1      48.323 129.285  13.547  1.00  0.00     0.002 A 
ATOM     31  C   UNL     1      48.241 130.275  12.565  1.00  0.00     0.000 A 
ENDBRANCH  23  26
ENDBRANCH   6  22
TORSDOF 5
ENDMDL
MODEL 2
REMARK VINA RESULT:      -7.1      1.342      2.032
REMARK SMILES [H]/N=c1\c([NH2+]c2ccc3c(c2)nnn3C)cccn1C(=S)Nc1ccccc1
REMARK SMILES IDX 3 1 4 2 16 3 17 4 18 5 19 6 2 7 1 8 5 9 6 12 7 13 11 14 8 15
REMARK SMILES IDX 10 16 9 17 12 18 14 19 13 20 15 21 20 22 22 23 21 24 23 26
REMARK SMILES IDX 24 27 28 28 25 29 27 30 26 31
REMARK H PARENT 5 10 5 11 22 25
ROOT
ATOM      1  C   UNL     1      44.575 130.787  20.341  1.00  0.00     0.194 A 
ATOM      2  C   UNL     1      44.230 130.954  21.714  1.00  0.00     0.177 A 
ATOM      3  C   UNL     1      43.170 131.817  22.034  1.00  0.00     0.074 A 
ATOM      4  C   UNL     1      42.476 132.486  21.036  1.00  0.00     0.025 A 
ATOM      5  C   UNL     1      42.839 132.298  19.707  1.00  0.00     0.096 A 
ATOM      6  N   UNL     1      43.869 131.467  19.374  1.00  0.00    -0.274 N 
ENDROOT
BRANCH   1   7
ATOM      7  N   UNL     1      45.541 129.994  19.980  1.00  0.00    -0.279 NA
ATOM      8  H   UNL     1      45.540 129.390  19.132  1.00  0.00     0.190 HD
ENDBRANCH   1   7
BRANCH   2   9
ATOM      9  N   UNL     1      44.911 130.248  22.782  1.00  0.00    -0.278 N 
ATOM     10  H   UNL     1      45.057 130.880  23.603  1.00  0.00     0.358 HD
ATOM     11  H   UNL     1      45.867 129.964  22.469  1.00  0.00     0.358 HD
BRANCH   9  12
ATOM     12  C   UNL     1      44.134 129.113  23.227  1.00  0.00     0.137 A 
ATOM     13  C   UNL     1      44.715 127.811  23.260  1.00  0.00     0.070 A 
ATOM     14  C   UNL     1      42.769 129.273  23.576  1.00  0.00     0.100 A 
ATOM     15  C   UNL     1      43.963 126.693  23.671  1.00  0.00     0.036 A 
ATOM     16  C   UNL     1      42.065 128.144  23.978  1.00  0.00     0.119 A 
ATOM     17  C   UNL     1      42.637 126.914  24.027  1.00  0.00     0.089 A 
ATOM     18  N   UNL     1      40.775 128.042  24.352  1.00  0.00    -0.130 NA
ATOM     19  N   UNL     1      41.695 126.053  24.438  1.00  0.00    -0.248 N 
ATOM     20  N   UNL     1      40.580 126.752  24.625  1.00  0.00    -0.066 NA
ATOM     21  C   UNL     1      41.816 124.612  24.617  1.00  0.00     0.176 C 
ENDBRANCH   9  12
ENDBRANCH   2   9
BRANCH   6  22
ATOM     22  C   UNL     1      44.200 131.320  17.981  1.00  0.00     0.183 C 
ATOM     23  N   UNL     1      45.321 130.501  17.603  1.00  0.00    -0.332 N 
ATOM     24  S   UNL     1      43.113 131.820  16.853  1.00  0.00    -0.040 S 
ATOM     25  H   UNL     1      45.687 129.818  18.303  1.00  0.00     0.169 HD
BRANCH  23  26
ATOM     26  C   UNL     1      45.986 130.573  16.331  1.00  0.00     0.040 A 
ATOM     27  C   UNL     1      46.670 129.447  15.847  1.00  0.00     0.026 A 
ATOM     28  C   UNL     1      46.026 131.769  15.592  1.00  0.00     0.026 A 
ATOM     29  C   UNL     1      47.349 129.502  14.626  1.00  0.00     0.002 A 
ATOM     30  C   UNL     1      46.706 131.822  14.371  1.00  0.00     0.002 A 
ATOM     31  C   UNL     1      47.362 130.688  13.885  1.00  0.00     0.000 A 
ENDBRANCH  23  26
ENDBRANCH   6  22
TORSDOF 5
ENDMDL
MODEL 3
REMARK VINA RESULT:      -6.7      1.802      3.011
REMARK SMILES [H]/N=c1\c([NH2+]c2ccc3c(c2)nnn3C)cccn1C(=S)Nc1ccccc1
REMARK SMILES IDX 3 1 4 2 16 3 17 4 18 5 19 6 2 7 1 8 5 9 6 12 7 13 11 14 8 15
REMARK SMILES IDX 10 16 9 17 12 18 14 19 13 20 15 21 20 22 22 23 21 24 23 26
REMARK SMILES IDX 24 27 28 28 25 29 27 30 26 31
REMARK H PARENT 5 10 5 11 22 25
ROOT
ATOM      1  C   UNL     1      44.499 130.527  21.563  1.00  0.00     0.194 A 
ATOM      2  C   UNL     1      44.280 130.543  22.971  1.00  0.00     0.177 A 
ATOM      3  C   UNL     1      43.273 131.380  23.479  1.00  0.00     0.074 A 
ATOM      4  C   UNL     1      42.509 132.165  22.626  1.00  0.00     0.025 A 
ATOM      5  C   UNL     1      42.749 132.122  21.258  1.00  0.00     0.096 A 
ATOM      6  N   UNL     1      43.727 131.320  20.744  1.00  0.00    -0.274 N 
ENDROOT
BRANCH   1   7
ATOM      7  N   UNL     1      45.410 129.766  21.031  1.00  0.00    -0.279 NA
ATOM      8  H   UNL     1      45.321 129.261  20.125  1.00  0.00     0.190 HD
ENDBRANCH   1   7
BRANCH   2   9
ATOM      9  N   UNL     1      45.035 129.714  23.889  1.00  0.00    -0.278 N 
ATOM     10  H   UNL     1      44.954 130.081  24.866  1.00  0.00     0.358 HD
ATOM     11  H   UNL     1      46.052 129.757  23.654  1.00  0.00     0.358 HD
BRANCH   9  12
ATOM     12  C   UNL     1      44.540 128.356  23.883  1.00  0.00     0.137 A 
ATOM     13  C   UNL     1      45.427 127.267  23.632  1.00  0.00     0.070 A 
ATOM     14  C   UNL     1      43.158 128.097  24.066  1.00  0.00     0.100 A 
ATOM     15  C   UNL     1      44.955 125.941  23.602  1.00  0.00     0.036 A 
ATOM     16  C   UNL     1      42.735 126.773  24.030  1.00  0.00     0.119 A 
ATOM     17  C   UNL     1      43.594 125.744  23.813  1.00  0.00     0.089 A 
ATOM     18  N   UNL     1      41.490 126.281  24.173  1.00  0.00    -0.130 NA
ATOM     19  N   UNL     1      42.874 124.615  23.828  1.00  0.00    -0.248 N 
ATOM     20  N   UNL     1      41.608 124.960  24.043  1.00  0.00    -0.066 NA
ATOM     21  C   UNL     1      43.341 123.252  23.611  1.00  0.00     0.176 C 
ENDBRANCH   9  12
ENDBRANCH   2   9
BRANCH   6  22
ATOM     22  C   UNL     1      43.930 131.325  19.319  1.00  0.00     0.183 C 
ATOM     23  N   UNL     1      45.044 130.605  18.761  1.00  0.00    -0.332 N 
ATOM     24  S   UNL     1      42.721 131.875  18.349  1.00  0.00    -0.040 S 
ATOM     25  H   UNL     1      45.503 129.878  19.353  1.00  0.00     0.169 HD
BRANCH  23  26
ATOM     26  C   UNL     1      45.582 130.833  17.448  1.00  0.00     0.040 A 
ATOM     27  C   UNL     1      45.403 132.084  16.838  1.00  0.00     0.026 A 
ATOM     28  C   UNL     1      46.224 129.806  16.732  1.00  0.00     0.026 A 
ATOM     29  C   UNL     1      45.893 132.319  15.549  1.00  0.00     0.002 A 
ATOM     30  C   UNL     1      46.712 130.044  15.443  1.00  0.00     0.002 A 
ATOM     31  C   UNL     1      46.552 131.300  14.854  1.00  0.00     0.000 A 
ENDBRANCH  23  26
ENDBRANCH   6  22
TORSDOF 5
ENDMDL
MODEL 4
REMARK VINA RESULT:      -4.6      1.935      3.445
REMARK SMILES [H]/N=c1\c([NH2+]c2ccc3c(c2)nnn3C)cccn1C(=S)Nc1ccccc1
REMARK SMILES IDX 3 1 4 2 16 3 17 4 18 5 19 6 2 7 1 8 5 9 6 12 7 13 11 14 8 15
REMARK SMILES IDX 10 16 9 17 12 18 14 19 13 20 15 21 20 22 22 23 21 24 23 26
REMARK SMILES IDX 24 27 28 28 25 29 27 30 26 31
REMARK H PARENT 5 10 5 11 22 25
ROOT
ATOM      1  C   UNL     1      43.325 131.027  21.720  1.00  0.00     0.194 A 
ATOM      2  C   UNL     1      43.382 131.137  23.140  1.00  0.00     0.177 A 
ATOM      3  C   UNL     1      44.484 131.793  23.713  1.00  0.00     0.074 A 
ATOM      4  C   UNL     1      45.486 132.323  22.912  1.00  0.00     0.025 A 
ATOM      5  C   UNL     1      45.397 132.199  21.531  1.00  0.00     0.096 A 
ATOM      6  N   UNL     1      44.337 131.561  20.954  1.00  0.00    -0.274 N 
ENDROOT
BRANCH   1   7
ATOM      7  N   UNL     1      42.326 130.439  21.129  1.00  0.00    -0.279 NA
ATOM      8  H   UNL     1      42.393 129.585  20.537  1.00  0.00     0.190 HD
ENDBRANCH   1   7
BRANCH   2   9
ATOM      9  N   UNL     1      42.339 130.625  24.006  1.00  0.00    -0.278 N 
ATOM     10  H   UNL     1      41.396 130.913  23.653  1.00  0.00     0.358 HD
ATOM     11  H   UNL     1      42.427 131.048  24.958  1.00  0.00     0.358 HD
BRANCH   9  12
ATOM     12  C   UNL     1      42.372 129.180  24.055  1.00  0.00     0.137 A 
ATOM     13  C   UNL     1      41.172 128.427  23.893  1.00  0.00     0.070 A 
ATOM     14  C   UNL     1      43.587 128.501  24.327  1.00  0.00     0.100 A 
ATOM     15  C   UNL     1      41.186 127.021  23.960  1.00  0.00     0.036 A 
ATOM     16  C   UNL     1      43.556 127.113  24.383  1.00  0.00     0.119 A 
ATOM     17  C   UNL     1      42.411 126.407  24.203  1.00  0.00     0.089 A 
ATOM     18  N   UNL     1      44.565 126.255  24.624  1.00  0.00    -0.130 NA
ATOM     19  N   UNL     1      42.719 125.109  24.330  1.00  0.00    -0.248 N 
ATOM     20  N   UNL     1      44.022 125.039  24.587  1.00  0.00    -0.066 NA
ATOM     21  C   UNL     1      41.822 123.963  24.252  1.00  0.00     0.176 C 
ENDBRANCH   9  12
ENDBRANCH   2   9
BRANCH   6  22
ATOM     22  C   UNL     1      44.305 131.459  19.518  1.00  0.00     0.183 C 
ATOM     23  N   UNL     1      45.302 130.672  18.843  1.00  0.00    -0.332 N 
ATOM     24  S   UNL     1      42.962 131.972  18.718  1.00  0.00    -0.040 S 
ATOM     25  H   UNL     1      45.840 129.976  19.405  1.00  0.00     0.169 HD
BRANCH  23  26
ATOM     26  C   UNL     1      45.622 130.791  17.447  1.00  0.00     0.040 A 
ATOM     27  C   UNL     1      45.345 131.993  16.777  1.00  0.00     0.026 A 
ATOM     28  C   UNL     1      46.143 129.705  16.720  1.00  0.00     0.026 A 
ATOM     29  C   UNL     1      45.621 132.122  15.412  1.00  0.00     0.002 A 
ATOM     30  C   UNL     1      46.418 129.837  15.355  1.00  0.00     0.002 A 
ATOM     31  C   UNL     1      46.162 131.045  14.703  1.00  0.00     0.000 A 
ENDBRANCH  23  26
ENDBRANCH   6  22
TORSDOF 5
ENDMDL


