REMARK SMILES CNCCC/N=C(\O)Sc1cccc(-c2ccc3c(c2)CC3)c1
REMARK SMILES IDX 6 1 7 2 8 3 9 5 10 6 11 7 23 8 12 9 14 10 13 11 15 12 16 13
REMARK SMILES IDX 20 14 17 15 19 16 18 17 21 18 22 19 5 20 4 21 3 22 2 23 1 25
REMARK H PARENT 8 4 2 24
ROOT
ATOM      1  N   UNL     1      -3.018  -1.726   2.081  1.00  0.00    -0.245 NA
ENDROOT
BRANCH   1   2
ATOM      2  C   UNL     1      -4.127  -1.263   1.592  1.00  0.00     0.248 C 
BRANCH   2   3
ATOM      3  O   UNL     1      -5.024  -2.104   0.936  1.00  0.00    -0.488 OA
ATOM      4  H   UNL     1      -5.885  -1.740   0.546  1.00  0.00     0.295 HD
ENDBRANCH   2   3
BRANCH   2   5
ATOM      5  S   UNL     1      -4.495   0.482   1.750  1.00  0.00    -0.032 SA
BRANCH   5   6
ATOM      6  C   UNL     1      -3.568   0.887   0.271  1.00  0.00     0.017 A 
ATOM      7  C   UNL     1      -4.202   0.906  -0.976  1.00  0.00     0.015 A 
ATOM      8  C   UNL     1      -2.199   1.156   0.362  1.00  0.00     0.024 A 
ATOM      9  C   UNL     1      -3.464   1.181  -2.130  1.00  0.00     0.002 A 
ATOM     10  C   UNL     1      -1.443   1.418  -0.794  1.00  0.00    -0.017 A 
ATOM     11  C   UNL     1      -2.091   1.431  -2.043  1.00  0.00     0.009 A 
BRANCH  10  12
ATOM     12  C   UNL     1       0.019   1.647  -0.697  1.00  0.00    -0.018 A 
ATOM     13  C   UNL     1       0.905   1.033  -1.652  1.00  0.00     0.009 A 
ATOM     14  C   UNL     1       0.539   2.445   0.363  1.00  0.00     0.012 A 
ATOM     15  C   UNL     1       2.311   1.186  -1.581  1.00  0.00     0.004 A 
ATOM     16  C   UNL     1       1.911   2.570   0.406  1.00  0.00    -0.044 A 
ATOM     17  C   UNL     1       2.771   1.959  -0.537  1.00  0.00    -0.044 A 
ATOM     18  C   UNL     1       3.080   3.155   1.120  1.00  0.00     0.040 C 
ATOM     19  C   UNL     1       3.962   2.528   0.153  1.00  0.00     0.040 C 
ENDBRANCH  10  12
ENDBRANCH   5   6
ENDBRANCH   2   5
ENDBRANCH   1   2
BRANCH   1  20
ATOM     20  C   UNL     1      -2.627  -3.129   1.990  1.00  0.00     0.148 C 
BRANCH  20  21
ATOM     21  C   UNL     1      -1.219  -3.331   2.562  1.00  0.00     0.039 C 
BRANCH  21  22
ATOM     22  C   UNL     1      -0.115  -2.792   1.637  1.00  0.00     0.082 C 
BRANCH  22  23
ATOM     23  N   UNL     1      -0.175  -1.327   1.522  1.00  0.00    -0.320 NA
ATOM     24  H   UNL     1       0.260  -1.059   0.609  1.00  0.00     0.122 HD
ATOM     25  C   UNL     1       0.605  -0.674   2.577  1.00  0.00     0.101 C 
ENDBRANCH  22  23
ENDBRANCH  21  22
ENDBRANCH  20  21
ENDBRANCH   1  20
TORSDOF 9


