REMARK SMILES NNc1ccc2cc(-c3ncnc4c3COC4)[nH]c2c1F
REMARK SMILES IDX 2 1 1 3 3 6 4 7 20 8 5 9 19 10 6 11 18 12 7 13 8 14 21 15
REMARK SMILES IDX 9 17 10 18 14 19 11 20 13 21 15 22 12 23 17 24 16 25
REMARK H PARENT 2 2 1 4 1 5 18 16
ROOT
ATOM      1  N   UNL     1       0.471  -4.951   1.334  1.00  0.00    -0.321 N 
ATOM      2  H   UNL     1       0.405  -5.128   2.364  1.00  0.00     0.181 HD
ENDROOT
BRANCH   1   3
ATOM      3  N   UNL     1       0.520  -6.048   0.458  1.00  0.00    -0.250 NA
ATOM      4  H   UNL     1      -0.395  -6.077  -0.048  1.00  0.00     0.143 HD
ATOM      5  H   UNL     1       0.565  -6.917   1.037  1.00  0.00     0.143 HD
ENDBRANCH   1   3
BRANCH   1   6
ATOM      6  C   UNL     1       0.514  -3.593   0.864  1.00  0.00     0.087 A 
ATOM      7  C   UNL     1       0.316  -2.539   1.793  1.00  0.00     0.031 A 
ATOM      8  C   UNL     1       0.757  -3.280  -0.499  1.00  0.00     0.171 A 
ATOM      9  C   UNL     1       0.349  -1.195   1.382  1.00  0.00     0.013 A 
ATOM     10  C   UNL     1       0.782  -1.935  -0.870  1.00  0.00     0.084 A 
ATOM     11  C   UNL     1       0.584  -0.933   0.036  1.00  0.00     0.003 A 
ATOM     12  N   UNL     1       0.997  -1.431  -2.096  1.00  0.00    -0.351 N 
ATOM     13  C   UNL     1       0.674   0.264  -0.638  1.00  0.00     0.038 A 
ATOM     14  C   UNL     1       0.932  -0.081  -1.970  1.00  0.00     0.066 A 
ATOM     15  F   UNL     1       0.978  -4.241  -1.431  1.00  0.00    -0.202 F 
ATOM     16  H   UNL     1       1.177  -1.976  -2.969  1.00  0.00     0.167 HD
BRANCH  14  17
ATOM     17  C   UNL     1       1.127   0.832  -3.125  1.00  0.00     0.096 A 
ATOM     18  N   UNL     1       1.460   0.285  -4.332  1.00  0.00    -0.234 NA
ATOM     19  C   UNL     1       0.980   2.231  -3.073  1.00  0.00     0.030 A 
ATOM     20  C   UNL     1       1.646   1.052  -5.446  1.00  0.00     0.222 A 
ATOM     21  C   UNL     1       1.164   2.963  -4.189  1.00  0.00     0.076 A 
ATOM     22  C   UNL     1       0.623   3.166  -1.983  1.00  0.00     0.200 C 
ATOM     23  N   UNL     1       1.494   2.404  -5.378  1.00  0.00    -0.239 NA
ATOM     24  C   UNL     1       0.938   4.385  -3.909  1.00  0.00     0.217 C 
ATOM     25  O   UNL     1       0.580   4.476  -2.538  1.00  0.00    -0.370 OA
ENDBRANCH  14  17
ENDBRANCH   1   6
TORSDOF 3


