REMARK SMILES C/C=C(/O)OCOc1ccc(Nc2ccc3cc[nH]c3c2)c(F)c1
REMARK SMILES IDX 6 1 5 2 3 3 4 4 2 6 1 7 7 8 8 9 9 10 24 11 10 12 22 13 11 14
REMARK SMILES IDX 23 15 12 16 13 18 14 19 21 20 15 21 20 22 16 23 19 24 17 25
REMARK SMILES IDX 18 26
REMARK H PARENT 4 5 12 17 19 27
ROOT
ATOM      1  C   UNL     1      -1.520   2.834   2.202  1.00  0.00     0.471 C 
ENDROOT
BRANCH   1   2
ATOM      2  O   UNL     1      -1.944   1.536   2.609  1.00  0.00    -0.428 OA
BRANCH   2   3
ATOM      3  C   UNL     1      -1.485   0.925   3.781  1.00  0.00     0.274 C 
BRANCH   3   4
ATOM      4  O   UNL     1      -0.628   1.618   4.638  1.00  0.00    -0.481 OA
ATOM      5  H   UNL     1      -0.274   1.205   5.493  1.00  0.00     0.296 HD
ENDBRANCH   3   4
BRANCH   3   6
ATOM      6  C   UNL     1      -1.866  -0.321   4.075  1.00  0.00     0.058 C 
ATOM      7  C   UNL     1      -2.773  -1.103   3.178  1.00  0.00     0.043 C 
ENDBRANCH   3   6
ENDBRANCH   2   3
ENDBRANCH   1   2
BRANCH   1   8
ATOM      8  O   UNL     1      -0.116   2.843   1.952  1.00  0.00    -0.457 OA
BRANCH   8   9
ATOM      9  C   UNL     1       0.527   2.087   0.960  1.00  0.00     0.126 A 
ATOM     10  C   UNL     1      -0.176   1.269   0.056  1.00  0.00     0.049 A 
ATOM     11  C   UNL     1       1.922   2.153   0.876  1.00  0.00     0.088 A 
ATOM     12  C   UNL     1       0.513   0.533  -0.912  1.00  0.00     0.033 A 
ATOM     13  C   UNL     1       2.613   1.418  -0.092  1.00  0.00     0.150 A 
ATOM     14  C   UNL     1       1.913   0.615  -1.006  1.00  0.00     0.075 A 
ATOM     15  F   UNL     1       3.966   1.501  -0.149  1.00  0.00    -0.205 F 
BRANCH  14  16
ATOM     16  N   UNL     1       2.638  -0.158  -1.978  1.00  0.00    -0.353 N 
ATOM     17  H   UNL     1       3.580  -0.522  -1.711  1.00  0.00     0.167 HD
BRANCH  16  18
ATOM     18  C   UNL     1       2.148  -0.470  -3.294  1.00  0.00     0.041 A 
ATOM     19  C   UNL     1       2.585  -1.659  -3.932  1.00  0.00     0.027 A 
ATOM     20  C   UNL     1       1.287   0.417  -3.984  1.00  0.00     0.052 A 
ATOM     21  C   UNL     1       2.146  -1.983  -5.229  1.00  0.00     0.012 A 
ATOM     22  C   UNL     1       0.872   0.065  -5.266  1.00  0.00     0.047 A 
ATOM     23  C   UNL     1       1.285  -1.094  -5.865  1.00  0.00    -0.001 A 
ATOM     24  N   UNL     1       0.060   0.759  -6.081  1.00  0.00    -0.361 N 
ATOM     25  C   UNL     1       0.709  -1.141  -7.115  1.00  0.00     0.028 A 
ATOM     26  C   UNL     1      -0.044   0.025  -7.212  1.00  0.00     0.083 A 
ATOM     27  H   UNL     1      -0.398   1.677  -5.885  1.00  0.00     0.166 HD
ENDBRANCH  16  18
ENDBRANCH  14  16
ENDBRANCH   8   9
ENDBRANCH   1   8
TORSDOF 8


