MODEL 1
REMARK VINA RESULT:     -10.8      0.000      0.000
REMARK SMILES CC(=O)c1ccc(-c2ccc3cc[nH]c3c2)c[nH+]1
REMARK SMILES IDX 4 1 5 2 6 3 7 4 17 5 18 6 2 8 1 9 3 10 8 11 9 12 16 13 10 14
REMARK SMILES IDX 15 15 11 16 14 17 12 18 13 19
REMARK H PARENT 18 7 14 20
ROOT
ATOM      1  C   UNL     1      46.803 130.482  15.118  1.00  0.00     0.246 A 
ATOM      2  C   UNL     1      45.984 131.620  15.194  1.00  0.00     0.084 A 
ATOM      3  C   UNL     1      45.273 131.886  16.364  1.00  0.00     0.022 A 
ATOM      4  C   UNL     1      45.371 131.022  17.463  1.00  0.00     0.046 A 
ATOM      5  C   UNL     1      46.199 129.894  17.350  1.00  0.00     0.315 A 
ATOM      6  N   UNL     1      46.886 129.650  16.200  1.00  0.00    -0.208 N 
ATOM      7  H   UNL     1      47.482 128.793  16.171  1.00  0.00     0.454 HD
ENDROOT
BRANCH   1   8
ATOM      8  C   UNL     1      47.562 130.196  13.871  1.00  0.00     0.223 C 
ATOM      9  C   UNL     1      47.606 131.171  12.734  1.00  0.00     0.100 C 
ATOM     10  O   UNL     1      48.189 129.108  13.753  1.00  0.00    -0.288 OA
ENDBRANCH   1   8
BRANCH   4  11
ATOM     11  C   UNL     1      44.620 131.294  18.715  1.00  0.00    -0.010 A 
ATOM     12  C   UNL     1      43.321 131.870  18.664  1.00  0.00     0.010 A 
ATOM     13  C   UNL     1      45.192 130.985  19.973  1.00  0.00     0.035 A 
ATOM     14  C   UNL     1      42.601 132.133  19.843  1.00  0.00     0.011 A 
ATOM     15  C   UNL     1      44.450 131.259  21.120  1.00  0.00     0.046 A 
ATOM     16  C   UNL     1      43.201 131.813  21.056  1.00  0.00    -0.001 A 
ATOM     17  N   UNL     1      44.812 131.044  22.396  1.00  0.00    -0.361 N 
ATOM     18  C   UNL     1      42.745 131.956  22.349  1.00  0.00     0.028 A 
ATOM     19  C   UNL     1      43.773 131.468  23.151  1.00  0.00     0.083 A 
ATOM     20  H   UNL     1      45.708 130.634  22.738  1.00  0.00     0.166 HD
ENDBRANCH   4  11
TORSDOF 2
ENDMDL
MODEL 2
REMARK VINA RESULT:     -10.2      0.995      1.400
REMARK SMILES CC(=O)c1ccc(-c2ccc3cc[nH]c3c2)c[nH+]1
REMARK SMILES IDX 4 1 5 2 6 3 7 4 17 5 18 6 2 8 1 9 3 10 8 11 9 12 16 13 10 14
REMARK SMILES IDX 15 15 11 16 14 17 12 18 13 19
REMARK H PARENT 18 7 14 20
ROOT
ATOM      1  C   UNL     1      46.773 130.760  14.849  1.00  0.00     0.246 A 
ATOM      2  C   UNL     1      46.742 129.740  15.814  1.00  0.00     0.084 A 
ATOM      3  C   UNL     1      46.044 129.934  17.006  1.00  0.00     0.022 A 
ATOM      4  C   UNL     1      45.374 131.142  17.244  1.00  0.00     0.046 A 
ATOM      5  C   UNL     1      45.428 132.138  16.257  1.00  0.00     0.315 A 
ATOM      6  N   UNL     1      46.115 131.932  15.099  1.00  0.00    -0.208 N 
ATOM      7  H   UNL     1      46.124 132.710  14.403  1.00  0.00     0.454 HD
ENDROOT
BRANCH   1   8
ATOM      8  C   UNL     1      47.517 130.555  13.577  1.00  0.00     0.223 C 
ATOM      9  C   UNL     1      48.471 129.413  13.397  1.00  0.00     0.100 C 
ATOM     10  O   UNL     1      47.352 131.356  12.617  1.00  0.00    -0.288 OA
ENDBRANCH   1   8
BRANCH   4  11
ATOM     11  C   UNL     1      44.627 131.361  18.509  1.00  0.00    -0.010 A 
ATOM     12  C   UNL     1      43.297 131.862  18.481  1.00  0.00     0.010 A 
ATOM     13  C   UNL     1      45.233 131.074  19.756  1.00  0.00     0.035 A 
ATOM     14  C   UNL     1      42.579 132.075  19.672  1.00  0.00     0.011 A 
ATOM     15  C   UNL     1      44.493 131.297  20.916  1.00  0.00     0.046 A 
ATOM     16  C   UNL     1      43.215 131.779  20.873  1.00  0.00    -0.001 A 
ATOM     17  N   UNL     1      44.885 131.094  22.185  1.00  0.00    -0.361 N 
ATOM     18  C   UNL     1      42.770 131.886  22.174  1.00  0.00     0.028 A 
ATOM     19  C   UNL     1      43.835 131.451  22.958  1.00  0.00     0.083 A 
ATOM     20  H   UNL     1      45.808 130.732  22.511  1.00  0.00     0.166 HD
ENDBRANCH   4  11
TORSDOF 2
ENDMDL
MODEL 3
REMARK VINA RESULT:     -10.0      2.821      7.140
REMARK SMILES CC(=O)c1ccc(-c2ccc3cc[nH]c3c2)c[nH+]1
REMARK SMILES IDX 4 1 5 2 6 3 7 4 17 5 18 6 2 8 1 9 3 10 8 11 9 12 16 13 10 14
REMARK SMILES IDX 15 15 11 16 14 17 12 18 13 19
REMARK H PARENT 18 7 14 20
ROOT
ATOM      1  C   UNL     1      44.045 131.178  21.220  1.00  0.00     0.246 A 
ATOM      2  C   UNL     1      45.275 130.566  20.929  1.00  0.00     0.084 A 
ATOM      3  C   UNL     1      45.736 130.528  19.613  1.00  0.00     0.022 A 
ATOM      4  C   UNL     1      44.977 131.097  18.581  1.00  0.00     0.046 A 
ATOM      5  C   UNL     1      43.753 131.700  18.911  1.00  0.00     0.315 A 
ATOM      6  N   UNL     1      43.318 131.727  20.201  1.00  0.00    -0.208 N 
ATOM      7  H   UNL     1      42.398 132.185  20.386  1.00  0.00     0.454 HD
ENDROOT
BRANCH   1   8
ATOM      8  C   UNL     1      43.551 131.220  22.623  1.00  0.00     0.223 C 
ATOM      9  C   UNL     1      44.115 130.324  23.684  1.00  0.00     0.100 C 
ATOM     10  O   UNL     1      42.634 132.024  22.942  1.00  0.00    -0.288 OA
ENDBRANCH   1   8
BRANCH   4  11
ATOM     11  C   UNL     1      45.457 131.064  17.176  1.00  0.00    -0.010 A 
ATOM     12  C   UNL     1      44.928 131.967  16.213  1.00  0.00     0.010 A 
ATOM     13  C   UNL     1      46.445 130.129  16.780  1.00  0.00     0.035 A 
ATOM     14  C   UNL     1      45.374 131.944  14.880  1.00  0.00     0.011 A 
ATOM     15  C   UNL     1      46.863 130.135  15.451  1.00  0.00     0.046 A 
ATOM     16  C   UNL     1      46.346 131.010  14.536  1.00  0.00    -0.001 A 
ATOM     17  N   UNL     1      47.778 129.334  14.881  1.00  0.00    -0.361 N 
ATOM     18  C   UNL     1      46.961 130.757  13.329  1.00  0.00     0.028 A 
ATOM     19  C   UNL     1      47.843 129.711  13.583  1.00  0.00     0.083 A 
ATOM     20  H   UNL     1      48.330 128.577  15.341  1.00  0.00     0.166 HD
ENDBRANCH   4  11
TORSDOF 2
ENDMDL
MODEL 4
REMARK VINA RESULT:      -9.8      1.171      1.750
REMARK SMILES CC(=O)c1ccc(-c2ccc3cc[nH]c3c2)c[nH+]1
REMARK SMILES IDX 4 1 5 2 6 3 7 4 17 5 18 6 2 8 1 9 3 10 8 11 9 12 16 13 10 14
REMARK SMILES IDX 15 15 11 16 14 17 12 18 13 19
REMARK H PARENT 18 7 14 20
ROOT
ATOM      1  C   UNL     1      46.708 130.648  15.046  1.00  0.00     0.246 A 
ATOM      2  C   UNL     1      45.971 131.799  15.366  1.00  0.00     0.084 A 
ATOM      3  C   UNL     1      45.419 131.938  16.640  1.00  0.00     0.022 A 
ATOM      4  C   UNL     1      45.598 130.934  17.601  1.00  0.00     0.046 A 
ATOM      5  C   UNL     1      46.341 129.797  17.245  1.00  0.00     0.315 A 
ATOM      6  N   UNL     1      46.871 129.678  15.996  1.00  0.00    -0.208 N 
ATOM      7  H   UNL     1      47.410 128.809  15.785  1.00  0.00     0.454 HD
ENDROOT
BRANCH   1   8
ATOM      8  C   UNL     1      47.296 130.498  13.688  1.00  0.00     0.223 C 
ATOM      9  C   UNL     1      48.422 129.546  13.418  1.00  0.00     0.100 C 
ATOM     10  O   UNL     1      46.847 131.183  12.730  1.00  0.00    -0.288 OA
ENDBRANCH   1   8
BRANCH   4  11
ATOM     11  C   UNL     1      45.017 131.069  18.961  1.00  0.00    -0.010 A 
ATOM     12  C   UNL     1      45.682 130.510  20.087  1.00  0.00     0.010 A 
ATOM     13  C   UNL     1      43.793 131.756  19.150  1.00  0.00     0.035 A 
ATOM     14  C   UNL     1      45.141 130.631  21.379  1.00  0.00     0.011 A 
ATOM     15  C   UNL     1      43.286 131.857  20.444  1.00  0.00     0.046 A 
ATOM     16  C   UNL     1      43.937 131.314  21.517  1.00  0.00    -0.001 A 
ATOM     17  N   UNL     1      42.149 132.459  20.830  1.00  0.00    -0.361 N 
ATOM     18  C   UNL     1      43.182 131.584  22.638  1.00  0.00     0.028 A 
ATOM     19  C   UNL     1      42.081 132.296  22.171  1.00  0.00     0.083 A 
ATOM     20  H   UNL     1      41.458 132.953  20.224  1.00  0.00     0.166 HD
ENDBRANCH   4  11
TORSDOF 2
ENDMDL
MODEL 5
REMARK VINA RESULT:      -9.8      2.691      7.023
REMARK SMILES CC(=O)c1ccc(-c2ccc3cc[nH]c3c2)c[nH+]1
REMARK SMILES IDX 4 1 5 2 6 3 7 4 17 5 18 6 2 8 1 9 3 10 8 11 9 12 16 13 10 14
REMARK SMILES IDX 15 15 11 16 14 17 12 18 13 19
REMARK H PARENT 18 7 14 20
ROOT
ATOM      1  C   UNL     1      44.205 131.067  21.609  1.00  0.00     0.246 A 
ATOM      2  C   UNL     1      43.359 131.647  20.651  1.00  0.00     0.084 A 
ATOM      3  C   UNL     1      43.725 131.639  19.305  1.00  0.00     0.022 A 
ATOM      4  C   UNL     1      44.935 131.054  18.905  1.00  0.00     0.046 A 
ATOM      5  C   UNL     1      45.756 130.484  19.892  1.00  0.00     0.315 A 
ATOM      6  N   UNL     1      45.382 130.502  21.201  1.00  0.00    -0.208 N 
ATOM      7  H   UNL     1      46.034 130.068  21.891  1.00  0.00     0.454 HD
ENDROOT
BRANCH   1   8
ATOM      8  C   UNL     1      43.816 131.075  23.045  1.00  0.00     0.223 C 
ATOM      9  C   UNL     1      42.679 131.911  23.548  1.00  0.00     0.100 C 
ATOM     10  O   UNL     1      44.452 130.366  23.871  1.00  0.00    -0.288 OA
ENDBRANCH   1   8
BRANCH   4  11
ATOM     11  C   UNL     1      45.337 131.038  17.476  1.00  0.00    -0.010 A 
ATOM     12  C   UNL     1      44.708 131.905  16.541  1.00  0.00     0.010 A 
ATOM     13  C   UNL     1      46.351 130.156  17.029  1.00  0.00     0.035 A 
ATOM     14  C   UNL     1      45.080 131.898  15.185  1.00  0.00     0.011 A 
ATOM     15  C   UNL     1      46.694 130.175  15.678  1.00  0.00     0.046 A 
ATOM     16  C   UNL     1      46.080 131.015  14.791  1.00  0.00    -0.001 A 
ATOM     17  N   UNL     1      47.618 129.421  15.061  1.00  0.00    -0.361 N 
ATOM     18  C   UNL     1      46.640 130.788  13.552  1.00  0.00     0.028 A 
ATOM     19  C   UNL     1      47.590 129.793  13.761  1.00  0.00     0.083 A 
ATOM     20  H   UNL     1      48.234 128.698  15.492  1.00  0.00     0.166 HD
ENDBRANCH   4  11
TORSDOF 2
ENDMDL
MODEL 6
REMARK VINA RESULT:      -9.4      2.906      7.176
REMARK SMILES CC(=O)c1ccc(-c2ccc3cc[nH]c3c2)c[nH+]1
REMARK SMILES IDX 4 1 5 2 6 3 7 4 17 5 18 6 2 8 1 9 3 10 8 11 9 12 16 13 10 14
REMARK SMILES IDX 15 15 11 16 14 17 12 18 13 19
REMARK H PARENT 18 7 14 20
ROOT
ATOM      1  C   UNL     1      43.188 131.932  19.903  1.00  0.00     0.246 A 
ATOM      2  C   UNL     1      44.546 131.581  19.958  1.00  0.00     0.084 A 
ATOM      3  C   UNL     1      45.244 131.322  18.778  1.00  0.00     0.022 A 
ATOM      4  C   UNL     1      44.596 131.411  17.539  1.00  0.00     0.046 A 
ATOM      5  C   UNL     1      43.237 131.765  17.524  1.00  0.00     0.315 A 
ATOM      6  N   UNL     1      42.571 132.014  18.685  1.00  0.00    -0.208 N 
ATOM      7  H   UNL     1      41.561 132.268  18.613  1.00  0.00     0.454 HD
ENDROOT
BRANCH   1   8
ATOM      8  C   UNL     1      42.441 132.208  21.160  1.00  0.00     0.223 C 
ATOM      9  C   UNL     1      42.811 131.552  22.456  1.00  0.00     0.100 C 
ATOM     10  O   UNL     1      41.470 133.011  21.150  1.00  0.00    -0.288 OA
ENDBRANCH   1   8
BRANCH   4  11
ATOM     11  C   UNL     1      45.327 131.139  16.276  1.00  0.00    -0.010 A 
ATOM     12  C   UNL     1      44.889 131.715  15.052  1.00  0.00     0.010 A 
ATOM     13  C   UNL     1      46.468 130.301  16.277  1.00  0.00     0.035 A 
ATOM     14  C   UNL     1      45.573 131.464  13.849  1.00  0.00     0.011 A 
ATOM     15  C   UNL     1      47.122 130.074  15.068  1.00  0.00     0.046 A 
ATOM     16  C   UNL     1      46.689 130.635  13.898  1.00  0.00    -0.001 A 
ATOM     17  N   UNL     1      48.209 129.314  14.858  1.00  0.00    -0.361 N 
ATOM     18  C   UNL     1      47.540 130.216  12.899  1.00  0.00     0.028 A 
ATOM     19  C   UNL     1      48.470 129.398  13.534  1.00  0.00     0.083 A 
ATOM     20  H   UNL     1      48.747 128.770  15.569  1.00  0.00     0.166 HD
ENDBRANCH   4  11
TORSDOF 2
ENDMDL
MODEL 7
REMARK VINA RESULT:      -9.3      2.784      7.088
REMARK SMILES CC(=O)c1ccc(-c2ccc3cc[nH]c3c2)c[nH+]1
REMARK SMILES IDX 4 1 5 2 6 3 7 4 17 5 18 6 2 8 1 9 3 10 8 11 9 12 16 13 10 14
REMARK SMILES IDX 15 15 11 16 14 17 12 18 13 19
REMARK H PARENT 18 7 14 20
ROOT
ATOM      1  C   UNL     1      43.278 131.733  20.411  1.00  0.00     0.246 A 
ATOM      2  C   UNL     1      42.551 131.922  19.224  1.00  0.00     0.084 A 
ATOM      3  C   UNL     1      43.170 131.716  17.991  1.00  0.00     0.022 A 
ATOM      4  C   UNL     1      44.514 131.321  17.931  1.00  0.00     0.046 A 
ATOM      5  C   UNL     1      45.208 131.142  19.138  1.00  0.00     0.315 A 
ATOM      6  N   UNL     1      44.588 131.348  20.333  1.00  0.00    -0.208 N 
ATOM      7  H   UNL     1      45.156 131.205  21.197  1.00  0.00     0.454 HD
ENDROOT
BRANCH   1   8
ATOM      8  C   UNL     1      42.621 131.953  21.727  1.00  0.00     0.223 C 
ATOM      9  C   UNL     1      43.120 131.294  22.977  1.00  0.00     0.100 C 
ATOM     10  O   UNL     1      41.616 132.710  21.807  1.00  0.00    -0.288 OA
ENDBRANCH   1   8
BRANCH   4  11
ATOM     11  C   UNL     1      45.184 131.097  16.625  1.00  0.00    -0.010 A 
ATOM     12  C   UNL     1      44.671 131.695  15.441  1.00  0.00     0.010 A 
ATOM     13  C   UNL     1      46.340 130.284  16.546  1.00  0.00     0.035 A 
ATOM     14  C   UNL     1      45.297 131.489  14.199  1.00  0.00     0.011 A 
ATOM     15  C   UNL     1      46.935 130.102  15.299  1.00  0.00     0.046 A 
ATOM     16  C   UNL     1      46.430 130.683  14.168  1.00  0.00    -0.001 A 
ATOM     17  N   UNL     1      48.025 129.371  15.014  1.00  0.00    -0.361 N 
ATOM     18  C   UNL     1      47.237 130.308  13.116  1.00  0.00     0.028 A 
ATOM     19  C   UNL     1      48.215 129.495  13.680  1.00  0.00     0.083 A 
ATOM     20  H   UNL     1      48.610 128.821  15.681  1.00  0.00     0.166 HD
ENDBRANCH   4  11
TORSDOF 2
ENDMDL
MODEL 8
REMARK VINA RESULT:      -9.1      2.994      7.295
REMARK SMILES CC(=O)c1ccc(-c2ccc3cc[nH]c3c2)c[nH+]1
REMARK SMILES IDX 4 1 5 2 6 3 7 4 17 5 18 6 2 8 1 9 3 10 8 11 9 12 16 13 10 14
REMARK SMILES IDX 15 15 11 16 14 17 12 18 13 19
REMARK H PARENT 18 7 14 20
ROOT
ATOM      1  C   UNL     1      43.079 132.036  19.820  1.00  0.00     0.246 A 
ATOM      2  C   UNL     1      44.376 131.545  20.039  1.00  0.00     0.084 A 
ATOM      3  C   UNL     1      45.152 131.130  18.957  1.00  0.00     0.022 A 
ATOM      4  C   UNL     1      44.643 131.201  17.653  1.00  0.00     0.046 A 
ATOM      5  C   UNL     1      43.343 131.698  17.473  1.00  0.00     0.315 A 
ATOM      6  N   UNL     1      42.598 132.098  18.541  1.00  0.00    -0.208 N 
ATOM      7  H   UNL     1      41.636 132.454  18.348  1.00  0.00     0.454 HD
ENDROOT
BRANCH   1   8
ATOM      8  C   UNL     1      42.249 132.479  20.973  1.00  0.00     0.223 C 
ATOM      9  C   UNL     1      42.532 132.018  22.371  1.00  0.00     0.100 C 
ATOM     10  O   UNL     1      41.279 133.261  20.784  1.00  0.00    -0.288 OA
ENDBRANCH   1   8
BRANCH   4  11
ATOM     11  C   UNL     1      45.460 130.763  16.492  1.00  0.00    -0.010 A 
ATOM     12  C   UNL     1      45.667 129.380  16.239  1.00  0.00     0.010 A 
ATOM     13  C   UNL     1      46.042 131.721  15.627  1.00  0.00     0.035 A 
ATOM     14  C   UNL     1      46.438 128.954  15.143  1.00  0.00     0.011 A 
ATOM     15  C   UNL     1      46.801 131.263  14.551  1.00  0.00     0.046 A 
ATOM     16  C   UNL     1      46.991 129.929  14.320  1.00  0.00    -0.001 A 
ATOM     17  N   UNL     1      47.434 132.003  13.626  1.00  0.00    -0.361 N 
ATOM     18  C   UNL     1      47.779 129.813  13.195  1.00  0.00     0.028 A 
ATOM     19  C   UNL     1      48.033 131.122  12.794  1.00  0.00     0.083 A 
ATOM     20  H   UNL     1      47.460 133.045  13.559  1.00  0.00     0.166 HD
ENDBRANCH   4  11
TORSDOF 2
ENDMDL
MODEL 9
REMARK VINA RESULT:      -9.1      1.473      2.191
REMARK SMILES CC(=O)c1ccc(-c2ccc3cc[nH]c3c2)c[nH+]1
REMARK SMILES IDX 4 1 5 2 6 3 7 4 17 5 18 6 2 8 1 9 3 10 8 11 9 12 16 13 10 14
REMARK SMILES IDX 15 15 11 16 14 17 12 18 13 19
REMARK H PARENT 18 7 14 20
ROOT
ATOM      1  C   UNL     1      46.744 130.755  14.839  1.00  0.00     0.246 A 
ATOM      2  C   UNL     1      46.734 129.728  15.796  1.00  0.00     0.084 A 
ATOM      3  C   UNL     1      46.084 129.923  17.015  1.00  0.00     0.022 A 
ATOM      4  C   UNL     1      45.442 131.139  17.288  1.00  0.00     0.046 A 
ATOM      5  C   UNL     1      45.475 132.142  16.307  1.00  0.00     0.315 A 
ATOM      6  N   UNL     1      46.114 131.935  15.123  1.00  0.00    -0.208 N 
ATOM      7  H   UNL     1      46.110 132.718  14.433  1.00  0.00     0.454 HD
ENDROOT
BRANCH   1   8
ATOM      8  C   UNL     1      47.437 130.550  13.539  1.00  0.00     0.223 C 
ATOM      9  C   UNL     1      48.463 129.473  13.354  1.00  0.00     0.100 C 
ATOM     10  O   UNL     1      47.165 131.294  12.558  1.00  0.00    -0.288 OA
ENDBRANCH   1   8
BRANCH   4  11
ATOM     11  C   UNL     1      44.746 131.359  18.581  1.00  0.00    -0.010 A 
ATOM     12  C   UNL     1      45.318 130.889  19.796  1.00  0.00     0.010 A 
ATOM     13  C   UNL     1      43.504 132.038  18.618  1.00  0.00     0.035 A 
ATOM     14  C   UNL     1      44.667 131.091  21.026  1.00  0.00     0.011 A 
ATOM     15  C   UNL     1      42.888 132.220  19.854  1.00  0.00     0.046 A 
ATOM     16  C   UNL     1      43.450 131.763  21.014  1.00  0.00    -0.001 A 
ATOM     17  N   UNL     1      41.716 132.830  20.099  1.00  0.00    -0.361 N 
ATOM     18  C   UNL     1      42.599 132.098  22.045  1.00  0.00     0.028 A 
ATOM     19  C   UNL     1      41.535 132.759  21.438  1.00  0.00     0.083 A 
ATOM     20  H   UNL     1      41.075 133.270  19.403  1.00  0.00     0.166 HD
ENDBRANCH   4  11
TORSDOF 2
ENDMDL


