REMARK SMILES CC(C)[C@@H](N)C(=O)N(c1ccc2cc[nH]c2c1)c1cccc2cnoc12
REMARK SMILES IDX 6 1 7 2 4 3 2 4 1 5 3 6 5 7 8 10 9 11 10 12 17 13 11 14
REMARK SMILES IDX 16 15 12 16 15 17 13 18 14 19 18 21 19 22 26 23 20 24 25 25
REMARK SMILES IDX 22 26 21 27 24 28 23 29
REMARK H PARENT 5 8 5 9 15 20
ROOT
ATOM      1  C   UNL     1       1.280   0.281  -1.065  1.00  0.00     0.248 C 
ATOM      2  O   UNL     1       2.038   0.281  -2.075  1.00  0.00    -0.272 OA
ENDROOT
BRANCH   1   3
ATOM      3  C   UNL     1       1.656  -0.576   0.134  1.00  0.00     0.144 C 
BRANCH   3   4
ATOM      4  C   UNL     1       1.272  -2.063  -0.100  1.00  0.00     0.009 C 
ATOM      5  C   UNL     1      -0.252  -2.233  -0.229  1.00  0.00     0.009 C 
ATOM      6  C   UNL     1       1.782  -2.959   1.041  1.00  0.00     0.009 C 
ENDBRANCH   3   4
BRANCH   3   7
ATOM      7  N   UNL     1       3.089  -0.447   0.421  1.00  0.00    -0.320 NA
ATOM      8  H   UNL     1       3.647  -0.776  -0.401  1.00  0.00     0.119 HD
ATOM      9  H   UNL     1       3.314   0.563   0.576  1.00  0.00     0.119 HD
ENDBRANCH   3   7
ENDBRANCH   1   3
BRANCH   1  10
ATOM     10  N   UNL     1       0.047   1.034  -1.104  1.00  0.00    -0.276 N 
BRANCH  10  11
ATOM     11  C   UNL     1      -0.590   1.330  -2.368  1.00  0.00     0.051 A 
ATOM     12  C   UNL     1      -0.635   0.354  -3.402  1.00  0.00     0.027 A 
ATOM     13  C   UNL     1      -1.197   2.591  -2.581  1.00  0.00     0.053 A 
ATOM     14  C   UNL     1      -1.268   0.629  -4.627  1.00  0.00     0.012 A 
ATOM     15  C   UNL     1      -1.816   2.829  -3.806  1.00  0.00     0.047 A 
ATOM     16  C   UNL     1      -1.850   1.881  -4.791  1.00  0.00    -0.000 A 
ATOM     17  N   UNL     1      -2.443   3.950  -4.199  1.00  0.00    -0.361 N 
ATOM     18  C   UNL     1      -2.529   2.422  -5.861  1.00  0.00     0.028 A 
ATOM     19  C   UNL     1      -2.881   3.706  -5.456  1.00  0.00     0.083 A 
ATOM     20  H   UNL     1      -2.569   4.829  -3.651  1.00  0.00     0.166 HD
ENDBRANCH  10  11
BRANCH  10  21
ATOM     21  C   UNL     1      -0.541   1.532   0.112  1.00  0.00     0.095 A 
ATOM     22  C   UNL     1       0.201   2.319   1.021  1.00  0.00     0.031 A 
ATOM     23  C   UNL     1      -1.875   1.272   0.431  1.00  0.00     0.190 A 
ATOM     24  C   UNL     1      -0.400   2.806   2.205  1.00  0.00     0.003 A 
ATOM     25  O   UNL     1      -2.763   0.577  -0.236  1.00  0.00    -0.354 OA
ATOM     26  C   UNL     1      -2.449   1.745   1.573  1.00  0.00     0.044 A 
ATOM     27  C   UNL     1      -1.748   2.518   2.494  1.00  0.00     0.014 A 
ATOM     28  N   UNL     1      -3.902   0.565   0.406  1.00  0.00    -0.087 NA
ATOM     29  C   UNL     1      -3.744   1.285   1.542  1.00  0.00     0.166 A 
ENDBRANCH  10  21
ENDBRANCH   1  10
TORSDOF 6


