MODEL 1
REMARK VINA RESULT:      -9.3      0.000      0.000
REMARK SMILES C=C1CC[C@H]2CC(c3nc[nH+]c4c3COC4)=N[C@H]2C1
REMARK SMILES IDX 1 1 2 2 3 3 4 4 5 5 6 6 7 7 17 8 18 9 19 10 8 11 9 12 13 13
REMARK SMILES IDX 10 14 12 15 14 16 11 17 16 18 15 19
REMARK H PARENT 11 20
ROOT
ATOM      1  C   UNL     1      48.037 131.318  12.264  1.00  0.00     0.008 C 
ATOM      2  C   UNL     1      47.457 130.866  13.385  1.00  0.00    -0.075 C 
ATOM      3  C   UNL     1      47.753 129.468  13.876  1.00  0.00     0.031 C 
ATOM      4  C   UNL     1      47.118 129.216  15.249  1.00  0.00     0.010 C 
ATOM      5  C   UNL     1      45.613 129.563  15.236  1.00  0.00     0.020 C 
ATOM      6  C   UNL     1      45.012 129.589  16.649  1.00  0.00     0.066 C 
ATOM      7  C   UNL     1      44.459 130.963  16.764  1.00  0.00     0.087 C 
ATOM      8  N   UNL     1      44.619 131.685  15.709  1.00  0.00    -0.281 NA
ATOM      9  C   UNL     1      45.303 130.966  14.650  1.00  0.00     0.113 C 
ATOM     10  C   UNL     1      46.543 131.755  14.195  1.00  0.00     0.058 C 
ENDROOT
BRANCH   7  11
ATOM     11  C   UNL     1      43.788 131.466  17.982  1.00  0.00     0.205 A 
ATOM     12  N   UNL     1      42.546 132.023  17.883  1.00  0.00    -0.047 NA
ATOM     13  C   UNL     1      44.369 131.399  19.256  1.00  0.00     0.076 A 
ATOM     14  C   UNL     1      41.887 132.500  18.982  1.00  0.00     0.449 A 
ATOM     15  C   UNL     1      43.702 131.874  20.322  1.00  0.00     0.137 A 
ATOM     16  C   UNL     1      45.667 130.869  19.726  1.00  0.00     0.205 C 
ATOM     17  N   UNL     1      42.468 132.425  20.213  1.00  0.00    -0.245 N 
ATOM     18  C   UNL     1      44.505 131.690  21.539  1.00  0.00     0.241 C 
ATOM     19  O   UNL     1      45.718 131.063  21.136  1.00  0.00    -0.368 OA
ATOM     20  H   UNL     1      41.969 132.787  21.057  1.00  0.00     0.311 HD
ENDBRANCH   7  11
TORSDOF 1
ENDMDL
MODEL 2
REMARK VINA RESULT:      -8.9      1.659      2.183
REMARK SMILES C=C1CC[C@H]2CC(c3nc[nH+]c4c3COC4)=N[C@H]2C1
REMARK SMILES IDX 1 1 2 2 3 3 4 4 5 5 6 6 7 7 17 8 18 9 19 10 8 11 9 12 13 13
REMARK SMILES IDX 10 14 12 15 14 16 11 17 16 18 15 19
REMARK H PARENT 11 20
ROOT
ATOM      1  C   UNL     1      47.996 131.456  12.184  1.00  0.00     0.008 C 
ATOM      2  C   UNL     1      47.571 130.912  13.333  1.00  0.00    -0.075 C 
ATOM      3  C   UNL     1      47.749 129.431  13.576  1.00  0.00     0.031 C 
ATOM      4  C   UNL     1      47.344 129.051  15.007  1.00  0.00     0.010 C 
ATOM      5  C   UNL     1      45.928 129.568  15.338  1.00  0.00     0.020 C 
ATOM      6  C   UNL     1      45.604 129.451  16.835  1.00  0.00     0.066 C 
ATOM      7  C   UNL     1      45.283 130.847  17.229  1.00  0.00     0.087 C 
ATOM      8  N   UNL     1      45.349 131.696  16.262  1.00  0.00    -0.281 NA
ATOM      9  C   UNL     1      45.719 131.070  15.006  1.00  0.00     0.113 C 
ATOM     10  C   UNL     1      46.956 131.769  14.414  1.00  0.00     0.058 C 
ENDROOT
BRANCH   7  11
ATOM     11  C   UNL     1      44.924 131.236  18.610  1.00  0.00     0.205 A 
ATOM     12  N   UNL     1      45.840 131.078  19.611  1.00  0.00    -0.047 NA
ATOM     13  C   UNL     1      43.674 131.768  18.954  1.00  0.00     0.076 A 
ATOM     14  C   UNL     1      45.554 131.424  20.902  1.00  0.00     0.449 A 
ATOM     15  C   UNL     1      43.416 132.102  20.229  1.00  0.00     0.137 A 
ATOM     16  C   UNL     1      42.473 132.074  18.147  1.00  0.00     0.205 C 
ATOM     17  N   UNL     1      44.332 131.941  21.216  1.00  0.00    -0.245 N 
ATOM     18  C   UNL     1      42.052 132.639  20.341  1.00  0.00     0.241 C 
ATOM     19  O   UNL     1      41.494 132.609  19.032  1.00  0.00    -0.368 OA
ATOM     20  H   UNL     1      44.107 132.209  22.201  1.00  0.00     0.311 HD
ENDBRANCH   7  11
TORSDOF 1
ENDMDL
MODEL 3
REMARK VINA RESULT:      -7.7      2.037      6.386
REMARK SMILES C=C1CC[C@H]2CC(c3nc[nH+]c4c3COC4)=N[C@H]2C1
REMARK SMILES IDX 1 1 2 2 3 3 4 4 5 5 6 6 7 7 17 8 18 9 19 10 8 11 9 12 13 13
REMARK SMILES IDX 10 14 12 15 14 16 11 17 16 18 15 19
REMARK H PARENT 11 20
ROOT
ATOM      1  C   UNL     1      42.414 131.460  23.406  1.00  0.00     0.008 C 
ATOM      2  C   UNL     1      43.203 131.120  22.377  1.00  0.00    -0.075 C 
ATOM      3  C   UNL     1      44.442 130.290  22.620  1.00  0.00     0.031 C 
ATOM      4  C   UNL     1      45.105 129.882  21.297  1.00  0.00     0.010 C 
ATOM      5  C   UNL     1      45.349 131.112  20.397  1.00  0.00     0.020 C 
ATOM      6  C   UNL     1      45.749 130.715  18.969  1.00  0.00     0.066 C 
ATOM      7  C   UNL     1      44.714 131.367  18.126  1.00  0.00     0.087 C 
ATOM      8  N   UNL     1      43.844 132.046  18.791  1.00  0.00    -0.281 NA
ATOM      9  C   UNL     1      44.097 132.013  20.219  1.00  0.00     0.113 C 
ATOM     10  C   UNL     1      42.845 131.518  20.964  1.00  0.00     0.058 C 
ENDROOT
BRANCH   7  11
ATOM     11  C   UNL     1      44.676 131.245  16.653  1.00  0.00     0.205 A 
ATOM     12  N   UNL     1      43.609 131.749  15.965  1.00  0.00    -0.047 NA
ATOM     13  C   UNL     1      45.693 130.630  15.910  1.00  0.00     0.076 A 
ATOM     14  C   UNL     1      43.531 131.662  14.603  1.00  0.00     0.449 A 
ATOM     15  C   UNL     1      45.596 130.556  14.572  1.00  0.00     0.137 A 
ATOM     16  C   UNL     1      46.966 129.994  16.314  1.00  0.00     0.205 C 
ATOM     17  N   UNL     1      44.532 131.060  13.898  1.00  0.00    -0.245 N 
ATOM     18  C   UNL     1      46.776 129.878  14.020  1.00  0.00     0.241 C 
ATOM     19  O   UNL     1      47.608 129.542  15.125  1.00  0.00    -0.368 OA
ATOM     20  H   UNL     1      44.480 130.990  12.857  1.00  0.00     0.311 HD
ENDBRANCH   7  11
TORSDOF 1
ENDMDL
MODEL 4
REMARK VINA RESULT:      -7.5      1.465      2.014
REMARK SMILES C=C1CC[C@H]2CC(c3nc[nH+]c4c3COC4)=N[C@H]2C1
REMARK SMILES IDX 1 1 2 2 3 3 4 4 5 5 6 6 7 7 17 8 18 9 19 10 8 11 9 12 13 13
REMARK SMILES IDX 10 14 12 15 14 16 11 17 16 18 15 19
REMARK H PARENT 11 20
ROOT
ATOM      1  C   UNL     1      47.933 129.506  14.052  1.00  0.00     0.008 C 
ATOM      2  C   UNL     1      46.812 129.971  14.622  1.00  0.00    -0.075 C 
ATOM      3  C   UNL     1      45.610 130.296  13.765  1.00  0.00     0.031 C 
ATOM      4  C   UNL     1      44.394 130.655  14.628  1.00  0.00     0.010 C 
ATOM      5  C   UNL     1      44.745 131.761  15.648  1.00  0.00     0.020 C 
ATOM      6  C   UNL     1      43.644 131.946  16.703  1.00  0.00     0.066 C 
ATOM      7  C   UNL     1      44.356 131.719  17.988  1.00  0.00     0.087 C 
ATOM      8  N   UNL     1      45.611 131.463  17.856  1.00  0.00    -0.281 NA
ATOM      9  C   UNL     1      46.030 131.467  16.467  1.00  0.00     0.113 C 
ATOM     10  C   UNL     1      46.716 130.133  16.120  1.00  0.00     0.058 C 
ENDROOT
BRANCH   7  11
ATOM     11  C   UNL     1      43.685 131.774  19.304  1.00  0.00     0.205 A 
ATOM     12  N   UNL     1      42.577 132.557  19.461  1.00  0.00    -0.047 NA
ATOM     13  C   UNL     1      44.131 131.052  20.420  1.00  0.00     0.076 A 
ATOM     14  C   UNL     1      41.922 132.638  20.658  1.00  0.00     0.449 A 
ATOM     15  C   UNL     1      43.471 131.146  21.586  1.00  0.00     0.137 A 
ATOM     16  C   UNL     1      45.266 130.122  20.608  1.00  0.00     0.205 C 
ATOM     17  N   UNL     1      42.371 131.927  21.732  1.00  0.00    -0.245 N 
ATOM     18  C   UNL     1      44.119 130.301  22.599  1.00  0.00     0.241 C 
ATOM     19  O   UNL     1      45.228 129.678  21.961  1.00  0.00    -0.368 OA
ATOM     20  H   UNL     1      41.875 131.983  22.650  1.00  0.00     0.311 HD
ENDBRANCH   7  11
TORSDOF 1
ENDMDL
MODEL 5
REMARK VINA RESULT:      -7.5      1.948      2.733
REMARK SMILES C=C1CC[C@H]2CC(c3nc[nH+]c4c3COC4)=N[C@H]2C1
REMARK SMILES IDX 1 1 2 2 3 3 4 4 5 5 6 6 7 7 17 8 18 9 19 10 8 11 9 12 13 13
REMARK SMILES IDX 10 14 12 15 14 16 11 17 16 18 15 19
REMARK H PARENT 11 20
ROOT
ATOM      1  C   UNL     1      47.509 131.029  12.987  1.00  0.00     0.008 C 
ATOM      2  C   UNL     1      46.512 131.000  13.882  1.00  0.00    -0.075 C 
ATOM      3  C   UNL     1      45.082 130.851  13.413  1.00  0.00     0.031 C 
ATOM      4  C   UNL     1      44.124 130.680  14.599  1.00  0.00     0.010 C 
ATOM      5  C   UNL     1      44.321 131.805  15.638  1.00  0.00     0.020 C 
ATOM      6  C   UNL     1      43.584 131.513  16.954  1.00  0.00     0.066 C 
ATOM      7  C   UNL     1      44.668 131.547  17.971  1.00  0.00     0.087 C 
ATOM      8  N   UNL     1      45.834 131.808  17.489  1.00  0.00    -0.281 NA
ATOM      9  C   UNL     1      45.802 132.016  16.054  1.00  0.00     0.113 C 
ATOM     10  C   UNL     1      46.799 131.069  15.363  1.00  0.00     0.058 C 
ENDROOT
BRANCH   7  11
ATOM     11  C   UNL     1      44.434 131.296  19.409  1.00  0.00     0.205 A 
ATOM     12  N   UNL     1      45.279 130.469  20.092  1.00  0.00    -0.047 NA
ATOM     13  C   UNL     1      43.374 131.872  20.123  1.00  0.00     0.076 A 
ATOM     14  C   UNL     1      45.104 130.209  21.423  1.00  0.00     0.449 A 
ATOM     15  C   UNL     1      43.222 131.603  21.430  1.00  0.00     0.137 A 
ATOM     16  C   UNL     1      42.295 132.798  19.716  1.00  0.00     0.205 C 
ATOM     17  N   UNL     1      44.068 130.780  22.100  1.00  0.00    -0.245 N 
ATOM     18  C   UNL     1      42.054 132.321  21.958  1.00  0.00     0.241 C 
ATOM     19  O   UNL     1      41.501 133.054  20.871  1.00  0.00    -0.368 OA
ATOM     20  H   UNL     1      43.928 130.587  23.117  1.00  0.00     0.311 HD
ENDBRANCH   7  11
TORSDOF 1
ENDMDL
MODEL 6
REMARK VINA RESULT:      -7.4      1.028      1.706
REMARK SMILES C=C1CC[C@H]2CC(c3nc[nH+]c4c3COC4)=N[C@H]2C1
REMARK SMILES IDX 1 1 2 2 3 3 4 4 5 5 6 6 7 7 17 8 18 9 19 10 8 11 9 12 13 13
REMARK SMILES IDX 10 14 12 15 14 16 11 17 16 18 15 19
REMARK H PARENT 11 20
ROOT
ATOM      1  C   UNL     1      48.589 128.926  13.482  1.00  0.00     0.008 C 
ATOM      2  C   UNL     1      47.606 129.711  13.945  1.00  0.00    -0.075 C 
ATOM      3  C   UNL     1      46.984 130.752  13.044  1.00  0.00     0.031 C 
ATOM      4  C   UNL     1      45.779 131.421  13.718  1.00  0.00     0.010 C 
ATOM      5  C   UNL     1      46.153 131.957  15.117  1.00  0.00     0.020 C 
ATOM      6  C   UNL     1      44.917 132.378  15.925  1.00  0.00     0.066 C 
ATOM      7  C   UNL     1      45.007 131.547  17.153  1.00  0.00     0.087 C 
ATOM      8  N   UNL     1      46.037 130.774  17.191  1.00  0.00    -0.281 NA
ATOM      9  C   UNL     1      46.871 130.911  16.012  1.00  0.00     0.113 C 
ATOM     10  C   UNL     1      47.076 129.538  15.349  1.00  0.00     0.058 C 
ENDROOT
BRANCH   7  11
ATOM     11  C   UNL     1      44.003 131.594  18.237  1.00  0.00     0.205 A 
ATOM     12  N   UNL     1      42.697 131.854  17.932  1.00  0.00    -0.047 NA
ATOM     13  C   UNL     1      44.323 131.383  19.586  1.00  0.00     0.076 A 
ATOM     14  C   UNL     1      41.733 131.906  18.900  1.00  0.00     0.449 A 
ATOM     15  C   UNL     1      43.359 131.438  20.520  1.00  0.00     0.137 A 
ATOM     16  C   UNL     1      45.602 131.079  20.263  1.00  0.00     0.205 C 
ATOM     17  N   UNL     1      42.065 131.696  20.206  1.00  0.00    -0.245 N 
ATOM     18  C   UNL     1      43.932 131.180  21.848  1.00  0.00     0.241 C 
ATOM     19  O   UNL     1      45.324 130.960  21.655  1.00  0.00    -0.368 OA
ATOM     20  H   UNL     1      41.333 131.733  20.951  1.00  0.00     0.311 HD
ENDBRANCH   7  11
TORSDOF 1
ENDMDL
MODEL 7
REMARK VINA RESULT:      -7.0      2.410      6.662
REMARK SMILES C=C1CC[C@H]2CC(c3nc[nH+]c4c3COC4)=N[C@H]2C1
REMARK SMILES IDX 1 1 2 2 3 3 4 4 5 5 6 6 7 7 17 8 18 9 19 10 8 11 9 12 13 13
REMARK SMILES IDX 10 14 12 15 14 16 11 17 16 18 15 19
REMARK H PARENT 11 20
ROOT
ATOM      1  C   UNL     1      42.077 132.031  23.020  1.00  0.00     0.008 C 
ATOM      2  C   UNL     1      42.988 131.444  22.233  1.00  0.00    -0.075 C 
ATOM      3  C   UNL     1      43.972 130.459  22.823  1.00  0.00     0.031 C 
ATOM      4  C   UNL     1      44.811 129.789  21.727  1.00  0.00     0.010 C 
ATOM      5  C   UNL     1      45.465 130.843  20.807  1.00  0.00     0.020 C 
ATOM      6  C   UNL     1      46.077 130.212  19.547  1.00  0.00     0.066 C 
ATOM      7  C   UNL     1      45.382 130.915  18.437  1.00  0.00     0.087 C 
ATOM      8  N   UNL     1      44.533 131.803  18.825  1.00  0.00    -0.281 NA
ATOM      9  C   UNL     1      44.468 131.906  20.271  1.00  0.00     0.113 C 
ATOM     10  C   UNL     1      43.017 131.716  20.747  1.00  0.00     0.058 C 
ENDROOT
BRANCH   7  11
ATOM     11  C   UNL     1      45.634 130.620  17.011  1.00  0.00     0.205 A 
ATOM     12  N   UNL     1      46.754 129.922  16.657  1.00  0.00    -0.047 NA
ATOM     13  C   UNL     1      44.771 131.024  15.982  1.00  0.00     0.076 A 
ATOM     14  C   UNL     1      47.028 129.624  15.351  1.00  0.00     0.449 A 
ATOM     15  C   UNL     1      45.061 130.719  14.706  1.00  0.00     0.137 A 
ATOM     16  C   UNL     1      43.496 131.773  15.998  1.00  0.00     0.205 C 
ATOM     17  N   UNL     1      46.175 130.025  14.365  1.00  0.00    -0.245 N 
ATOM     18  C   UNL     1      44.014 131.241  13.816  1.00  0.00     0.241 C 
ATOM     19  O   UNL     1      43.058 131.888  14.648  1.00  0.00    -0.368 OA
ATOM     20  H   UNL     1      46.378 129.800  13.365  1.00  0.00     0.311 HD
ENDBRANCH   7  11
TORSDOF 1
ENDMDL
MODEL 8
REMARK VINA RESULT:      -6.9      1.731      2.772
REMARK SMILES C=C1CC[C@H]2CC(c3nc[nH+]c4c3COC4)=N[C@H]2C1
REMARK SMILES IDX 1 1 2 2 3 3 4 4 5 5 6 6 7 7 17 8 18 9 19 10 8 11 9 12 13 13
REMARK SMILES IDX 10 14 12 15 14 16 11 17 16 18 15 19
REMARK H PARENT 11 20
ROOT
ATOM      1  C   UNL     1      47.235 129.264  14.418  1.00  0.00     0.008 C 
ATOM      2  C   UNL     1      46.287 129.878  15.140  1.00  0.00    -0.075 C 
ATOM      3  C   UNL     1      45.219 130.691  14.444  1.00  0.00     0.031 C 
ATOM      4  C   UNL     1      44.151 131.168  15.437  1.00  0.00     0.010 C 
ATOM      5  C   UNL     1      44.795 131.890  16.640  1.00  0.00     0.020 C 
ATOM      6  C   UNL     1      43.789 132.131  17.776  1.00  0.00     0.066 C 
ATOM      7  C   UNL     1      44.413 131.448  18.939  1.00  0.00     0.087 C 
ATOM      8  N   UNL     1      45.549 130.899  18.681  1.00  0.00    -0.281 NA
ATOM      9  C   UNL     1      45.951 131.091  17.300  1.00  0.00     0.113 C 
ATOM     10  C   UNL     1      46.242 129.731  16.642  1.00  0.00     0.058 C 
ENDROOT
BRANCH   7  11
ATOM     11  C   UNL     1      43.785 131.394  20.277  1.00  0.00     0.205 A 
ATOM     12  N   UNL     1      42.760 132.247  20.572  1.00  0.00    -0.047 NA
ATOM     13  C   UNL     1      44.191 130.498  21.276  1.00  0.00     0.076 A 
ATOM     14  C   UNL     1      42.148 132.233  21.795  1.00  0.00     0.449 A 
ATOM     15  C   UNL     1      43.574 130.502  22.470  1.00  0.00     0.137 A 
ATOM     16  C   UNL     1      45.238 129.454  21.304  1.00  0.00     0.205 C 
ATOM     17  N   UNL     1      42.556 131.353  22.753  1.00  0.00    -0.245 N 
ATOM     18  C   UNL     1      44.166 129.479  23.343  1.00  0.00     0.241 C 
ATOM     19  O   UNL     1      45.194 128.846  22.591  1.00  0.00    -0.368 OA
ATOM     20  H   UNL     1      42.093 131.336  23.689  1.00  0.00     0.311 HD
ENDBRANCH   7  11
TORSDOF 1
ENDMDL
MODEL 9
REMARK VINA RESULT:      -6.8      2.569      4.290
REMARK SMILES C=C1CC[C@H]2CC(c3nc[nH+]c4c3COC4)=N[C@H]2C1
REMARK SMILES IDX 1 1 2 2 3 3 4 4 5 5 6 6 7 7 17 8 18 9 19 10 8 11 9 12 13 13
REMARK SMILES IDX 10 14 12 15 14 16 11 17 16 18 15 19
REMARK H PARENT 11 20
ROOT
ATOM      1  C   UNL     1      46.277 130.294  15.330  1.00  0.00     0.008 C 
ATOM      2  C   UNL     1      45.430 130.627  16.314  1.00  0.00    -0.075 C 
ATOM      3  C   UNL     1      44.151 131.364  15.989  1.00  0.00     0.031 C 
ATOM      4  C   UNL     1      43.259 131.502  17.230  1.00  0.00     0.010 C 
ATOM      5  C   UNL     1      44.044 132.112  18.411  1.00  0.00     0.020 C 
ATOM      6  C   UNL     1      43.272 132.007  19.735  1.00  0.00     0.066 C 
ATOM      7  C   UNL     1      44.201 131.252  20.617  1.00  0.00     0.087 C 
ATOM      8  N   UNL     1      45.318 130.937  20.058  1.00  0.00    -0.281 NA
ATOM      9  C   UNL     1      45.400 131.409  18.688  1.00  0.00     0.113 C 
ATOM     10  C   UNL     1      45.713 130.235  17.744  1.00  0.00     0.058 C 
ENDROOT
BRANCH   7  11
ATOM     11  C   UNL     1      43.874 130.886  22.011  1.00  0.00     0.205 A 
ATOM     12  N   UNL     1      43.113 131.732  22.767  1.00  0.00    -0.047 NA
ATOM     13  C   UNL     1      44.308 129.696  22.611  1.00  0.00     0.076 A 
ATOM     14  C   UNL     1      42.784 131.436  24.060  1.00  0.00     0.449 A 
ATOM     15  C   UNL     1      43.971 129.425  23.883  1.00  0.00     0.137 A 
ATOM     16  C   UNL     1      45.123 128.571  22.102  1.00  0.00     0.205 C 
ATOM     17  N   UNL     1      43.215 130.272  24.625  1.00  0.00    -0.245 N 
ATOM     18  C   UNL     1      44.534 128.128  24.286  1.00  0.00     0.241 C 
ATOM     19  O   UNL     1      45.241 127.624  23.159  1.00  0.00    -0.368 OA
ATOM     20  H   UNL     1      42.966 130.038  25.612  1.00  0.00     0.311 HD
ENDBRANCH   7  11
TORSDOF 1
ENDMDL


