REMARK SMILES Nc1cc(O)c(F)cc1Nc1ccc2cc[nH]c2c1
REMARK SMILES IDX 2 1 3 2 4 3 6 4 7 5 8 6 9 7 1 8 10 11 11 13 12 14 19 15
REMARK SMILES IDX 13 16 18 17 14 18 17 19 15 20 16 21 5 23
REMARK H PARENT 1 9 1 10 10 12 17 22 5 24
ROOT
ATOM      1  C   UNL     1      -0.305   0.546  -2.356  1.00  0.00     0.059 A 
ATOM      2  C   UNL     1      -1.175   1.446  -2.991  1.00  0.00     0.077 A 
ATOM      3  C   UNL     1      -2.520   1.114  -3.194  1.00  0.00     0.153 A 
ATOM      4  C   UNL     1      -3.002  -0.126  -2.765  1.00  0.00     0.167 A 
ATOM      5  F   UNL     1      -4.301  -0.459  -2.965  1.00  0.00    -0.203 F 
ATOM      6  C   UNL     1      -2.147  -1.026  -2.125  1.00  0.00     0.071 A 
ATOM      7  C   UNL     1      -0.805  -0.693  -1.894  1.00  0.00     0.065 A 
ENDROOT
BRANCH   1   8
ATOM      8  N   UNL     1       1.081   0.886  -2.225  1.00  0.00    -0.397 N 
ATOM      9  H   UNL     1       1.428   1.824  -2.526  1.00  0.00     0.156 HD
ATOM     10  H   UNL     1       1.787   0.197  -1.887  1.00  0.00     0.156 HD
ENDBRANCH   1   8
BRANCH   7  11
ATOM     11  N   UNL     1       0.034  -1.636  -1.211  1.00  0.00    -0.354 N 
ATOM     12  H   UNL     1       0.051  -2.616  -1.574  1.00  0.00     0.167 HD
BRANCH  11  13
ATOM     13  C   UNL     1       0.700  -1.359   0.035  1.00  0.00     0.041 A 
ATOM     14  C   UNL     1       0.379  -0.208   0.809  1.00  0.00     0.027 A 
ATOM     15  C   UNL     1       1.676  -2.263   0.508  1.00  0.00     0.052 A 
ATOM     16  C   UNL     1       1.036   0.045   2.026  1.00  0.00     0.012 A 
ATOM     17  C   UNL     1       2.306  -1.982   1.718  1.00  0.00     0.047 A 
ATOM     18  C   UNL     1       1.997  -0.867   2.449  1.00  0.00    -0.001 A 
ATOM     19  N   UNL     1       3.257  -2.706   2.331  1.00  0.00    -0.361 N 
ATOM     20  C   UNL     1       2.786  -0.882   3.578  1.00  0.00     0.028 A 
ATOM     21  C   UNL     1       3.554  -2.037   3.469  1.00  0.00     0.083 A 
ATOM     22  H   UNL     1       3.682  -3.601   2.001  1.00  0.00     0.166 HD
ENDBRANCH  11  13
ENDBRANCH   7  11
BRANCH   3  23
ATOM     23  O   UNL     1      -3.383   2.007  -3.826  1.00  0.00    -0.505 OA
ATOM     24  H   UNL     1      -3.064   2.913  -4.150  1.00  0.00     0.293 HD
ENDBRANCH   3  23
TORSDOF 4


