REMARK SMILES [NH3+]CC(=O)c1ccc(-c2cnc3ccnn3c2)c2c[n-]nc12
REMARK SMILES IDX 2 1 1 2 3 6 4 7 5 8 6 9 22 10 7 11 21 12 18 13 8 14 20 15
REMARK SMILES IDX 19 16 9 17 10 18 17 19 11 20 16 21 12 22 15 23 13 24 14 25
REMARK H PARENT 1 3 1 4 1 5
ROOT
ATOM      1  C   UNL     1      -1.127   1.656  -4.487  1.00  0.00     0.341 C 
ENDROOT
BRANCH   1   2
ATOM      2  N   UNL     1      -1.829   2.665  -5.283  1.00  0.00    -0.351 N 
ATOM      3  H   UNL     1      -1.230   2.935  -6.096  1.00  0.00     0.344 HD
ATOM      4  H   UNL     1      -2.730   2.278  -5.646  1.00  0.00     0.344 HD
ATOM      5  H   UNL     1      -2.013   3.517  -4.703  1.00  0.00     0.344 HD
ENDBRANCH   1   2
BRANCH   1   6
ATOM      6  C   UNL     1      -1.898   1.285  -3.243  1.00  0.00     0.218 C 
ATOM      7  O   UNL     1      -3.149   1.452  -3.221  1.00  0.00    -0.288 OA
BRANCH   6   8
ATOM      8  C   UNL     1      -1.229   0.702  -2.051  1.00  0.00     0.048 A 
ATOM      9  C   UNL     1      -1.848   0.777  -0.781  1.00  0.00     0.015 A 
ATOM     10  C   UNL     1       0.009   0.040  -2.110  1.00  0.00     0.058 A 
ATOM     11  C   UNL     1      -1.234   0.226   0.363  1.00  0.00     0.010 A 
ATOM     12  N   UNL     1       0.755  -0.230  -3.197  1.00  0.00    -0.367 NA
ATOM     13  C   UNL     1       0.602  -0.494  -0.997  1.00  0.00    -0.014 A 
ATOM     14  C   UNL     1       0.018  -0.419   0.274  1.00  0.00    -0.008 A 
ATOM     15  N   UNL     1       1.816  -0.923  -2.796  1.00  0.00    -0.581 NA
ATOM     16  C   UNL     1       1.748  -1.104  -1.458  1.00  0.00    -0.113 A 
BRANCH  14  17
ATOM     17  C   UNL     1       0.664  -0.990   1.479  1.00  0.00     0.019 A 
ATOM     18  C   UNL     1       2.029  -0.743   1.766  1.00  0.00     0.124 A 
ATOM     19  C   UNL     1      -0.075  -1.772   2.388  1.00  0.00     0.125 A 
ATOM     20  N   UNL     1       2.611  -1.264   2.885  1.00  0.00    -0.236 NA
ATOM     21  N   UNL     1       0.566  -2.259   3.476  1.00  0.00    -0.222 N 
ATOM     22  C   UNL     1       1.857  -2.019   3.719  1.00  0.00     0.154 A 
ATOM     23  N   UNL     1       0.055  -3.012   4.434  1.00  0.00    -0.175 NA
ATOM     24  C   UNL     1       2.236  -2.634   4.887  1.00  0.00     0.071 A 
ATOM     25  C   UNL     1       1.062  -3.254   5.309  1.00  0.00     0.138 A 
ENDBRANCH  14  17
ENDBRANCH   6   8
ENDBRANCH   1   6
TORSDOF 4


