REMARK SMILES Cc1cc(F)c(C/C=C(\O)c2ccccc2)c(F)c1
REMARK SMILES IDX 8 1 9 2 10 3 11 5 12 6 16 7 13 8 15 9 14 10 7 11 6 12 4 13
REMARK SMILES IDX 17 14 3 15 19 16 2 17 5 18 18 19 1 20
REMARK H PARENT 10 4
ROOT
ATOM      1  C   UNL     1      -0.583  -0.750   0.617  1.00  0.00     0.025 C 
ENDROOT
BRANCH   1   2
ATOM      2  C   UNL     1      -1.884  -0.425   0.627  1.00  0.00     0.119 C 
BRANCH   2   3
ATOM      3  O   UNL     1      -2.809  -1.328   1.156  1.00  0.00    -0.508 OA
ATOM      4  H   UNL     1      -3.806  -1.149   1.133  1.00  0.00     0.293 HD
ENDBRANCH   2   3
BRANCH   2   5
ATOM      5  C   UNL     1      -2.351   0.881   0.096  1.00  0.00     0.016 A 
ATOM      6  C   UNL     1      -1.784   1.438  -1.067  1.00  0.00     0.012 A 
ATOM      7  C   UNL     1      -3.386   1.574   0.748  1.00  0.00     0.012 A 
ATOM      8  C   UNL     1      -2.240   2.666  -1.558  1.00  0.00     0.001 A 
ATOM      9  C   UNL     1      -3.838   2.801   0.253  1.00  0.00     0.001 A 
ATOM     10  C   UNL     1      -3.266   3.347  -0.898  1.00  0.00     0.000 A 
ENDBRANCH   2   5
ENDBRANCH   1   2
BRANCH   1  11
ATOM     11  C   UNL     1      -0.097  -2.072   1.144  1.00  0.00     0.073 C 
BRANCH  11  12
ATOM     12  C   UNL     1       1.402  -2.183   1.009  1.00  0.00     0.027 A 
ATOM     13  C   UNL     1       1.974  -2.688  -0.173  1.00  0.00     0.129 A 
ATOM     14  C   UNL     1       2.245  -1.730   2.041  1.00  0.00     0.129 A 
ATOM     15  C   UNL     1       3.363  -2.760  -0.309  1.00  0.00     0.043 A 
ATOM     16  C   UNL     1       3.634  -1.805   1.899  1.00  0.00     0.043 A 
ATOM     17  C   UNL     1       4.201  -2.308   0.720  1.00  0.00    -0.045 A 
ATOM     18  F   UNL     1       1.187  -3.109  -1.196  1.00  0.00    -0.207 F 
ATOM     19  F   UNL     1       1.724  -1.214   3.183  1.00  0.00    -0.207 F 
ATOM     20  C   UNL     1       5.691  -2.422   0.587  1.00  0.00     0.044 C 
ENDBRANCH  11  12
ENDBRANCH   1  11
TORSDOF 5


