MODEL 1
REMARK VINA RESULT:      -3.1      0.000      0.000
REMARK SMILES Cc1cc(-c2cccc3[nH+]coc23)cc(O/C(S)=N\C(O)=C/Oc2ccc(Cl)cc2)c1F
REMARK SMILES IDX 19 1 20 2 21 3 22 5 23 6 24 7 25 8 30 9 26 10 29 11 27 12
REMARK SMILES IDX 28 13 17 14 16 15 15 16 14 17 31 18 4 19 2 20 3 21 32 22
REMARK SMILES IDX 1 23 5 24 6 25 13 26 7 27 9 28 12 29 8 30 10 31 11 32 18 34
REMARK H PARENT 21 4 10 33 18 35
ROOT
ATOM      1  N   UNL     1      47.465 133.271  21.904  1.00  0.00    -0.169 NA
ENDROOT
BRANCH   1   2
ATOM      2  C   UNL     1      47.847 134.646  22.046  1.00  0.00     0.251 C 
BRANCH   2   3
ATOM      3  O   UNL     1      47.026 135.662  21.561  1.00  0.00    -0.491 OA
ATOM      4  H   UNL     1      46.520 136.273  22.191  1.00  0.00     0.295 HD
ENDBRANCH   2   3
BRANCH   2   5
ATOM      5  C   UNL     1      48.998 134.959  22.636  1.00  0.00     0.263 C 
BRANCH   5   6
ATOM      6  O   UNL     1      49.946 135.721  21.946  1.00  0.00    -0.459 OA
BRANCH   6   7
ATOM      7  C   UNL     1      49.675 136.587  20.876  1.00  0.00     0.126 A 
ATOM      8  C   UNL     1      50.212 136.270  19.623  1.00  0.00     0.048 A 
ATOM      9  C   UNL     1      48.863 137.732  21.004  1.00  0.00     0.048 A 
ATOM     10  C   UNL     1      49.957 137.082  18.513  1.00  0.00     0.024 A 
ATOM     11  C   UNL     1      48.617 138.548  19.894  1.00  0.00     0.024 A 
ATOM     12  C   UNL     1      49.162 138.223  18.649  1.00  0.00     0.041 A 
ATOM     13  Cl  UNL     1      48.828 139.232  17.254  1.00  0.00    -0.084 Cl
ENDBRANCH   6   7
ENDBRANCH   5   6
ENDBRANCH   2   5
ENDBRANCH   1   2
BRANCH   1  14
ATOM     14  C   UNL     1      46.397 132.739  22.422  1.00  0.00     0.256 C 
BRANCH  14  15
ATOM     15  O   UNL     1      45.764 131.622  21.857  1.00  0.00    -0.431 OA
BRANCH  15  16
ATOM     16  C   UNL     1      44.984 131.648  20.688  1.00  0.00     0.166 A 
ATOM     17  C   UNL     1      45.478 131.202  19.448  1.00  0.00     0.059 A 
ATOM     18  C   UNL     1      43.668 132.114  20.774  1.00  0.00     0.168 A 
ATOM     19  C   UNL     1      44.687 131.269  18.288  1.00  0.00    -0.010 A 
ATOM     20  C   UNL     1      42.857 132.171  19.631  1.00  0.00    -0.011 A 
ATOM     21  C   UNL     1      43.368 131.746  18.395  1.00  0.00     0.015 A 
ATOM     22  F   UNL     1      43.182 132.519  21.975  1.00  0.00    -0.203 F 
ATOM     23  C   UNL     1      41.438 132.654  19.738  1.00  0.00     0.048 C 
BRANCH  19  24
ATOM     24  C   UNL     1      45.243 130.877  16.964  1.00  0.00     0.032 A 
ATOM     25  C   UNL     1      46.474 130.182  16.861  1.00  0.00     0.013 A 
ATOM     26  C   UNL     1      44.576 131.149  15.760  1.00  0.00     0.212 A 
ATOM     27  C   UNL     1      46.990 129.800  15.601  1.00  0.00     0.008 A 
ATOM     28  C   UNL     1      45.077 130.770  14.549  1.00  0.00     0.249 A 
ATOM     29  O   UNL     1      43.439 131.773  15.562  1.00  0.00    -0.403 OA
ATOM     30  C   UNL     1      46.287 130.097  14.422  1.00  0.00     0.083 A 
ATOM     31  N   UNL     1      44.234 131.154  13.580  1.00  0.00    -0.176 N 
ATOM     32  C   UNL     1      43.234 131.771  14.255  1.00  0.00     0.521 A 
ATOM     33  H   UNL     1      44.324 131.013  12.550  1.00  0.00     0.457 HD
ENDBRANCH  19  24
ENDBRANCH  15  16
ENDBRANCH  14  15
BRANCH  14  34
ATOM     34  S   UNL     1      45.713 133.450  23.910  1.00  0.00    -0.084 SA
ATOM     35  H   UNL     1      45.253 132.198  24.358  1.00  0.00     0.113 HD
ENDBRANCH  14  34
ENDBRANCH   1  14
TORSDOF 10
ENDMDL
MODEL 2
REMARK VINA RESULT:      -2.3      0.921      1.325
REMARK SMILES Cc1cc(-c2cccc3[nH+]coc23)cc(O/C(S)=N\C(O)=C/Oc2ccc(Cl)cc2)c1F
REMARK SMILES IDX 19 1 20 2 21 3 22 5 23 6 24 7 25 8 30 9 26 10 29 11 27 12
REMARK SMILES IDX 28 13 17 14 16 15 15 16 14 17 31 18 4 19 2 20 3 21 32 22
REMARK SMILES IDX 1 23 5 24 6 25 13 26 7 27 9 28 12 29 8 30 10 31 11 32 18 34
REMARK H PARENT 21 4 10 33 18 35
ROOT
ATOM      1  N   UNL     1      45.992 133.543  22.912  1.00  0.00    -0.169 NA
ENDROOT
BRANCH   1   2
ATOM      2  C   UNL     1      47.299 133.887  22.435  1.00  0.00     0.251 C 
BRANCH   2   3
ATOM      3  O   UNL     1      48.149 132.905  21.930  1.00  0.00    -0.491 OA
ATOM      4  H   UNL     1      47.802 131.982  21.693  1.00  0.00     0.295 HD
ENDBRANCH   2   3
BRANCH   2   5
ATOM      5  C   UNL     1      47.713 135.150  22.484  1.00  0.00     0.263 C 
BRANCH   5   6
ATOM      6  O   UNL     1      47.269 136.063  21.522  1.00  0.00    -0.459 OA
BRANCH   6   7
ATOM      7  C   UNL     1      48.070 136.674  20.546  1.00  0.00     0.126 A 
ATOM      8  C   UNL     1      47.509 137.712  19.792  1.00  0.00     0.048 A 
ATOM      9  C   UNL     1      49.413 136.310  20.318  1.00  0.00     0.048 A 
ATOM     10  C   UNL     1      48.265 138.374  18.820  1.00  0.00     0.024 A 
ATOM     11  C   UNL     1      50.164 136.968  19.339  1.00  0.00     0.024 A 
ATOM     12  C   UNL     1      49.592 138.001  18.591  1.00  0.00     0.041 A 
ATOM     13  Cl  UNL     1      50.545 138.842  17.384  1.00  0.00    -0.084 Cl
ENDBRANCH   6   7
ENDBRANCH   5   6
ENDBRANCH   2   5
ENDBRANCH   1   2
BRANCH   1  14
ATOM     14  C   UNL     1      45.496 132.340  22.921  1.00  0.00     0.256 C 
BRANCH  14  15
ATOM     15  O   UNL     1      45.627 131.466  21.832  1.00  0.00    -0.431 OA
BRANCH  15  16
ATOM     16  C   UNL     1      44.881 131.546  20.643  1.00  0.00     0.166 A 
ATOM     17  C   UNL     1      45.392 131.106  19.408  1.00  0.00     0.059 A 
ATOM     18  C   UNL     1      43.582 132.062  20.703  1.00  0.00     0.168 A 
ATOM     19  C   UNL     1      44.637 131.228  18.229  1.00  0.00    -0.010 A 
ATOM     20  C   UNL     1      42.806 132.175  19.540  1.00  0.00    -0.011 A 
ATOM     21  C   UNL     1      43.335 131.755  18.310  1.00  0.00     0.015 A 
ATOM     22  F   UNL     1      43.080 132.462  21.900  1.00  0.00    -0.203 F 
ATOM     23  C   UNL     1      41.405 132.712  19.619  1.00  0.00     0.048 C 
BRANCH  19  24
ATOM     24  C   UNL     1      45.214 130.841  16.912  1.00  0.00     0.032 A 
ATOM     25  C   UNL     1      46.450 130.153  16.825  1.00  0.00     0.013 A 
ATOM     26  C   UNL     1      44.562 131.111  15.699  1.00  0.00     0.212 A 
ATOM     27  C   UNL     1      46.986 129.777  15.573  1.00  0.00     0.008 A 
ATOM     28  C   UNL     1      45.082 130.737  14.494  1.00  0.00     0.249 A 
ATOM     29  O   UNL     1      43.425 131.729  15.486  1.00  0.00    -0.403 OA
ATOM     30  C   UNL     1      46.298 130.071  14.384  1.00  0.00     0.083 A 
ATOM     31  N   UNL     1      44.251 131.118  13.514  1.00  0.00    -0.176 N 
ATOM     32  C   UNL     1      43.239 131.728  14.176  1.00  0.00     0.521 A 
ATOM     33  H   UNL     1      44.357 130.979  12.485  1.00  0.00     0.457 HD
ENDBRANCH  19  24
ENDBRANCH  15  16
ENDBRANCH  14  15
BRANCH  14  34
ATOM     34  S   UNL     1      44.623 131.777  24.372  1.00  0.00    -0.084 SA
ATOM     35  H   UNL     1      44.995 130.440  24.141  1.00  0.00     0.113 HD
ENDBRANCH  14  34
ENDBRANCH   1  14
TORSDOF 10
ENDMDL
MODEL 3
REMARK VINA RESULT:      -2.3      4.532      6.313
REMARK SMILES Cc1cc(-c2cccc3[nH+]coc23)cc(O/C(S)=N\C(O)=C/Oc2ccc(Cl)cc2)c1F
REMARK SMILES IDX 19 1 20 2 21 3 22 5 23 6 24 7 25 8 30 9 26 10 29 11 27 12
REMARK SMILES IDX 28 13 17 14 16 15 15 16 14 17 31 18 4 19 2 20 3 21 32 22
REMARK SMILES IDX 1 23 5 24 6 25 13 26 7 27 9 28 12 29 8 30 10 31 11 32 18 34
REMARK H PARENT 21 4 10 33 18 35
ROOT
ATOM      1  N   UNL     1      46.386 131.044  19.944  1.00  0.00    -0.169 NA
ENDROOT
BRANCH   1   2
ATOM      2  C   UNL     1      47.101 131.975  20.766  1.00  0.00     0.251 C 
BRANCH   2   3
ATOM      3  O   UNL     1      48.489 131.907  20.869  1.00  0.00    -0.491 OA
ATOM      4  H   UNL     1      49.039 132.728  21.093  1.00  0.00     0.295 HD
ENDBRANCH   2   3
BRANCH   2   5
ATOM      5  C   UNL     1      46.438 132.907  21.446  1.00  0.00     0.263 C 
BRANCH   5   6
ATOM      6  O   UNL     1      46.910 134.224  21.459  1.00  0.00    -0.459 OA
BRANCH   6   7
ATOM      7  C   UNL     1      48.149 134.641  21.968  1.00  0.00     0.126 A 
ATOM      8  C   UNL     1      48.821 135.670  21.298  1.00  0.00     0.048 A 
ATOM      9  C   UNL     1      48.723 134.093  23.134  1.00  0.00     0.048 A 
ATOM     10  C   UNL     1      50.048 136.145  21.771  1.00  0.00     0.024 A 
ATOM     11  C   UNL     1      49.955 134.564  23.600  1.00  0.00     0.024 A 
ATOM     12  C   UNL     1      50.617 135.590  22.920  1.00  0.00     0.041 A 
ATOM     13  Cl  UNL     1      52.148 136.196  23.523  1.00  0.00    -0.084 Cl
ENDBRANCH   6   7
ENDBRANCH   5   6
ENDBRANCH   2   5
ENDBRANCH   1   2
BRANCH   1  14
ATOM     14  C   UNL     1      45.206 131.253  19.436  1.00  0.00     0.256 C 
BRANCH  14  15
ATOM     15  O   UNL     1      44.073 131.469  20.234  1.00  0.00    -0.431 OA
BRANCH  15  16
ATOM     16  C   UNL     1      43.790 130.787  21.430  1.00  0.00     0.166 A 
ATOM     17  C   UNL     1      44.359 129.535  21.729  1.00  0.00     0.059 A 
ATOM     18  C   UNL     1      42.931 131.389  22.355  1.00  0.00     0.168 A 
ATOM     19  C   UNL     1      44.034 128.859  22.918  1.00  0.00    -0.010 A 
ATOM     20  C   UNL     1      42.609 130.738  23.556  1.00  0.00    -0.011 A 
ATOM     21  C   UNL     1      43.164 129.479  23.832  1.00  0.00     0.015 A 
ATOM     22  F   UNL     1      42.404 132.609  22.078  1.00  0.00    -0.203 F 
ATOM     23  C   UNL     1      41.703 131.403  24.552  1.00  0.00     0.048 C 
BRANCH  19  24
ATOM     24  C   UNL     1      44.570 127.498  23.190  1.00  0.00     0.032 A 
ATOM     25  C   UNL     1      45.966 127.256  23.251  1.00  0.00     0.013 A 
ATOM     26  C   UNL     1      43.735 126.394  23.424  1.00  0.00     0.212 A 
ATOM     27  C   UNL     1      46.469 125.964  23.523  1.00  0.00     0.008 A 
ATOM     28  C   UNL     1      44.228 125.152  23.695  1.00  0.00     0.249 A 
ATOM     29  O   UNL     1      42.424 126.330  23.424  1.00  0.00    -0.403 OA
ATOM     30  C   UNL     1      45.592 124.889  23.748  1.00  0.00     0.083 A 
ATOM     31  N   UNL     1      43.209 124.300  23.877  1.00  0.00    -0.176 N 
ATOM     32  C   UNL     1      42.112 125.074  23.700  1.00  0.00     0.521 A 
ATOM     33  H   UNL     1      43.250 123.281  24.102  1.00  0.00     0.457 HD
ENDBRANCH  19  24
ENDBRANCH  15  16
ENDBRANCH  14  15
BRANCH  14  34
ATOM     34  S   UNL     1      45.021 131.274  17.661  1.00  0.00    -0.084 SA
ATOM     35  H   UNL     1      43.764 131.898  17.747  1.00  0.00     0.113 HD
ENDBRANCH  14  34
ENDBRANCH   1  14
TORSDOF 10
ENDMDL
MODEL 4
REMARK VINA RESULT:      -1.9      2.462      3.039
REMARK SMILES Cc1cc(-c2cccc3[nH+]coc23)cc(O/C(S)=N\C(O)=C/Oc2ccc(Cl)cc2)c1F
REMARK SMILES IDX 19 1 20 2 21 3 22 5 23 6 24 7 25 8 30 9 26 10 29 11 27 12
REMARK SMILES IDX 28 13 17 14 16 15 15 16 14 17 31 18 4 19 2 20 3 21 32 22
REMARK SMILES IDX 1 23 5 24 6 25 13 26 7 27 9 28 12 29 8 30 10 31 11 32 18 34
REMARK H PARENT 21 4 10 33 18 35
ROOT
ATOM      1  N   UNL     1      45.095 131.975  23.045  1.00  0.00    -0.169 NA
ENDROOT
BRANCH   1   2
ATOM      2  C   UNL     1      45.929 132.894  22.329  1.00  0.00     0.251 C 
BRANCH   2   3
ATOM      3  O   UNL     1      45.616 133.263  21.022  1.00  0.00    -0.491 OA
ATOM      4  H   UNL     1      44.901 132.774  20.496  1.00  0.00     0.295 HD
ENDBRANCH   2   3
BRANCH   2   5
ATOM      5  C   UNL     1      47.017 133.395  22.907  1.00  0.00     0.263 C 
BRANCH   5   6
ATOM      6  O   UNL     1      48.158 133.648  22.139  1.00  0.00    -0.459 OA
BRANCH   6   7
ATOM      7  C   UNL     1      49.120 134.633  22.408  1.00  0.00     0.126 A 
ATOM      8  C   UNL     1      49.832 134.544  23.611  1.00  0.00     0.048 A 
ATOM      9  C   UNL     1      49.420 135.679  21.511  1.00  0.00     0.048 A 
ATOM     10  C   UNL     1      50.819 135.483  23.925  1.00  0.00     0.024 A 
ATOM     11  C   UNL     1      50.402 136.622  21.831  1.00  0.00     0.024 A 
ATOM     12  C   UNL     1      51.103 136.524  23.037  1.00  0.00     0.041 A 
ATOM     13  Cl  UNL     1      52.353 137.691  23.422  1.00  0.00    -0.084 Cl
ENDBRANCH   6   7
ENDBRANCH   5   6
ENDBRANCH   2   5
ENDBRANCH   1   2
BRANCH   1  14
ATOM     14  C   UNL     1      44.779 130.782  22.634  1.00  0.00     0.256 C 
BRANCH  14  15
ATOM     15  O   UNL     1      45.124 130.311  21.358  1.00  0.00    -0.431 OA
BRANCH  15  16
ATOM     16  C   UNL     1      44.574 130.781  20.153  1.00  0.00     0.166 A 
ATOM     17  C   UNL     1      45.279 130.725  18.937  1.00  0.00     0.059 A 
ATOM     18  C   UNL     1      43.275 131.301  20.169  1.00  0.00     0.168 A 
ATOM     19  C   UNL     1      44.718 131.232  17.752  1.00  0.00    -0.010 A 
ATOM     20  C   UNL     1      42.691 131.795  18.993  1.00  0.00    -0.011 A 
ATOM     21  C   UNL     1      43.413 131.756  17.791  1.00  0.00     0.015 A 
ATOM     22  F   UNL     1      42.585 131.330  21.338  1.00  0.00    -0.203 F 
ATOM     23  C   UNL     1      41.288 132.331  19.018  1.00  0.00     0.048 C 
BRANCH  19  24
ATOM     24  C   UNL     1      45.501 131.250  16.486  1.00  0.00     0.032 A 
ATOM     25  C   UNL     1      45.924 132.470  15.900  1.00  0.00     0.013 A 
ATOM     26  C   UNL     1      45.881 130.073  15.821  1.00  0.00     0.212 A 
ATOM     27  C   UNL     1      46.678 132.479  14.705  1.00  0.00     0.008 A 
ATOM     28  C   UNL     1      46.616 130.091  14.673  1.00  0.00     0.249 A 
ATOM     29  O   UNL     1      45.626 128.824  16.132  1.00  0.00    -0.403 OA
ATOM     30  C   UNL     1      47.032 131.274  14.074  1.00  0.00     0.083 A 
ATOM     31  N   UNL     1      46.833 128.832  14.266  1.00  0.00    -0.176 N 
ATOM     32  C   UNL     1      46.201 128.083  15.200  1.00  0.00     0.521 A 
ATOM     33  H   UNL     1      47.362 128.505  13.427  1.00  0.00     0.457 HD
ENDBRANCH  19  24
ENDBRANCH  15  16
ENDBRANCH  14  15
BRANCH  14  34
ATOM     34  S   UNL     1      43.879 129.700  23.731  1.00  0.00    -0.084 SA
ATOM     35  H   UNL     1      44.455 128.552  23.157  1.00  0.00     0.113 HD
ENDBRANCH  14  34
ENDBRANCH   1  14
TORSDOF 10
ENDMDL
MODEL 5
REMARK VINA RESULT:      -1.1      6.868      8.842
REMARK SMILES Cc1cc(-c2cccc3[nH+]coc23)cc(O/C(S)=N\C(O)=C/Oc2ccc(Cl)cc2)c1F
REMARK SMILES IDX 19 1 20 2 21 3 22 5 23 6 24 7 25 8 30 9 26 10 29 11 27 12
REMARK SMILES IDX 28 13 17 14 16 15 15 16 14 17 31 18 4 19 2 20 3 21 32 22
REMARK SMILES IDX 1 23 5 24 6 25 13 26 7 27 9 28 12 29 8 30 10 31 11 32 18 34
REMARK H PARENT 21 4 10 33 18 35
ROOT
ATOM      1  N   UNL     1      44.161 129.475  22.695  1.00  0.00    -0.169 NA
ENDROOT
BRANCH   1   2
ATOM      2  C   UNL     1      43.914 130.573  21.807  1.00  0.00     0.251 C 
BRANCH   2   3
ATOM      3  O   UNL     1      42.619 130.858  21.379  1.00  0.00    -0.491 OA
ATOM      4  H   UNL     1      41.815 130.412  21.805  1.00  0.00     0.295 HD
ENDBRANCH   2   3
BRANCH   2   5
ATOM      5  C   UNL     1      44.926 131.322  21.378  1.00  0.00     0.263 C 
BRANCH   5   6
ATOM      6  O   UNL     1      45.597 130.973  20.201  1.00  0.00    -0.459 OA
BRANCH   6   7
ATOM      7  C   UNL     1      45.082 131.099  18.902  1.00  0.00     0.126 A 
ATOM      8  C   UNL     1      43.764 131.549  18.759  1.00  0.00     0.048 A 
ATOM      9  C   UNL     1      45.842 130.827  17.745  1.00  0.00     0.048 A 
ATOM     10  C   UNL     1      43.203 131.718  17.489  1.00  0.00     0.024 A 
ATOM     11  C   UNL     1      45.276 130.988  16.477  1.00  0.00     0.024 A 
ATOM     12  C   UNL     1      43.958 131.434  16.348  1.00  0.00     0.041 A 
ATOM     13  Cl  UNL     1      43.260 131.662  14.755  1.00  0.00    -0.084 Cl
ENDBRANCH   6   7
ENDBRANCH   5   6
ENDBRANCH   2   5
ENDBRANCH   1   2
BRANCH   1  14
ATOM     14  C   UNL     1      44.668 128.331  22.340  1.00  0.00     0.256 C 
BRANCH  14  15
ATOM     15  O   UNL     1      45.857 127.832  22.893  1.00  0.00    -0.431 OA
BRANCH  15  16
ATOM     16  C   UNL     1      46.086 126.484  23.221  1.00  0.00     0.166 A 
ATOM     17  C   UNL     1      47.350 125.884  23.077  1.00  0.00     0.059 A 
ATOM     18  C   UNL     1      45.022 125.730  23.726  1.00  0.00     0.168 A 
ATOM     19  C   UNL     1      47.544 124.526  23.381  1.00  0.00    -0.010 A 
ATOM     20  C   UNL     1      45.200 124.377  24.053  1.00  0.00    -0.011 A 
ATOM     21  C   UNL     1      46.460 123.783  23.882  1.00  0.00     0.015 A 
ATOM     22  F   UNL     1      43.809 126.317  23.890  1.00  0.00    -0.203 F 
ATOM     23  C   UNL     1      44.056 123.582  24.614  1.00  0.00     0.048 C 
BRANCH  19  24
ATOM     24  C   UNL     1      48.861 123.873  23.146  1.00  0.00     0.032 A 
ATOM     25  C   UNL     1      49.686 123.472  24.227  1.00  0.00     0.013 A 
ATOM     26  C   UNL     1      49.344 123.599  21.857  1.00  0.00     0.212 A 
ATOM     27  C   UNL     1      50.930 122.841  23.997  1.00  0.00     0.008 A 
ATOM     28  C   UNL     1      50.541 122.981  21.643  1.00  0.00     0.249 A 
ATOM     29  O   UNL     1      48.798 123.860  20.693  1.00  0.00    -0.403 OA
ATOM     30  C   UNL     1      51.372 122.589  22.687  1.00  0.00     0.083 A 
ATOM     31  N   UNL     1      50.742 122.846  20.325  1.00  0.00    -0.176 N 
ATOM     32  C   UNL     1      49.637 123.405  19.776  1.00  0.00     0.521 A 
ATOM     33  H   UNL     1      51.556 122.414  19.835  1.00  0.00     0.457 HD
ENDBRANCH  19  24
ENDBRANCH  15  16
ENDBRANCH  14  15
BRANCH  14  34
ATOM     34  S   UNL     1      43.821 127.356  21.109  1.00  0.00    -0.084 SA
ATOM     35  H   UNL     1      45.020 126.760  20.679  1.00  0.00     0.113 HD
ENDBRANCH  14  34
ENDBRANCH   1  14
TORSDOF 10
ENDMDL


