REMARK SMILES Cc1cc(N)c(Nc2ccc3cc[nH]c3c2O)cc1F
REMARK SMILES IDX 7 1 6 3 2 4 3 5 19 6 4 7 18 8 1 9 20 10 5 11 8 14 9 15 16 16
REMARK SMILES IDX 10 17 15 18 11 19 14 20 12 21 13 22 17 24
REMARK H PARENT 7 2 5 12 5 13 14 23 17 25
ROOT
ATOM      1  N   UNL     1      -0.054  -1.241  -0.494  1.00  0.00    -0.351 N 
ATOM      2  H   UNL     1       0.067  -2.102  -1.073  1.00  0.00     0.167 HD
ENDROOT
BRANCH   1   3
ATOM      3  C   UNL     1      -1.397  -0.777  -0.277  1.00  0.00     0.065 A 
ATOM      4  C   UNL     1      -4.021   0.195   0.039  1.00  0.00    -0.013 A 
ATOM      5  C   UNL     1      -3.126   0.211   1.119  1.00  0.00     0.034 A 
ATOM      6  C   UNL     1      -3.611  -0.351  -1.186  1.00  0.00     0.128 A 
ATOM      7  C   UNL     1      -1.820  -0.280   0.977  1.00  0.00     0.056 A 
ATOM      8  C   UNL     1      -2.309  -0.831  -1.340  1.00  0.00     0.067 A 
ATOM      9  C   UNL     1      -5.428   0.690   0.214  1.00  0.00     0.047 C 
ATOM     10  F   UNL     1      -4.470  -0.413  -2.236  1.00  0.00    -0.207 F 
BRANCH   7  11
ATOM     11  N   UNL     1      -0.959  -0.313   2.123  1.00  0.00    -0.397 N 
ATOM     12  H   UNL     1      -0.058  -0.838   2.120  1.00  0.00     0.156 HD
ATOM     13  H   UNL     1      -1.259   0.122   3.024  1.00  0.00     0.156 HD
ENDBRANCH   7  11
ENDBRANCH   1   3
BRANCH   1  14
ATOM     14  C   UNL     1       1.112  -0.442  -0.218  1.00  0.00     0.083 A 
ATOM     15  C   UNL     1       1.027   0.978  -0.234  1.00  0.00     0.031 A 
ATOM     16  C   UNL     1       2.365  -1.062   0.036  1.00  0.00     0.163 A 
ATOM     17  C   UNL     1       2.162   1.772  -0.003  1.00  0.00     0.013 A 
ATOM     18  C   UNL     1       3.471  -0.238   0.251  1.00  0.00     0.090 A 
ATOM     19  C   UNL     1       3.370   1.127   0.234  1.00  0.00     0.003 A 
ATOM     20  N   UNL     1       4.735  -0.616   0.508  1.00  0.00    -0.358 N 
ATOM     21  C   UNL     1       4.623   1.639   0.487  1.00  0.00     0.028 A 
ATOM     22  C   UNL     1       5.443   0.528   0.652  1.00  0.00     0.083 A 
ATOM     23  H   UNL     1       5.102  -1.590   0.583  1.00  0.00     0.166 HD
BRANCH  16  24
ATOM     24  O   UNL     1       2.519  -2.448   0.100  1.00  0.00    -0.504 OA
ATOM     25  H   UNL     1       1.741  -3.091   0.027  1.00  0.00     0.293 HD
ENDBRANCH  16  24
ENDBRANCH   1  14
TORSDOF 4


