REMARK SMILES O=C1c2cc(-c3ccc4[nH]ccc4c3)c[nH+]c2C/[N+]1=C(\O)OCCOCC(F)(F)F
REMARK SMILES IDX 23 1 22 2 20 3 21 4 19 6 2 7 18 8 3 9 17 10 4 11 16 12 5 13
REMARK SMILES IDX 15 14 1 15 6 17 7 18 14 19 8 20 13 21 9 22 12 23 10 24 11 25
REMARK SMILES IDX 24 27 25 28 26 29 27 30 28 31 29 32 30 33
REMARK H PARENT 21 5 16 16 10 26
ROOT
ATOM      1  C   UNL     1      -2.946  -2.002   3.222  1.00  0.00     0.268 C 
ENDROOT
BRANCH   1   2
ATOM      2  O   UNL     1      -2.132  -1.903   2.059  1.00  0.00    -0.412 OA
BRANCH   2   3
ATOM      3  C   UNL     1      -1.262  -2.922   1.661  1.00  0.00     0.556 C 
BRANCH   3   4
ATOM      4  O   UNL     1      -1.202  -4.098   2.415  1.00  0.00    -0.430 OA
ATOM      5  H   UNL     1      -0.591  -4.870   2.185  1.00  0.00     0.303 HD
ENDBRANCH   3   4
BRANCH   3   6
ATOM      6  N   UNL     1      -0.521  -2.767   0.596  1.00  0.00    -0.078 N 
ATOM      7  C   UNL     1      -0.488  -1.610  -0.247  1.00  0.00     0.432 C 
ATOM      8  C   UNL     1       0.426  -3.757   0.056  1.00  0.00     0.477 C 
ATOM      9  C   UNL     1       0.450  -1.820  -1.321  1.00  0.00     0.165 A 
ATOM     10  C   UNL     1       0.984  -3.071  -1.156  1.00  0.00     0.264 A 
ATOM     11  C   UNL     1       0.826  -1.006  -2.383  1.00  0.00     0.041 A 
ATOM     12  N   UNL     1       1.900  -3.565  -2.027  1.00  0.00    -0.208 N 
ATOM     13  C   UNL     1       1.777  -1.506  -3.298  1.00  0.00     0.047 A 
ATOM     14  C   UNL     1       2.303  -2.808  -3.092  1.00  0.00     0.315 A 
ATOM     15  O   UNL     1      -1.175  -0.568  -0.073  1.00  0.00    -0.214 OA
ATOM     16  H   UNL     1       2.297  -4.520  -1.885  1.00  0.00     0.453 HD
BRANCH  13  17
ATOM     17  C   UNL     1       2.222  -0.684  -4.450  1.00  0.00    -0.012 A 
ATOM     18  C   UNL     1       2.409  -1.279  -5.728  1.00  0.00     0.011 A 
ATOM     19  C   UNL     1       2.470   0.700  -4.285  1.00  0.00     0.019 A 
ATOM     20  C   UNL     1       2.838  -0.511  -6.825  1.00  0.00     0.027 A 
ATOM     21  C   UNL     1       2.898   1.427  -5.392  1.00  0.00    -0.000 A 
ATOM     22  C   UNL     1       3.075   0.845  -6.618  1.00  0.00     0.045 A 
ATOM     23  C   UNL     1       3.214   2.761  -5.521  1.00  0.00     0.028 A 
ATOM     24  N   UNL     1       3.487   1.748  -7.522  1.00  0.00    -0.361 N 
ATOM     25  C   UNL     1       3.574   2.922  -6.856  1.00  0.00     0.083 A 
ATOM     26  H   UNL     1       3.699   1.583  -8.531  1.00  0.00     0.166 HD
ENDBRANCH  13  17
ENDBRANCH   3   6
ENDBRANCH   2   3
ENDBRANCH   1   2
BRANCH   1  27
ATOM     27  C   UNL     1      -3.800  -0.749   3.358  1.00  0.00     0.202 C 
BRANCH  27  28
ATOM     28  O   UNL     1      -2.959   0.377   3.493  1.00  0.00    -0.368 OA
BRANCH  28  29
ATOM     29  C   UNL     1      -3.748   1.546   3.570  1.00  0.00     0.275 C 
BRANCH  29  30
ATOM     30  C   UNL     1      -2.843   2.751   3.803  1.00  0.00     0.411 C 
ATOM     31  F   UNL     1      -1.942   2.876   2.759  1.00  0.00    -0.168 F 
ATOM     32  F   UNL     1      -3.609   3.900   3.880  1.00  0.00    -0.168 F 
ATOM     33  F   UNL     1      -2.145   2.592   4.989  1.00  0.00    -0.168 F 
ENDBRANCH  29  30
ENDBRANCH  28  29
ENDBRANCH  27  28
ENDBRANCH   1  27
TORSDOF 9


