REMARK SMILES CC1=CCC=C[C@H]1C(=O)Oc1c(C)c(F)c([NH2+]N)c([O-])c1-n1nc2ccccc2n1
REMARK SMILES IDX 11 1 12 2 13 3 14 4 15 5 16 6 19 7 20 8 21 9 10 10 8 11 9 12
REMARK SMILES IDX 7 13 2 14 3 15 4 16 6 17 5 18 1 19 22 20 23 21 30 22 24 23
REMARK SMILES IDX 29 24 25 25 28 26 26 27 27 28 17 29 18 32
REMARK H PARENT 17 30 17 31 18 33 18 34
ROOT
ATOM      1  C   UNL     1       0.184  -1.631   0.034  1.00  0.00     0.164 A 
ATOM      2  C   UNL     1       0.498  -2.991  -0.162  1.00  0.00     0.036 A 
ATOM      3  C   UNL     1       1.866  -3.403  -0.639  1.00  0.00     0.052 C 
ATOM      4  C   UNL     1      -0.494  -3.966   0.037  1.00  0.00     0.191 A 
ATOM      5  F   UNL     1      -0.214  -5.271  -0.215  1.00  0.00    -0.200 F 
ATOM      6  C   UNL     1      -1.775  -3.602   0.489  1.00  0.00     0.179 A 
ATOM      7  C   UNL     1      -2.071  -2.243   0.709  1.00  0.00    -0.008 A 
ATOM      8  O   UNL     1      -3.339  -1.877   1.151  1.00  0.00    -0.867 OA
ATOM      9  C   UNL     1      -1.092  -1.256   0.495  1.00  0.00     0.127 A 
ENDROOT
BRANCH   1  10
ATOM     10  O   UNL     1       1.127  -0.637  -0.244  1.00  0.00    -0.423 OA
BRANCH  10  11
ATOM     11  C   UNL     1       1.489  -0.285  -1.549  1.00  0.00     0.322 C 
ATOM     12  O   UNL     1       0.938  -0.839  -2.540  1.00  0.00    -0.251 OA
BRANCH  11  13
ATOM     13  C   UNL     1       2.514   0.785  -1.770  1.00  0.00     0.147 C 
ATOM     14  C   UNL     1       2.000   2.110  -1.234  1.00  0.00    -0.059 C 
ATOM     15  C   UNL     1       2.390   2.564  -0.027  1.00  0.00    -0.023 C 
ATOM     16  C   UNL     1       3.299   1.758   0.865  1.00  0.00     0.054 C 
ATOM     17  C   UNL     1       3.821   0.376  -1.130  1.00  0.00    -0.012 C 
ATOM     18  C   UNL     1       4.186   0.832   0.076  1.00  0.00    -0.026 C 
ATOM     19  C   UNL     1       1.006   2.906  -2.035  1.00  0.00     0.040 C 
ENDBRANCH  11  13
ENDBRANCH  10  11
ENDBRANCH   1  10
BRANCH   9  20
ATOM     20  N   UNL     1      -1.397   0.132   0.716  1.00  0.00    -0.147 N 
ATOM     21  N   UNL     1      -2.571   0.687   0.414  1.00  0.00    -0.148 NA
ATOM     22  N   UNL     1      -0.530   1.003   1.233  1.00  0.00    -0.148 NA
ATOM     23  C   UNL     1      -2.439   1.976   0.758  1.00  0.00     0.113 A 
ATOM     24  C   UNL     1      -1.190   2.169   1.261  1.00  0.00     0.113 A 
ATOM     25  C   UNL     1      -3.364   3.010   0.650  1.00  0.00     0.032 A 
ATOM     26  C   UNL     1      -0.754   3.411   1.710  1.00  0.00     0.032 A 
ATOM     27  C   UNL     1      -2.959   4.287   1.088  1.00  0.00     0.002 A 
ATOM     28  C   UNL     1      -1.660   4.486   1.617  1.00  0.00     0.002 A 
ENDBRANCH   9  20
BRANCH   6  29
ATOM     29  N   UNL     1      -2.794  -4.608   0.674  1.00  0.00    -0.237 N 
ATOM     30  H   UNL     1      -3.403  -4.360   1.488  1.00  0.00     0.376 HD
ATOM     31  H   UNL     1      -2.376  -5.551   0.859  1.00  0.00     0.376 HD
BRANCH  29  32
ATOM     32  N   UNL     1      -3.587  -4.664  -0.490  1.00  0.00    -0.178 NA
ATOM     33  H   UNL     1      -3.030  -5.126  -1.248  1.00  0.00     0.183 HD
ATOM     34  H   UNL     1      -4.399  -5.294  -0.296  1.00  0.00     0.183 HD
ENDBRANCH  29  32
ENDBRANCH   6  29
TORSDOF 6


