REMARK SMILES CC(=O)c1cc(-c2ccc(C)cc2)c(/C(O)=N/[C@@H]2C=CCC2)c(F)c1[O-]
REMARK SMILES IDX 14 1 23 2 24 3 25 4 26 5 4 6 5 7 6 8 15 9 16 10 17 12 18 13
REMARK SMILES IDX 19 14 22 15 20 16 21 17 7 18 8 19 13 20 9 21 12 22 10 23
REMARK SMILES IDX 11 24 2 25 3 26 1 27
REMARK H PARENT 16 11
ROOT
ATOM      1  C   UNL     1       1.272   2.481   0.599  1.00  0.00     0.079 A 
ATOM      2  C   UNL     1       1.606   3.802   0.254  1.00  0.00     0.129 A 
ATOM      3  F   UNL     1       1.882   4.716   1.220  1.00  0.00    -0.207 F 
ATOM      4  C   UNL     1       1.718   4.185  -1.087  1.00  0.00    -0.060 A 
ATOM      5  O   UNL     1       2.071   5.500  -1.376  1.00  0.00    -0.870 OA
ATOM      6  C   UNL     1       1.497   3.251  -2.121  1.00  0.00     0.013 A 
ATOM      7  C   UNL     1       1.163   1.929  -1.773  1.00  0.00     0.021 A 
ATOM      8  C   UNL     1       1.040   1.538  -0.431  1.00  0.00    -0.002 A 
ENDROOT
BRANCH   1   9
ATOM      9  C   UNL     1       1.231   2.093   2.031  1.00  0.00     0.217 C 
BRANCH   9  10
ATOM     10  O   UNL     1       0.592   2.908   2.968  1.00  0.00    -0.493 OA
ATOM     11  H   UNL     1       0.080   3.736   2.690  1.00  0.00     0.295 HD
ENDBRANCH   9  10
BRANCH   9  12
ATOM     12  N   UNL     1       1.794   0.984   2.409  1.00  0.00    -0.244 NA
BRANCH  12  13
ATOM     13  C   UNL     1       1.804   0.489   3.783  1.00  0.00     0.132 C 
ATOM     14  C   UNL     1       2.664  -0.721   3.856  1.00  0.00    -0.005 C 
ATOM     15  C   UNL     1       0.414  -0.014   4.216  1.00  0.00     0.036 C 
ATOM     16  C   UNL     1       1.984  -1.808   4.173  1.00  0.00    -0.029 C 
ATOM     17  C   UNL     1       0.541  -1.531   4.385  1.00  0.00     0.029 C 
ENDBRANCH  12  13
ENDBRANCH   9  12
ENDBRANCH   1   9
BRANCH   8  18
ATOM     18  C   UNL     1       0.630   0.146  -0.138  1.00  0.00    -0.017 A 
ATOM     19  C   UNL     1       1.439  -0.928  -0.539  1.00  0.00     0.009 A 
ATOM     20  C   UNL     1      -0.564  -0.111   0.553  1.00  0.00     0.009 A 
ATOM     21  C   UNL     1       1.076  -2.240  -0.222  1.00  0.00     0.004 A 
ATOM     22  C   UNL     1      -0.929  -1.423   0.866  1.00  0.00     0.004 A 
ATOM     23  C   UNL     1      -0.100  -2.494   0.501  1.00  0.00    -0.051 A 
ATOM     24  C   UNL     1      -0.500  -3.903   0.822  1.00  0.00     0.044 C 
ENDBRANCH   8  18
BRANCH   6  25
ATOM     25  C   UNL     1       1.607   3.645  -3.554  1.00  0.00     0.159 C 
ATOM     26  O   UNL     1       1.558   4.862  -3.881  1.00  0.00    -0.295 OA
ATOM     27  C   UNL     1       1.741   2.625  -4.645  1.00  0.00     0.093 C 
ENDBRANCH   6  25
TORSDOF 6


