REMARK SMILES CC(=O)c1ccc(-c2nccc(C)c2F)c2cn[nH]c12
REMARK SMILES IDX 4 1 5 2 6 3 7 4 16 5 17 6 18 7 19 8 20 9 2 11 1 12 3 13 8 14
REMARK SMILES IDX 9 15 14 16 10 17 12 18 11 19 15 20 13 21
REMARK H PARENT 19 10
ROOT
ATOM      1  C   UNL     1      -2.250   0.179   1.406  1.00  0.00     0.043 A 
ATOM      2  C   UNL     1      -1.883   0.016   0.049  1.00  0.00     0.015 A 
ATOM      3  C   UNL     1      -0.538   0.128  -0.363  1.00  0.00     0.012 A 
ATOM      4  C   UNL     1       0.485   0.399   0.570  1.00  0.00     0.014 A 
ATOM      5  C   UNL     1       0.097   0.559   1.906  1.00  0.00     0.030 A 
ATOM      6  C   UNL     1       0.823   0.778   3.060  1.00  0.00     0.144 A 
ATOM      7  N   UNL     1      -0.033   0.792   4.107  1.00  0.00    -0.183 NA
ATOM      8  N   UNL     1      -1.262   0.593   3.649  1.00  0.00    -0.277 N 
ATOM      9  C   UNL     1      -1.208   0.450   2.311  1.00  0.00     0.076 A 
ATOM     10  H   UNL     1      -2.102   0.532   4.264  1.00  0.00     0.190 HD
ENDROOT
BRANCH   1  11
ATOM     11  C   UNL     1      -3.671   0.084   1.826  1.00  0.00     0.161 C 
ATOM     12  C   UNL     1      -4.671  -0.691   1.023  1.00  0.00     0.093 C 
ATOM     13  O   UNL     1      -4.072   0.707   2.845  1.00  0.00    -0.294 OA
ENDBRANCH   1  11
BRANCH   4  14
ATOM     14  C   UNL     1       1.897   0.540   0.146  1.00  0.00     0.107 A 
ATOM     15  N   UNL     1       2.641   1.564   0.648  1.00  0.00    -0.253 NA
ATOM     16  C   UNL     1       2.486  -0.360  -0.761  1.00  0.00     0.152 A 
ATOM     17  C   UNL     1       3.940   1.754   0.299  1.00  0.00     0.112 A 
ATOM     18  C   UNL     1       3.824  -0.176  -1.149  1.00  0.00    -0.012 A 
ATOM     19  C   UNL     1       4.556   0.887  -0.604  1.00  0.00     0.026 A 
ATOM     20  F   UNL     1       1.786  -1.426  -1.232  1.00  0.00    -0.204 F 
ATOM     21  C   UNL     1       4.480  -1.144  -2.090  1.00  0.00     0.047 C 
ENDBRANCH   4  14
TORSDOF 2


