REMARK SMILES C#CCOCn1nc2cc(-c3c[nH+]c(F)cc3C)ccc2c1C
REMARK SMILES IDX 4 1 3 2 2 3 1 4 5 5 6 6 7 7 22 8 8 9 21 10 9 11 20 12 10 13
REMARK SMILES IDX 19 14 23 15 11 16 12 17 17 18 13 19 16 20 14 21 18 22 15 24
REMARK H PARENT 13 23
ROOT
ATOM      1  O   UNL     1       0.939  -2.586   3.382  1.00  0.00    -0.347 OA
ENDROOT
BRANCH   1   2
ATOM      2  C   UNL     1       2.119  -1.813   3.323  1.00  0.00     0.251 C 
BRANCH   2   3
ATOM      3  C   UNL     1       3.271  -2.714   3.299  1.00  0.00    -0.078 C 
ATOM      4  C   UNL     1       4.221  -3.456   3.278  1.00  0.00     0.006 C 
ENDBRANCH   2   3
ENDBRANCH   1   2
BRANCH   1   5
ATOM      5  C   UNL     1      -0.196  -1.744   3.320  1.00  0.00     0.306 C 
BRANCH   5   6
ATOM      6  N   UNL     1      -0.447  -1.321   1.942  1.00  0.00    -0.243 N 
ATOM      7  N   UNL     1      -0.410  -0.050   1.556  1.00  0.00    -0.170 NA
ATOM      8  C   UNL     1      -0.708  -2.127   0.881  1.00  0.00     0.046 A 
ATOM      9  C   UNL     1      -0.641  -0.045   0.231  1.00  0.00     0.093 A 
ATOM     10  C   UNL     1      -0.821  -1.321  -0.231  1.00  0.00     0.023 A 
ATOM     11  C   UNL     1      -0.679   1.056  -0.620  1.00  0.00     0.039 A 
ATOM     12  C   UNL     1      -1.048  -1.594  -1.578  1.00  0.00     0.013 A 
ATOM     13  C   UNL     1      -0.904   0.823  -1.996  1.00  0.00    -0.010 A 
ATOM     14  C   UNL     1      -1.097  -0.503  -2.465  1.00  0.00     0.010 A 
ATOM     15  C   UNL     1      -0.733  -3.626   0.908  1.00  0.00     0.067 C 
BRANCH  13  16
ATOM     16  C   UNL     1      -0.964   1.965  -2.935  1.00  0.00     0.049 A 
ATOM     17  C   UNL     1      -1.921   2.970  -2.722  1.00  0.00     0.317 A 
ATOM     18  C   UNL     1      -0.085   2.085  -4.038  1.00  0.00    -0.028 A 
ATOM     19  N   UNL     1      -2.023   4.021  -3.579  1.00  0.00    -0.186 N 
ATOM     20  C   UNL     1      -0.232   3.173  -4.910  1.00  0.00     0.118 A 
ATOM     21  C   UNL     1      -1.209   4.137  -4.661  1.00  0.00     0.358 A 
ATOM     22  C   UNL     1       0.994   1.071  -4.313  1.00  0.00     0.045 C 
ATOM     23  H   UNL     1      -2.748   4.752  -3.403  1.00  0.00     0.456 HD
ATOM     24  F   UNL     1      -1.344   5.194  -5.500  1.00  0.00    -0.136 F 
ENDBRANCH  13  16
ENDBRANCH   5   6
ENDBRANCH   1   5
TORSDOF 5


