REMARK SMILES CC(=O)c1ccc(-c2ccc(O)cc2)c2c[nH][nH+]c12
REMARK SMILES IDX 4 1 5 2 6 3 7 4 15 5 16 6 17 7 18 8 19 9 2 12 1 13 3 14 8 15
REMARK SMILES IDX 9 16 14 17 10 18 13 19 11 20 12 21
REMARK H PARENT 17 10 18 11 12 22
ROOT
ATOM      1  C   UNL     1      -1.298  -1.575  -1.985  1.00  0.00     0.092 A 
ATOM      2  C   UNL     1      -0.954  -0.266  -2.390  1.00  0.00     0.019 A 
ATOM      3  C   UNL     1      -0.365   0.644  -1.488  1.00  0.00     0.010 A 
ATOM      4  C   UNL     1      -0.081   0.267  -0.158  1.00  0.00    -0.003 A 
ATOM      5  C   UNL     1      -0.419  -1.041   0.216  1.00  0.00     0.078 A 
ATOM      6  C   UNL     1      -0.286  -1.728   1.409  1.00  0.00     0.163 A 
ATOM      7  N   UNL     1      -0.750  -2.981   1.215  1.00  0.00    -0.174 N 
ATOM      8  N   UNL     1      -1.176  -3.110  -0.034  1.00  0.00    -0.125 N 
ATOM      9  C   UNL     1      -1.000  -1.929  -0.658  1.00  0.00     0.247 A 
ATOM     10  H   UNL     1      -0.770  -3.744   1.926  1.00  0.00     0.238 HD
ATOM     11  H   UNL     1      -1.552  -3.996  -0.433  1.00  0.00     0.488 HD
ENDROOT
BRANCH   1  12
ATOM     12  C   UNL     1      -1.949  -2.491  -2.949  1.00  0.00     0.166 C 
ATOM     13  C   UNL     1      -3.079  -3.391  -2.553  1.00  0.00     0.094 C 
ATOM     14  O   UNL     1      -1.569  -2.493  -4.150  1.00  0.00    -0.294 OA
ENDBRANCH   1  12
BRANCH   4  15
ATOM     15  C   UNL     1       0.556   1.220   0.778  1.00  0.00    -0.017 A 
ATOM     16  C   UNL     1       0.048   2.523   0.915  1.00  0.00     0.012 A 
ATOM     17  C   UNL     1       1.693   0.848   1.517  1.00  0.00     0.012 A 
ATOM     18  C   UNL     1       0.653   3.430   1.790  1.00  0.00     0.047 A 
ATOM     19  C   UNL     1       2.297   1.757   2.391  1.00  0.00     0.047 A 
ATOM     20  C   UNL     1       1.779   3.048   2.531  1.00  0.00     0.115 A 
BRANCH  20  21
ATOM     21  O   UNL     1       2.391   3.943   3.406  1.00  0.00    -0.508 OA
ATOM     22  H   UNL     1       2.040   4.886   3.530  1.00  0.00     0.293 HD
ENDBRANCH  20  21
ENDBRANCH   4  15
TORSDOF 3


