REMARK SMILES [O-]C(CCc1c(F)c(-c2c[nH]c3nccc-3c2)c(F)c2[nH]ccc12)=C1CCC1
REMARK SMILES IDX 4 1 3 2 2 3 1 4 25 5 26 6 28 7 27 8 5 9 6 10 24 11 8 12
REMARK SMILES IDX 23 13 20 14 18 15 22 16 21 17 7 18 19 19 9 21 10 22 17 23
REMARK SMILES IDX 11 24 16 25 12 26 15 27 13 28 14 29
REMARK H PARENT 21 20 11 30
ROOT
ATOM      1  C   UNL     1      -1.411   1.906  -2.393  1.00  0.00     0.043 C 
ENDROOT
BRANCH   1   2
ATOM      2  C   UNL     1      -2.835   1.349  -2.250  1.00  0.00     0.023 C 
BRANCH   2   3
ATOM      3  C   UNL     1      -2.840  -0.154  -2.226  1.00  0.00    -0.133 C 
ATOM      4  O   UNL     1      -2.726  -0.854  -3.421  1.00  0.00    -0.875 OA
BRANCH   3   5
ATOM      5  C   UNL     1      -2.908  -0.829  -1.080  1.00  0.00    -0.082 C 
ATOM      6  C   UNL     1      -3.029  -0.527   0.403  1.00  0.00     0.030 C 
ATOM      7  C   UNL     1      -2.877  -2.283  -0.652  1.00  0.00     0.030 C 
ATOM      8  C   UNL     1      -2.990  -1.965   0.804  1.00  0.00     0.009 C 
ENDBRANCH   3   5
ENDBRANCH   2   3
ENDBRANCH   1   2
BRANCH   1   9
ATOM      9  C   UNL     1      -0.581   1.629  -1.162  1.00  0.00    -0.002 A 
ATOM     10  C   UNL     1       0.227   0.470  -1.071  1.00  0.00     0.137 A 
ATOM     11  C   UNL     1      -0.665   2.446  -0.027  1.00  0.00     0.009 A 
ATOM     12  C   UNL     1       0.908   0.152   0.134  1.00  0.00     0.057 A 
ATOM     13  C   UNL     1      -1.383   3.603   0.208  1.00  0.00     0.028 A 
ATOM     14  C   UNL     1       0.005   2.150   1.130  1.00  0.00     0.083 A 
ATOM     15  C   UNL     1       0.797   1.011   1.250  1.00  0.00     0.158 A 
ATOM     16  C   UNL     1      -1.097   3.955   1.522  1.00  0.00     0.083 A 
ATOM     17  N   UNL     1      -0.249   3.064   2.081  1.00  0.00    -0.359 N 
ATOM     18  F   UNL     1       0.300  -0.379  -2.129  1.00  0.00    -0.206 F 
ATOM     19  F   UNL     1       1.444   0.747   2.414  1.00  0.00    -0.204 F 
ATOM     20  H   UNL     1       0.119   3.081   3.058  1.00  0.00     0.166 HD
BRANCH  12  21
ATOM     21  C   UNL     1       1.692  -1.098   0.234  1.00  0.00     0.004 A 
ATOM     22  C   UNL     1       2.706  -1.388  -0.724  1.00  0.00     0.093 A 
ATOM     23  C   UNL     1       1.422  -2.017   1.274  1.00  0.00     0.022 A 
ATOM     24  N   UNL     1       3.435  -2.545  -0.663  1.00  0.00    -0.346 N 
ATOM     25  C   UNL     1       2.176  -3.178   1.310  1.00  0.00     0.019 A 
ATOM     26  C   UNL     1       3.180  -3.426   0.332  1.00  0.00     0.137 A 
ATOM     27  C   UNL     1       2.185  -4.266   2.143  1.00  0.00     0.032 A 
ATOM     28  N   UNL     1       3.790  -4.604   0.536  1.00  0.00    -0.239 NA
ATOM     29  C   UNL     1       3.179  -5.109   1.641  1.00  0.00     0.114 A 
ATOM     30  H   UNL     1       4.175  -2.743  -1.372  1.00  0.00     0.167 HD
ENDBRANCH  12  21
ENDBRANCH   1   9
TORSDOF 5


