REMARK SMILES N[NH2+][C@@H]1CCC[C@@H](F)[C@]1(CCC(=O)c1ccccc1)c1nc2ccccc2[n-]1
REMARK SMILES IDX 3 1 4 2 5 3 6 4 7 5 8 6 9 7 2 8 1 11 10 14 11 15 12 16 13 17
REMARK SMILES IDX 14 18 15 19 19 20 16 21 18 22 17 23 20 24 21 25 28 26 22 27
REMARK SMILES IDX 27 28 23 29 26 30 24 31 25 32
REMARK H PARENT 2 9 2 10 1 12 1 13
ROOT
ATOM      1  C   UNL     1       1.530   0.540  -2.678  1.00  0.00     0.214 C 
ATOM      2  C   UNL     1       2.191   1.927  -2.877  1.00  0.00     0.068 C 
ATOM      3  C   UNL     1       1.625   2.641  -4.101  1.00  0.00     0.009 C 
ATOM      4  C   UNL     1       0.117   2.824  -3.964  1.00  0.00     0.039 C 
ATOM      5  C   UNL     1      -0.595   1.479  -3.737  1.00  0.00     0.182 C 
ATOM      6  F   UNL     1      -0.483   0.724  -4.895  1.00  0.00    -0.246 F 
ATOM      7  C   UNL     1      -0.040   0.670  -2.508  1.00  0.00     0.073 C 
ENDROOT
BRANCH   1   8
ATOM      8  N   UNL     1       2.201  -0.177  -1.566  1.00  0.00    -0.268 N 
ATOM      9  H   UNL     1       2.302   0.452  -0.736  1.00  0.00     0.370 HD
ATOM     10  H   UNL     1       1.683  -1.038  -1.282  1.00  0.00     0.370 HD
BRANCH   8  11
ATOM     11  N   UNL     1       3.496  -0.565  -1.973  1.00  0.00    -0.183 NA
ATOM     12  H   UNL     1       4.002  -0.934  -1.134  1.00  0.00     0.183 HD
ATOM     13  H   UNL     1       3.409  -1.369  -2.639  1.00  0.00     0.183 HD
ENDBRANCH   8  11
ENDBRANCH   1   8
BRANCH   7  14
ATOM     14  C   UNL     1      -0.700  -0.752  -2.498  1.00  0.00     0.028 C 
BRANCH  14  15
ATOM     15  C   UNL     1      -2.241  -0.748  -2.593  1.00  0.00     0.082 C 
BRANCH  15  16
ATOM     16  C   UNL     1      -2.807  -2.087  -2.198  1.00  0.00     0.162 C 
ATOM     17  O   UNL     1      -3.158  -2.876  -3.117  1.00  0.00    -0.294 OA
BRANCH  16  18
ATOM     18  C   UNL     1      -2.919  -2.524  -0.776  1.00  0.00     0.017 A 
ATOM     19  C   UNL     1      -3.272  -3.856  -0.479  1.00  0.00     0.012 A 
ATOM     20  C   UNL     1      -2.671  -1.639   0.295  1.00  0.00     0.012 A 
ATOM     21  C   UNL     1      -3.367  -4.289   0.847  1.00  0.00     0.001 A 
ATOM     22  C   UNL     1      -2.768  -2.079   1.618  1.00  0.00     0.001 A 
ATOM     23  C   UNL     1      -3.114  -3.402   1.894  1.00  0.00     0.000 A 
ENDBRANCH  16  18
ENDBRANCH  15  16
ENDBRANCH  14  15
ENDBRANCH   7  14
BRANCH   7  24
ATOM     24  C   UNL     1      -0.402   1.358  -1.191  1.00  0.00    -0.067 A 
ATOM     25  N   UNL     1      -1.213   2.450  -1.110  1.00  0.00    -0.439 NA
ATOM     26  N   UNL     1      -0.051   0.846   0.021  1.00  0.00    -0.439 NA
ATOM     27  C   UNL     1      -1.343   2.632   0.211  1.00  0.00    -0.038 A 
ATOM     28  C   UNL     1      -0.650   1.677   0.884  1.00  0.00    -0.038 A 
ATOM     29  C   UNL     1      -2.086   3.607   0.871  1.00  0.00     0.004 A 
ATOM     30  C   UNL     1      -0.637   1.614   2.275  1.00  0.00     0.004 A 
ATOM     31  C   UNL     1      -2.094   3.581   2.278  1.00  0.00     0.000 A 
ATOM     32  C   UNL     1      -1.370   2.588   2.979  1.00  0.00     0.000 A 
ENDBRANCH   7  24
TORSDOF 7


