REMARK SMILES O/C(=N\c1cc(F)c[nH]/c1=N\c1c[n-]c2nccc-2c1)Nc1ccc(-c2ccccc2)s1
REMARK SMILES IDX 3 1 2 2 21 3 1 5 22 7 32 8 23 9 25 10 24 11 26 12 27 13
REMARK SMILES IDX 31 14 28 15 30 16 29 17 4 18 5 19 10 20 6 21 9 22 8 23 7 24
REMARK SMILES IDX 11 26 12 27 13 28 20 29 14 30 19 31 15 32 18 33 16 34 17 35
REMARK H PARENT 21 4 1 6 9 25
ROOT
ATOM      1  N   UNL     1       3.334  -2.192  -0.280  1.00  0.00    -0.194 NA
ENDROOT
BRANCH   1   2
ATOM      2  C   UNL     1       4.361  -2.015  -1.058  1.00  0.00     0.292 C 
ATOM      3  N   UNL     1       4.185  -1.395  -2.342  1.00  0.00    -0.301 N 
ATOM      4  H   UNL     1       4.960  -1.480  -3.037  1.00  0.00     0.172 HD
BRANCH   2   5
ATOM      5  O   UNL     1       5.638  -2.397  -0.654  1.00  0.00    -0.480 OA
ATOM      6  H   UNL     1       6.442  -2.249  -1.252  1.00  0.00     0.296 HD
ENDBRANCH   2   5
BRANCH   3   7
ATOM      7  C   UNL     1       3.023  -0.637  -2.721  1.00  0.00     0.097 A 
ATOM      8  S   UNL     1       1.819  -0.068  -1.691  1.00  0.00    -0.118 S 
ATOM      9  C   UNL     1       2.754  -0.191  -4.007  1.00  0.00     0.039 A 
ATOM     10  C   UNL     1       0.918   0.730  -2.871  1.00  0.00     0.036 A 
ATOM     11  C   UNL     1       1.575   0.565  -4.095  1.00  0.00     0.023 A 
BRANCH  10  12
ATOM     12  C   UNL     1      -0.348   1.467  -2.626  1.00  0.00    -0.008 A 
ATOM     13  C   UNL     1      -0.750   1.769  -1.310  1.00  0.00     0.009 A 
ATOM     14  C   UNL     1      -1.177   1.864  -3.694  1.00  0.00     0.009 A 
ATOM     15  C   UNL     1      -1.947   2.451  -1.070  1.00  0.00     0.001 A 
ATOM     16  C   UNL     1      -2.373   2.545  -3.447  1.00  0.00     0.001 A 
ATOM     17  C   UNL     1      -2.758   2.838  -2.138  1.00  0.00     0.000 A 
ENDBRANCH  10  12
ENDBRANCH   3   7
ENDBRANCH   1   2
BRANCH   1  18
ATOM     18  C   UNL     1       3.286  -2.789   1.028  1.00  0.00     0.114 A 
ATOM     19  C   UNL     1       4.150  -3.826   1.415  1.00  0.00     0.073 A 
ATOM     20  C   UNL     1       2.285  -2.365   1.922  1.00  0.00     0.156 A 
ATOM     21  C   UNL     1       4.030  -4.393   2.683  1.00  0.00     0.141 A 
ATOM     22  N   UNL     1       2.175  -2.961   3.151  1.00  0.00    -0.342 N 
ATOM     23  C   UNL     1       3.030  -3.944   3.543  1.00  0.00     0.123 A 
ATOM     24  F   UNL     1       4.860  -5.395   3.064  1.00  0.00    -0.205 F 
ATOM     25  H   UNL     1       1.406  -2.709   3.809  1.00  0.00     0.168 HD
BRANCH  20  26
ATOM     26  N   UNL     1       1.460  -1.430   1.531  1.00  0.00    -0.229 NA
BRANCH  26  27
ATOM     27  C   UNL     1       0.436  -0.769   2.286  1.00  0.00     0.062 A 
ATOM     28  C   UNL     1       0.707  -0.214   3.570  1.00  0.00     0.006 A 
ATOM     29  C   UNL     1      -0.809  -0.537   1.667  1.00  0.00     0.036 A 
ATOM     30  N   UNL     1      -0.240   0.504   4.249  1.00  0.00    -0.440 NA
ATOM     31  C   UNL     1      -1.749   0.189   2.378  1.00  0.00    -0.025 A 
ATOM     32  C   UNL     1      -1.450   0.694   3.674  1.00  0.00    -0.052 A 
ATOM     33  C   UNL     1      -3.023   0.608   2.095  1.00  0.00     0.003 A 
ATOM     34  N   UNL     1      -2.475   1.396   4.181  1.00  0.00    -0.442 NA
ATOM     35  C   UNL     1      -3.431   1.335   3.215  1.00  0.00    -0.022 A 
ENDBRANCH  26  27
ENDBRANCH  20  26
ENDBRANCH   1  18
TORSDOF 7


