REMARK SMILES C=Cc1cccc(-c2ccc3c(c2)[C@H]([N-]C(=O)Nc2cc(F)cc(OC)c2)CC3)c1
REMARK SMILES IDX 15 1 14 2 8 3 9 4 13 5 10 6 12 7 11 8 29 9 28 10 7 11 3 12
REMARK SMILES IDX 4 13 30 14 5 15 6 16 2 17 1 18 16 19 18 20 17 21 19 23 20 24
REMARK SMILES IDX 27 25 21 26 24 27 23 28 22 29 25 30 26 31
REMARK H PARENT 18 22
ROOT
ATOM      1  N   UNL     1       0.130   2.101  -1.115  1.00  0.00    -0.423 NA
ENDROOT
BRANCH   1   2
ATOM      2  C   UNL     1      -0.910   1.303  -1.752  1.00  0.00     0.025 C 
ATOM      3  C   UNL     1      -1.054  -1.804   0.491  1.00  0.00    -0.018 A 
ATOM      4  C   UNL     1      -2.364  -1.606   0.991  1.00  0.00     0.009 A 
ATOM      5  C   UNL     1      -0.526  -0.877  -0.433  1.00  0.00     0.013 A 
ATOM      6  C   UNL     1      -3.126  -0.504   0.579  1.00  0.00     0.004 A 
ATOM      7  C   UNL     1      -1.311   0.209  -0.834  1.00  0.00    -0.042 A 
ATOM      8  C   UNL     1      -2.576   0.390  -0.339  1.00  0.00    -0.045 A 
ATOM      9  C   UNL     1      -3.210   1.619  -0.865  1.00  0.00     0.036 C 
ATOM     10  C   UNL     1      -2.212   2.122  -1.923  1.00  0.00     0.012 C 
BRANCH   3  11
ATOM     11  C   UNL     1      -0.243  -2.966   0.939  1.00  0.00    -0.018 A 
ATOM     12  C   UNL     1       0.475  -4.492   2.715  1.00  0.00    -0.026 A 
ATOM     13  C   UNL     1       1.287  -5.170   1.784  1.00  0.00     0.008 A 
ATOM     14  C   UNL     1      -0.275  -3.384   2.283  1.00  0.00     0.016 A 
ATOM     15  C   UNL     1       1.325  -4.758   0.451  1.00  0.00     0.001 A 
ATOM     16  C   UNL     1       0.566  -3.666   0.028  1.00  0.00     0.009 A 
BRANCH  12  17
ATOM     17  C   UNL     1       0.400  -4.884   4.145  1.00  0.00     0.000 C 
ATOM     18  C   UNL     1       0.778  -6.072   4.618  1.00  0.00     0.009 C 
ENDBRANCH  12  17
ENDBRANCH   3  11
ENDBRANCH   1   2
BRANCH   1  19
ATOM     19  C   UNL     1       0.789   3.210  -1.737  1.00  0.00     0.157 C 
ATOM     20  N   UNL     1       1.699   4.027  -0.989  1.00  0.00    -0.424 N 
ATOM     21  O   UNL     1       0.596   3.455  -2.958  1.00  0.00    -0.299 OA
ATOM     22  H   UNL     1       2.345   4.650  -1.525  1.00  0.00     0.029 HD
BRANCH  20  23
ATOM     23  C   UNL     1       1.849   3.954   0.441  1.00  0.00    -0.035 A 
ATOM     24  C   UNL     1       3.109   4.178   1.014  1.00  0.00     0.043 A 
ATOM     25  C   UNL     1       0.748   3.703   1.283  1.00  0.00     0.050 A 
ATOM     26  C   UNL     1       3.280   4.099   2.400  1.00  0.00     0.127 A 
ATOM     27  C   UNL     1       0.920   3.597   2.677  1.00  0.00     0.122 A 
ATOM     28  C   UNL     1       2.192   3.803   3.226  1.00  0.00     0.085 A 
ATOM     29  F   UNL     1       4.507   4.297   2.943  1.00  0.00    -0.207 F 
BRANCH  27  30
ATOM     30  O   UNL     1      -0.141   3.291   3.544  1.00  0.00    -0.497 OA
ATOM     31  C   UNL     1      -1.465   2.982   3.116  1.00  0.00     0.278 C 
ENDBRANCH  27  30
ENDBRANCH  20  23
ENDBRANCH   1  19
TORSDOF 6


