REMARK SMILES Cc1ccc([NH2+]c2cc(-c3c[nH+]c4c(c3)C(=O)NC4)cc(N)c2[O-])cc1F
REMARK SMILES IDX 7 1 8 2 9 3 20 4 21 5 23 6 24 7 6 8 5 11 2 12 3 13 26 14
REMARK SMILES IDX 4 15 25 16 1 17 27 18 10 19 11 20 15 21 12 22 14 23 13 24
REMARK SMILES IDX 16 25 19 26 18 27 17 29 22 31
REMARK H PARENT 6 9 6 10 12 28 18 30 22 32 22 33
ROOT
ATOM      1  C   UNL     1      -1.452  -1.167  -1.123  1.00  0.00     0.129 A 
ATOM      2  C   UNL     1      -0.366  -0.274  -1.107  1.00  0.00     0.076 A 
ATOM      3  C   UNL     1      -0.543   1.073  -0.754  1.00  0.00    -0.004 A 
ATOM      4  C   UNL     1      -1.828   1.526  -0.411  1.00  0.00     0.034 A 
ATOM      5  C   UNL     1      -2.922   0.651  -0.420  1.00  0.00     0.030 A 
ATOM      6  C   UNL     1      -2.735  -0.696  -0.774  1.00  0.00    -0.021 A 
ATOM      7  O   UNL     1      -3.823  -1.564  -0.782  1.00  0.00    -0.867 OA
ENDROOT
BRANCH   1   8
ATOM      8  N   UNL     1      -1.234  -2.557  -1.450  1.00  0.00    -0.282 N 
ATOM      9  H   UNL     1      -2.086  -2.970  -1.897  1.00  0.00     0.358 HD
ATOM     10  H   UNL     1      -0.464  -2.641  -2.155  1.00  0.00     0.358 HD
BRANCH   8  11
ATOM     11  C   UNL     1      -0.886  -3.292  -0.259  1.00  0.00     0.137 A 
ATOM     12  C   UNL     1      -0.210  -4.681   2.100  1.00  0.00    -0.015 A 
ATOM     13  C   UNL     1       0.784  -4.039   1.346  1.00  0.00     0.012 A 
ATOM     14  C   UNL     1      -1.548  -4.609   1.680  1.00  0.00     0.132 A 
ATOM     15  C   UNL     1       0.450  -3.353   0.175  1.00  0.00     0.068 A 
ATOM     16  C   UNL     1      -1.882  -3.922   0.508  1.00  0.00     0.107 A 
ATOM     17  C   UNL     1       0.145  -5.393   3.373  1.00  0.00     0.047 C 
ATOM     18  F   UNL     1      -2.530  -5.201   2.405  1.00  0.00    -0.206 F 
ENDBRANCH   8  11
ENDBRANCH   1   8
BRANCH   3  19
ATOM     19  C   UNL     1       0.613   2.005  -0.737  1.00  0.00     0.047 A 
ATOM     20  C   UNL     1       1.602   1.951  -1.754  1.00  0.00     0.315 A 
ATOM     21  C   UNL     1       0.750   2.961   0.293  1.00  0.00     0.035 A 
ATOM     22  N   UNL     1       2.669   2.806  -1.739  1.00  0.00    -0.212 N 
ATOM     23  C   UNL     1       1.853   3.804   0.258  1.00  0.00     0.109 A 
ATOM     24  C   UNL     1       2.787   3.719  -0.742  1.00  0.00     0.211 A 
ATOM     25  C   UNL     1       2.278   4.858   1.143  1.00  0.00     0.258 C 
ATOM     26  C   UNL     1       3.884   4.728  -0.561  1.00  0.00     0.225 C 
ATOM     27  N   UNL     1       3.494   5.424   0.668  1.00  0.00    -0.342 N 
ATOM     28  H   UNL     1       3.388   2.757  -2.494  1.00  0.00     0.453 HD
ATOM     29  O   UNL     1       1.681   5.237   2.184  1.00  0.00    -0.269 OA
ATOM     30  H   UNL     1       4.020   6.204   1.120  1.00  0.00     0.164 HD
ENDBRANCH   3  19
BRANCH   5  31
ATOM     31  N   UNL     1      -4.221   1.140  -0.069  1.00  0.00    -0.399 N 
ATOM     32  H   UNL     1      -5.056   0.513  -0.067  1.00  0.00     0.156 HD
ATOM     33  H   UNL     1      -4.361   2.141   0.194  1.00  0.00     0.156 HD
ENDBRANCH   5  31
TORSDOF 4


