REMARK SMILES [O-]/C(=N\[C@H]1Cc2cc(F)ccc2[C@H]1O)C1CCCC1
REMARK SMILES IDX 13 1 12 2 11 3 10 4 8 5 9 6 7 7 6 8 5 9 4 10 14 11 3 13 2 14
REMARK SMILES IDX 1 15 15 16 16 17 19 18 17 19 18 20
REMARK H PARENT 14 12
ROOT
ATOM      1  C   UNL     1       0.357   0.619  -1.840  1.00  0.00     0.169 C 
ATOM      2  C   UNL     1       0.030   2.005  -1.418  1.00  0.00    -0.014 A 
ATOM      3  C   UNL     1       0.809   3.148  -1.615  1.00  0.00     0.010 A 
ATOM      4  C   UNL     1       0.345   4.375  -1.116  1.00  0.00     0.039 A 
ATOM      5  C   UNL     1      -0.879   4.440  -0.426  1.00  0.00     0.123 A 
ATOM      6  F   UNL     1      -1.321   5.627   0.059  1.00  0.00    -0.207 F 
ATOM      7  C   UNL     1      -1.643   3.278  -0.235  1.00  0.00     0.043 A 
ATOM      8  C   UNL     1      -1.167   2.069  -0.747  1.00  0.00    -0.037 A 
ATOM      9  C   UNL     1      -1.813   0.741  -0.635  1.00  0.00     0.066 C 
ATOM     10  C   UNL     1      -0.961  -0.154  -1.558  1.00  0.00     0.142 C 
ENDROOT
BRANCH   1  11
ATOM     11  O   UNL     1       1.415   0.125  -1.058  1.00  0.00    -0.386 OA
ATOM     12  H   UNL     1       2.252   0.475  -1.460  1.00  0.00     0.211 HD
ENDBRANCH   1  11
BRANCH  10  13
ATOM     13  N   UNL     1      -0.726  -1.456  -0.933  1.00  0.00    -0.298 NA
BRANCH  13  14
ATOM     14  C   UNL     1      -0.230  -2.485  -1.555  1.00  0.00    -0.039 C 
ATOM     15  O   UNL     1       0.111  -2.400  -2.902  1.00  0.00    -0.862 OA
BRANCH  14  16
ATOM     16  C   UNL     1       0.000  -3.781  -0.818  1.00  0.00     0.022 C 
ATOM     17  C   UNL     1       1.032  -3.614   0.294  1.00  0.00     0.009 C 
ATOM     18  C   UNL     1      -1.264  -4.268  -0.112  1.00  0.00     0.009 C 
ATOM     19  C   UNL     1       0.246  -3.285   1.558  1.00  0.00     0.001 C 
ATOM     20  C   UNL     1      -1.195  -3.731   1.315  1.00  0.00     0.001 C 
ENDBRANCH  14  16
ENDBRANCH  13  14
ENDBRANCH  10  13
TORSDOF 4


