REMARK SMILES O=C=NC(=O)c1ccc(-c2cc(F)cc(F)c2O)cc1
REMARK SMILES IDX 9 1 8 2 7 3 6 4 20 5 19 6 10 7 17 8 15 9 14 10 11 11 12 12
REMARK SMILES IDX 16 13 13 14 18 15 4 17 5 18 3 19 2 20 1 21
REMARK H PARENT 18 16
ROOT
ATOM      1  C   UNL     1      -0.973  -0.020   0.196  1.00  0.00    -0.014 A 
ATOM      2  C   UNL     1      -0.405   1.122  -0.392  1.00  0.00     0.010 A 
ATOM      3  C   UNL     1      -1.215   2.074  -1.019  1.00  0.00     0.014 A 
ATOM      4  C   UNL     1      -2.610   1.908  -1.057  1.00  0.00     0.043 A 
ATOM      5  C   UNL     1      -3.176   0.760  -0.481  1.00  0.00     0.014 A 
ATOM      6  C   UNL     1      -2.367  -0.191   0.148  1.00  0.00     0.010 A 
ENDROOT
BRANCH   1   7
ATOM      7  C   UNL     1      -0.120  -1.026   0.872  1.00  0.00     0.029 A 
ATOM      8  C   UNL     1       1.022  -1.563   0.238  1.00  0.00     0.159 A 
ATOM      9  C   UNL     1       1.819  -2.504   0.913  1.00  0.00     0.168 A 
ATOM     10  C   UNL     1       1.478  -2.917   2.203  1.00  0.00     0.082 A 
ATOM     11  C   UNL     1      -0.453  -1.460   2.168  1.00  0.00     0.052 A 
ATOM     12  C   UNL     1       0.343  -2.399   2.828  1.00  0.00     0.127 A 
ATOM     13  F   UNL     1       2.920  -3.026   0.317  1.00  0.00    -0.203 F 
ATOM     14  F   UNL     1       0.015  -2.804   4.080  1.00  0.00    -0.207 F 
BRANCH   8  15
ATOM     15  O   UNL     1       1.347  -1.177  -1.064  1.00  0.00    -0.504 OA
ATOM     16  H   UNL     1       2.155  -1.548  -1.549  1.00  0.00     0.293 HD
ENDBRANCH   8  15
ENDBRANCH   1   7
BRANCH   4  17
ATOM     17  C   UNL     1      -3.481   2.898  -1.737  1.00  0.00     0.287 C 
ATOM     18  O   UNL     1      -4.462   2.484  -2.410  1.00  0.00    -0.266 OA
BRANCH  17  19
ATOM     19  N   UNL     1      -3.263   4.314  -1.652  1.00  0.00    -0.125 NA
BRANCH  19  20
ATOM     20  C   UNL     1      -2.500   4.861  -0.792  1.00  0.00     0.243 C 
ATOM     21  O   UNL     1      -1.758   5.393   0.043  1.00  0.00    -0.211 OA
ENDBRANCH  19  20
ENDBRANCH  17  19
ENDBRANCH   4  17
TORSDOF 5


