MODEL 1
REMARK VINA RESULT:      -6.9      0.000      0.000
REMARK SMILES Cc1ccc(CCC(OC(=O)[N-]C(=O)C(Cl)(Cl)Cl)=C2CCC2)c(C)c1
REMARK SMILES IDX 9 1 8 2 7 3 6 4 5 5 2 6 3 7 25 8 4 9 23 10 1 11 24 12 19 13
REMARK SMILES IDX 20 14 22 15 21 16 10 17 11 18 12 19 13 20 14 21 15 22 16 23
REMARK SMILES IDX 17 24 18 25
REMARK H PARENT
ROOT
ATOM      1  O   UNL     1      45.062 131.444  18.579  1.00  0.00    -0.443 OA
ENDROOT
BRANCH   1   2
ATOM      2  C   UNL     1      44.585 131.268  19.889  1.00  0.00     0.105 C 
BRANCH   2   3
ATOM      3  C   UNL     1      45.319 130.476  20.948  1.00  0.00     0.080 C 
BRANCH   3   4
ATOM      4  C   UNL     1      44.526 130.408  22.263  1.00  0.00     0.044 C 
BRANCH   4   5
ATOM      5  C   UNL     1      44.312 128.977  22.717  1.00  0.00    -0.045 A 
ATOM      6  C   UNL     1      43.975 126.264  23.415  1.00  0.00    -0.051 A 
ATOM      7  C   UNL     1      45.057 126.661  22.622  1.00  0.00     0.004 A 
ATOM      8  C   UNL     1      43.050 127.223  23.849  1.00  0.00     0.007 A 
ATOM      9  C   UNL     1      45.226 128.001  22.282  1.00  0.00     0.004 A 
ATOM     10  C   UNL     1      43.208 128.581  23.518  1.00  0.00    -0.048 A 
ATOM     11  C   UNL     1      43.769 124.812  23.730  1.00  0.00     0.044 C 
ATOM     12  C   UNL     1      42.200 129.574  24.038  1.00  0.00     0.044 C 
ENDBRANCH   4   5
ENDBRANCH   3   4
ENDBRANCH   2   3
BRANCH   2  13
ATOM     13  C   UNL     1      43.455 131.898  20.211  1.00  0.00    -0.032 C 
ATOM     14  C   UNL     1      42.384 132.680  19.476  1.00  0.00     0.035 C 
ATOM     15  C   UNL     1      42.640 132.196  21.455  1.00  0.00     0.035 C 
ATOM     16  C   UNL     1      41.593 132.963  20.713  1.00  0.00     0.009 C 
ENDBRANCH   2  13
ENDBRANCH   1   2
BRANCH   1  17
ATOM     17  C   UNL     1      44.500 130.962  17.387  1.00  0.00     0.240 C 
ATOM     18  O   UNL     1      43.419 131.423  16.938  1.00  0.00    -0.273 OA
BRANCH  17  19
ATOM     19  N   UNL     1      45.177 129.946  16.639  1.00  0.00    -0.556 NA
BRANCH  19  20
ATOM     20  C   UNL     1      46.213 130.179  15.676  1.00  0.00     0.111 C 
ATOM     21  O   UNL     1      47.329 129.603  15.790  1.00  0.00    -0.315 OA
BRANCH  20  22
ATOM     22  C   UNL     1      46.001 131.178  14.572  1.00  0.00     0.232 C 
ATOM     23  Cl  UNL     1      44.336 131.098  13.940  1.00  0.00    -0.077 Cl
ATOM     24  Cl  UNL     1      46.295 132.817  15.204  1.00  0.00    -0.077 Cl
ATOM     25  Cl  UNL     1      47.123 130.872  13.217  1.00  0.00    -0.077 Cl
ENDBRANCH  20  22
ENDBRANCH  19  20
ENDBRANCH  17  19
ENDBRANCH   1  17
TORSDOF 9
ENDMDL
MODEL 2
REMARK VINA RESULT:      -6.6      1.033      1.708
REMARK SMILES Cc1ccc(CCC(OC(=O)[N-]C(=O)C(Cl)(Cl)Cl)=C2CCC2)c(C)c1
REMARK SMILES IDX 9 1 8 2 7 3 6 4 5 5 2 6 3 7 25 8 4 9 23 10 1 11 24 12 19 13
REMARK SMILES IDX 20 14 22 15 21 16 10 17 11 18 12 19 13 20 14 21 15 22 16 23
REMARK SMILES IDX 17 24 18 25
REMARK H PARENT
ROOT
ATOM      1  O   UNL     1      44.778 131.167  18.514  1.00  0.00    -0.443 OA
ENDROOT
BRANCH   1   2
ATOM      2  C   UNL     1      44.351 131.574  19.790  1.00  0.00     0.105 C 
BRANCH   2   3
ATOM      3  C   UNL     1      45.220 131.500  21.026  1.00  0.00     0.080 C 
BRANCH   3   4
ATOM      4  C   UNL     1      44.384 131.316  22.302  1.00  0.00     0.044 C 
BRANCH   4   5
ATOM      5  C   UNL     1      44.231 129.853  22.669  1.00  0.00    -0.045 A 
ATOM      6  C   UNL     1      44.004 127.091  23.200  1.00  0.00    -0.051 A 
ATOM      7  C   UNL     1      45.044 127.574  22.398  1.00  0.00     0.004 A 
ATOM      8  C   UNL     1      43.066 127.989  23.727  1.00  0.00     0.007 A 
ATOM      9  C   UNL     1      45.159 128.938  22.141  1.00  0.00     0.004 A 
ATOM     10  C   UNL     1      43.170 129.370  23.480  1.00  0.00    -0.048 A 
ATOM     11  C   UNL     1      43.855 125.616  23.427  1.00  0.00     0.044 C 
ATOM     12  C   UNL     1      42.150 130.293  24.097  1.00  0.00     0.044 C 
ENDBRANCH   4   5
ENDBRANCH   3   4
ENDBRANCH   2   3
BRANCH   2  13
ATOM     13  C   UNL     1      43.134 132.110  19.878  1.00  0.00    -0.032 C 
ATOM     14  C   UNL     1      42.245 132.642  20.985  1.00  0.00     0.035 C 
ATOM     15  C   UNL     1      41.982 132.461  18.956  1.00  0.00     0.035 C 
ATOM     16  C   UNL     1      41.120 132.983  20.060  1.00  0.00     0.009 C 
ENDBRANCH   2  13
ENDBRANCH   1   2
BRANCH   1  17
ATOM     17  C   UNL     1      45.730 130.188  18.196  1.00  0.00     0.240 C 
ATOM     18  O   UNL     1      46.104 129.338  19.045  1.00  0.00    -0.273 OA
BRANCH  17  19
ATOM     19  N   UNL     1      46.275 130.123  16.874  1.00  0.00    -0.556 NA
BRANCH  19  20
ATOM     20  C   UNL     1      45.506 130.033  15.667  1.00  0.00     0.111 C 
ATOM     21  O   UNL     1      44.925 128.956  15.363  1.00  0.00    -0.315 OA
BRANCH  20  22
ATOM     22  C   UNL     1      45.458 131.197  14.718  1.00  0.00     0.232 C 
ATOM     23  Cl  UNL     1      46.028 132.694  15.502  1.00  0.00    -0.077 Cl
ATOM     24  Cl  UNL     1      46.502 130.852  13.318  1.00  0.00    -0.077 Cl
ATOM     25  Cl  UNL     1      43.791 131.477  14.141  1.00  0.00    -0.077 Cl
ENDBRANCH  20  22
ENDBRANCH  19  20
ENDBRANCH  17  19
ENDBRANCH   1  17
TORSDOF 9
ENDMDL
MODEL 3
REMARK VINA RESULT:      -6.2      4.268      6.357
REMARK SMILES Cc1ccc(CCC(OC(=O)[N-]C(=O)C(Cl)(Cl)Cl)=C2CCC2)c(C)c1
REMARK SMILES IDX 9 1 8 2 7 3 6 4 5 5 2 6 3 7 25 8 4 9 23 10 1 11 24 12 19 13
REMARK SMILES IDX 20 14 22 15 21 16 10 17 11 18 12 19 13 20 14 21 15 22 16 23
REMARK SMILES IDX 17 24 18 25
REMARK H PARENT
ROOT
ATOM      1  O   UNL     1      45.714 131.904  19.567  1.00  0.00    -0.443 OA
ENDROOT
BRANCH   1   2
ATOM      2  C   UNL     1      45.658 132.200  20.940  1.00  0.00     0.105 C 
BRANCH   2   3
ATOM      3  C   UNL     1      46.334 133.399  21.566  1.00  0.00     0.080 C 
BRANCH   3   4
ATOM      4  C   UNL     1      47.804 133.111  21.911  1.00  0.00     0.044 C 
BRANCH   4   5
ATOM      5  C   UNL     1      48.623 134.385  21.991  1.00  0.00    -0.045 A 
ATOM      6  C   UNL     1      50.136 136.767  21.975  1.00  0.00    -0.051 A 
ATOM      7  C   UNL     1      49.107 136.576  21.045  1.00  0.00     0.004 A 
ATOM      8  C   UNL     1      50.419 135.759  22.907  1.00  0.00     0.007 A 
ATOM      9  C   UNL     1      48.357 135.402  21.058  1.00  0.00     0.004 A 
ATOM     10  C   UNL     1      49.668 134.570  22.935  1.00  0.00    -0.048 A 
ATOM     11  C   UNL     1      50.975 138.009  21.920  1.00  0.00     0.044 C 
ATOM     12  C   UNL     1      49.996 133.532  23.979  1.00  0.00     0.044 C 
ENDBRANCH   4   5
ENDBRANCH   3   4
ENDBRANCH   2   3
BRANCH   2  13
ATOM     13  C   UNL     1      44.908 131.402  21.700  1.00  0.00    -0.032 C 
ATOM     14  C   UNL     1      44.777 129.910  21.935  1.00  0.00     0.035 C 
ATOM     15  C   UNL     1      43.784 131.532  22.711  1.00  0.00     0.035 C 
ATOM     16  C   UNL     1      43.671 130.057  22.930  1.00  0.00     0.009 C 
ENDBRANCH   2  13
ENDBRANCH   1   2
BRANCH   1  17
ATOM     17  C   UNL     1      44.645 131.807  18.664  1.00  0.00     0.240 C 
ATOM     18  O   UNL     1      43.451 131.785  19.060  1.00  0.00    -0.273 OA
BRANCH  17  19
ATOM     19  N   UNL     1      44.902 131.761  17.256  1.00  0.00    -0.556 NA
BRANCH  19  20
ATOM     20  C   UNL     1      45.478 130.649  16.557  1.00  0.00     0.111 C 
ATOM     21  O   UNL     1      45.812 129.608  17.184  1.00  0.00    -0.315 OA
BRANCH  20  22
ATOM     22  C   UNL     1      45.762 130.754  15.084  1.00  0.00     0.232 C 
ATOM     23  Cl  UNL     1      46.585 129.291  14.480  1.00  0.00    -0.077 Cl
ATOM     24  Cl  UNL     1      44.225 130.948  14.206  1.00  0.00    -0.077 Cl
ATOM     25  Cl  UNL     1      46.808 132.159  14.738  1.00  0.00    -0.077 Cl
ENDBRANCH  20  22
ENDBRANCH  19  20
ENDBRANCH  17  19
ENDBRANCH   1  17
TORSDOF 9
ENDMDL
MODEL 4
REMARK VINA RESULT:      -5.4      4.480      6.485
REMARK SMILES Cc1ccc(CCC(OC(=O)[N-]C(=O)C(Cl)(Cl)Cl)=C2CCC2)c(C)c1
REMARK SMILES IDX 9 1 8 2 7 3 6 4 5 5 2 6 3 7 25 8 4 9 23 10 1 11 24 12 19 13
REMARK SMILES IDX 20 14 22 15 21 16 10 17 11 18 12 19 13 20 14 21 15 22 16 23
REMARK SMILES IDX 17 24 18 25
REMARK H PARENT
ROOT
ATOM      1  O   UNL     1      45.421 132.913  19.972  1.00  0.00    -0.443 OA
ENDROOT
BRANCH   1   2
ATOM      2  C   UNL     1      45.938 132.355  21.154  1.00  0.00     0.105 C 
BRANCH   2   3
ATOM      3  C   UNL     1      47.179 132.867  21.849  1.00  0.00     0.080 C 
BRANCH   3   4
ATOM      4  C   UNL     1      47.478 134.330  21.482  1.00  0.00     0.044 C 
BRANCH   4   5
ATOM      5  C   UNL     1      48.775 134.812  22.101  1.00  0.00    -0.045 A 
ATOM      6  C   UNL     1      51.135 135.653  23.401  1.00  0.00    -0.051 A 
ATOM      7  C   UNL     1      50.468 134.496  23.823  1.00  0.00     0.004 A 
ATOM      8  C   UNL     1      50.612 136.399  22.336  1.00  0.00     0.007 A 
ATOM      9  C   UNL     1      49.307 134.078  23.177  1.00  0.00     0.004 A 
ATOM     10  C   UNL     1      49.443 135.989  21.671  1.00  0.00    -0.048 A 
ATOM     11  C   UNL     1      52.353 136.126  24.137  1.00  0.00     0.044 C 
ATOM     12  C   UNL     1      48.944 136.813  20.512  1.00  0.00     0.044 C 
ENDBRANCH   4   5
ENDBRANCH   3   4
ENDBRANCH   2   3
BRANCH   2  13
ATOM     13  C   UNL     1      45.242 131.362  21.708  1.00  0.00    -0.032 C 
ATOM     14  C   UNL     1      44.215 131.224  22.815  1.00  0.00     0.035 C 
ATOM     15  C   UNL     1      45.104 129.859  21.564  1.00  0.00     0.035 C 
ATOM     16  C   UNL     1      44.091 129.742  22.658  1.00  0.00     0.009 C 
ENDBRANCH   2  13
ENDBRANCH   1   2
BRANCH   1  17
ATOM     17  C   UNL     1      44.547 132.319  19.051  1.00  0.00     0.240 C 
ATOM     18  O   UNL     1      43.304 132.294  19.248  1.00  0.00    -0.273 OA
BRANCH  17  19
ATOM     19  N   UNL     1      45.062 131.751  17.841  1.00  0.00    -0.556 NA
BRANCH  19  20
ATOM     20  C   UNL     1      44.277 131.398  16.695  1.00  0.00     0.111 C 
ATOM     21  O   UNL     1      43.017 131.399  16.761  1.00  0.00    -0.315 OA
BRANCH  20  22
ATOM     22  C   UNL     1      44.954 130.945  15.431  1.00  0.00     0.232 C 
ATOM     23  Cl  UNL     1      44.086 131.531  13.987  1.00  0.00    -0.077 Cl
ATOM     24  Cl  UNL     1      46.616 131.584  15.398  1.00  0.00    -0.077 Cl
ATOM     25  Cl  UNL     1      45.019 129.162  15.351  1.00  0.00    -0.077 Cl
ENDBRANCH  20  22
ENDBRANCH  19  20
ENDBRANCH  17  19
ENDBRANCH   1  17
TORSDOF 9
ENDMDL
MODEL 5
REMARK VINA RESULT:      -5.1      4.202      7.679
REMARK SMILES Cc1ccc(CCC(OC(=O)[N-]C(=O)C(Cl)(Cl)Cl)=C2CCC2)c(C)c1
REMARK SMILES IDX 9 1 8 2 7 3 6 4 5 5 2 6 3 7 25 8 4 9 23 10 1 11 24 12 19 13
REMARK SMILES IDX 20 14 22 15 21 16 10 17 11 18 12 19 13 20 14 21 15 22 16 23
REMARK SMILES IDX 17 24 18 25
REMARK H PARENT
ROOT
ATOM      1  O   UNL     1      44.523 131.676  20.862  1.00  0.00    -0.443 OA
ENDROOT
BRANCH   1   2
ATOM      2  C   UNL     1      44.133 131.859  19.525  1.00  0.00     0.105 C 
BRANCH   2   3
ATOM      3  C   UNL     1      45.090 131.788  18.356  1.00  0.00     0.080 C 
BRANCH   3   4
ATOM      4  C   UNL     1      44.997 130.441  17.621  1.00  0.00     0.044 C 
BRANCH   4   5
ATOM      5  C   UNL     1      45.652 130.499  16.255  1.00  0.00    -0.045 A 
ATOM      6  C   UNL     1      47.020 130.617  13.789  1.00  0.00    -0.051 A 
ATOM      7  C   UNL     1      47.599 129.974  14.889  1.00  0.00     0.004 A 
ATOM      8  C   UNL     1      45.760 131.216  13.926  1.00  0.00     0.007 A 
ATOM      9  C   UNL     1      46.921 129.911  16.105  1.00  0.00     0.004 A 
ATOM     10  C   UNL     1      45.060 131.158  15.145  1.00  0.00    -0.048 A 
ATOM     11  C   UNL     1      47.779 130.729  12.501  1.00  0.00     0.044 C 
ATOM     12  C   UNL     1      43.695 131.793  15.226  1.00  0.00     0.044 C 
ENDBRANCH   4   5
ENDBRANCH   3   4
ENDBRANCH   2   3
BRANCH   2  13
ATOM     13  C   UNL     1      42.832 132.039  19.293  1.00  0.00    -0.032 C 
ATOM     14  C   UNL     1      41.773 133.046  19.694  1.00  0.00     0.035 C 
ATOM     15  C   UNL     1      41.711 131.348  18.540  1.00  0.00     0.035 C 
ATOM     16  C   UNL     1      40.681 132.353  18.945  1.00  0.00     0.009 C 
ENDBRANCH   2  13
ENDBRANCH   1   2
BRANCH   1  17
ATOM     17  C   UNL     1      43.793 131.071  21.896  1.00  0.00     0.240 C 
ATOM     18  O   UNL     1      43.360 131.739  22.871  1.00  0.00    -0.273 OA
BRANCH  17  19
ATOM     19  N   UNL     1      43.501 129.670  21.839  1.00  0.00    -0.556 NA
BRANCH  19  20
ATOM     20  C   UNL     1      43.245 128.833  22.974  1.00  0.00     0.111 C 
ATOM     21  O   UNL     1      42.290 129.095  23.756  1.00  0.00    -0.315 OA
BRANCH  20  22
ATOM     22  C   UNL     1      44.165 127.685  23.284  1.00  0.00     0.232 C 
ATOM     23  Cl  UNL     1      43.247 126.231  23.758  1.00  0.00    -0.077 Cl
ATOM     24  Cl  UNL     1      45.131 127.305  21.838  1.00  0.00    -0.077 Cl
ATOM     25  Cl  UNL     1      45.269 128.102  24.624  1.00  0.00    -0.077 Cl
ENDBRANCH  20  22
ENDBRANCH  19  20
ENDBRANCH  17  19
ENDBRANCH   1  17
TORSDOF 9
ENDMDL
MODEL 6
REMARK VINA RESULT:      -4.9      1.396      2.359
REMARK SMILES Cc1ccc(CCC(OC(=O)[N-]C(=O)C(Cl)(Cl)Cl)=C2CCC2)c(C)c1
REMARK SMILES IDX 9 1 8 2 7 3 6 4 5 5 2 6 3 7 25 8 4 9 23 10 1 11 24 12 19 13
REMARK SMILES IDX 20 14 22 15 21 16 10 17 11 18 12 19 13 20 14 21 15 22 16 23
REMARK SMILES IDX 17 24 18 25
REMARK H PARENT
ROOT
ATOM      1  O   UNL     1      44.951 131.359  19.866  1.00  0.00    -0.443 OA
ENDROOT
BRANCH   1   2
ATOM      2  C   UNL     1      44.106 131.321  20.988  1.00  0.00     0.105 C 
BRANCH   2   3
ATOM      3  C   UNL     1      44.455 130.610  22.277  1.00  0.00     0.080 C 
BRANCH   3   4
ATOM      4  C   UNL     1      43.295 130.648  23.284  1.00  0.00     0.044 C 
BRANCH   4   5
ATOM      5  C   UNL     1      42.750 129.263  23.567  1.00  0.00    -0.045 A 
ATOM      6  C   UNL     1      41.637 126.750  24.212  1.00  0.00    -0.051 A 
ATOM      7  C   UNL     1      40.857 127.910  24.288  1.00  0.00     0.004 A 
ATOM      8  C   UNL     1      42.981 126.848  23.826  1.00  0.00     0.007 A 
ATOM      9  C   UNL     1      41.405 129.149  23.964  1.00  0.00     0.004 A 
ATOM     10  C   UNL     1      43.549 128.090  23.492  1.00  0.00    -0.048 A 
ATOM     11  C   UNL     1      41.055 125.428  24.616  1.00  0.00     0.044 C 
ATOM     12  C   UNL     1      44.991 128.132  23.054  1.00  0.00     0.044 C 
ENDBRANCH   4   5
ENDBRANCH   3   4
ENDBRANCH   2   3
BRANCH   2  13
ATOM     13  C   UNL     1      42.968 132.012  20.912  1.00  0.00    -0.032 C 
ATOM     14  C   UNL     1      42.160 132.682  19.819  1.00  0.00     0.035 C 
ATOM     15  C   UNL     1      41.888 132.520  21.848  1.00  0.00     0.035 C 
ATOM     16  C   UNL     1      41.103 133.173  20.756  1.00  0.00     0.009 C 
ENDBRANCH   2  13
ENDBRANCH   1   2
BRANCH   1  17
ATOM     17  C   UNL     1      45.589 130.281  19.234  1.00  0.00     0.240 C 
ATOM     18  O   UNL     1      46.236 129.425  19.890  1.00  0.00    -0.273 OA
BRANCH  17  19
ATOM     19  N   UNL     1      45.484 130.123  17.815  1.00  0.00    -0.556 NA
BRANCH  19  20
ATOM     20  C   UNL     1      45.190 131.174  16.885  1.00  0.00     0.111 C 
ATOM     21  O   UNL     1      44.721 132.271  17.294  1.00  0.00    -0.315 OA
BRANCH  20  22
ATOM     22  C   UNL     1      45.361 130.942  15.410  1.00  0.00     0.232 C 
ATOM     23  Cl  UNL     1      43.940 131.517  14.497  1.00  0.00    -0.077 Cl
ATOM     24  Cl  UNL     1      46.799 131.825  14.843  1.00  0.00    -0.077 Cl
ATOM     25  Cl  UNL     1      45.575 129.204  15.062  1.00  0.00    -0.077 Cl
ENDBRANCH  20  22
ENDBRANCH  19  20
ENDBRANCH  17  19
ENDBRANCH   1  17
TORSDOF 9
ENDMDL
MODEL 7
REMARK VINA RESULT:      -4.6      1.938      3.113
REMARK SMILES Cc1ccc(CCC(OC(=O)[N-]C(=O)C(Cl)(Cl)Cl)=C2CCC2)c(C)c1
REMARK SMILES IDX 9 1 8 2 7 3 6 4 5 5 2 6 3 7 25 8 4 9 23 10 1 11 24 12 19 13
REMARK SMILES IDX 20 14 22 15 21 16 10 17 11 18 12 19 13 20 14 21 15 22 16 23
REMARK SMILES IDX 17 24 18 25
REMARK H PARENT
ROOT
ATOM      1  O   UNL     1      43.487 131.804  20.694  1.00  0.00    -0.443 OA
ENDROOT
BRANCH   1   2
ATOM      2  C   UNL     1      44.579 131.248  21.383  1.00  0.00     0.105 C 
BRANCH   2   3
ATOM      3  C   UNL     1      44.622 129.816  21.866  1.00  0.00     0.080 C 
BRANCH   3   4
ATOM      4  C   UNL     1      44.280 129.705  23.360  1.00  0.00     0.044 C 
BRANCH   4   5
ATOM      5  C   UNL     1      43.336 128.551  23.637  1.00  0.00    -0.045 A 
ATOM      6  C   UNL     1      41.485 126.509  24.240  1.00  0.00    -0.051 A 
ATOM      7  C   UNL     1      41.049 127.826  24.053  1.00  0.00     0.004 A 
ATOM      8  C   UNL     1      42.851 126.214  24.140  1.00  0.00     0.007 A 
ATOM      9  C   UNL     1      41.963 128.832  23.749  1.00  0.00     0.004 A 
ATOM     10  C   UNL     1      43.786 127.218  23.831  1.00  0.00    -0.048 A 
ATOM     11  C   UNL     1      40.503 125.442  24.622  1.00  0.00     0.044 C 
ATOM     12  C   UNL     1      45.240 126.838  23.705  1.00  0.00     0.044 C 
ENDBRANCH   4   5
ENDBRANCH   3   4
ENDBRANCH   2   3
BRANCH   2  13
ATOM     13  C   UNL     1      45.648 132.027  21.550  1.00  0.00    -0.032 C 
ATOM     14  C   UNL     1      46.095 133.083  22.541  1.00  0.00     0.035 C 
ATOM     15  C   UNL     1      46.968 132.301  20.855  1.00  0.00     0.035 C 
ATOM     16  C   UNL     1      47.392 133.339  21.844  1.00  0.00     0.009 C 
ENDBRANCH   2  13
ENDBRANCH   1   2
BRANCH   1  17
ATOM     17  C   UNL     1      43.259 131.815  19.310  1.00  0.00     0.240 C 
ATOM     18  O   UNL     1      42.128 132.095  18.834  1.00  0.00    -0.273 OA
BRANCH  17  19
ATOM     19  N   UNL     1      44.334 131.535  18.407  1.00  0.00    -0.556 NA
BRANCH  19  20
ATOM     20  C   UNL     1      44.220 131.481  16.979  1.00  0.00     0.111 C 
ATOM     21  O   UNL     1      43.158 131.854  16.410  1.00  0.00    -0.315 OA
BRANCH  20  22
ATOM     22  C   UNL     1      45.338 130.899  16.158  1.00  0.00     0.232 C 
ATOM     23  Cl  UNL     1      44.709 129.822  14.882  1.00  0.00    -0.077 Cl
ATOM     24  Cl  UNL     1      46.247 132.223  15.390  1.00  0.00    -0.077 Cl
ATOM     25  Cl  UNL     1      46.451 129.951  17.182  1.00  0.00    -0.077 Cl
ENDBRANCH  20  22
ENDBRANCH  19  20
ENDBRANCH  17  19
ENDBRANCH   1  17
TORSDOF 9
ENDMDL
MODEL 8
REMARK VINA RESULT:      -4.3      4.540      7.474
REMARK SMILES Cc1ccc(CCC(OC(=O)[N-]C(=O)C(Cl)(Cl)Cl)=C2CCC2)c(C)c1
REMARK SMILES IDX 9 1 8 2 7 3 6 4 5 5 2 6 3 7 25 8 4 9 23 10 1 11 24 12 19 13
REMARK SMILES IDX 20 14 22 15 21 16 10 17 11 18 12 19 13 20 14 21 15 22 16 23
REMARK SMILES IDX 17 24 18 25
REMARK H PARENT
ROOT
ATOM      1  O   UNL     1      44.235 132.570  19.939  1.00  0.00    -0.443 OA
ENDROOT
BRANCH   1   2
ATOM      2  C   UNL     1      45.539 132.051  20.000  1.00  0.00     0.105 C 
BRANCH   2   3
ATOM      3  C   UNL     1      45.998 130.845  19.211  1.00  0.00     0.080 C 
BRANCH   3   4
ATOM      4  C   UNL     1      44.961 130.423  18.157  1.00  0.00     0.044 C 
BRANCH   4   5
ATOM      5  C   UNL     1      45.515 130.526  16.750  1.00  0.00    -0.045 A 
ATOM      6  C   UNL     1      46.700 130.722  14.196  1.00  0.00    -0.051 A 
ATOM      7  C   UNL     1      47.350 130.032  15.226  1.00  0.00     0.004 A 
ATOM      8  C   UNL     1      45.462 131.328  14.447  1.00  0.00     0.007 A 
ATOM      9  C   UNL     1      46.762 129.930  16.485  1.00  0.00     0.004 A 
ATOM     10  C   UNL     1      44.852 131.232  15.711  1.00  0.00    -0.048 A 
ATOM     11  C   UNL     1      47.365 130.875  12.861  1.00  0.00     0.044 C 
ATOM     12  C   UNL     1      43.505 131.877  15.915  1.00  0.00     0.044 C 
ENDBRANCH   4   5
ENDBRANCH   3   4
ENDBRANCH   2   3
BRANCH   2  13
ATOM     13  C   UNL     1      46.419 132.714  20.751  1.00  0.00    -0.032 C 
ATOM     14  C   UNL     1      46.508 134.086  21.388  1.00  0.00     0.035 C 
ATOM     15  C   UNL     1      47.792 132.483  21.354  1.00  0.00     0.035 C 
ATOM     16  C   UNL     1      47.861 133.841  21.976  1.00  0.00     0.009 C 
ENDBRANCH   2  13
ENDBRANCH   1   2
BRANCH   1  17
ATOM     17  C   UNL     1      43.030 131.903  20.206  1.00  0.00     0.240 C 
ATOM     18  O   UNL     1      42.170 131.717  19.306  1.00  0.00    -0.273 OA
BRANCH  17  19
ATOM     19  N   UNL     1      42.772 131.392  21.518  1.00  0.00    -0.556 NA
BRANCH  19  20
ATOM     20  C   UNL     1      43.698 130.629  22.304  1.00  0.00     0.111 C 
ATOM     21  O   UNL     1      44.389 129.720  21.768  1.00  0.00    -0.315 OA
BRANCH  20  22
ATOM     22  C   UNL     1      43.787 130.852  23.788  1.00  0.00     0.232 C 
ATOM     23  Cl  UNL     1      44.410 129.405  24.623  1.00  0.00    -0.077 Cl
ATOM     24  Cl  UNL     1      44.888 132.215  24.107  1.00  0.00    -0.077 Cl
ATOM     25  Cl  UNL     1      42.181 131.234  24.469  1.00  0.00    -0.077 Cl
ENDBRANCH  20  22
ENDBRANCH  19  20
ENDBRANCH  17  19
ENDBRANCH   1  17
TORSDOF 9
ENDMDL
MODEL 9
REMARK VINA RESULT:      -4.1      4.111      6.173
REMARK SMILES Cc1ccc(CCC(OC(=O)[N-]C(=O)C(Cl)(Cl)Cl)=C2CCC2)c(C)c1
REMARK SMILES IDX 9 1 8 2 7 3 6 4 5 5 2 6 3 7 25 8 4 9 23 10 1 11 24 12 19 13
REMARK SMILES IDX 20 14 22 15 21 16 10 17 11 18 12 19 13 20 14 21 15 22 16 23
REMARK SMILES IDX 17 24 18 25
REMARK H PARENT
ROOT
ATOM      1  O   UNL     1      45.435 131.373  19.433  1.00  0.00    -0.443 OA
ENDROOT
BRANCH   1   2
ATOM      2  C   UNL     1      45.674 131.757  20.764  1.00  0.00     0.105 C 
BRANCH   2   3
ATOM      3  C   UNL     1      46.955 132.413  21.229  1.00  0.00     0.080 C 
BRANCH   3   4
ATOM      4  C   UNL     1      46.685 133.722  21.987  1.00  0.00     0.044 C 
BRANCH   4   5
ATOM      5  C   UNL     1      47.924 134.590  22.072  1.00  0.00    -0.045 A 
ATOM      6  C   UNL     1      50.231 136.217  22.062  1.00  0.00    -0.051 A 
ATOM      7  C   UNL     1      49.225 136.410  21.109  1.00  0.00     0.004 A 
ATOM      8  C   UNL     1      50.090 135.198  23.015  1.00  0.00     0.007 A 
ATOM      9  C   UNL     1      48.084 135.610  21.118  1.00  0.00     0.004 A 
ATOM     10  C   UNL     1      48.943 134.385  23.040  1.00  0.00    -0.048 A 
ATOM     11  C   UNL     1      51.480 137.044  22.012  1.00  0.00     0.044 C 
ATOM     12  C   UNL     1      48.832 133.325  24.107  1.00  0.00     0.044 C 
ENDBRANCH   4   5
ENDBRANCH   3   4
ENDBRANCH   2   3
BRANCH   2  13
ATOM     13  C   UNL     1      44.677 131.583  21.632  1.00  0.00    -0.032 C 
ATOM     14  C   UNL     1      43.350 132.251  21.932  1.00  0.00     0.035 C 
ATOM     15  C   UNL     1      44.329 130.660  22.785  1.00  0.00     0.035 C 
ATOM     16  C   UNL     1      43.023 131.332  23.065  1.00  0.00     0.009 C 
ENDBRANCH   2  13
ENDBRANCH   1   2
BRANCH   1  17
ATOM     17  C   UNL     1      45.776 130.163  18.813  1.00  0.00     0.240 C 
ATOM     18  O   UNL     1      45.736 129.071  19.438  1.00  0.00    -0.273 OA
BRANCH  17  19
ATOM     19  N   UNL     1      46.149 130.149  17.431  1.00  0.00    -0.556 NA
BRANCH  19  20
ATOM     20  C   UNL     1      45.234 130.126  16.327  1.00  0.00     0.111 C 
ATOM     21  O   UNL     1      45.039 129.058  15.685  1.00  0.00    -0.315 OA
BRANCH  20  22
ATOM     22  C   UNL     1      44.566 131.395  15.878  1.00  0.00     0.232 C 
ATOM     23  Cl  UNL     1      45.682 132.783  15.979  1.00  0.00    -0.077 Cl
ATOM     24  Cl  UNL     1      44.036 131.210  14.189  1.00  0.00    -0.077 Cl
ATOM     25  Cl  UNL     1      43.142 131.756  16.894  1.00  0.00    -0.077 Cl
ENDBRANCH  20  22
ENDBRANCH  19  20
ENDBRANCH  17  19
ENDBRANCH   1  17
TORSDOF 9
ENDMDL


