MODEL 1
REMARK VINA RESULT:     -10.3      0.000      0.000
REMARK SMILES Cc1ccc(Nc2cc(F)c(CN3CC[C@H]4CCC[C@H]43)cc2N)c(F)[nH+]1
REMARK SMILES IDX 7 1 8 2 9 3 10 4 11 5 21 6 22 7 6 8 5 10 2 11 3 12 26 13
REMARK SMILES IDX 4 14 24 15 1 16 25 18 23 19 12 22 13 23 14 24 20 25 15 26
REMARK SMILES IDX 19 27 16 28 18 29 17 30
REMARK H PARENT 6 9 26 17 23 20 23 21
ROOT
ATOM      1  C   UNL     1      44.325 131.788  18.321  1.00  0.00     0.065 A 
ATOM      2  C   UNL     1      45.418 131.361  19.086  1.00  0.00     0.067 A 
ATOM      3  C   UNL     1      45.279 131.121  20.453  1.00  0.00     0.129 A 
ATOM      4  F   UNL     1      46.366 130.752  21.177  1.00  0.00    -0.207 F 
ATOM      5  C   UNL     1      44.031 131.284  21.075  1.00  0.00     0.004 A 
ATOM      6  C   UNL     1      42.926 131.680  20.306  1.00  0.00     0.035 A 
ATOM      7  C   UNL     1      43.057 131.919  18.931  1.00  0.00     0.056 A 
ENDROOT
BRANCH   1   8
ATOM      8  N   UNL     1      44.527 132.083  16.931  1.00  0.00    -0.346 N 
ATOM      9  H   UNL     1      43.895 132.792  16.492  1.00  0.00     0.167 HD
BRANCH   8  10
ATOM     10  C   UNL     1      45.478 131.403  16.091  1.00  0.00     0.144 A 
ATOM     11  C   UNL     1      47.337 130.127  14.446  1.00  0.00     0.179 A 
ATOM     12  C   UNL     1      46.936 131.436  14.157  1.00  0.00     0.076 A 
ATOM     13  N   UNL     1      46.787 129.472  15.511  1.00  0.00    -0.182 N 
ATOM     14  C   UNL     1      46.006 132.069  14.980  1.00  0.00     0.042 A 
ATOM     15  C   UNL     1      45.879 130.072  16.331  1.00  0.00     0.381 A 
ATOM     16  C   UNL     1      48.317 129.432  13.551  1.00  0.00     0.123 C 
ATOM     17  H   UNL     1      47.065 128.487  15.714  1.00  0.00     0.456 HD
ATOM     18  F   UNL     1      45.341 129.353  17.350  1.00  0.00    -0.134 F 
ENDBRANCH   8  10
ENDBRANCH   1   8
BRANCH   7  19
ATOM     19  N   UNL     1      41.893 132.262  18.168  1.00  0.00    -0.397 N 
ATOM     20  H   UNL     1      40.988 131.765  18.329  1.00  0.00     0.156 HD
ATOM     21  H   UNL     1      41.930 132.953  17.388  1.00  0.00     0.156 HD
ENDBRANCH   7  19
BRANCH   5  22
ATOM     22  C   UNL     1      43.895 131.108  22.565  1.00  0.00     0.123 C 
BRANCH  22  23
ATOM     23  N   UNL     1      43.417 129.747  22.879  1.00  0.00    -0.296 NA
ATOM     24  C   UNL     1      42.288 129.784  23.813  1.00  0.00     0.085 C 
ATOM     25  C   UNL     1      44.451 128.906  23.515  1.00  0.00     0.060 C 
ATOM     26  C   UNL     1      42.303 128.462  24.551  1.00  0.00     0.021 C 
ATOM     27  C   UNL     1      45.009 127.891  22.511  1.00  0.00     0.019 C 
ATOM     28  C   UNL     1      43.780 128.097  24.625  1.00  0.00     0.007 C 
ATOM     29  C   UNL     1      44.361 126.558  22.844  1.00  0.00     0.002 C 
ATOM     30  C   UNL     1      44.054 126.622  24.328  1.00  0.00     0.005 C 
ENDBRANCH  22  23
ENDBRANCH   5  22
TORSDOF 5
ENDMDL
MODEL 2
REMARK VINA RESULT:      -9.5      1.526      1.940
REMARK SMILES Cc1ccc(Nc2cc(F)c(CN3CC[C@H]4CCC[C@H]43)cc2N)c(F)[nH+]1
REMARK SMILES IDX 7 1 8 2 9 3 10 4 11 5 21 6 22 7 6 8 5 10 2 11 3 12 26 13
REMARK SMILES IDX 4 14 24 15 1 16 25 18 23 19 12 22 13 23 14 24 20 25 15 26
REMARK SMILES IDX 19 27 16 28 18 29 17 30
REMARK H PARENT 6 9 26 17 23 20 23 21
ROOT
ATOM      1  C   UNL     1      43.871 131.482  17.563  1.00  0.00     0.065 A 
ATOM      2  C   UNL     1      42.749 132.114  18.114  1.00  0.00     0.067 A 
ATOM      3  C   UNL     1      42.612 132.241  19.497  1.00  0.00     0.129 A 
ATOM      4  F   UNL     1      41.493 132.818  20.004  1.00  0.00    -0.207 F 
ATOM      5  C   UNL     1      43.612 131.755  20.353  1.00  0.00     0.004 A 
ATOM      6  C   UNL     1      44.753 131.150  19.804  1.00  0.00     0.035 A 
ATOM      7  C   UNL     1      44.901 131.022  18.416  1.00  0.00     0.056 A 
ENDROOT
BRANCH   1   8
ATOM      8  N   UNL     1      43.942 131.317  16.139  1.00  0.00    -0.346 N 
ATOM      9  H   UNL     1      43.070 131.494  15.590  1.00  0.00     0.167 HD
BRANCH   8  10
ATOM     10  C   UNL     1      45.106 130.839  15.440  1.00  0.00     0.144 A 
ATOM     11  C   UNL     1      47.383 129.956  14.089  1.00  0.00     0.179 A 
ATOM     12  C   UNL     1      47.130 131.328  14.201  1.00  0.00     0.076 A 
ATOM     13  N   UNL     1      46.494 129.061  14.610  1.00  0.00    -0.182 N 
ATOM     14  C   UNL     1      45.991 131.764  14.875  1.00  0.00     0.042 A 
ATOM     15  C   UNL     1      45.375 129.465  15.275  1.00  0.00     0.381 A 
ATOM     16  C   UNL     1      48.593 129.480  13.343  1.00  0.00     0.123 C 
ATOM     17  H   UNL     1      46.667 128.037  14.506  1.00  0.00     0.456 HD
ATOM     18  F   UNL     1      44.512 128.524  15.737  1.00  0.00    -0.134 F 
ENDBRANCH   8  10
ENDBRANCH   1   8
BRANCH   7  19
ATOM     19  N   UNL     1      46.107 130.455  17.891  1.00  0.00    -0.397 N 
ATOM     20  H   UNL     1      46.238 130.347  16.860  1.00  0.00     0.156 HD
ATOM     21  H   UNL     1      46.849 130.067  18.513  1.00  0.00     0.156 HD
ENDBRANCH   7  19
BRANCH   5  22
ATOM     22  C   UNL     1      43.430 131.813  21.848  1.00  0.00     0.123 C 
BRANCH  22  23
ATOM     23  N   UNL     1      43.227 130.456  22.393  1.00  0.00    -0.296 NA
ATOM     24  C   UNL     1      42.143 130.437  23.379  1.00  0.00     0.085 C 
ATOM     25  C   UNL     1      44.422 129.927  23.081  1.00  0.00     0.060 C 
ATOM     26  C   UNL     1      42.431 129.275  24.305  1.00  0.00     0.021 C 
ATOM     27  C   UNL     1      45.127 128.883  22.209  1.00  0.00     0.019 C 
ATOM     28  C   UNL     1      43.952 129.198  24.341  1.00  0.00     0.007 C 
ATOM     29  C   UNL     1      44.751 127.525  22.778  1.00  0.00     0.002 C 
ATOM     30  C   UNL     1      44.488 127.768  24.253  1.00  0.00     0.005 C 
ENDBRANCH  22  23
ENDBRANCH   5  22
TORSDOF 5
ENDMDL
MODEL 3
REMARK VINA RESULT:      -8.4      1.951      7.847
REMARK SMILES Cc1ccc(Nc2cc(F)c(CN3CC[C@H]4CCC[C@H]43)cc2N)c(F)[nH+]1
REMARK SMILES IDX 7 1 8 2 9 3 10 4 11 5 21 6 22 7 6 8 5 10 2 11 3 12 26 13
REMARK SMILES IDX 4 14 24 15 1 16 25 18 23 19 12 22 13 23 14 24 20 25 15 26
REMARK SMILES IDX 19 27 16 28 18 29 17 30
REMARK H PARENT 6 9 26 17 23 20 23 21
ROOT
ATOM      1  C   UNL     1      44.292 131.406  20.025  1.00  0.00     0.065 A 
ATOM      2  C   UNL     1      43.086 131.781  19.421  1.00  0.00     0.067 A 
ATOM      3  C   UNL     1      42.996 131.918  18.035  1.00  0.00     0.129 A 
ATOM      4  F   UNL     1      41.826 132.327  17.482  1.00  0.00    -0.207 F 
ATOM      5  C   UNL     1      44.114 131.658  17.227  1.00  0.00     0.004 A 
ATOM      6  C   UNL     1      45.316 131.250  17.825  1.00  0.00     0.035 A 
ATOM      7  C   UNL     1      45.413 131.106  19.216  1.00  0.00     0.056 A 
ENDROOT
BRANCH   1   8
ATOM      8  N   UNL     1      44.357 131.337  21.457  1.00  0.00    -0.346 N 
ATOM      9  H   UNL     1      44.847 132.116  21.955  1.00  0.00     0.167 HD
BRANCH   8  10
ATOM     10  C   UNL     1      43.873 130.227  22.234  1.00  0.00     0.144 A 
ATOM     11  C   UNL     1      42.978 128.056  23.744  1.00  0.00     0.179 A 
ATOM     12  C   UNL     1      44.192 127.969  23.053  1.00  0.00     0.076 A 
ATOM     13  N   UNL     1      42.224 129.190  23.643  1.00  0.00    -0.182 N 
ATOM     14  C   UNL     1      44.634 129.055  22.299  1.00  0.00     0.042 A 
ATOM     15  C   UNL     1      42.638 130.265  22.915  1.00  0.00     0.381 A 
ATOM     16  C   UNL     1      42.485 126.883  24.536  1.00  0.00     0.123 C 
ATOM     17  H   UNL     1      41.306 129.248  24.137  1.00  0.00     0.456 HD
ATOM     18  F   UNL     1      41.823 131.348  22.824  1.00  0.00    -0.134 F 
ENDBRANCH   8  10
ENDBRANCH   1   8
BRANCH   7  19
ATOM     19  N   UNL     1      46.638 130.628  19.785  1.00  0.00    -0.397 N 
ATOM     20  H   UNL     1      46.630 130.063  20.664  1.00  0.00     0.156 HD
ATOM     21  H   UNL     1      47.567 130.889  19.389  1.00  0.00     0.156 HD
ENDBRANCH   7  19
BRANCH   5  22
ATOM     22  C   UNL     1      44.047 131.887  15.739  1.00  0.00     0.123 C 
BRANCH  22  23
ATOM     23  N   UNL     1      44.850 130.872  15.028  1.00  0.00    -0.296 NA
ATOM     24  C   UNL     1      44.582 129.527  15.544  1.00  0.00     0.085 C 
ATOM     25  C   UNL     1      46.304 131.086  15.167  1.00  0.00     0.060 C 
ATOM     26  C   UNL     1      45.827 128.710  15.269  1.00  0.00     0.021 C 
ATOM     27  C   UNL     1      46.888 131.667  13.875  1.00  0.00     0.019 C 
ATOM     28  C   UNL     1      46.962 129.721  15.368  1.00  0.00     0.007 C 
ATOM     29  C   UNL     1      47.581 130.517  13.164  1.00  0.00     0.002 C 
ATOM     30  C   UNL     1      48.009 129.565  14.265  1.00  0.00     0.005 C 
ENDBRANCH  22  23
ENDBRANCH   5  22
TORSDOF 5
ENDMDL
MODEL 4
REMARK VINA RESULT:      -7.5      1.780      7.744
REMARK SMILES Cc1ccc(Nc2cc(F)c(CN3CC[C@H]4CCC[C@H]43)cc2N)c(F)[nH+]1
REMARK SMILES IDX 7 1 8 2 9 3 10 4 11 5 21 6 22 7 6 8 5 10 2 11 3 12 26 13
REMARK SMILES IDX 4 14 24 15 1 16 25 18 23 19 12 22 13 23 14 24 20 25 15 26
REMARK SMILES IDX 19 27 16 28 18 29 17 30
REMARK H PARENT 6 9 26 17 23 20 23 21
ROOT
ATOM      1  C   UNL     1      44.381 131.039  20.637  1.00  0.00     0.065 A 
ATOM      2  C   UNL     1      43.129 131.392  20.119  1.00  0.00     0.067 A 
ATOM      3  C   UNL     1      42.985 131.736  18.775  1.00  0.00     0.129 A 
ATOM      4  F   UNL     1      41.768 132.117  18.312  1.00  0.00    -0.207 F 
ATOM      5  C   UNL     1      44.097 131.710  17.918  1.00  0.00     0.004 A 
ATOM      6  C   UNL     1      45.348 131.326  18.424  1.00  0.00     0.035 A 
ATOM      7  C   UNL     1      45.499 130.975  19.773  1.00  0.00     0.056 A 
ENDROOT
BRANCH   1   8
ATOM      8  N   UNL     1      44.495 130.753  22.038  1.00  0.00    -0.346 N 
ATOM      9  H   UNL     1      45.117 131.372  22.608  1.00  0.00     0.167 HD
BRANCH   8  10
ATOM     10  C   UNL     1      43.882 129.622  22.684  1.00  0.00     0.144 A 
ATOM     11  C   UNL     1      42.649 127.451  23.933  1.00  0.00     0.179 A 
ATOM     12  C   UNL     1      42.029 128.706  23.948  1.00  0.00     0.076 A 
ATOM     13  N   UNL     1      43.870 127.309  23.338  1.00  0.00    -0.182 N 
ATOM     14  C   UNL     1      42.649 129.787  23.325  1.00  0.00     0.042 A 
ATOM     15  C   UNL     1      44.493 128.351  22.720  1.00  0.00     0.381 A 
ATOM     16  C   UNL     1      42.000 126.290  24.623  1.00  0.00     0.123 C 
ATOM     17  H   UNL     1      44.346 126.380  23.346  1.00  0.00     0.456 HD
ATOM     18  F   UNL     1      45.723 128.153  22.179  1.00  0.00    -0.134 F 
ENDBRANCH   8  10
ENDBRANCH   1   8
BRANCH   7  19
ATOM     19  N   UNL     1      46.778 130.529  20.239  1.00  0.00    -0.397 N 
ATOM     20  H   UNL     1      47.620 130.594  19.624  1.00  0.00     0.156 HD
ATOM     21  H   UNL     1      46.895 130.061  21.165  1.00  0.00     0.156 HD
ENDBRANCH   7  19
BRANCH   5  22
ATOM     22  C   UNL     1      43.965 132.162  16.486  1.00  0.00     0.123 C 
BRANCH  22  23
ATOM     23  N   UNL     1      44.651 131.216  15.585  1.00  0.00    -0.296 NA
ATOM     24  C   UNL     1      44.167 129.847  15.785  1.00  0.00     0.085 C 
ATOM     25  C   UNL     1      46.112 131.173  15.798  1.00  0.00     0.060 C 
ATOM     26  C   UNL     1      45.295 128.930  15.361  1.00  0.00     0.021 C 
ATOM     27  C   UNL     1      46.841 131.924  14.679  1.00  0.00     0.019 C 
ATOM     28  C   UNL     1      46.556 129.713  15.705  1.00  0.00     0.007 C 
ATOM     29  C   UNL     1      47.399 130.864  13.745  1.00  0.00     0.002 C 
ATOM     30  C   UNL     1      47.628 129.643  14.616  1.00  0.00     0.005 C 
ENDBRANCH  22  23
ENDBRANCH   5  22
TORSDOF 5
ENDMDL


