MODEL 1
REMARK VINA RESULT:      -8.5      0.000      0.000
REMARK SMILES C=Cc1ccc(-c2c[nH+]c3ocnc3c2)c(C#N)c1F
REMARK SMILES IDX 3 1 4 2 5 3 6 4 16 5 19 6 20 7 2 8 1 9 17 10 18 11 7 12 8 13
REMARK SMILES IDX 15 14 9 15 14 16 10 17 13 18 11 19 12 20
REMARK H PARENT 9 21
ROOT
ATOM      1  C   UNL     1      44.375 130.834  21.534  1.00  0.00     0.011 A 
ATOM      2  C   UNL     1      45.661 130.444  21.119  1.00  0.00     0.012 A 
ATOM      3  C   UNL     1      46.035 130.542  19.779  1.00  0.00     0.011 A 
ATOM      4  C   UNL     1      45.142 131.043  18.819  1.00  0.00     0.009 A 
ATOM      5  C   UNL     1      43.848 131.438  19.226  1.00  0.00     0.096 A 
ATOM      6  C   UNL     1      43.476 131.340  20.577  1.00  0.00     0.148 A 
ATOM      7  F   UNL     1      42.225 131.716  20.956  1.00  0.00    -0.205 F 
ENDROOT
BRANCH   1   8
ATOM      8  C   UNL     1      43.951 130.755  22.955  1.00  0.00     0.003 C 
ATOM      9  C   UNL     1      43.948 131.794  23.791  1.00  0.00     0.009 C 
ENDBRANCH   1   8
BRANCH   5  10
ATOM     10  C   UNL     1      42.870 131.902  18.268  1.00  0.00     0.103 C 
ATOM     11  N   UNL     1      42.087 132.275  17.502  1.00  0.00    -0.192 NA
ENDBRANCH   5  10
BRANCH   4  12
ATOM     12  C   UNL     1      45.590 131.141  17.409  1.00  0.00     0.050 A 
ATOM     13  C   UNL     1      45.461 132.362  16.688  1.00  0.00     0.318 A 
ATOM     14  C   UNL     1      46.180 130.026  16.771  1.00  0.00     0.054 A 
ATOM     15  N   UNL     1      45.886 132.455  15.391  1.00  0.00    -0.177 N 
ATOM     16  C   UNL     1      46.592 130.185  15.454  1.00  0.00     0.179 A 
ATOM     17  C   UNL     1      46.439 131.364  14.807  1.00  0.00     0.399 A 
ATOM     18  N   UNL     1      47.168 129.287  14.639  1.00  0.00    -0.209 NA
ATOM     19  O   UNL     1      46.901 131.256  13.594  1.00  0.00    -0.391 OA
ATOM     20  C   UNL     1      47.337 130.008  13.497  1.00  0.00     0.316 A 
ATOM     21  H   UNL     1      45.791 133.350  14.863  1.00  0.00     0.457 HD
ENDBRANCH   4  12
TORSDOF 3
ENDMDL
MODEL 2
REMARK VINA RESULT:      -7.6      0.903      1.528
REMARK SMILES C=Cc1ccc(-c2c[nH+]c3ocnc3c2)c(C#N)c1F
REMARK SMILES IDX 3 1 4 2 5 3 6 4 16 5 19 6 20 7 2 8 1 9 17 10 18 11 7 12 8 13
REMARK SMILES IDX 15 14 9 15 14 16 10 17 13 18 11 19 12 20
REMARK H PARENT 9 21
ROOT
ATOM      1  C   UNL     1      44.059 131.559  21.715  1.00  0.00     0.011 A 
ATOM      2  C   UNL     1      45.303 130.942  21.490  1.00  0.00     0.012 A 
ATOM      3  C   UNL     1      45.728 130.655  20.193  1.00  0.00     0.011 A 
ATOM      4  C   UNL     1      44.933 130.987  19.086  1.00  0.00     0.009 A 
ATOM      5  C   UNL     1      43.682 131.608  19.301  1.00  0.00     0.096 A 
ATOM      6  C   UNL     1      43.257 131.897  20.609  1.00  0.00     0.148 A 
ATOM      7  F   UNL     1      42.049 132.488  20.805  1.00  0.00    -0.205 F 
ENDROOT
BRANCH   1   8
ATOM      8  C   UNL     1      43.583 131.891  23.083  1.00  0.00     0.003 C 
ATOM      9  C   UNL     1      42.668 131.182  23.746  1.00  0.00     0.009 C 
ENDBRANCH   1   8
BRANCH   5  10
ATOM     10  C   UNL     1      42.798 131.914  18.201  1.00  0.00     0.103 C 
ATOM     11  N   UNL     1      42.090 132.158  17.318  1.00  0.00    -0.192 NA
ENDBRANCH   5  10
BRANCH   4  12
ATOM     12  C   UNL     1      45.434 130.674  17.726  1.00  0.00     0.050 A 
ATOM     13  C   UNL     1      45.554 129.324  17.289  1.00  0.00     0.318 A 
ATOM     14  C   UNL     1      45.770 131.718  16.835  1.00  0.00     0.054 A 
ATOM     15  N   UNL     1      46.003 129.036  16.030  1.00  0.00    -0.177 N 
ATOM     16  C   UNL     1      46.220 131.359  15.569  1.00  0.00     0.179 A 
ATOM     17  C   UNL     1      46.326 130.061  15.203  1.00  0.00     0.399 A 
ATOM     18  N   UNL     1      46.601 132.154  14.556  1.00  0.00    -0.209 NA
ATOM     19  O   UNL     1      46.765 129.990  13.978  1.00  0.00    -0.391 OA
ATOM     20  C   UNL     1      46.930 131.248  13.595  1.00  0.00     0.316 A 
ATOM     21  H   UNL     1      46.091 128.046  15.709  1.00  0.00     0.457 HD
ENDBRANCH   4  12
TORSDOF 3
ENDMDL
MODEL 3
REMARK VINA RESULT:      -7.4      3.392      6.546
REMARK SMILES C=Cc1ccc(-c2c[nH+]c3ocnc3c2)c(C#N)c1F
REMARK SMILES IDX 3 1 4 2 5 3 6 4 16 5 19 6 20 7 2 8 1 9 17 10 18 11 7 12 8 13
REMARK SMILES IDX 15 14 9 15 14 16 10 17 13 18 11 19 12 20
REMARK H PARENT 9 21
ROOT
ATOM      1  C   UNL     1      45.663 130.856  15.328  1.00  0.00     0.011 A 
ATOM      2  C   UNL     1      46.577 130.352  16.272  1.00  0.00     0.012 A 
ATOM      3  C   UNL     1      46.278 130.379  17.634  1.00  0.00     0.011 A 
ATOM      4  C   UNL     1      45.056 130.895  18.090  1.00  0.00     0.009 A 
ATOM      5  C   UNL     1      44.131 131.404  17.151  1.00  0.00     0.096 A 
ATOM      6  C   UNL     1      44.435 131.373  15.779  1.00  0.00     0.148 A 
ATOM      7  F   UNL     1      43.541 131.872  14.885  1.00  0.00    -0.205 F 
ENDROOT
BRANCH   1   8
ATOM      8  C   UNL     1      45.945 130.829  13.870  1.00  0.00     0.003 C 
ATOM      9  C   UNL     1      47.139 131.091  13.336  1.00  0.00     0.009 C 
ENDBRANCH   1   8
BRANCH   5  10
ATOM     10  C   UNL     1      42.886 132.003  17.573  1.00  0.00     0.103 C 
ATOM     11  N   UNL     1      41.889 132.485  17.910  1.00  0.00    -0.192 NA
ENDBRANCH   5  10
BRANCH   4  12
ATOM     12  C   UNL     1      44.778 130.891  19.547  1.00  0.00     0.050 A 
ATOM     13  C   UNL     1      45.637 130.200  20.449  1.00  0.00     0.318 A 
ATOM     14  C   UNL     1      43.670 131.601  20.062  1.00  0.00     0.054 A 
ATOM     15  N   UNL     1      45.387 130.207  21.794  1.00  0.00    -0.177 N 
ATOM     16  C   UNL     1      43.472 131.570  21.437  1.00  0.00     0.179 A 
ATOM     17  C   UNL     1      44.311 130.891  22.253  1.00  0.00     0.399 A 
ATOM     18  N   UNL     1      42.501 132.153  22.159  1.00  0.00    -0.209 NA
ATOM     19  O   UNL     1      43.912 131.017  23.487  1.00  0.00    -0.391 OA
ATOM     20  C   UNL     1      42.826 131.774  23.426  1.00  0.00     0.316 A 
ATOM     21  H   UNL     1      46.017 129.701  22.455  1.00  0.00     0.457 HD
ENDBRANCH   4  12
TORSDOF 3
ENDMDL
MODEL 4
REMARK VINA RESULT:      -7.2      3.584      6.534
REMARK SMILES C=Cc1ccc(-c2c[nH+]c3ocnc3c2)c(C#N)c1F
REMARK SMILES IDX 3 1 4 2 5 3 6 4 16 5 19 6 20 7 2 8 1 9 17 10 18 11 7 12 8 13
REMARK SMILES IDX 15 14 9 15 14 16 10 17 13 18 11 19 12 20
REMARK H PARENT 9 21
ROOT
ATOM      1  C   UNL     1      45.155 130.927  15.831  1.00  0.00     0.011 A 
ATOM      2  C   UNL     1      46.173 130.533  16.718  1.00  0.00     0.012 A 
ATOM      3  C   UNL     1      46.003 130.662  18.096  1.00  0.00     0.011 A 
ATOM      4  C   UNL     1      44.810 131.174  18.628  1.00  0.00     0.009 A 
ATOM      5  C   UNL     1      43.781 131.572  17.746  1.00  0.00     0.096 A 
ATOM      6  C   UNL     1      43.955 131.439  16.358  1.00  0.00     0.148 A 
ATOM      7  F   UNL     1      42.961 131.832  15.518  1.00  0.00    -0.205 F 
ENDROOT
BRANCH   1   8
ATOM      8  C   UNL     1      45.299 130.789  14.359  1.00  0.00     0.003 C 
ATOM      9  C   UNL     1      46.447 130.960  13.702  1.00  0.00     0.009 C 
ENDBRANCH   1   8
BRANCH   5  10
ATOM     10  C   UNL     1      42.558 132.164  18.238  1.00  0.00     0.103 C 
ATOM     11  N   UNL     1      41.578 132.637  18.632  1.00  0.00    -0.192 NA
ENDBRANCH   5  10
BRANCH   4  12
ATOM     12  C   UNL     1      44.672 131.281  20.100  1.00  0.00     0.050 A 
ATOM     13  C   UNL     1      45.598 132.045  20.864  1.00  0.00     0.318 A 
ATOM     14  C   UNL     1      43.595 130.647  20.761  1.00  0.00     0.054 A 
ATOM     15  N   UNL     1      45.462 132.154  22.221  1.00  0.00    -0.177 N 
ATOM     16  C   UNL     1      43.512 130.796  22.139  1.00  0.00     0.179 A 
ATOM     17  C   UNL     1      44.423 131.526  22.823  1.00  0.00     0.399 A 
ATOM     18  N   UNL     1      42.598 130.294  22.986  1.00  0.00    -0.209 NA
ATOM     19  O   UNL     1      44.126 131.512  24.092  1.00  0.00    -0.391 OA
ATOM     20  C   UNL     1      43.031 130.772  24.185  1.00  0.00     0.316 A 
ATOM     21  H   UNL     1      46.142 132.714  22.781  1.00  0.00     0.457 HD
ENDBRANCH   4  12
TORSDOF 3
ENDMDL
MODEL 5
REMARK VINA RESULT:      -6.8      1.016      1.132
REMARK SMILES C=Cc1ccc(-c2c[nH+]c3ocnc3c2)c(C#N)c1F
REMARK SMILES IDX 3 1 4 2 5 3 6 4 16 5 19 6 20 7 2 8 1 9 17 10 18 11 7 12 8 13
REMARK SMILES IDX 15 14 9 15 14 16 10 17 13 18 11 19 12 20
REMARK H PARENT 9 21
ROOT
ATOM      1  C   UNL     1      43.966 131.380  20.525  1.00  0.00     0.011 A 
ATOM      2  C   UNL     1      45.326 131.046  20.395  1.00  0.00     0.012 A 
ATOM      3  C   UNL     1      45.923 130.975  19.136  1.00  0.00     0.011 A 
ATOM      4  C   UNL     1      45.185 131.250  17.975  1.00  0.00     0.009 A 
ATOM      5  C   UNL     1      43.818 131.588  18.094  1.00  0.00     0.096 A 
ATOM      6  C   UNL     1      43.220 131.660  19.364  1.00  0.00     0.148 A 
ATOM      7  F   UNL     1      41.903 131.979  19.467  1.00  0.00    -0.205 F 
ENDROOT
BRANCH   1   8
ATOM      8  C   UNL     1      43.304 131.478  21.851  1.00  0.00     0.003 C 
ATOM      9  C   UNL     1      43.386 130.540  22.796  1.00  0.00     0.009 C 
ENDBRANCH   1   8
BRANCH   5  10
ATOM     10  C   UNL     1      42.998 131.819  16.927  1.00  0.00     0.103 C 
ATOM     11  N   UNL     1      42.340 132.005  15.993  1.00  0.00    -0.192 NA
ENDBRANCH   5  10
BRANCH   4  12
ATOM     12  C   UNL     1      45.866 131.175  16.660  1.00  0.00     0.050 A 
ATOM     13  C   UNL     1      45.975 132.328  15.832  1.00  0.00     0.318 A 
ATOM     14  C   UNL     1      46.445 129.960  16.227  1.00  0.00     0.054 A 
ATOM     15  N   UNL     1      46.616 132.261  14.624  1.00  0.00    -0.177 N 
ATOM     16  C   UNL     1      47.082 129.959  14.993  1.00  0.00     0.179 A 
ATOM     17  C   UNL     1      47.151 131.078  14.236  1.00  0.00     0.399 A 
ATOM     18  N   UNL     1      47.697 128.942  14.366  1.00  0.00    -0.209 NA
ATOM     19  O   UNL     1      47.795 130.818  13.134  1.00  0.00    -0.391 OA
ATOM     20  C   UNL     1      48.120 129.535  13.215  1.00  0.00     0.316 A 
ATOM     21  H   UNL     1      46.695 133.106  14.017  1.00  0.00     0.457 HD
ENDBRANCH   4  12
TORSDOF 3
ENDMDL
MODEL 6
REMARK VINA RESULT:      -6.7      1.490      2.222
REMARK SMILES C=Cc1ccc(-c2c[nH+]c3ocnc3c2)c(C#N)c1F
REMARK SMILES IDX 3 1 4 2 5 3 6 4 16 5 19 6 20 7 2 8 1 9 17 10 18 11 7 12 8 13
REMARK SMILES IDX 15 14 9 15 14 16 10 17 13 18 11 19 12 20
REMARK H PARENT 9 21
ROOT
ATOM      1  C   UNL     1      43.693 131.567  19.811  1.00  0.00     0.011 A 
ATOM      2  C   UNL     1      44.947 130.937  19.905  1.00  0.00     0.012 A 
ATOM      3  C   UNL     1      45.655 130.592  18.754  1.00  0.00     0.011 A 
ATOM      4  C   UNL     1      45.140 130.877  17.481  1.00  0.00     0.009 A 
ATOM      5  C   UNL     1      43.881 131.511  17.376  1.00  0.00     0.096 A 
ATOM      6  C   UNL     1      43.171 131.858  18.537  1.00  0.00     0.148 A 
ATOM      7  F   UNL     1      41.958 132.461  18.425  1.00  0.00    -0.205 F 
ENDROOT
BRANCH   1   8
ATOM      8  C   UNL     1      42.920 131.960  21.017  1.00  0.00     0.003 C 
ATOM      9  C   UNL     1      43.200 131.541  22.252  1.00  0.00     0.009 C 
ENDBRANCH   1   8
BRANCH   5  10
ATOM     10  C   UNL     1      43.277 131.771  16.089  1.00  0.00     0.103 C 
ATOM     11  N   UNL     1      42.795 131.980  15.058  1.00  0.00    -0.192 NA
ENDBRANCH   5  10
BRANCH   4  12
ATOM     12  C   UNL     1      45.936 130.503  16.287  1.00  0.00     0.050 A 
ATOM     13  C   UNL     1      46.178 129.135  15.975  1.00  0.00     0.318 A 
ATOM     14  C   UNL     1      46.438 131.504  15.425  1.00  0.00     0.054 A 
ATOM     15  N   UNL     1      46.901 128.790  14.866  1.00  0.00    -0.177 N 
ATOM     16  C   UNL     1      47.164 131.088  14.315  1.00  0.00     0.179 A 
ATOM     17  C   UNL     1      47.376 129.775  14.065  1.00  0.00     0.399 A 
ATOM     18  N   UNL     1      47.743 131.835  13.361  1.00  0.00    -0.209 NA
ATOM     19  O   UNL     1      48.077 129.649  12.974  1.00  0.00    -0.391 OA
ATOM     20  C   UNL     1      48.295 130.887  12.556  1.00  0.00     0.316 A 
ATOM     21  H   UNL     1      47.079 127.787  14.637  1.00  0.00     0.457 HD
ENDBRANCH   4  12
TORSDOF 3
ENDMDL
MODEL 7
REMARK VINA RESULT:      -6.7      1.211      1.846
REMARK SMILES C=Cc1ccc(-c2c[nH+]c3ocnc3c2)c(C#N)c1F
REMARK SMILES IDX 3 1 4 2 5 3 6 4 16 5 19 6 20 7 2 8 1 9 17 10 18 11 7 12 8 13
REMARK SMILES IDX 15 14 9 15 14 16 10 17 13 18 11 19 12 20
REMARK H PARENT 9 21
ROOT
ATOM      1  C   UNL     1      43.803 131.371  22.531  1.00  0.00     0.011 A 
ATOM      2  C   UNL     1      45.025 130.742  22.234  1.00  0.00     0.012 A 
ATOM      3  C   UNL     1      45.433 130.574  20.910  1.00  0.00     0.011 A 
ATOM      4  C   UNL     1      44.642 131.040  19.850  1.00  0.00     0.009 A 
ATOM      5  C   UNL     1      43.412 131.673  20.138  1.00  0.00     0.096 A 
ATOM      6  C   UNL     1      43.005 131.842  21.472  1.00  0.00     0.148 A 
ATOM      7  F   UNL     1      41.816 132.447  21.738  1.00  0.00    -0.205 F 
ENDROOT
BRANCH   1   8
ATOM      8  C   UNL     1      43.346 131.578  23.929  1.00  0.00     0.003 C 
ATOM      9  C   UNL     1      43.556 132.697  24.625  1.00  0.00     0.009 C 
ENDBRANCH   1   8
BRANCH   5  10
ATOM     10  C   UNL     1      42.530 132.115  19.082  1.00  0.00     0.103 C 
ATOM     11  N   UNL     1      41.823 132.468  18.237  1.00  0.00    -0.192 NA
ENDBRANCH   5  10
BRANCH   4  12
ATOM     12  C   UNL     1      45.124 130.849  18.461  1.00  0.00     0.050 A 
ATOM     13  C   UNL     1      46.167 129.923  18.174  1.00  0.00     0.318 A 
ATOM     14  C   UNL     1      44.529 131.566  17.397  1.00  0.00     0.054 A 
ATOM     15  N   UNL     1      46.602 129.738  16.890  1.00  0.00    -0.177 N 
ATOM     16  C   UNL     1      45.016 131.332  16.117  1.00  0.00     0.179 A 
ATOM     17  C   UNL     1      46.016 130.448  15.895  1.00  0.00     0.399 A 
ATOM     18  N   UNL     1      44.626 131.884  14.956  1.00  0.00    -0.209 NA
ATOM     19  O   UNL     1      46.288 130.410  14.621  1.00  0.00    -0.391 OA
ATOM     20  C   UNL     1      45.452 131.274  14.062  1.00  0.00     0.316 A 
ATOM     21  H   UNL     1      47.367 129.060  16.680  1.00  0.00     0.457 HD
ENDBRANCH   4  12
TORSDOF 3
ENDMDL
MODEL 8
REMARK VINA RESULT:      -6.7      3.536      6.399
REMARK SMILES C=Cc1ccc(-c2c[nH+]c3ocnc3c2)c(C#N)c1F
REMARK SMILES IDX 3 1 4 2 5 3 6 4 16 5 19 6 20 7 2 8 1 9 17 10 18 11 7 12 8 13
REMARK SMILES IDX 15 14 9 15 14 16 10 17 13 18 11 19 12 20
REMARK H PARENT 9 21
ROOT
ATOM      1  C   UNL     1      45.378 130.943  15.755  1.00  0.00     0.011 A 
ATOM      2  C   UNL     1      46.388 130.454  16.604  1.00  0.00     0.012 A 
ATOM      3  C   UNL     1      46.212 130.449  17.987  1.00  0.00     0.011 A 
ATOM      4  C   UNL     1      45.021 130.916  18.561  1.00  0.00     0.009 A 
ATOM      5  C   UNL     1      43.999 131.409  17.719  1.00  0.00     0.096 A 
ATOM      6  C   UNL     1      44.180 131.411  16.325  1.00  0.00     0.148 A 
ATOM      7  F   UNL     1      43.193 131.895  15.524  1.00  0.00    -0.205 F 
ENDROOT
BRANCH   1   8
ATOM      8  C   UNL     1      45.529 130.950  14.278  1.00  0.00     0.003 C 
ATOM      9  C   UNL     1      46.701 131.040  13.648  1.00  0.00     0.009 C 
ENDBRANCH   1   8
BRANCH   5  10
ATOM     10  C   UNL     1      42.779 131.959  18.262  1.00  0.00     0.103 C 
ATOM     11  N   UNL     1      41.802 132.401  18.698  1.00  0.00    -0.192 NA
ENDBRANCH   5  10
BRANCH   4  12
ATOM     12  C   UNL     1      44.875 130.878  20.037  1.00  0.00     0.050 A 
ATOM     13  C   UNL     1      44.724 132.081  20.783  1.00  0.00     0.318 A 
ATOM     14  C   UNL     1      44.855 129.639  20.717  1.00  0.00     0.054 A 
ATOM     15  N   UNL     1      44.576 132.044  22.143  1.00  0.00    -0.177 N 
ATOM     16  C   UNL     1      44.700 129.670  22.098  1.00  0.00     0.179 A 
ATOM     17  C   UNL     1      44.569 130.840  22.765  1.00  0.00     0.399 A 
ATOM     18  N   UNL     1      44.655 128.642  22.961  1.00  0.00    -0.209 NA
ATOM     19  O   UNL     1      44.440 130.601  24.039  1.00  0.00    -0.391 OA
ATOM     20  C   UNL     1      44.493 129.281  24.152  1.00  0.00     0.316 A 
ATOM     21  H   UNL     1      44.465 132.926  22.690  1.00  0.00     0.457 HD
ENDBRANCH   4  12
TORSDOF 3
ENDMDL
MODEL 9
REMARK VINA RESULT:      -6.6      1.970      2.910
REMARK SMILES C=Cc1ccc(-c2c[nH+]c3ocnc3c2)c(C#N)c1F
REMARK SMILES IDX 3 1 4 2 5 3 6 4 16 5 19 6 20 7 2 8 1 9 17 10 18 11 7 12 8 13
REMARK SMILES IDX 15 14 9 15 14 16 10 17 13 18 11 19 12 20
REMARK H PARENT 9 21
ROOT
ATOM      1  C   UNL     1      42.303 132.566  19.729  1.00  0.00     0.011 A 
ATOM      2  C   UNL     1      41.942 132.519  18.370  1.00  0.00     0.012 A 
ATOM      3  C   UNL     1      42.812 131.978  17.423  1.00  0.00     0.011 A 
ATOM      4  C   UNL     1      44.057 131.458  17.806  1.00  0.00     0.009 A 
ATOM      5  C   UNL     1      44.429 131.499  19.168  1.00  0.00     0.096 A 
ATOM      6  C   UNL     1      43.550 132.043  20.120  1.00  0.00     0.148 A 
ATOM      7  F   UNL     1      43.921 132.084  21.427  1.00  0.00    -0.205 F 
ENDROOT
BRANCH   1   8
ATOM      8  C   UNL     1      41.395 133.122  20.764  1.00  0.00     0.003 C 
ATOM      9  C   UNL     1      41.388 132.730  22.039  1.00  0.00     0.009 C 
ENDBRANCH   1   8
BRANCH   5  10
ATOM     10  C   UNL     1      45.725 131.034  19.606  1.00  0.00     0.103 C 
ATOM     11  N   UNL     1      46.762 130.661  19.958  1.00  0.00    -0.192 NA
ENDBRANCH   5  10
BRANCH   4  12
ATOM     12  C   UNL     1      44.941 130.882  16.764  1.00  0.00     0.050 A 
ATOM     13  C   UNL     1      45.062 129.471  16.612  1.00  0.00     0.318 A 
ATOM     14  C   UNL     1      45.653 131.731  15.886  1.00  0.00     0.054 A 
ATOM     15  N   UNL     1      45.868 128.941  15.643  1.00  0.00    -0.177 N 
ATOM     16  C   UNL     1      46.453 131.130  14.923  1.00  0.00     0.179 A 
ATOM     17  C   UNL     1      46.543 129.783  14.824  1.00  0.00     0.399 A 
ATOM     18  N   UNL     1      47.223 131.711  13.987  1.00  0.00    -0.209 NA
ATOM     19  O   UNL     1      47.350 129.473  13.849  1.00  0.00    -0.391 OA
ATOM     20  C   UNL     1      47.756 130.632  13.351  1.00  0.00     0.316 A 
ATOM     21  H   UNL     1      45.957 127.906  15.531  1.00  0.00     0.457 HD
ENDBRANCH   4  12
TORSDOF 3
ENDMDL


