REMARK SMILES Fc1cccc(F)c1C/C=C(\O/C(S)=[NH+]\Cc1cc(Cl)cc(Cl)c1)c1ccccc1
REMARK SMILES IDX 12 1 13 2 14 3 15 5 16 7 17 8 18 9 24 10 19 11 22 12 21 13
REMARK SMILES IDX 20 14 23 15 11 16 10 17 9 18 8 19 2 20 6 21 3 22 5 23 4 24
REMARK SMILES IDX 1 25 7 26 25 27 26 28 30 29 27 30 29 31 28 32
REMARK H PARENT 14 4 15 6
ROOT
ATOM      1  O   UNL     1      -1.345   1.642  -0.613  1.00  0.00    -0.400 OA
ENDROOT
BRANCH   1   2
ATOM      2  C   UNL     1      -0.711   1.183  -1.779  1.00  0.00     0.401 C 
BRANCH   2   3
ATOM      3  S   UNL     1      -0.121   2.412  -2.941  1.00  0.00    -0.031 SA
ATOM      4  H   UNL     1       1.158   2.437  -2.356  1.00  0.00     0.118 HD
ENDBRANCH   2   3
BRANCH   2   5
ATOM      5  N   UNL     1      -0.582  -0.084  -2.073  1.00  0.00    -0.200 N 
ATOM      6  H   UNL     1      -0.090  -0.326  -2.964  1.00  0.00     0.450 HD
BRANCH   5   7
ATOM      7  C   UNL     1      -1.149  -1.180  -1.281  1.00  0.00     0.389 C 
BRANCH   7   8
ATOM      8  C   UNL     1      -1.099  -2.470  -2.054  1.00  0.00     0.019 A 
ATOM      9  C   UNL     1       0.033  -3.298  -1.974  1.00  0.00     0.030 A 
ATOM     10  C   UNL     1      -2.153  -2.823  -2.912  1.00  0.00     0.030 A 
ATOM     11  C   UNL     1       0.096  -4.479  -2.722  1.00  0.00     0.043 A 
ATOM     12  C   UNL     1      -2.088  -4.005  -3.658  1.00  0.00     0.043 A 
ATOM     13  C   UNL     1      -0.965  -4.833  -3.561  1.00  0.00     0.041 A 
ATOM     14  Cl  UNL     1       1.509  -5.512  -2.611  1.00  0.00    -0.084 Cl
ATOM     15  Cl  UNL     1      -3.413  -4.444  -4.721  1.00  0.00    -0.084 Cl
ENDBRANCH   7   8
ENDBRANCH   5   7
ENDBRANCH   2   5
ENDBRANCH   1   2
BRANCH   1  16
ATOM     16  C   UNL     1      -1.208   1.090   0.672  1.00  0.00     0.138 C 
BRANCH  16  17
ATOM     17  C   UNL     1       0.001   0.906   1.239  1.00  0.00     0.026 C 
BRANCH  17  18
ATOM     18  C   UNL     1       1.294   1.284   0.568  1.00  0.00     0.073 C 
BRANCH  18  19
ATOM     19  C   UNL     1       2.453   1.141   1.522  1.00  0.00     0.027 A 
ATOM     20  C   UNL     1       3.114  -0.095   1.656  1.00  0.00     0.129 A 
ATOM     21  C   UNL     1       2.845   2.222   2.335  1.00  0.00     0.129 A 
ATOM     22  C   UNL     1       4.168  -0.233   2.565  1.00  0.00     0.040 A 
ATOM     23  C   UNL     1       3.899   2.074   3.241  1.00  0.00     0.040 A 
ATOM     24  C   UNL     1       4.562   0.850   3.354  1.00  0.00     0.006 A 
ATOM     25  F   UNL     1       2.736  -1.166   0.913  1.00  0.00    -0.207 F 
ATOM     26  F   UNL     1       2.204   3.416   2.255  1.00  0.00    -0.207 F 
ENDBRANCH  18  19
ENDBRANCH  17  18
ENDBRANCH  16  17
BRANCH  16  27
ATOM     27  C   UNL     1      -2.453   0.777   1.417  1.00  0.00     0.017 A 
ATOM     28  C   UNL     1      -2.528  -0.317   2.304  1.00  0.00     0.012 A 
ATOM     29  C   UNL     1      -3.606   1.551   1.195  1.00  0.00     0.012 A 
ATOM     30  C   UNL     1      -3.723  -0.606   2.970  1.00  0.00     0.001 A 
ATOM     31  C   UNL     1      -4.797   1.258   1.866  1.00  0.00     0.001 A 
ATOM     32  C   UNL     1      -4.855   0.182   2.754  1.00  0.00     0.000 A 
ENDBRANCH  16  27
ENDBRANCH   1  16
TORSDOF 10


