MODEL 1
REMARK VINA RESULT:      -4.7      0.000      0.000
REMARK SMILES C=Cc1ccc(-c2cc3cc[nH]c3cc2Nc2cc(F)c(O)cc2N)[nH+]c1
REMARK SMILES IDX 7 1 8 2 9 3 10 4 11 5 12 6 13 7 14 8 15 9 6 11 3 12 4 13
REMARK SMILES IDX 27 14 5 15 26 16 2 18 1 19 16 20 17 22 18 23 24 24 19 25
REMARK SMILES IDX 23 26 21 27 20 28 25 29 22 32
REMARK H PARENT 12 10 26 17 16 21 25 30 25 31 22 33
ROOT
ATOM      1  C   UNL     1      45.565 124.769  22.982  1.00  0.00     0.070 A 
ATOM      2  C   UNL     1      45.019 123.517  22.625  1.00  0.00     0.027 A 
ATOM      3  C   UNL     1      43.668 123.454  22.304  1.00  0.00     0.000 A 
ATOM      4  C   UNL     1      42.887 122.388  21.914  1.00  0.00     0.028 A 
ATOM      5  C   UNL     1      41.618 122.922  21.715  1.00  0.00     0.083 A 
ATOM      6  N   UNL     1      41.611 124.250  21.968  1.00  0.00    -0.361 N 
ATOM      7  C   UNL     1      42.868 124.562  22.324  1.00  0.00     0.047 A 
ATOM      8  C   UNL     1      43.359 125.814  22.682  1.00  0.00     0.053 A 
ATOM      9  C   UNL     1      44.719 125.925  23.042  1.00  0.00     0.055 A 
ATOM     10  H   UNL     1      40.794 124.897  21.898  1.00  0.00     0.166 HD
ENDROOT
BRANCH   1  11
ATOM     11  C   UNL     1      47.019 124.861  23.243  1.00  0.00     0.212 A 
ATOM     12  C   UNL     1      49.777 124.915  23.692  1.00  0.00     0.038 A 
ATOM     13  C   UNL     1      49.233 125.550  22.563  1.00  0.00     0.021 A 
ATOM     14  C   UNL     1      48.900 124.265  24.575  1.00  0.00     0.314 A 
ATOM     15  C   UNL     1      47.856 125.532  22.342  1.00  0.00     0.081 A 
ATOM     16  N   UNL     1      47.560 124.257  24.341  1.00  0.00    -0.210 N 
ATOM     17  H   UNL     1      46.940 123.766  25.023  1.00  0.00     0.453 HD
BRANCH  12  18
ATOM     18  C   UNL     1      51.234 124.873  23.975  1.00  0.00     0.006 C 
ATOM     19  C   UNL     1      52.182 124.866  23.036  1.00  0.00     0.009 C 
ENDBRANCH  12  18
ENDBRANCH   1  11
BRANCH   9  20
ATOM     20  N   UNL     1      45.212 127.209  23.467  1.00  0.00    -0.353 N 
ATOM     21  H   UNL     1      46.000 127.225  24.154  1.00  0.00     0.167 HD
BRANCH  20  22
ATOM     22  C   UNL     1      44.834 128.449  22.844  1.00  0.00     0.065 A 
ATOM     23  C   UNL     1      45.458 128.855  21.651  1.00  0.00     0.071 A 
ATOM     24  C   UNL     1      43.840 129.272  23.420  1.00  0.00     0.059 A 
ATOM     25  C   UNL     1      45.089 130.048  21.027  1.00  0.00     0.167 A 
ATOM     26  C   UNL     1      43.484 130.472  22.788  1.00  0.00     0.077 A 
ATOM     27  C   UNL     1      44.099 130.861  21.594  1.00  0.00     0.153 A 
ATOM     28  F   UNL     1      45.699 130.412  19.871  1.00  0.00    -0.203 F 
BRANCH  24  29
ATOM     29  N   UNL     1      43.149 128.880  24.614  1.00  0.00    -0.397 N 
ATOM     30  H   UNL     1      42.200 129.263  24.825  1.00  0.00     0.156 HD
ATOM     31  H   UNL     1      43.537 128.170  25.271  1.00  0.00     0.156 HD
ENDBRANCH  24  29
BRANCH  27  32
ATOM     32  O   UNL     1      43.714 132.054  20.985  1.00  0.00    -0.505 OA
ATOM     33  H   UNL     1      43.401 132.852  21.524  1.00  0.00     0.293 HD
ENDBRANCH  27  32
ENDBRANCH  20  22
ENDBRANCH   9  20
TORSDOF 6
ENDMDL
MODEL 2
REMARK VINA RESULT:      -4.2      1.877      2.336
REMARK SMILES C=Cc1ccc(-c2cc3cc[nH]c3cc2Nc2cc(F)c(O)cc2N)[nH+]c1
REMARK SMILES IDX 7 1 8 2 9 3 10 4 11 5 12 6 13 7 14 8 15 9 6 11 3 12 4 13
REMARK SMILES IDX 27 14 5 15 26 16 2 18 1 19 16 20 17 22 18 23 24 24 19 25
REMARK SMILES IDX 23 26 21 27 20 28 25 29 22 32
REMARK H PARENT 12 10 26 17 16 21 25 30 25 31 22 33
ROOT
ATOM      1  C   UNL     1      44.891 125.501  23.705  1.00  0.00     0.070 A 
ATOM      2  C   UNL     1      44.235 124.249  23.718  1.00  0.00     0.027 A 
ATOM      3  C   UNL     1      42.848 124.232  23.805  1.00  0.00     0.000 A 
ATOM      4  C   UNL     1      41.964 123.175  23.825  1.00  0.00     0.028 A 
ATOM      5  C   UNL     1      40.704 123.760  23.909  1.00  0.00     0.083 A 
ATOM      6  N   UNL     1      40.801 125.108  23.940  1.00  0.00    -0.361 N 
ATOM      7  C   UNL     1      42.114 125.382  23.874  1.00  0.00     0.047 A 
ATOM      8  C   UNL     1      42.716 126.637  23.876  1.00  0.00     0.053 A 
ATOM      9  C   UNL     1      44.124 126.707  23.816  1.00  0.00     0.055 A 
ATOM     10  H   UNL     1      40.014 125.791  24.001  1.00  0.00     0.166 HD
ENDROOT
BRANCH   1  11
ATOM     11  C   UNL     1      46.360 125.531  23.528  1.00  0.00     0.212 A 
ATOM     12  C   UNL     1      49.123 125.707  23.147  1.00  0.00     0.038 A 
ATOM     13  C   UNL     1      48.574 125.886  24.429  1.00  0.00     0.021 A 
ATOM     14  C   UNL     1      48.249 125.437  22.083  1.00  0.00     0.314 A 
ATOM     15  C   UNL     1      47.196 125.790  24.622  1.00  0.00     0.081 A 
ATOM     16  N   UNL     1      46.907 125.350  22.291  1.00  0.00    -0.210 N 
ATOM     17  H   UNL     1      46.290 125.144  21.474  1.00  0.00     0.453 HD
BRANCH  12  18
ATOM     18  C   UNL     1      50.576 125.820  22.866  1.00  0.00     0.006 C 
ATOM     19  C   UNL     1      51.458 124.838  23.057  1.00  0.00     0.009 C 
ENDBRANCH  12  18
ENDBRANCH   1  11
BRANCH   9  20
ATOM     20  N   UNL     1      44.749 128.002  23.877  1.00  0.00    -0.353 N 
ATOM     21  H   UNL     1      45.723 128.057  24.252  1.00  0.00     0.167 HD
BRANCH  20  22
ATOM     22  C   UNL     1      44.197 129.178  23.257  1.00  0.00     0.065 A 
ATOM     23  C   UNL     1      43.208 129.924  23.921  1.00  0.00     0.071 A 
ATOM     24  C   UNL     1      44.635 129.591  21.979  1.00  0.00     0.059 A 
ATOM     25  C   UNL     1      42.677 131.076  23.338  1.00  0.00     0.167 A 
ATOM     26  C   UNL     1      44.087 130.746  21.400  1.00  0.00     0.077 A 
ATOM     27  C   UNL     1      43.116 131.491  22.075  1.00  0.00     0.153 A 
ATOM     28  F   UNL     1      41.732 131.785  24.005  1.00  0.00    -0.203 F 
BRANCH  24  29
ATOM     29  N   UNL     1      45.669 128.884  21.281  1.00  0.00    -0.397 N 
ATOM     30  H   UNL     1      45.460 128.390  20.384  1.00  0.00     0.156 HD
ATOM     31  H   UNL     1      46.659 128.885  21.609  1.00  0.00     0.156 HD
ENDBRANCH  24  29
BRANCH  27  32
ATOM     32  O   UNL     1      42.600 132.639  21.477  1.00  0.00    -0.505 OA
ATOM     33  H   UNL     1      41.968 132.592  20.686  1.00  0.00     0.293 HD
ENDBRANCH  27  32
ENDBRANCH  20  22
ENDBRANCH   9  20
TORSDOF 6
ENDMDL
MODEL 3
REMARK VINA RESULT:      -3.2      1.412      1.530
REMARK SMILES C=Cc1ccc(-c2cc3cc[nH]c3cc2Nc2cc(F)c(O)cc2N)[nH+]c1
REMARK SMILES IDX 7 1 8 2 9 3 10 4 11 5 12 6 13 7 14 8 15 9 6 11 3 12 4 13
REMARK SMILES IDX 27 14 5 15 26 16 2 18 1 19 16 20 17 22 18 23 24 24 19 25
REMARK SMILES IDX 23 26 21 27 20 28 25 29 22 32
REMARK H PARENT 12 10 26 17 16 21 25 30 25 31 22 33
ROOT
ATOM      1  C   UNL     1      45.083 125.588  23.203  1.00  0.00     0.070 A 
ATOM      2  C   UNL     1      44.348 124.443  23.583  1.00  0.00     0.027 A 
ATOM      3  C   UNL     1      42.964 124.547  23.672  1.00  0.00     0.000 A 
ATOM      4  C   UNL     1      42.014 123.604  24.000  1.00  0.00     0.028 A 
ATOM      5  C   UNL     1      40.797 124.272  23.911  1.00  0.00     0.083 A 
ATOM      6  N   UNL     1      40.982 125.561  23.546  1.00  0.00    -0.361 N 
ATOM      7  C   UNL     1      42.308 125.714  23.402  1.00  0.00     0.047 A 
ATOM      8  C   UNL     1      42.991 126.871  23.036  1.00  0.00     0.053 A 
ATOM      9  C   UNL     1      44.398 126.824  22.957  1.00  0.00     0.055 A 
ATOM     10  H   UNL     1      40.242 126.285  23.406  1.00  0.00     0.166 HD
ENDROOT
BRANCH   1  11
ATOM     11  C   UNL     1      46.546 125.465  23.024  1.00  0.00     0.212 A 
ATOM     12  C   UNL     1      49.312 125.142  22.775  1.00  0.00     0.038 A 
ATOM     13  C   UNL     1      48.445 124.572  21.825  1.00  0.00     0.021 A 
ATOM     14  C   UNL     1      48.748 125.870  23.834  1.00  0.00     0.314 A 
ATOM     15  C   UNL     1      47.066 124.740  21.943  1.00  0.00     0.081 A 
ATOM     16  N   UNL     1      47.400 126.021  23.932  1.00  0.00    -0.210 N 
ATOM     17  H   UNL     1      47.018 126.574  24.733  1.00  0.00     0.453 HD
BRANCH  12  18
ATOM     18  C   UNL     1      50.786 124.981  22.724  1.00  0.00     0.006 C 
ATOM     19  C   UNL     1      51.486 124.810  21.602  1.00  0.00     0.009 C 
ENDBRANCH  12  18
ENDBRANCH   1  11
BRANCH   9  20
ATOM     20  N   UNL     1      45.107 128.035  22.636  1.00  0.00    -0.353 N 
ATOM     21  H   UNL     1      46.137 127.968  22.468  1.00  0.00     0.167 HD
BRANCH  20  22
ATOM     22  C   UNL     1      44.451 129.277  22.322  1.00  0.00     0.065 A 
ATOM     23  C   UNL     1      44.554 129.818  21.029  1.00  0.00     0.071 A 
ATOM     24  C   UNL     1      43.705 129.966  23.304  1.00  0.00     0.059 A 
ATOM     25  C   UNL     1      43.910 131.014  20.706  1.00  0.00     0.167 A 
ATOM     26  C   UNL     1      43.069 131.171  22.970  1.00  0.00     0.077 A 
ATOM     27  C   UNL     1      43.164 131.694  21.677  1.00  0.00     0.153 A 
ATOM     28  F   UNL     1      44.015 131.509  19.447  1.00  0.00    -0.203 F 
BRANCH  24  29
ATOM     29  N   UNL     1      43.540 129.433  24.625  1.00  0.00    -0.397 N 
ATOM     30  H   UNL     1      43.671 130.044  25.462  1.00  0.00     0.156 HD
ATOM     31  H   UNL     1      43.233 128.450  24.790  1.00  0.00     0.156 HD
ENDBRANCH  24  29
BRANCH  27  32
ATOM     32  O   UNL     1      42.510 132.888  21.374  1.00  0.00    -0.505 OA
ATOM     33  H   UNL     1      42.664 133.374  20.499  1.00  0.00     0.293 HD
ENDBRANCH  27  32
ENDBRANCH  20  22
ENDBRANCH   9  20
TORSDOF 6
ENDMDL
MODEL 4
REMARK VINA RESULT:      -2.5      6.386      8.153
REMARK SMILES C=Cc1ccc(-c2cc3cc[nH]c3cc2Nc2cc(F)c(O)cc2N)[nH+]c1
REMARK SMILES IDX 7 1 8 2 9 3 10 4 11 5 12 6 13 7 14 8 15 9 6 11 3 12 4 13
REMARK SMILES IDX 27 14 5 15 26 16 2 18 1 19 16 20 17 22 18 23 24 24 19 25
REMARK SMILES IDX 23 26 21 27 20 28 25 29 22 32
REMARK H PARENT 12 10 26 17 16 21 25 30 25 31 22 33
ROOT
ATOM      1  C   UNL     1      45.024 131.482  20.682  1.00  0.00     0.070 A 
ATOM      2  C   UNL     1      43.946 130.770  21.254  1.00  0.00     0.027 A 
ATOM      3  C   UNL     1      43.636 131.003  22.589  1.00  0.00     0.000 A 
ATOM      4  C   UNL     1      42.647 130.469  23.386  1.00  0.00     0.028 A 
ATOM      5  C   UNL     1      42.810 131.083  24.624  1.00  0.00     0.083 A 
ATOM      6  N   UNL     1      43.844 131.953  24.596  1.00  0.00    -0.361 N 
ATOM      7  C   UNL     1      44.338 131.896  23.349  1.00  0.00     0.047 A 
ATOM      8  C   UNL     1      45.414 132.611  22.832  1.00  0.00     0.053 A 
ATOM      9  C   UNL     1      45.785 132.390  21.489  1.00  0.00     0.055 A 
ATOM     10  H   UNL     1      44.185 132.546  25.385  1.00  0.00     0.166 HD
ENDROOT
BRANCH   1  11
ATOM     11  C   UNL     1      45.308 131.303  19.241  1.00  0.00     0.212 A 
ATOM     12  C   UNL     1      45.754 130.874  16.515  1.00  0.00     0.038 A 
ATOM     13  C   UNL     1      44.999 131.981  16.942  1.00  0.00     0.021 A 
ATOM     14  C   UNL     1      46.270 130.007  17.491  1.00  0.00     0.314 A 
ATOM     15  C   UNL     1      44.783 132.201  18.302  1.00  0.00     0.081 A 
ATOM     16  N   UNL     1      46.046 130.238  18.813  1.00  0.00    -0.210 N 
ATOM     17  H   UNL     1      46.451 129.572  19.509  1.00  0.00     0.453 HD
BRANCH  12  18
ATOM     18  C   UNL     1      46.001 130.566  15.084  1.00  0.00     0.006 C 
ATOM     19  C   UNL     1      47.132 130.040  14.613  1.00  0.00     0.009 C 
ENDBRANCH  12  18
ENDBRANCH   1  11
BRANCH   9  20
ATOM     20  N   UNL     1      46.934 133.087  20.973  1.00  0.00    -0.353 N 
ATOM     21  H   UNL     1      46.936 133.340  19.958  1.00  0.00     0.167 HD
BRANCH  20  22
ATOM     22  C   UNL     1      47.967 133.640  21.808  1.00  0.00     0.065 A 
ATOM     23  C   UNL     1      48.681 132.806  22.687  1.00  0.00     0.071 A 
ATOM     24  C   UNL     1      48.273 135.018  21.760  1.00  0.00     0.059 A 
ATOM     25  C   UNL     1      49.696 133.326  23.491  1.00  0.00     0.167 A 
ATOM     26  C   UNL     1      49.290 135.530  22.578  1.00  0.00     0.077 A 
ATOM     27  C   UNL     1      50.005 134.692  23.439  1.00  0.00     0.153 A 
ATOM     28  F   UNL     1      50.378 132.499  24.323  1.00  0.00    -0.203 F 
BRANCH  24  29
ATOM     29  N   UNL     1      47.599 135.899  20.850  1.00  0.00    -0.397 N 
ATOM     30  H   UNL     1      48.016 136.825  20.604  1.00  0.00     0.156 HD
ATOM     31  H   UNL     1      46.714 135.627  20.370  1.00  0.00     0.156 HD
ENDBRANCH  24  29
BRANCH  27  32
ATOM     32  O   UNL     1      51.018 135.230  24.231  1.00  0.00    -0.505 OA
ATOM     33  H   UNL     1      50.949 135.256  25.241  1.00  0.00     0.293 HD
ENDBRANCH  27  32
ENDBRANCH  20  22
ENDBRANCH   9  20
TORSDOF 6
ENDMDL
MODEL 5
REMARK VINA RESULT:      -2.1      5.766      7.256
REMARK SMILES C=Cc1ccc(-c2cc3cc[nH]c3cc2Nc2cc(F)c(O)cc2N)[nH+]c1
REMARK SMILES IDX 7 1 8 2 9 3 10 4 11 5 12 6 13 7 14 8 15 9 6 11 3 12 4 13
REMARK SMILES IDX 27 14 5 15 26 16 2 18 1 19 16 20 17 22 18 23 24 24 19 25
REMARK SMILES IDX 23 26 21 27 20 28 25 29 22 32
REMARK H PARENT 12 10 26 17 16 21 25 30 25 31 22 33
ROOT
ATOM      1  C   UNL     1      44.802 131.833  22.570  1.00  0.00     0.070 A 
ATOM      2  C   UNL     1      44.384 131.170  23.746  1.00  0.00     0.027 A 
ATOM      3  C   UNL     1      43.322 130.277  23.658  1.00  0.00     0.000 A 
ATOM      4  C   UNL     1      42.725 129.496  24.623  1.00  0.00     0.028 A 
ATOM      5  C   UNL     1      41.725 128.797  23.955  1.00  0.00     0.083 A 
ATOM      6  N   UNL     1      41.703 129.126  22.644  1.00  0.00    -0.361 N 
ATOM      7  C   UNL     1      42.683 130.028  22.476  1.00  0.00     0.047 A 
ATOM      8  C   UNL     1      43.052 130.667  21.295  1.00  0.00     0.053 A 
ATOM      9  C   UNL     1      44.107 131.602  21.338  1.00  0.00     0.055 A 
ATOM     10  H   UNL     1      41.056 128.752  21.915  1.00  0.00     0.166 HD
ENDROOT
BRANCH   1  11
ATOM     11  C   UNL     1      45.984 132.720  22.638  1.00  0.00     0.212 A 
ATOM     12  C   UNL     1      48.150 134.486  22.702  1.00  0.00     0.038 A 
ATOM     13  C   UNL     1      47.350 134.307  23.844  1.00  0.00     0.021 A 
ATOM     14  C   UNL     1      47.830 133.756  21.548  1.00  0.00     0.314 A 
ATOM     15  C   UNL     1      46.274 133.420  23.816  1.00  0.00     0.081 A 
ATOM     16  N   UNL     1      46.775 132.897  21.540  1.00  0.00    -0.210 N 
ATOM     17  H   UNL     1      46.571 132.368  20.661  1.00  0.00     0.453 HD
BRANCH  12  18
ATOM     18  C   UNL     1      49.293 135.432  22.655  1.00  0.00     0.006 C 
ATOM     19  C   UNL     1      49.740 136.015  21.542  1.00  0.00     0.009 C 
ENDBRANCH  12  18
ENDBRANCH   1  11
BRANCH   9  20
ATOM     20  N   UNL     1      44.449 132.304  20.129  1.00  0.00    -0.353 N 
ATOM     21  H   UNL     1      44.724 133.309  20.209  1.00  0.00     0.167 HD
BRANCH  20  22
ATOM     22  C   UNL     1      44.641 131.651  18.861  1.00  0.00     0.065 A 
ATOM     23  C   UNL     1      43.851 132.015  17.756  1.00  0.00     0.071 A 
ATOM     24  C   UNL     1      45.617 130.640  18.711  1.00  0.00     0.059 A 
ATOM     25  C   UNL     1      44.038 131.402  16.516  1.00  0.00     0.167 A 
ATOM     26  C   UNL     1      45.790 130.026  17.462  1.00  0.00     0.077 A 
ATOM     27  C   UNL     1      45.010 130.405  16.365  1.00  0.00     0.153 A 
ATOM     28  F   UNL     1      43.271 131.779  15.463  1.00  0.00    -0.203 F 
BRANCH  24  29
ATOM     29  N   UNL     1      46.473 130.264  19.799  1.00  0.00    -0.397 N 
ATOM     30  H   UNL     1      47.505 130.408  19.733  1.00  0.00     0.156 HD
ATOM     31  H   UNL     1      46.095 129.893  20.697  1.00  0.00     0.156 HD
ENDBRANCH  24  29
BRANCH  27  32
ATOM     32  O   UNL     1      45.215 129.782  15.135  1.00  0.00    -0.505 OA
ATOM     33  H   UNL     1      44.554 129.114  14.758  1.00  0.00     0.293 HD
ENDBRANCH  27  32
ENDBRANCH  20  22
ENDBRANCH   9  20
TORSDOF 6
ENDMDL
MODEL 6
REMARK VINA RESULT:      -2.1      4.127      7.818
REMARK SMILES C=Cc1ccc(-c2cc3cc[nH]c3cc2Nc2cc(F)c(O)cc2N)[nH+]c1
REMARK SMILES IDX 7 1 8 2 9 3 10 4 11 5 12 6 13 7 14 8 15 9 6 11 3 12 4 13
REMARK SMILES IDX 27 14 5 15 26 16 2 18 1 19 16 20 17 22 18 23 24 24 19 25
REMARK SMILES IDX 23 26 21 27 20 28 25 29 22 32
REMARK H PARENT 12 10 26 17 16 21 25 30 25 31 22 33
ROOT
ATOM      1  C   UNL     1      43.779 131.444  19.491  1.00  0.00     0.070 A 
ATOM      2  C   UNL     1      42.661 132.296  19.348  1.00  0.00     0.027 A 
ATOM      3  C   UNL     1      41.966 132.670  20.492  1.00  0.00     0.000 A 
ATOM      4  C   UNL     1      40.867 133.487  20.646  1.00  0.00     0.028 A 
ATOM      5  C   UNL     1      40.621 133.507  22.016  1.00  0.00     0.083 A 
ATOM      6  N   UNL     1      41.521 132.745  22.676  1.00  0.00    -0.361 N 
ATOM      7  C   UNL     1      42.336 132.242  21.735  1.00  0.00     0.047 A 
ATOM      8  C   UNL     1      43.423 131.393  21.924  1.00  0.00     0.053 A 
ATOM      9  C   UNL     1      44.145 130.963  20.790  1.00  0.00     0.055 A 
ATOM     10  H   UNL     1      41.570 132.584  23.707  1.00  0.00     0.166 HD
ENDROOT
BRANCH   1  11
ATOM     11  C   UNL     1      44.574 131.108  18.289  1.00  0.00     0.212 A 
ATOM     12  C   UNL     1      46.133 130.588  16.028  1.00  0.00     0.038 A 
ATOM     13  C   UNL     1      46.475 130.020  17.268  1.00  0.00     0.021 A 
ATOM     14  C   UNL     1      44.998 131.410  15.966  1.00  0.00     0.314 A 
ATOM     15  C   UNL     1      45.693 130.272  18.395  1.00  0.00     0.081 A 
ATOM     16  N   UNL     1      44.249 131.645  17.077  1.00  0.00    -0.210 N 
ATOM     17  H   UNL     1      43.408 132.259  16.989  1.00  0.00     0.453 HD
BRANCH  12  18
ATOM     18  C   UNL     1      46.935 130.383  14.796  1.00  0.00     0.006 C 
ATOM     19  C   UNL     1      47.159 131.326  13.879  1.00  0.00     0.009 C 
ENDBRANCH  12  18
ENDBRANCH   1  11
BRANCH   9  20
ATOM     20  N   UNL     1      45.232 130.039  20.981  1.00  0.00    -0.353 N 
ATOM     21  H   UNL     1      46.152 130.270  20.541  1.00  0.00     0.167 HD
BRANCH  20  22
ATOM     22  C   UNL     1      45.186 128.942  21.912  1.00  0.00     0.065 A 
ATOM     23  C   UNL     1      45.458 127.635  21.471  1.00  0.00     0.071 A 
ATOM     24  C   UNL     1      44.865 129.162  23.270  1.00  0.00     0.059 A 
ATOM     25  C   UNL     1      45.433 126.564  22.366  1.00  0.00     0.167 A 
ATOM     26  C   UNL     1      44.836 128.077  24.158  1.00  0.00     0.077 A 
ATOM     27  C   UNL     1      45.122 126.782  23.714  1.00  0.00     0.153 A 
ATOM     28  F   UNL     1      45.710 125.314  21.918  1.00  0.00    -0.203 F 
BRANCH  24  29
ATOM     29  N   UNL     1      44.620 130.483  23.773  1.00  0.00    -0.397 N 
ATOM     30  H   UNL     1      44.417 131.269  23.116  1.00  0.00     0.156 HD
ATOM     31  H   UNL     1      44.581 130.687  24.795  1.00  0.00     0.156 HD
ENDBRANCH  24  29
BRANCH  27  32
ATOM     32  O   UNL     1      45.095 125.727  24.625  1.00  0.00    -0.505 OA
ATOM     33  H   UNL     1      45.917 125.167  24.817  1.00  0.00     0.293 HD
ENDBRANCH  27  32
ENDBRANCH  20  22
ENDBRANCH   9  20
TORSDOF 6
ENDMDL
MODEL 7
REMARK VINA RESULT:      -2.0      4.106      7.732
REMARK SMILES C=Cc1ccc(-c2cc3cc[nH]c3cc2Nc2cc(F)c(O)cc2N)[nH+]c1
REMARK SMILES IDX 7 1 8 2 9 3 10 4 11 5 12 6 13 7 14 8 15 9 6 11 3 12 4 13
REMARK SMILES IDX 27 14 5 15 26 16 2 18 1 19 16 20 17 22 18 23 24 24 19 25
REMARK SMILES IDX 23 26 21 27 20 28 25 29 22 32
REMARK H PARENT 12 10 26 17 16 21 25 30 25 31 22 33
ROOT
ATOM      1  C   UNL     1      44.034 131.499  19.250  1.00  0.00     0.070 A 
ATOM      2  C   UNL     1      42.909 132.341  19.110  1.00  0.00     0.027 A 
ATOM      3  C   UNL     1      42.173 132.653  20.247  1.00  0.00     0.000 A 
ATOM      4  C   UNL     1      41.057 133.447  20.403  1.00  0.00     0.028 A 
ATOM      5  C   UNL     1      40.768 133.401  21.763  1.00  0.00     0.083 A 
ATOM      6  N   UNL     1      41.658 132.621  22.417  1.00  0.00    -0.361 N 
ATOM      7  C   UNL     1      42.509 132.173  21.481  1.00  0.00     0.047 A 
ATOM      8  C   UNL     1      43.602 131.330  21.666  1.00  0.00     0.053 A 
ATOM      9  C   UNL     1      44.365 130.962  20.538  1.00  0.00     0.055 A 
ATOM     10  H   UNL     1      41.675 132.413  23.440  1.00  0.00     0.166 HD
ENDROOT
BRANCH   1  11
ATOM     11  C   UNL     1      44.872 131.229  18.061  1.00  0.00     0.212 A 
ATOM     12  C   UNL     1      46.354 130.661  15.760  1.00  0.00     0.038 A 
ATOM     13  C   UNL     1      45.823 131.948  15.959  1.00  0.00     0.021 A 
ATOM     14  C   UNL     1      46.120 129.688  16.743  1.00  0.00     0.314 A 
ATOM     15  C   UNL     1      45.091 132.235  17.111  1.00  0.00     0.081 A 
ATOM     16  N   UNL     1      45.401 129.988  17.859  1.00  0.00    -0.210 N 
ATOM     17  H   UNL     1      45.251 129.237  18.570  1.00  0.00     0.453 HD
BRANCH  12  18
ATOM     18  C   UNL     1      47.120 130.280  14.547  1.00  0.00     0.006 C 
ATOM     19  C   UNL     1      47.738 129.109  14.386  1.00  0.00     0.009 C 
ENDBRANCH  12  18
ENDBRANCH   1  11
BRANCH   9  20
ATOM     20  N   UNL     1      45.459 130.045  20.721  1.00  0.00    -0.353 N 
ATOM     21  H   UNL     1      46.374 130.280  20.273  1.00  0.00     0.167 HD
BRANCH  20  22
ATOM     22  C   UNL     1      45.427 128.950  21.654  1.00  0.00     0.065 A 
ATOM     23  C   UNL     1      45.817 127.664  21.241  1.00  0.00     0.071 A 
ATOM     24  C   UNL     1      45.002 129.150  22.986  1.00  0.00     0.059 A 
ATOM     25  C   UNL     1      45.807 126.596  22.139  1.00  0.00     0.167 A 
ATOM     26  C   UNL     1      44.988 128.067  23.877  1.00  0.00     0.077 A 
ATOM     27  C   UNL     1      45.392 126.794  23.462  1.00  0.00     0.153 A 
ATOM     28  F   UNL     1      46.199 125.366  21.719  1.00  0.00    -0.203 F 
BRANCH  24  29
ATOM     29  N   UNL     1      44.633 130.451  23.463  1.00  0.00    -0.397 N 
ATOM     30  H   UNL     1      43.765 130.915  23.114  1.00  0.00     0.156 HD
ATOM     31  H   UNL     1      45.179 130.945  24.202  1.00  0.00     0.156 HD
ENDBRANCH  24  29
BRANCH  27  32
ATOM     32  O   UNL     1      45.378 125.742  24.376  1.00  0.00    -0.505 OA
ATOM     33  H   UNL     1      44.568 125.144  24.490  1.00  0.00     0.293 HD
ENDBRANCH  27  32
ENDBRANCH  20  22
ENDBRANCH   9  20
TORSDOF 6
ENDMDL
MODEL 8
REMARK VINA RESULT:      -2.0      5.217      8.231
REMARK SMILES C=Cc1ccc(-c2cc3cc[nH]c3cc2Nc2cc(F)c(O)cc2N)[nH+]c1
REMARK SMILES IDX 7 1 8 2 9 3 10 4 11 5 12 6 13 7 14 8 15 9 6 11 3 12 4 13
REMARK SMILES IDX 27 14 5 15 26 16 2 18 1 19 16 20 17 22 18 23 24 24 19 25
REMARK SMILES IDX 23 26 21 27 20 28 25 29 22 32
REMARK H PARENT 12 10 26 17 16 21 25 30 25 31 22 33
ROOT
ATOM      1  C   UNL     1      45.077 131.655  22.680  1.00  0.00     0.070 A 
ATOM      2  C   UNL     1      45.621 132.568  23.611  1.00  0.00     0.027 A 
ATOM      3  C   UNL     1      46.628 133.425  23.183  1.00  0.00     0.000 A 
ATOM      4  C   UNL     1      47.317 134.407  23.860  1.00  0.00     0.028 A 
ATOM      5  C   UNL     1      48.194 134.946  22.923  1.00  0.00     0.083 A 
ATOM      6  N   UNL     1      48.055 134.331  21.727  1.00  0.00    -0.361 N 
ATOM      7  C   UNL     1      47.096 133.407  21.899  1.00  0.00     0.047 A 
ATOM      8  C   UNL     1      46.599 132.517  20.951  1.00  0.00     0.053 A 
ATOM      9  C   UNL     1      45.595 131.608  21.344  1.00  0.00     0.055 A 
ATOM     10  H   UNL     1      48.586 134.536  20.852  1.00  0.00     0.166 HD
ENDROOT
BRANCH   1  11
ATOM     11  C   UNL     1      43.948 130.797  23.104  1.00  0.00     0.212 A 
ATOM     12  C   UNL     1      41.873 129.163  24.018  1.00  0.00     0.038 A 
ATOM     13  C   UNL     1      41.710 130.559  23.983  1.00  0.00     0.021 A 
ATOM     14  C   UNL     1      43.094 128.627  23.581  1.00  0.00     0.314 A 
ATOM     15  C   UNL     1      42.742 131.375  23.519  1.00  0.00     0.081 A 
ATOM     16  N   UNL     1      44.089 129.440  23.133  1.00  0.00    -0.210 N 
ATOM     17  H   UNL     1      44.983 129.003  22.813  1.00  0.00     0.453 HD
BRANCH  12  18
ATOM     18  C   UNL     1      40.828 128.238  24.522  1.00  0.00     0.006 C 
ATOM     19  C   UNL     1      40.081 127.452  23.745  1.00  0.00     0.009 C 
ENDBRANCH  12  18
ENDBRANCH   1  11
BRANCH   9  20
ATOM     20  N   UNL     1      45.123 130.650  20.379  1.00  0.00    -0.353 N 
ATOM     21  H   UNL     1      44.776 129.730  20.734  1.00  0.00     0.167 HD
BRANCH  20  22
ATOM     22  C   UNL     1      44.902 130.964  18.993  1.00  0.00     0.065 A 
ATOM     23  C   UNL     1      45.876 130.636  18.034  1.00  0.00     0.071 A 
ATOM     24  C   UNL     1      43.713 131.607  18.580  1.00  0.00     0.059 A 
ATOM     25  C   UNL     1      45.667 130.920  16.683  1.00  0.00     0.167 A 
ATOM     26  C   UNL     1      43.519 131.895  17.221  1.00  0.00     0.077 A 
ATOM     27  C   UNL     1      44.486 131.551  16.272  1.00  0.00     0.153 A 
ATOM     28  F   UNL     1      46.618 130.583  15.776  1.00  0.00    -0.203 F 
BRANCH  24  29
ATOM     29  N   UNL     1      42.675 131.926  19.517  1.00  0.00    -0.397 N 
ATOM     30  H   UNL     1      41.671 131.805  19.254  1.00  0.00     0.156 HD
ATOM     31  H   UNL     1      42.883 132.230  20.492  1.00  0.00     0.156 HD
ENDBRANCH  24  29
BRANCH  27  32
ATOM     32  O   UNL     1      44.257 131.841  14.928  1.00  0.00    -0.505 OA
ATOM     33  H   UNL     1      44.642 132.668  14.487  1.00  0.00     0.293 HD
ENDBRANCH  27  32
ENDBRANCH  20  22
ENDBRANCH   9  20
TORSDOF 6
ENDMDL
MODEL 9
REMARK VINA RESULT:      -1.7      5.152      8.287
REMARK SMILES C=Cc1ccc(-c2cc3cc[nH]c3cc2Nc2cc(F)c(O)cc2N)[nH+]c1
REMARK SMILES IDX 7 1 8 2 9 3 10 4 11 5 12 6 13 7 14 8 15 9 6 11 3 12 4 13
REMARK SMILES IDX 27 14 5 15 26 16 2 18 1 19 16 20 17 22 18 23 24 24 19 25
REMARK SMILES IDX 23 26 21 27 20 28 25 29 22 32
REMARK H PARENT 12 10 26 17 16 21 25 30 25 31 22 33
ROOT
ATOM      1  C   UNL     1      44.910 131.650  22.340  1.00  0.00     0.070 A 
ATOM      2  C   UNL     1      45.780 132.325  23.225  1.00  0.00     0.027 A 
ATOM      3  C   UNL     1      46.604 133.319  22.709  1.00  0.00     0.000 A 
ATOM      4  C   UNL     1      47.523 134.134  23.332  1.00  0.00     0.028 A 
ATOM      5  C   UNL     1      48.034 134.942  22.321  1.00  0.00     0.083 A 
ATOM      6  N   UNL     1      47.461 134.645  21.133  1.00  0.00    -0.361 N 
ATOM      7  C   UNL     1      46.589 133.655  21.385  1.00  0.00     0.047 A 
ATOM      8  C   UNL     1      45.758 133.009  20.474  1.00  0.00     0.053 A 
ATOM      9  C   UNL     1      44.922 131.974  20.944  1.00  0.00     0.055 A 
ATOM     10  H   UNL     1      47.658 135.096  20.212  1.00  0.00     0.166 HD
ENDROOT
BRANCH   1  11
ATOM     11  C   UNL     1      43.971 130.649  22.894  1.00  0.00     0.212 A 
ATOM     12  C   UNL     1      42.137 128.757  23.827  1.00  0.00     0.038 A 
ATOM     13  C   UNL     1      43.432 128.360  23.450  1.00  0.00     0.021 A 
ATOM     14  C   UNL     1      41.804 130.117  23.723  1.00  0.00     0.314 A 
ATOM     15  C   UNL     1      44.351 129.305  22.993  1.00  0.00     0.081 A 
ATOM     16  N   UNL     1      42.714 131.022  23.272  1.00  0.00    -0.210 N 
ATOM     17  H   UNL     1      42.428 132.026  23.213  1.00  0.00     0.453 HD
BRANCH  12  18
ATOM     18  C   UNL     1      41.102 127.803  24.297  1.00  0.00     0.006 C 
ATOM     19  C   UNL     1      40.043 127.428  23.579  1.00  0.00     0.009 C 
ENDBRANCH  12  18
ENDBRANCH   1  11
BRANCH   9  20
ATOM     20  N   UNL     1      44.106 131.267  19.991  1.00  0.00    -0.353 N 
ATOM     21  H   UNL     1      43.163 130.941  20.304  1.00  0.00     0.167 HD
BRANCH  20  22
ATOM     22  C   UNL     1      44.421 131.178  18.590  1.00  0.00     0.065 A 
ATOM     23  C   UNL     1      45.612 130.555  18.176  1.00  0.00     0.071 A 
ATOM     24  C   UNL     1      43.547 131.715  17.619  1.00  0.00     0.059 A 
ATOM     25  C   UNL     1      45.922 130.447  16.820  1.00  0.00     0.167 A 
ATOM     26  C   UNL     1      43.873 131.607  16.259  1.00  0.00     0.077 A 
ATOM     27  C   UNL     1      45.052 130.972  15.856  1.00  0.00     0.153 A 
ATOM     28  F   UNL     1      47.072 129.831  16.445  1.00  0.00    -0.203 F 
BRANCH  24  29
ATOM     29  N   UNL     1      42.303 132.323  17.992  1.00  0.00    -0.397 N 
ATOM     30  H   UNL     1      42.241 133.357  18.132  1.00  0.00     0.156 HD
ATOM     31  H   UNL     1      41.422 131.772  18.079  1.00  0.00     0.156 HD
ENDBRANCH  24  29
BRANCH  27  32
ATOM     32  O   UNL     1      45.342 130.871  14.496  1.00  0.00    -0.505 OA
ATOM     33  H   UNL     1      46.029 131.467  14.051  1.00  0.00     0.293 HD
ENDBRANCH  27  32
ENDBRANCH  20  22
ENDBRANCH   9  20
TORSDOF 6
ENDMDL


