REMARK SMILES CC(=O)c1ccc(-c2nccc(C)c2F)cc1
REMARK SMILES IDX 4 1 5 2 6 3 7 4 16 5 17 6 2 7 1 8 3 9 8 10 9 11 14 12 10 13
REMARK SMILES IDX 12 14 11 15 15 16 13 17
REMARK H PARENT
ROOT
ATOM      1  C   UNL     1      -3.099   1.623   0.005  1.00  0.00     0.017 A 
ATOM      2  C   UNL     1      -3.157   0.517  -0.862  1.00  0.00     0.012 A 
ATOM      3  C   UNL     1      -1.994  -0.167  -1.227  1.00  0.00     0.011 A 
ATOM      4  C   UNL     1      -0.745   0.233  -0.726  1.00  0.00     0.003 A 
ATOM      5  C   UNL     1      -0.680   1.347   0.125  1.00  0.00     0.011 A 
ATOM      6  C   UNL     1      -1.842   2.031   0.492  1.00  0.00     0.012 A 
ENDROOT
BRANCH   1   7
ATOM      7  C   UNL     1      -4.346   2.339   0.385  1.00  0.00     0.159 C 
ATOM      8  C   UNL     1      -4.332   3.525   1.303  1.00  0.00     0.093 C 
ATOM      9  O   UNL     1      -5.456   1.948  -0.070  1.00  0.00    -0.295 OA
ENDBRANCH   1   7
BRANCH   4  10
ATOM     10  C   UNL     1       0.501  -0.469  -1.117  1.00  0.00     0.106 A 
ATOM     11  N   UNL     1       1.622   0.265  -1.358  1.00  0.00    -0.253 NA
ATOM     12  C   UNL     1       0.562  -1.874  -1.221  1.00  0.00     0.152 A 
ATOM     13  C   UNL     1       2.801  -0.308  -1.715  1.00  0.00     0.112 A 
ATOM     14  C   UNL     1       1.766  -2.487  -1.605  1.00  0.00    -0.012 A 
ATOM     15  C   UNL     1       2.895  -1.693  -1.845  1.00  0.00     0.026 A 
ATOM     16  F   UNL     1      -0.514  -2.641  -0.905  1.00  0.00    -0.204 F 
ATOM     17  C   UNL     1       1.861  -3.983  -1.691  1.00  0.00     0.047 C 
ENDBRANCH   4  10
TORSDOF 2


