REMARK SMILES [O-]C(CCc1c(F)c(-c2c[nH]c3nccc-3c2)c(F)c2[nH]ccc12)=C1CCC1
REMARK SMILES IDX 4 1 3 2 2 3 1 4 25 5 26 6 28 7 27 8 5 9 6 10 24 11 8 12
REMARK SMILES IDX 23 13 20 14 18 15 22 16 21 17 7 18 19 19 9 21 10 22 17 23
REMARK SMILES IDX 11 24 16 25 12 26 15 27 13 28 14 29
REMARK H PARENT 21 20 11 30
ROOT
ATOM      1  C   UNL     1      -0.997   1.429  -2.722  1.00  0.00     0.043 C 
ENDROOT
BRANCH   1   2
ATOM      2  C   UNL     1      -2.166   0.477  -3.015  1.00  0.00     0.023 C 
BRANCH   2   3
ATOM      3  C   UNL     1      -3.346   0.759  -2.128  1.00  0.00    -0.133 C 
ATOM      4  O   UNL     1      -4.191   1.818  -2.435  1.00  0.00    -0.875 OA
BRANCH   3   5
ATOM      5  C   UNL     1      -3.576   0.038  -1.032  1.00  0.00    -0.082 C 
ATOM      6  C   UNL     1      -2.963  -1.150  -0.314  1.00  0.00     0.030 C 
ATOM      7  C   UNL     1      -4.584   0.041   0.099  1.00  0.00     0.030 C 
ATOM      8  C   UNL     1      -3.964  -1.127   0.795  1.00  0.00     0.009 C 
ENDBRANCH   3   5
ENDBRANCH   2   3
ENDBRANCH   1   2
BRANCH   1   9
ATOM      9  C   UNL     1      -0.390   1.167  -1.363  1.00  0.00    -0.002 A 
ATOM     10  C   UNL     1       0.546   0.123  -1.180  1.00  0.00     0.137 A 
ATOM     11  C   UNL     1      -0.792   1.880  -0.225  1.00  0.00     0.009 A 
ATOM     12  C   UNL     1       1.057  -0.179   0.112  1.00  0.00     0.057 A 
ATOM     13  C   UNL     1      -1.697   2.914  -0.069  1.00  0.00     0.028 A 
ATOM     14  C   UNL     1      -0.304   1.587   1.021  1.00  0.00     0.083 A 
ATOM     15  C   UNL     1       0.620   0.568   1.229  1.00  0.00     0.158 A 
ATOM     16  C   UNL     1      -1.705   3.197   1.291  1.00  0.00     0.083 A 
ATOM     17  N   UNL     1      -0.852   2.385   1.953  1.00  0.00    -0.359 N 
ATOM     18  F   UNL     1       0.923  -0.631  -2.247  1.00  0.00    -0.206 F 
ATOM     19  F   UNL     1       1.095   0.320   2.477  1.00  0.00    -0.204 F 
ATOM     20  H   UNL     1      -0.669   2.377   2.981  1.00  0.00     0.166 HD
BRANCH  12  21
ATOM     21  C   UNL     1       2.024  -1.286   0.290  1.00  0.00     0.004 A 
ATOM     22  C   UNL     1       3.206  -1.339  -0.503  1.00  0.00     0.093 A 
ATOM     23  C   UNL     1       1.772  -2.296   1.247  1.00  0.00     0.022 A 
ATOM     24  N   UNL     1       4.115  -2.353  -0.362  1.00  0.00    -0.346 N 
ATOM     25  C   UNL     1       2.711  -3.308   1.367  1.00  0.00     0.019 A 
ATOM     26  C   UNL     1       3.877  -3.321   0.553  1.00  0.00     0.137 A 
ATOM     27  C   UNL     1       2.793  -4.422   2.161  1.00  0.00     0.032 A 
ATOM     28  N   UNL     1       4.655  -4.382   0.819  1.00  0.00    -0.239 NA
ATOM     29  C   UNL     1       3.989  -5.048   1.799  1.00  0.00     0.114 A 
ATOM     30  H   UNL     1       4.978  -2.376  -0.950  1.00  0.00     0.167 HD
ENDBRANCH  12  21
ENDBRANCH   1   9
TORSDOF 5


