REMARK SMILES O=C(OCc1cc[nH]c1)c1cc(F)ccc1Nc1cc2ccccc2[nH]1
REMARK SMILES IDX 1 1 2 2 3 3 4 4 5 5 6 6 9 7 7 8 8 9 10 11 11 12 16 13 12 14
REMARK SMILES IDX 15 15 14 16 13 17 17 18 18 20 19 21 26 22 20 23 25 24 21 25
REMARK SMILES IDX 24 26 22 27 23 28
REMARK H PARENT 8 10 17 19 26 29
ROOT
ATOM      1  O   UNL     1       4.305  -0.357   0.548  1.00  0.00    -0.246 OA
ATOM      2  C   UNL     1       3.148  -0.861   0.520  1.00  0.00     0.340 C 
ENDROOT
BRANCH   2   3
ATOM      3  O   UNL     1       2.046  -0.071   0.858  1.00  0.00    -0.457 OA
BRANCH   3   4
ATOM      4  C   UNL     1       2.149   1.311   1.179  1.00  0.00     0.270 C 
BRANCH   4   5
ATOM      5  C   UNL     1       0.779   1.900   1.247  1.00  0.00     0.007 A 
ATOM      6  C   UNL     1       0.200   2.742   0.318  1.00  0.00     0.026 A 
ATOM      7  C   UNL     1      -0.183   1.623   2.197  1.00  0.00     0.089 A 
ATOM      8  C   UNL     1      -1.093   2.956   0.751  1.00  0.00     0.082 A 
ATOM      9  N   UNL     1      -1.319   2.275   1.890  1.00  0.00    -0.367 N 
ATOM     10  H   UNL     1      -2.214   2.245   2.426  1.00  0.00     0.165 HD
ENDBRANCH   4   5
ENDBRANCH   3   4
ENDBRANCH   2   3
BRANCH   2  11
ATOM     11  C   UNL     1       2.970  -2.287   0.133  1.00  0.00     0.086 A 
ATOM     12  C   UNL     1       4.114  -3.098  -0.015  1.00  0.00     0.057 A 
ATOM     13  C   UNL     1       1.690  -2.877  -0.063  1.00  0.00     0.054 A 
ATOM     14  C   UNL     1       3.998  -4.455  -0.324  1.00  0.00     0.124 A 
ATOM     15  C   UNL     1       1.593  -4.247  -0.349  1.00  0.00     0.030 A 
ATOM     16  C   UNL     1       2.739  -5.030  -0.483  1.00  0.00     0.041 A 
ATOM     17  F   UNL     1       5.111  -5.218  -0.456  1.00  0.00    -0.207 F 
BRANCH  13  18
ATOM     18  N   UNL     1       0.474  -2.126   0.042  1.00  0.00    -0.341 N 
ATOM     19  H   UNL     1      -0.252  -2.460   0.716  1.00  0.00     0.168 HD
BRANCH  18  20
ATOM     20  C   UNL     1       0.092  -1.134  -0.921  1.00  0.00     0.108 A 
ATOM     21  C   UNL     1      -1.098  -0.416  -0.870  1.00  0.00     0.055 A 
ATOM     22  N   UNL     1       0.869  -0.739  -1.958  1.00  0.00    -0.341 N 
ATOM     23  C   UNL     1      -1.021   0.458  -1.931  1.00  0.00     0.002 A 
ATOM     24  C   UNL     1       0.176   0.239  -2.564  1.00  0.00     0.047 A 
ATOM     25  C   UNL     1      -1.909   1.443  -2.358  1.00  0.00     0.010 A 
ATOM     26  C   UNL     1       0.568   0.993  -3.670  1.00  0.00     0.027 A 
ATOM     27  C   UNL     1      -1.541   2.219  -3.472  1.00  0.00     0.001 A 
ATOM     28  C   UNL     1      -0.309   1.995  -4.125  1.00  0.00     0.002 A 
ATOM     29  H   UNL     1       1.813  -1.098  -2.225  1.00  0.00     0.168 HD
ENDBRANCH  18  20
ENDBRANCH  13  18
ENDBRANCH   2  11
TORSDOF 6


