REMARK SMILES Nc1c([C@@H]2O[C@H]2c2ccccc2)cc(C(=O)[O-])c([NH2+]c2cc3ccccc3[n-]2)c1[O-]
REMARK SMILES IDX 2 1 3 2 13 3 14 4 18 5 29 6 30 7 1 8 4 11 5 12 6 13 7 14
REMARK SMILES IDX 8 15 12 16 9 17 11 18 10 19 19 20 20 23 21 24 28 25 22 26
REMARK SMILES IDX 27 27 23 28 26 29 24 30 25 31 15 32 16 33 17 34
REMARK H PARENT 1 9 1 10 19 21 19 22
ROOT
ATOM      1  C   UNL     1      -0.303  -1.993   0.588  1.00  0.00     0.035 A 
ATOM      2  C   UNL     1       0.892  -1.564   1.201  1.00  0.00     0.007 A 
ATOM      3  C   UNL     1       0.916  -0.338   1.879  1.00  0.00     0.024 A 
ATOM      4  C   UNL     1      -0.205   0.503   1.915  1.00  0.00     0.058 A 
ATOM      5  C   UNL     1      -1.415   0.076   1.303  1.00  0.00     0.136 A 
ATOM      6  C   UNL     1      -1.442  -1.171   0.638  1.00  0.00    -0.020 A 
ATOM      7  O   UNL     1      -2.617  -1.599   0.027  1.00  0.00    -0.867 OA
ENDROOT
BRANCH   1   8
ATOM      8  N   UNL     1      -0.375  -3.264  -0.079  1.00  0.00    -0.399 N 
ATOM      9  H   UNL     1       0.425  -3.930  -0.078  1.00  0.00     0.156 HD
ATOM     10  H   UNL     1      -1.246  -3.573  -0.566  1.00  0.00     0.156 HD
ENDBRANCH   1   8
BRANCH   2  11
ATOM     11  C   UNL     1       2.139  -2.413   1.182  1.00  0.00     0.185 C 
ATOM     12  O   UNL     1       3.285  -1.627   0.952  1.00  0.00    -0.359 OA
ATOM     13  C   UNL     1       2.882  -2.464  -0.105  1.00  0.00     0.183 C 
BRANCH  13  14
ATOM     14  C   UNL     1       3.863  -3.586  -0.284  1.00  0.00    -0.016 A 
ATOM     15  C   UNL     1       5.223  -3.299  -0.490  1.00  0.00     0.006 A 
ATOM     16  C   UNL     1       3.430  -4.923  -0.300  1.00  0.00     0.006 A 
ATOM     17  C   UNL     1       6.138  -4.337  -0.689  1.00  0.00     0.000 A 
ATOM     18  C   UNL     1       4.349  -5.958  -0.502  1.00  0.00     0.000 A 
ATOM     19  C   UNL     1       5.702  -5.665  -0.698  1.00  0.00     0.000 A 
ENDBRANCH  13  14
ENDBRANCH   2  11
BRANCH   5  20
ATOM     20  N   UNL     1      -2.622   0.876   1.359  1.00  0.00    -0.299 N 
ATOM     21  H   UNL     1      -2.668   1.413   2.253  1.00  0.00     0.356 HD
ATOM     22  H   UNL     1      -3.471   0.266   1.349  1.00  0.00     0.356 HD
BRANCH  20  23
ATOM     23  C   UNL     1      -2.693   1.762   0.227  1.00  0.00     0.036 A 
ATOM     24  C   UNL     1      -3.082   3.097   0.298  1.00  0.00     0.050 A 
ATOM     25  N   UNL     1      -2.513   1.349  -1.054  1.00  0.00    -0.610 NA
ATOM     26  C   UNL     1      -3.107   3.516  -1.008  1.00  0.00    -0.036 A 
ATOM     27  C   UNL     1      -2.759   2.447  -1.790  1.00  0.00    -0.125 A 
ATOM     28  C   UNL     1      -3.436   4.753  -1.556  1.00  0.00     0.007 A 
ATOM     29  C   UNL     1      -2.714   2.545  -3.180  1.00  0.00    -0.015 A 
ATOM     30  C   UNL     1      -3.397   4.881  -2.956  1.00  0.00     0.001 A 
ATOM     31  C   UNL     1      -3.038   3.781  -3.765  1.00  0.00    -0.001 A 
ENDBRANCH  20  23
ENDBRANCH   5  20
BRANCH   4  32
ATOM     32  C   UNL     1      -0.057   1.812   2.598  1.00  0.00     0.077 C 
ATOM     33  O   UNL     1      -0.670   2.832   2.191  1.00  0.00    -0.545 OA
ATOM     34  O   UNL     1       0.809   1.937   3.678  1.00  0.00    -0.545 OA
ENDBRANCH   4  32
TORSDOF 6


