REMARK SMILES Cc1cc(N)[nH+]c(N(N)c2ccccc2-c2nc3ccccc3[nH]2)[nH+]1
REMARK SMILES IDX 8 1 7 2 2 3 3 4 25 5 4 6 6 7 1 8 5 11 9 14 10 17 11 18 15 19
REMARK SMILES IDX 12 20 14 21 13 22 16 23 17 24 24 25 18 26 23 27 19 28 22 29
REMARK SMILES IDX 20 30 21 31
REMARK H PARENT 25 9 6 10 5 12 5 13 9 15 9 16 24 32
ROOT
ATOM      1  N   UNL     1      -0.915   1.411  -1.902  1.00  0.00    -0.112 N 
ENDROOT
BRANCH   1   2
ATOM      2  C   UNL     1      -1.030   0.017  -1.546  1.00  0.00     0.467 A 
ATOM      3  C   UNL     1      -0.114  -1.926  -0.531  1.00  0.00     0.110 A 
ATOM      4  C   UNL     1      -1.323  -2.600  -0.724  1.00  0.00     0.145 A 
ATOM      5  N   UNL     1       0.007  -0.632  -0.937  1.00  0.00    -0.207 N 
ATOM      6  C   UNL     1      -2.369  -1.934  -1.362  1.00  0.00     0.280 A 
ATOM      7  N   UNL     1      -2.202  -0.645  -1.767  1.00  0.00    -0.168 N 
ATOM      8  C   UNL     1       1.014  -2.597   0.194  1.00  0.00     0.093 C 
ATOM      9  H   UNL     1       0.910  -0.133  -0.775  1.00  0.00     0.316 HD
ATOM     10  H   UNL     1      -3.002  -0.148  -2.218  1.00  0.00     0.320 HD
BRANCH   6  11
ATOM     11  N   UNL     1      -3.619  -2.596  -1.573  1.00  0.00    -0.287 N 
ATOM     12  H   UNL     1      -3.763  -3.582  -1.260  1.00  0.00     0.302 HD
ATOM     13  H   UNL     1      -4.410  -2.101  -2.041  1.00  0.00     0.302 HD
ENDBRANCH   6  11
ENDBRANCH   1   2
BRANCH   1  14
ATOM     14  N   UNL     1      -1.657   1.892  -2.996  1.00  0.00    -0.166 NA
ATOM     15  H   UNL     1      -1.025   1.905  -3.828  1.00  0.00     0.169 HD
ATOM     16  H   UNL     1      -1.946   2.877  -2.793  1.00  0.00     0.169 HD
ENDBRANCH   1  14
BRANCH   1  17
ATOM     17  C   UNL     1       0.001   2.290  -1.211  1.00  0.00     0.162 A 
ATOM     18  C   UNL     1       0.941   3.023  -1.956  1.00  0.00     0.055 A 
ATOM     19  C   UNL     1      -0.000   2.400   0.204  1.00  0.00     0.066 A 
ATOM     20  C   UNL     1       1.884   3.828  -1.314  1.00  0.00     0.004 A 
ATOM     21  C   UNL     1       0.968   3.201   0.834  1.00  0.00     0.016 A 
ATOM     22  C   UNL     1       1.902   3.911   0.078  1.00  0.00     0.001 A 
BRANCH  19  23
ATOM     23  C   UNL     1      -1.004   1.704   1.039  1.00  0.00     0.142 A 
ATOM     24  N   UNL     1      -2.305   1.557   0.669  1.00  0.00    -0.228 NA
ATOM     25  N   UNL     1      -0.704   1.105   2.219  1.00  0.00    -0.338 N 
ATOM     26  C   UNL     1      -2.818   0.820   1.669  1.00  0.00     0.089 A 
ATOM     27  C   UNL     1      -1.860   0.546   2.598  1.00  0.00     0.066 A 
ATOM     28  C   UNL     1      -4.119   0.337   1.791  1.00  0.00     0.030 A 
ATOM     29  C   UNL     1      -2.117  -0.232   3.724  1.00  0.00     0.028 A 
ATOM     30  C   UNL     1      -4.420  -0.450   2.919  1.00  0.00     0.002 A 
ATOM     31  C   UNL     1      -3.423  -0.734   3.881  1.00  0.00     0.002 A 
ATOM     32  H   UNL     1       0.221   1.048   2.700  1.00  0.00     0.168 HD
ENDBRANCH  19  23
ENDBRANCH   1  17
TORSDOF 5


