REMARK SMILES Nc1c(C(=O)[N-]Cc2ccc[nH]2)cc(-n2nc3ccccc3[nH+]2)c(O)c1N
REMARK SMILES IDX 4 1 5 2 3 3 2 4 26 5 13 6 24 7 14 8 1 9 27 12 25 15 15 17
REMARK SMILES IDX 16 18 23 19 17 20 22 21 18 22 21 23 19 24 20 25 6 27 7 28
REMARK SMILES IDX 8 29 9 30 12 31 10 32 11 33
REMARK H PARENT 1 10 1 11 27 13 27 14 25 16 23 26 12 34
ROOT
ATOM      1  C   UNL     1      -2.596  -1.378  -0.573  1.00  0.00     0.084 C 
ATOM      2  O   UNL     1      -3.771  -1.390  -0.116  1.00  0.00    -0.315 OA
ENDROOT
BRANCH   1   3
ATOM      3  C   UNL     1      -2.006  -0.120  -1.089  1.00  0.00     0.027 A 
ATOM      4  C   UNL     1      -2.781   0.871  -1.740  1.00  0.00     0.068 A 
ATOM      5  C   UNL     1      -2.174   2.090  -2.133  1.00  0.00     0.100 A 
ATOM      6  C   UNL     1      -0.638   0.105  -0.879  1.00  0.00     0.051 A 
ATOM      7  C   UNL     1      -0.809   2.313  -1.866  1.00  0.00     0.172 A 
ATOM      8  C   UNL     1      -0.031   1.300  -1.273  1.00  0.00     0.172 A 
BRANCH   4   9
ATOM      9  N   UNL     1      -4.170   0.634  -2.019  1.00  0.00    -0.396 N 
ATOM     10  H   UNL     1      -4.525  -0.327  -2.215  1.00  0.00     0.156 HD
ATOM     11  H   UNL     1      -4.867   1.409  -2.017  1.00  0.00     0.156 HD
ENDBRANCH   4   9
BRANCH   5  12
ATOM     12  N   UNL     1      -2.925   3.097  -2.830  1.00  0.00    -0.394 N 
ATOM     13  H   UNL     1      -2.517   4.039  -3.022  1.00  0.00     0.156 HD
ATOM     14  H   UNL     1      -3.859   2.905  -3.250  1.00  0.00     0.156 HD
ENDBRANCH   5  12
BRANCH   7  15
ATOM     15  O   UNL     1      -0.254   3.557  -2.180  1.00  0.00    -0.504 OA
ATOM     16  H   UNL     1       0.674   3.837  -1.891  1.00  0.00     0.293 HD
ENDBRANCH   7  15
BRANCH   8  17
ATOM     17  N   UNL     1       1.382   1.459  -1.074  1.00  0.00    -0.009 N 
ATOM     18  N   UNL     1       2.002   1.144   0.063  1.00  0.00     0.054 NA
ATOM     19  N   UNL     1       2.233   1.840  -2.025  1.00  0.00    -0.161 N 
ATOM     20  C   UNL     1       3.307   1.362  -0.183  1.00  0.00     0.249 A 
ATOM     21  C   UNL     1       3.450   1.789  -1.469  1.00  0.00     0.198 A 
ATOM     22  C   UNL     1       4.397   1.187   0.663  1.00  0.00     0.064 A 
ATOM     23  C   UNL     1       4.692   2.075  -2.027  1.00  0.00     0.058 A 
ATOM     24  C   UNL     1       5.674   1.472   0.139  1.00  0.00     0.005 A 
ATOM     25  C   UNL     1       5.821   1.913  -1.199  1.00  0.00     0.005 A 
ATOM     26  H   UNL     1       1.989   2.088  -3.010  1.00  0.00     0.340 HD
ENDBRANCH   8  17
ENDBRANCH   1   3
BRANCH   1  27
ATOM     27  N   UNL     1      -1.811  -2.576  -0.553  1.00  0.00    -0.644 NA
BRANCH  27  28
ATOM     28  C   UNL     1      -2.273  -3.834   0.021  1.00  0.00    -0.062 C 
BRANCH  28  29
ATOM     29  C   UNL     1      -2.334  -3.729   1.513  1.00  0.00    -0.003 A 
ATOM     30  C   UNL     1      -1.242  -3.686   2.358  1.00  0.00     0.021 A 
ATOM     31  N   UNL     1      -3.475  -3.597   2.215  1.00  0.00    -0.366 N 
ATOM     32  C   UNL     1      -1.749  -3.532   3.633  1.00  0.00     0.019 A 
ATOM     33  C   UNL     1      -3.123  -3.481   3.508  1.00  0.00     0.082 A 
ATOM     34  H   UNL     1      -4.447  -3.579   1.834  1.00  0.00     0.166 HD
ENDBRANCH  28  29
ENDBRANCH  27  28
ENDBRANCH   1  27
TORSDOF 8


