REMARK SMILES Cc1ccc([NH2+]c2c(F)c(N)cc(-c3ccc4cc[nH]c4c3)c2F)cc1F
REMARK SMILES IDX 7 1 8 2 9 3 10 4 12 5 13 6 23 7 24 8 6 9 5 12 2 13 3 14
REMARK SMILES IDX 26 15 4 16 25 17 1 18 27 19 11 20 14 23 15 24 22 25 16 26
REMARK SMILES IDX 21 27 17 28 20 29 18 30 19 31
REMARK H PARENT 6 10 6 11 11 21 11 22 20 32
ROOT
ATOM      1  C   UNL     1       0.993   0.489  -2.075  1.00  0.00     0.209 A 
ATOM      2  C   UNL     1       2.389   0.379  -1.918  1.00  0.00     0.210 A 
ATOM      3  F   UNL     1       3.220   1.163  -2.652  1.00  0.00    -0.198 F 
ATOM      4  C   UNL     1       2.933  -0.545  -1.014  1.00  0.00     0.075 A 
ATOM      5  C   UNL     1       2.081  -1.359  -0.257  1.00  0.00     0.040 A 
ATOM      6  C   UNL     1       0.688  -1.261  -0.392  1.00  0.00     0.026 A 
ATOM      7  C   UNL     1       0.148  -0.340  -1.309  1.00  0.00     0.195 A 
ATOM      8  F   UNL     1      -1.197  -0.277  -1.488  1.00  0.00    -0.200 F 
ENDROOT
BRANCH   1   9
ATOM      9  N   UNL     1       0.433   1.462  -2.985  1.00  0.00    -0.276 N 
ATOM     10  H   UNL     1       1.085   1.634  -3.786  1.00  0.00     0.358 HD
ATOM     11  H   UNL     1      -0.453   1.097  -3.407  1.00  0.00     0.358 HD
BRANCH   9  12
ATOM     12  C   UNL     1       0.178   2.698  -2.285  1.00  0.00     0.137 A 
ATOM     13  C   UNL     1      -0.297   5.082  -0.855  1.00  0.00    -0.015 A 
ATOM     14  C   UNL     1       0.946   4.858  -1.468  1.00  0.00     0.012 A 
ATOM     15  C   UNL     1      -1.309   4.116  -0.977  1.00  0.00     0.132 A 
ATOM     16  C   UNL     1       1.183   3.674  -2.171  1.00  0.00     0.068 A 
ATOM     17  C   UNL     1      -1.071   2.932  -1.682  1.00  0.00     0.107 A 
ATOM     18  C   UNL     1      -0.560   6.365  -0.121  1.00  0.00     0.047 C 
ATOM     19  F   UNL     1      -2.527   4.321  -0.415  1.00  0.00    -0.206 F 
ENDBRANCH   9  12
ENDBRANCH   1   9
BRANCH   4  20
ATOM     20  N   UNL     1       4.351  -0.658  -0.855  1.00  0.00    -0.396 N 
ATOM     21  H   UNL     1       4.759  -1.345  -0.182  1.00  0.00     0.156 HD
ATOM     22  H   UNL     1       5.007  -0.061  -1.405  1.00  0.00     0.156 HD
ENDBRANCH   4  20
BRANCH   6  23
ATOM     23  C   UNL     1      -0.194  -2.125   0.428  1.00  0.00    -0.013 A 
ATOM     24  C   UNL     1      -1.299  -1.568   1.127  1.00  0.00     0.009 A 
ATOM     25  C   UNL     1       0.070  -3.511   0.535  1.00  0.00     0.035 A 
ATOM     26  C   UNL     1      -2.136  -2.379   1.913  1.00  0.00     0.011 A 
ATOM     27  C   UNL     1      -0.780  -4.284   1.323  1.00  0.00     0.046 A 
ATOM     28  C   UNL     1      -1.844  -3.737   1.986  1.00  0.00    -0.001 A 
ATOM     29  N   UNL     1      -0.706  -5.606   1.549  1.00  0.00    -0.361 N 
ATOM     30  C   UNL     1      -2.475  -4.756   2.666  1.00  0.00     0.028 A 
ATOM     31  C   UNL     1      -1.740  -5.899   2.370  1.00  0.00     0.083 A 
ATOM     32  H   UNL     1       0.003  -6.273   1.171  1.00  0.00     0.166 HD
ENDBRANCH   6  23
TORSDOF 4


