REMARK SMILES Cc1ccc(-c2ccc(O)cc2)c2cn(C(=O)OCc3ccccc3F)nc12
REMARK SMILES IDX 16 1 17 2 15 3 2 4 3 5 28 6 4 7 27 8 13 9 5 10 14 11 1 12
REMARK SMILES IDX 6 13 7 14 12 15 8 16 11 17 9 18 10 19 18 21 19 22 20 23
REMARK SMILES IDX 21 24 25 25 22 26 24 27 23 28 26 29
REMARK H PARENT 10 20
ROOT
ATOM      1  C   UNL     1      -2.485   1.104  -0.712  1.00  0.00     0.435 C 
ATOM      2  O   UNL     1      -3.005   2.153  -1.181  1.00  0.00    -0.222 OA
ENDROOT
BRANCH   1   3
ATOM      3  N   UNL     1      -1.289   1.192   0.069  1.00  0.00    -0.172 N 
ATOM      4  C   UNL     1       1.330   2.890   1.665  1.00  0.00    -0.023 A 
ATOM      5  C   UNL     1       2.372   2.319   2.427  1.00  0.00     0.006 A 
ATOM      6  C   UNL     1       0.397   2.019   1.100  1.00  0.00     0.096 A 
ATOM      7  C   UNL     1       2.443   0.922   2.618  1.00  0.00     0.010 A 
ATOM      8  N   UNL     1      -0.678   2.337   0.354  1.00  0.00    -0.162 NA
ATOM      9  C   UNL     1       0.469   0.660   1.281  1.00  0.00     0.029 A 
ATOM     10  C   UNL     1       1.485   0.060   2.037  1.00  0.00    -0.007 A 
ATOM     11  C   UNL     1      -0.628   0.149   0.619  1.00  0.00     0.131 A 
ATOM     12  C   UNL     1       1.254   4.370   1.433  1.00  0.00     0.047 C 
BRANCH  10  13
ATOM     13  C   UNL     1       1.571  -1.406   2.225  1.00  0.00    -0.017 A 
ATOM     14  C   UNL     1       1.477  -2.277   1.126  1.00  0.00     0.012 A 
ATOM     15  C   UNL     1       1.776  -1.944   3.508  1.00  0.00     0.012 A 
ATOM     16  C   UNL     1       1.568  -3.660   1.309  1.00  0.00     0.047 A 
ATOM     17  C   UNL     1       1.866  -3.327   3.688  1.00  0.00     0.047 A 
ATOM     18  C   UNL     1       1.761  -4.189   2.589  1.00  0.00     0.115 A 
BRANCH  18  19
ATOM     19  O   UNL     1       1.849  -5.569   2.757  1.00  0.00    -0.508 OA
ATOM     20  H   UNL     1       1.989  -5.984   3.671  1.00  0.00     0.293 HD
ENDBRANCH  18  19
ENDBRANCH  10  13
ENDBRANCH   1   3
BRANCH   1  21
ATOM     21  O   UNL     1      -3.068  -0.147  -0.950  1.00  0.00    -0.443 OA
BRANCH  21  22
ATOM     22  C   UNL     1      -4.217  -0.332  -1.773  1.00  0.00     0.274 C 
BRANCH  22  23
ATOM     23  C   UNL     1      -3.861  -0.136  -3.223  1.00  0.00     0.025 A 
ATOM     24  C   UNL     1      -4.364   0.965  -3.937  1.00  0.00     0.010 A 
ATOM     25  C   UNL     1      -2.998  -1.041  -3.869  1.00  0.00     0.129 A 
ATOM     26  C   UNL     1      -4.016   1.153  -5.277  1.00  0.00     0.001 A 
ATOM     27  C   UNL     1      -2.654  -0.846  -5.211  1.00  0.00     0.039 A 
ATOM     28  C   UNL     1      -3.163   0.249  -5.914  1.00  0.00     0.003 A 
ATOM     29  F   UNL     1      -2.490  -2.107  -3.199  1.00  0.00    -0.207 F 
ENDBRANCH  22  23
ENDBRANCH  21  22
ENDBRANCH   1  21
TORSDOF 6


