REMARK SMILES CC(=O)c1ccc(/C(O)=N/[C@@H]2C=CCC2)c(F)c1[O-]
REMARK SMILES IDX 7 1 6 2 5 3 4 4 18 5 19 6 16 7 17 8 8 9 9 10 10 12 11 13
REMARK SMILES IDX 12 14 15 15 13 16 14 17 2 18 3 19 1 20
REMARK H PARENT 9 11
ROOT
ATOM      1  C   UNL     1      -0.441  -0.206   0.100  1.00  0.00     0.071 A 
ATOM      2  C   UNL     1      -0.539  -1.331   0.935  1.00  0.00     0.017 A 
ATOM      3  C   UNL     1      -0.912  -2.574   0.422  1.00  0.00     0.012 A 
ATOM      4  C   UNL     1      -1.202  -2.735  -0.945  1.00  0.00     0.012 A 
ATOM      5  C   UNL     1      -1.108  -1.606  -1.789  1.00  0.00    -0.060 A 
ATOM      6  O   UNL     1      -1.399  -1.703  -3.146  1.00  0.00    -0.870 OA
ATOM      7  C   UNL     1      -0.731  -0.359  -1.273  1.00  0.00     0.128 A 
ATOM      8  F   UNL     1      -0.660   0.696  -2.125  1.00  0.00    -0.207 F 
ENDROOT
BRANCH   1   9
ATOM      9  C   UNL     1      -0.039   1.102   0.683  1.00  0.00     0.217 C 
BRANCH   9  10
ATOM     10  O   UNL     1       0.202   1.182   2.059  1.00  0.00    -0.493 OA
ATOM     11  H   UNL     1       0.492   2.030   2.529  1.00  0.00     0.295 HD
ENDBRANCH   9  10
BRANCH   9  12
ATOM     12  N   UNL     1       0.086   2.147  -0.086  1.00  0.00    -0.244 NA
BRANCH  12  13
ATOM     13  C   UNL     1       0.459   3.497   0.337  1.00  0.00     0.132 C 
ATOM     14  C   UNL     1      -0.684   4.160   1.027  1.00  0.00    -0.005 C 
ATOM     15  C   UNL     1       0.714   4.385  -0.892  1.00  0.00     0.036 C 
ATOM     16  C   UNL     1      -1.161   5.184   0.343  1.00  0.00    -0.029 C 
ATOM     17  C   UNL     1      -0.429   5.403  -0.930  1.00  0.00     0.029 C 
ENDBRANCH  12  13
ENDBRANCH   9  12
ENDBRANCH   1   9
BRANCH   4  18
ATOM     18  C   UNL     1      -1.592  -4.071  -1.480  1.00  0.00     0.159 C 
ATOM     19  O   UNL     1      -1.554  -4.293  -2.720  1.00  0.00    -0.295 OA
ATOM     20  C   UNL     1      -2.004  -5.194  -0.575  1.00  0.00     0.093 C 
ENDBRANCH   4  18
TORSDOF 5


