REMARK SMILES C=Cc1ccc(-c2c[nH+]c3oc[nH+]c3c2)c(N=[N+]=[N-])c1F
REMARK SMILES IDX 3 1 4 2 5 3 6 4 16 5 20 6 21 7 2 8 1 9 17 10 18 11 19 12
REMARK SMILES IDX 7 13 15 14 8 15 14 16 9 17 10 18 13 19 11 20 12 21
REMARK H PARENT 9 22 13 23
ROOT
ATOM      1  C   UNL     1      -2.842   0.405  -0.872  1.00  0.00     0.010 A 
ATOM      2  C   UNL     1      -2.454   0.317   0.470  1.00  0.00     0.012 A 
ATOM      3  C   UNL     1      -1.107   0.243   0.817  1.00  0.00     0.010 A 
ATOM      4  C   UNL     1      -0.111   0.264  -0.171  1.00  0.00     0.000 A 
ATOM      5  C   UNL     1      -0.479   0.391  -1.530  1.00  0.00     0.082 A 
ATOM      6  C   UNL     1      -1.850   0.468  -1.873  1.00  0.00     0.140 A 
ATOM      7  F   UNL     1      -2.217   0.670  -3.165  1.00  0.00    -0.206 F 
ENDROOT
BRANCH   1   8
ATOM      8  C   UNL     1      -4.289   0.479  -1.178  1.00  0.00     0.003 C 
ATOM      9  C   UNL     1      -4.840  -0.078  -2.256  1.00  0.00     0.009 C 
ENDBRANCH   1   8
BRANCH   5  10
ATOM     10  N   UNL     1       0.558   0.487  -2.523  1.00  0.00    -0.057 NA
BRANCH  10  11
ATOM     11  N   UNL     1       0.336   0.558  -3.733  1.00  0.00     0.005 N 
ATOM     12  N   UNL     1       0.120   0.629  -4.942  1.00  0.00    -0.003 NA
ENDBRANCH  10  11
ENDBRANCH   5  10
BRANCH   4  13
ATOM     13  C   UNL     1       1.310   0.161   0.240  1.00  0.00     0.053 A 
ATOM     14  C   UNL     1       2.158  -0.809  -0.343  1.00  0.00     0.105 A 
ATOM     15  C   UNL     1       1.831   1.022   1.247  1.00  0.00     0.319 A 
ATOM     16  C   UNL     1       3.473  -0.854   0.102  1.00  0.00     0.320 A 
ATOM     17  N   UNL     1       3.138   0.925   1.641  1.00  0.00    -0.173 N 
ATOM     18  C   UNL     1       3.927  -0.010   1.060  1.00  0.00     0.449 A 
ATOM     19  N   UNL     1       4.473  -1.663  -0.275  1.00  0.00    -0.171 N 
ATOM     20  O   UNL     1       5.189  -0.256   1.302  1.00  0.00    -0.349 OA
ATOM     21  C   UNL     1       5.516  -1.256   0.494  1.00  0.00     0.526 A 
ATOM     22  H   UNL     1       3.520   1.560   2.378  1.00  0.00     0.457 HD
ATOM     23  H   UNL     1       4.457  -2.425  -0.989  1.00  0.00     0.457 HD
ENDBRANCH   4  13
TORSDOF 4


