REMARK SMILES Cn1cc2cc/c(=N/c3cccc(N)c3O)cc-2[nH]1
REMARK SMILES IDX 15 1 9 2 10 3 11 4 12 5 13 6 16 7 8 9 7 10 6 11 17 12 5 13
REMARK SMILES IDX 18 14 4 15 19 16 3 17 2 18 1 20 14 21
REMARK H PARENT 16 8 19 19 14 22 14 23
ROOT
ATOM      1  C   UNL     1       2.058   1.658   0.826  1.00  0.00     0.164 A 
ATOM      2  C   UNL     1       0.960   2.527   0.993  1.00  0.00     0.108 A 
ATOM      3  C   UNL     1       0.932   3.421   2.068  1.00  0.00     0.032 A 
ATOM      4  C   UNL     1       1.957   3.419   3.012  1.00  0.00     0.005 A 
ATOM      5  C   UNL     1       3.024   2.529   2.884  1.00  0.00     0.029 A 
ATOM      6  C   UNL     1       3.087   1.638   1.802  1.00  0.00     0.076 A 
ENDROOT
BRANCH   1   7
ATOM      7  O   UNL     1       2.106   0.861  -0.321  1.00  0.00    -0.504 OA
ATOM      8  H   UNL     1       2.892   0.279  -0.572  1.00  0.00     0.293 HD
ENDBRANCH   1   7
BRANCH   2   9
ATOM      9  N   UNL     1      -0.095   2.584   0.020  1.00  0.00    -0.245 NA
BRANCH   9  10
ATOM     10  C   UNL     1      -0.891   1.609  -0.326  1.00  0.00     0.066 A 
ATOM     11  C   UNL     1      -1.829   1.851  -1.369  1.00  0.00     0.029 A 
ATOM     12  C   UNL     1      -0.864   0.345   0.329  1.00  0.00     0.056 A 
ATOM     13  C   UNL     1      -2.735   0.861  -1.799  1.00  0.00     0.014 A 
ATOM     14  C   UNL     1      -1.754  -0.625  -0.109  1.00  0.00     0.065 A 
ATOM     15  C   UNL     1      -2.680  -0.369  -1.166  1.00  0.00     0.017 A 
ATOM     16  N   UNL     1      -1.948  -1.871   0.346  1.00  0.00    -0.298 N 
ATOM     17  C   UNL     1      -3.406  -1.534  -1.286  1.00  0.00     0.114 A 
ATOM     18  N   UNL     1      -2.929  -2.417  -0.370  1.00  0.00    -0.297 N 
ATOM     19  H   UNL     1      -1.441  -2.338   1.131  1.00  0.00     0.188 HD
ATOM     20  C   UNL     1      -3.477  -3.743  -0.117  1.00  0.00     0.171 C 
ENDBRANCH   9  10
ENDBRANCH   2   9
BRANCH   6  21
ATOM     21  N   UNL     1       4.191   0.726   1.725  1.00  0.00    -0.396 N 
ATOM     22  H   UNL     1       4.978   0.795   2.408  1.00  0.00     0.156 HD
ATOM     23  H   UNL     1       4.214  -0.079   1.064  1.00  0.00     0.156 HD
ENDBRANCH   6  21
TORSDOF 4


