REMARK SMILES COCCN/C(S)=[N+]1/CC[C@H](C)[C@@H](F)[C@@H]1c1ccc(C(C)=O)cc1
REMARK SMILES IDX 6 1 5 2 7 4 8 6 9 7 15 8 10 9 13 10 11 11 14 12 12 13 16 14
REMARK SMILES IDX 17 15 24 16 18 17 23 18 19 19 20 20 22 21 21 22 4 23 3 24
REMARK SMILES IDX 2 25 1 26
REMARK H PARENT 5 3 7 5
ROOT
ATOM      1  C   UNL     1       0.952  -2.093   0.474  1.00  0.00     0.303 C 
ATOM      2  N   UNL     1       1.515  -1.015  -0.303  1.00  0.00    -0.267 N 
ATOM      3  H   UNL     1       1.790  -0.121   0.160  1.00  0.00     0.305 HD
ENDROOT
BRANCH   1   4
ATOM      4  S   UNL     1       1.145  -3.769  -0.185  1.00  0.00    -0.056 SA
ATOM      5  H   UNL     1      -0.072  -3.687  -0.888  1.00  0.00     0.116 HD
ENDBRANCH   1   4
BRANCH   1   6
ATOM      6  N   UNL     1       0.299  -1.857   1.603  1.00  0.00    -0.247 N 
ATOM      7  C   UNL     1      -0.251  -2.954   2.433  1.00  0.00     0.238 C 
ATOM      8  C   UNL     1       0.024  -0.465   2.056  1.00  0.00     0.241 C 
ATOM      9  C   UNL     1       0.161  -2.788   3.902  1.00  0.00     0.052 C 
ATOM     10  C   UNL     1      -0.698  -0.421   3.422  1.00  0.00     0.219 C 
ATOM     11  C   UNL     1       0.017  -1.337   4.431  1.00  0.00     0.029 C 
ATOM     12  F   UNL     1      -0.705   0.882   3.895  1.00  0.00    -0.242 F 
ATOM     13  C   UNL     1      -0.698  -1.315   5.790  1.00  0.00     0.011 C 
BRANCH   8  14
ATOM     14  C   UNL     1      -0.799   0.304   1.036  1.00  0.00    -0.001 A 
ATOM     15  C   UNL     1      -1.882  -0.298   0.375  1.00  0.00     0.009 A 
ATOM     16  C   UNL     1      -0.505   1.651   0.773  1.00  0.00     0.009 A 
ATOM     17  C   UNL     1      -2.629   0.420  -0.563  1.00  0.00     0.012 A 
ATOM     18  C   UNL     1      -1.257   2.373  -0.157  1.00  0.00     0.012 A 
ATOM     19  C   UNL     1      -2.322   1.764  -0.847  1.00  0.00     0.017 A 
BRANCH  19  20
ATOM     20  C   UNL     1      -3.096   2.540  -1.853  1.00  0.00     0.159 C 
ATOM     21  O   UNL     1      -2.800   3.745  -2.077  1.00  0.00    -0.295 OA
ATOM     22  C   UNL     1      -4.230   1.931  -2.622  1.00  0.00     0.093 C 
ENDBRANCH  19  20
ENDBRANCH   8  14
ENDBRANCH   1   6
BRANCH   2  23
ATOM     23  C   UNL     1       1.723  -1.135  -1.748  1.00  0.00     0.262 C 
BRANCH  23  24
ATOM     24  C   UNL     1       2.035   0.221  -2.379  1.00  0.00     0.205 C 
BRANCH  24  25
ATOM     25  O   UNL     1       0.914   1.069  -2.243  1.00  0.00    -0.381 OA
ATOM     26  C   UNL     1       1.214   2.333  -2.788  1.00  0.00     0.195 C 
ENDBRANCH  24  25
ENDBRANCH  23  24
ENDBRANCH   2  23
TORSDOF 7


