REMARK SMILES Cc1c(Br)cccc1[NH2+]/C(S)=[N+]1/CCC[C@@H](c2ccc3cc(F)ccc3n2)[C@H]1F
REMARK SMILES IDX 10 1 11 2 12 4 13 5 28 6 14 7 16 8 15 9 29 10 17 11 27 12
REMARK SMILES IDX 18 13 26 14 19 15 25 16 20 17 24 18 21 19 22 20 23 21 9 22
REMARK SMILES IDX 8 25 7 26 2 27 6 28 3 29 5 30 1 31 4 32
REMARK H PARENT 11 3 9 23 9 24
ROOT
ATOM      1  C   UNL     1       1.769   2.996   0.345  1.00  0.00     0.401 C 
ENDROOT
BRANCH   1   2
ATOM      2  S   UNL     1       2.558   4.608   0.072  1.00  0.00    -0.010 SA
ATOM      3  H   UNL     1       3.824   4.104   0.425  1.00  0.00     0.120 HD
ENDBRANCH   1   2
BRANCH   1   4
ATOM      4  N   UNL     1       1.703   2.100  -0.618  1.00  0.00    -0.144 N 
ATOM      5  C   UNL     1       1.899   2.456  -2.028  1.00  0.00     0.360 C 
ATOM      6  C   UNL     1       1.363   0.696  -0.384  1.00  0.00     0.457 C 
ATOM      7  C   UNL     1       0.625   2.141  -2.826  1.00  0.00     0.074 C 
ATOM      8  C   UNL     1       0.044   0.376  -1.112  1.00  0.00     0.142 C 
ATOM      9  C   UNL     1       0.175   0.688  -2.616  1.00  0.00     0.026 C 
ATOM     10  F   UNL     1       2.388  -0.103  -0.868  1.00  0.00    -0.174 F 
BRANCH   8  11
ATOM     11  C   UNL     1      -0.425  -1.037  -0.850  1.00  0.00     0.054 A 
ATOM     12  N   UNL     1      -1.529  -1.224  -0.074  1.00  0.00    -0.252 NA
ATOM     13  C   UNL     1       0.259  -2.158  -1.355  1.00  0.00     0.025 A 
ATOM     14  C   UNL     1      -2.002  -2.461   0.229  1.00  0.00     0.071 A 
ATOM     15  C   UNL     1      -0.205  -3.442  -1.061  1.00  0.00     0.012 A 
ATOM     16  C   UNL     1      -3.141  -2.600   1.031  1.00  0.00     0.032 A 
ATOM     17  C   UNL     1      -1.343  -3.607  -0.263  1.00  0.00     0.003 A 
ATOM     18  C   UNL     1      -3.624  -3.874   1.344  1.00  0.00     0.041 A 
ATOM     19  C   UNL     1      -1.833  -4.883   0.054  1.00  0.00     0.049 A 
ATOM     20  C   UNL     1      -2.972  -5.013   0.857  1.00  0.00     0.123 A 
ATOM     21  F   UNL     1      -3.446  -6.246   1.164  1.00  0.00    -0.207 F 
ENDBRANCH   8  11
ENDBRANCH   1   4
BRANCH   1  22
ATOM     22  N   UNL     1       1.308   2.734   1.701  1.00  0.00    -0.220 N 
ATOM     23  H   UNL     1       1.465   3.578   2.297  1.00  0.00     0.364 HD
ATOM     24  H   UNL     1       1.911   1.986   2.116  1.00  0.00     0.364 HD
BRANCH  22  25
ATOM     25  C   UNL     1      -0.105   2.398   1.782  1.00  0.00     0.143 A 
ATOM     26  C   UNL     1      -0.480   1.211   2.445  1.00  0.00     0.069 A 
ATOM     27  C   UNL     1      -1.132   3.248   1.272  1.00  0.00     0.025 A 
ATOM     28  C   UNL     1      -1.810   0.806   2.497  1.00  0.00     0.007 A 
ATOM     29  C   UNL     1      -2.473   2.790   1.285  1.00  0.00     0.026 A 
ATOM     30  C   UNL     1      -2.797   1.577   1.895  1.00  0.00     0.016 A 
ATOM     31  C   UNL     1      -0.812   4.604   0.695  1.00  0.00     0.052 C 
ATOM     32  Br  UNL     1      -3.911   3.766   0.466  1.00  0.00    -0.050 Br
ENDBRANCH  22  25
ENDBRANCH   1  22
TORSDOF 5


