REMARK SMILES CO[C@@H]1CCC[C@@H](c2cc3cc(F)ccc3[nH]2)N1C(=O)c1ccc(Cl)c(C)c1
REMARK SMILES IDX 3 1 4 2 5 3 6 4 7 5 18 6 2 7 1 8 19 9 20 10 21 11 22 12
REMARK SMILES IDX 28 13 23 14 26 15 24 16 27 17 25 18 8 19 9 20 17 21 10 22
REMARK SMILES IDX 16 23 11 24 15 25 12 26 14 27 13 29
REMARK H PARENT 17 28
ROOT
ATOM      1  C   UNL     1       3.009  -0.216  -0.884  1.00  0.00     0.217 C 
ATOM      2  C   UNL     1       4.129   0.826  -0.977  1.00  0.00     0.055 C 
ATOM      3  C   UNL     1       3.559   2.185  -1.408  1.00  0.00     0.007 C 
ATOM      4  C   UNL     1       2.437   2.643  -0.462  1.00  0.00     0.032 C 
ATOM      5  C   UNL     1       1.331   1.574  -0.322  1.00  0.00     0.135 C 
ATOM      6  N   UNL     1       1.962   0.288   0.033  1.00  0.00    -0.304 N 
ENDROOT
BRANCH   1   7
ATOM      7  O   UNL     1       3.548  -1.448  -0.434  1.00  0.00    -0.362 OA
ATOM      8  C   UNL     1       2.690  -2.512  -0.786  1.00  0.00     0.197 C 
ENDBRANCH   1   7
BRANCH   6   9
ATOM      9  C   UNL     1       1.969  -0.100   1.425  1.00  0.00     0.256 C 
ATOM     10  O   UNL     1       3.070  -0.291   2.010  1.00  0.00    -0.269 OA
BRANCH   9  11
ATOM     11  C   UNL     1       0.707  -0.258   2.189  1.00  0.00     0.040 A 
ATOM     12  C   UNL     1       0.717  -0.195   3.592  1.00  0.00     0.015 A 
ATOM     13  C   UNL     1      -0.511  -0.491   1.528  1.00  0.00     0.018 A 
ATOM     14  C   UNL     1      -0.467  -0.343   4.317  1.00  0.00     0.021 A 
ATOM     15  C   UNL     1      -1.708  -0.636   2.249  1.00  0.00    -0.032 A 
ATOM     16  C   UNL     1      -1.679  -0.560   3.655  1.00  0.00     0.044 A 
ATOM     17  C   UNL     1      -2.999  -0.879   1.517  1.00  0.00     0.046 C 
ATOM     18  Cl  UNL     1      -3.143  -0.740   4.617  1.00  0.00    -0.084 Cl
ENDBRANCH   9  11
ENDBRANCH   6   9
BRANCH   5  19
ATOM     19  C   UNL     1       0.470   1.458  -1.566  1.00  0.00     0.039 A 
ATOM     20  C   UNL     1      -0.105   2.538  -2.241  1.00  0.00     0.034 A 
ATOM     21  N   UNL     1       0.028   0.285  -2.088  1.00  0.00    -0.357 N 
ATOM     22  C   UNL     1      -0.893   1.975  -3.220  1.00  0.00     0.003 A 
ATOM     23  C   UNL     1      -0.790   0.616  -3.100  1.00  0.00     0.046 A 
ATOM     24  C   UNL     1      -1.705   2.570  -4.184  1.00  0.00     0.049 A 
ATOM     25  C   UNL     1      -1.494  -0.249  -3.937  1.00  0.00     0.029 A 
ATOM     26  C   UNL     1      -2.424   1.724  -5.049  1.00  0.00     0.123 A 
ATOM     27  C   UNL     1      -2.318   0.320  -4.925  1.00  0.00     0.041 A 
ATOM     28  H   UNL     1       0.248  -0.684  -1.768  1.00  0.00     0.166 HD
ATOM     29  F   UNL     1      -3.225   2.259  -6.003  1.00  0.00    -0.207 F 
ENDBRANCH   5  19
TORSDOF 4


