MODEL 1
REMARK VINA RESULT:      -4.0      0.000      0.000
REMARK SMILES Cc1cc(-c2cccc3[nH+]coc23)cc(O/C(S)=N/c2ccc(-n3ccc[nH+]3)cc2)c1F
REMARK SMILES IDX 17 1 18 2 19 4 20 5 21 6 30 7 22 8 29 9 23 10 24 11 25 12
REMARK SMILES IDX 28 13 26 14 27 15 16 17 15 18 14 19 31 20 4 21 2 22 3 23
REMARK SMILES IDX 32 24 1 25 5 26 6 27 13 28 7 29 9 30 12 31 8 32 10 33 11 34
REMARK H PARENT 18 3 28 16 10 35
ROOT
ATOM      1  C   UNL     1      45.316 130.896  20.473  1.00  0.00     0.253 C 
ENDROOT
BRANCH   1   2
ATOM      2  S   UNL     1      45.890 132.177  21.594  1.00  0.00    -0.084 SA
ATOM      3  H   UNL     1      45.170 131.635  22.675  1.00  0.00     0.113 HD
ENDBRANCH   1   2
BRANCH   1   4
ATOM      4  N   UNL     1      44.740 131.180  19.339  1.00  0.00    -0.208 NA
BRANCH   4   5
ATOM      5  C   UNL     1      45.348 131.127  18.042  1.00  0.00     0.068 A 
ATOM      6  C   UNL     1      45.228 132.228  17.188  1.00  0.00     0.031 A 
ATOM      7  C   UNL     1      45.974 129.960  17.579  1.00  0.00     0.031 A 
ATOM      8  C   UNL     1      45.768 132.185  15.900  1.00  0.00     0.035 A 
ATOM      9  C   UNL     1      46.515 129.914  16.291  1.00  0.00     0.035 A 
ATOM     10  C   UNL     1      46.421 131.030  15.438  1.00  0.00     0.104 A 
BRANCH  10  11
ATOM     11  N   UNL     1      46.978 130.987  14.108  1.00  0.00    -0.130 N 
ATOM     12  C   UNL     1      46.295 130.808  12.957  1.00  0.00     0.163 A 
ATOM     13  N   UNL     1      48.264 131.122  13.822  1.00  0.00    -0.126 N 
ATOM     14  C   UNL     1      47.190 130.832  11.904  1.00  0.00     0.097 A 
ATOM     15  C   UNL     1      48.425 131.031  12.490  1.00  0.00     0.335 A 
ATOM     16  H   UNL     1      49.032 131.249  14.518  1.00  0.00     0.488 HD
ENDBRANCH  10  11
ENDBRANCH   4   5
ENDBRANCH   1   4
BRANCH   1  17
ATOM     17  O   UNL     1      45.505 129.563  20.863  1.00  0.00    -0.431 OA
BRANCH  17  18
ATOM     18  C   UNL     1      44.821 128.903  21.898  1.00  0.00     0.166 A 
ATOM     19  C   UNL     1      44.990 127.530  22.150  1.00  0.00     0.059 A 
ATOM     20  C   UNL     1      43.915 129.637  22.673  1.00  0.00     0.168 A 
ATOM     21  C   UNL     1      44.301 126.904  23.202  1.00  0.00    -0.010 A 
ATOM     22  C   UNL     1      43.198 129.018  23.709  1.00  0.00    -0.011 A 
ATOM     23  C   UNL     1      43.408 127.658  23.979  1.00  0.00     0.015 A 
ATOM     24  F   UNL     1      43.745 130.961  22.421  1.00  0.00    -0.203 F 
ATOM     25  C   UNL     1      42.259 129.823  24.561  1.00  0.00     0.048 C 
BRANCH  21  26
ATOM     26  C   UNL     1      44.512 125.464  23.486  1.00  0.00     0.032 A 
ATOM     27  C   UNL     1      45.566 125.022  24.322  1.00  0.00     0.013 A 
ATOM     28  C   UNL     1      43.687 124.476  22.936  1.00  0.00     0.212 A 
ATOM     29  C   UNL     1      45.752 123.645  24.582  1.00  0.00     0.008 A 
ATOM     30  C   UNL     1      43.872 123.149  23.191  1.00  0.00     0.249 A 
ATOM     31  O   UNL     1      42.669 124.605  22.118  1.00  0.00    -0.403 OA
ATOM     32  C   UNL     1      44.896 122.686  24.012  1.00  0.00     0.083 A 
ATOM     33  N   UNL     1      42.950 122.438  22.526  1.00  0.00    -0.176 N 
ATOM     34  C   UNL     1      42.229 123.381  21.875  1.00  0.00     0.521 A 
ATOM     35  H   UNL     1      42.822 121.402  22.505  1.00  0.00     0.457 HD
ENDBRANCH  21  26
ENDBRANCH  17  18
ENDBRANCH   1  17
TORSDOF 7
ENDMDL
MODEL 2
REMARK VINA RESULT:      -3.3      4.904      7.166
REMARK SMILES Cc1cc(-c2cccc3[nH+]coc23)cc(O/C(S)=N/c2ccc(-n3ccc[nH+]3)cc2)c1F
REMARK SMILES IDX 17 1 18 2 19 4 20 5 21 6 30 7 22 8 29 9 23 10 24 11 25 12
REMARK SMILES IDX 28 13 26 14 27 15 16 17 15 18 14 19 31 20 4 21 2 22 3 23
REMARK SMILES IDX 32 24 1 25 5 26 6 27 13 28 7 29 9 30 12 31 8 32 10 33 11 34
REMARK H PARENT 18 3 28 16 10 35
ROOT
ATOM      1  C   UNL     1      43.315 131.977  19.119  1.00  0.00     0.253 C 
ENDROOT
BRANCH   1   2
ATOM      2  S   UNL     1      41.965 132.532  20.168  1.00  0.00    -0.084 SA
ATOM      3  H   UNL     1      41.590 133.533  19.254  1.00  0.00     0.113 HD
ENDBRANCH   1   2
BRANCH   1   4
ATOM      4  N   UNL     1      43.213 131.953  17.821  1.00  0.00    -0.208 NA
BRANCH   4   5
ATOM      5  C   UNL     1      44.218 131.512  16.899  1.00  0.00     0.068 A 
ATOM      6  C   UNL     1      45.360 132.297  16.709  1.00  0.00     0.031 A 
ATOM      7  C   UNL     1      44.034 130.363  16.115  1.00  0.00     0.031 A 
ATOM      8  C   UNL     1      46.333 131.917  15.781  1.00  0.00     0.035 A 
ATOM      9  C   UNL     1      45.004 129.981  15.185  1.00  0.00     0.035 A 
ATOM     10  C   UNL     1      46.169 130.752  15.011  1.00  0.00     0.104 A 
BRANCH  10  11
ATOM     11  N   UNL     1      47.173 130.361  14.053  1.00  0.00    -0.130 N 
ATOM     12  C   UNL     1      47.992 129.291  14.140  1.00  0.00     0.163 A 
ATOM     13  N   UNL     1      47.438 131.009  12.928  1.00  0.00    -0.126 N 
ATOM     14  C   UNL     1      48.805 129.267  13.022  1.00  0.00     0.097 A 
ATOM     15  C   UNL     1      48.427 130.368  12.281  1.00  0.00     0.335 A 
ATOM     16  H   UNL     1      46.975 131.890  12.610  1.00  0.00     0.488 HD
ENDBRANCH  10  11
ENDBRANCH   4   5
ENDBRANCH   1   4
BRANCH   1  17
ATOM     17  O   UNL     1      44.495 131.561  19.750  1.00  0.00    -0.431 OA
BRANCH  17  18
ATOM     18  C   UNL     1      44.976 132.026  20.986  1.00  0.00     0.166 A 
ATOM     19  C   UNL     1      46.201 132.707  21.104  1.00  0.00     0.059 A 
ATOM     20  C   UNL     1      44.223 131.762  22.136  1.00  0.00     0.168 A 
ATOM     21  C   UNL     1      46.646 133.171  22.352  1.00  0.00    -0.010 A 
ATOM     22  C   UNL     1      44.670 132.194  23.395  1.00  0.00    -0.011 A 
ATOM     23  C   UNL     1      45.871 132.911  23.494  1.00  0.00     0.015 A 
ATOM     24  F   UNL     1      43.047 131.093  22.022  1.00  0.00    -0.203 F 
ATOM     25  C   UNL     1      43.836 131.943  24.618  1.00  0.00     0.048 C 
BRANCH  21  26
ATOM     26  C   UNL     1      47.919 133.922  22.464  1.00  0.00     0.032 A 
ATOM     27  C   UNL     1      48.975 133.469  23.292  1.00  0.00     0.013 A 
ATOM     28  C   UNL     1      48.133 135.117  21.766  1.00  0.00     0.212 A 
ATOM     29  C   UNL     1      50.183 134.199  23.386  1.00  0.00     0.008 A 
ATOM     30  C   UNL     1      49.301 135.816  21.861  1.00  0.00     0.249 A 
ATOM     31  O   UNL     1      47.323 135.765  20.963  1.00  0.00    -0.403 OA
ATOM     32  C   UNL     1      50.357 135.392  22.663  1.00  0.00     0.083 A 
ATOM     33  N   UNL     1      49.219 136.916  21.101  1.00  0.00    -0.176 N 
ATOM     34  C   UNL     1      47.979 136.844  20.565  1.00  0.00     0.521 A 
ATOM     35  H   UNL     1      49.939 137.661  20.960  1.00  0.00     0.457 HD
ENDBRANCH  21  26
ENDBRANCH  17  18
ENDBRANCH   1  17
TORSDOF 7
ENDMDL
MODEL 3
REMARK VINA RESULT:      -2.6      4.723      7.235
REMARK SMILES Cc1cc(-c2cccc3[nH+]coc23)cc(O/C(S)=N/c2ccc(-n3ccc[nH+]3)cc2)c1F
REMARK SMILES IDX 17 1 18 2 19 4 20 5 21 6 30 7 22 8 29 9 23 10 24 11 25 12
REMARK SMILES IDX 28 13 26 14 27 15 16 17 15 18 14 19 31 20 4 21 2 22 3 23
REMARK SMILES IDX 32 24 1 25 5 26 6 27 13 28 7 29 9 30 12 31 8 32 10 33 11 34
REMARK H PARENT 18 3 28 16 10 35
ROOT
ATOM      1  C   UNL     1      43.199 132.307  19.166  1.00  0.00     0.253 C 
ENDROOT
BRANCH   1   2
ATOM      2  S   UNL     1      41.674 132.924  19.890  1.00  0.00    -0.084 SA
ATOM      3  H   UNL     1      41.911 132.252  21.103  1.00  0.00     0.113 HD
ENDBRANCH   1   2
BRANCH   1   4
ATOM      4  N   UNL     1      43.206 131.331  18.303  1.00  0.00    -0.208 NA
BRANCH   4   5
ATOM      5  C   UNL     1      44.209 131.085  17.309  1.00  0.00     0.068 A 
ATOM      6  C   UNL     1      43.935 131.395  15.973  1.00  0.00     0.031 A 
ATOM      7  C   UNL     1      45.418 130.453  17.636  1.00  0.00     0.031 A 
ATOM      8  C   UNL     1      44.876 131.120  14.977  1.00  0.00     0.035 A 
ATOM      9  C   UNL     1      46.360 130.176  16.641  1.00  0.00     0.035 A 
ATOM     10  C   UNL     1      46.101 130.511  15.299  1.00  0.00     0.104 A 
BRANCH  10  11
ATOM     11  N   UNL     1      47.070 130.228  14.270  1.00  0.00    -0.130 N 
ATOM     12  C   UNL     1      47.381 131.018  13.220  1.00  0.00     0.163 A 
ATOM     13  N   UNL     1      47.808 129.129  14.208  1.00  0.00    -0.126 N 
ATOM     14  C   UNL     1      48.356 130.389  12.469  1.00  0.00     0.097 A 
ATOM     15  C   UNL     1      48.599 129.198  13.123  1.00  0.00     0.335 A 
ATOM     16  H   UNL     1      47.763 128.328  14.876  1.00  0.00     0.488 HD
ENDBRANCH  10  11
ENDBRANCH   4   5
ENDBRANCH   1   4
BRANCH   1  17
ATOM     17  O   UNL     1      44.397 132.914  19.567  1.00  0.00    -0.431 OA
BRANCH  17  18
ATOM     18  C   UNL     1      44.969 132.840  20.848  1.00  0.00     0.166 A 
ATOM     19  C   UNL     1      46.216 133.417  21.146  1.00  0.00     0.059 A 
ATOM     20  C   UNL     1      44.285 132.132  21.844  1.00  0.00     0.168 A 
ATOM     21  C   UNL     1      46.753 133.336  22.441  1.00  0.00    -0.010 A 
ATOM     22  C   UNL     1      44.823 132.018  23.135  1.00  0.00    -0.011 A 
ATOM     23  C   UNL     1      46.046 132.636  23.432  1.00  0.00     0.015 A 
ATOM     24  F   UNL     1      43.086 131.565  21.552  1.00  0.00    -0.203 F 
ATOM     25  C   UNL     1      44.062 131.293  24.208  1.00  0.00     0.048 C 
BRANCH  21  26
ATOM     26  C   UNL     1      48.051 133.980  22.758  1.00  0.00     0.032 A 
ATOM     27  C   UNL     1      48.885 133.492  23.792  1.00  0.00     0.013 A 
ATOM     28  C   UNL     1      48.506 135.103  22.057  1.00  0.00     0.212 A 
ATOM     29  C   UNL     1      50.120 134.119  24.080  1.00  0.00     0.008 A 
ATOM     30  C   UNL     1      49.698 135.703  22.339  1.00  0.00     0.249 A 
ATOM     31  O   UNL     1      47.926 135.766  21.084  1.00  0.00    -0.403 OA
ATOM     32  C   UNL     1      50.541 135.242  23.347  1.00  0.00     0.083 A 
ATOM     33  N   UNL     1      49.867 136.755  21.526  1.00  0.00    -0.176 N 
ATOM     34  C   UNL     1      48.746 136.755  20.767  1.00  0.00     0.521 A 
ATOM     35  H   UNL     1      50.670 137.423  21.490  1.00  0.00     0.457 HD
ENDBRANCH  21  26
ENDBRANCH  17  18
ENDBRANCH   1  17
TORSDOF 7
ENDMDL
MODEL 4
REMARK VINA RESULT:      -1.3      2.758      8.427
REMARK SMILES Cc1cc(-c2cccc3[nH+]coc23)cc(O/C(S)=N/c2ccc(-n3ccc[nH+]3)cc2)c1F
REMARK SMILES IDX 17 1 18 2 19 4 20 5 21 6 30 7 22 8 29 9 23 10 24 11 25 12
REMARK SMILES IDX 28 13 26 14 27 15 16 17 15 18 14 19 31 20 4 21 2 22 3 23
REMARK SMILES IDX 32 24 1 25 5 26 6 27 13 28 7 29 9 30 12 31 8 32 10 33 11 34
REMARK H PARENT 18 3 28 16 10 35
ROOT
ATOM      1  C   UNL     1      42.354 129.290  23.107  1.00  0.00     0.253 C 
ENDROOT
BRANCH   1   2
ATOM      2  S   UNL     1      40.961 128.739  22.115  1.00  0.00    -0.084 SA
ATOM      3  H   UNL     1      40.028 129.250  23.035  1.00  0.00     0.113 HD
ENDBRANCH   1   2
BRANCH   1   4
ATOM      4  N   UNL     1      42.962 128.496  23.943  1.00  0.00    -0.208 NA
BRANCH   4   5
ATOM      5  C   UNL     1      43.843 127.418  23.601  1.00  0.00     0.068 A 
ATOM      6  C   UNL     1      45.179 127.701  23.298  1.00  0.00     0.031 A 
ATOM      7  C   UNL     1      43.370 126.104  23.472  1.00  0.00     0.031 A 
ATOM      8  C   UNL     1      46.048 126.677  22.914  1.00  0.00     0.035 A 
ATOM      9  C   UNL     1      44.237 125.078  23.087  1.00  0.00     0.035 A 
ATOM     10  C   UNL     1      45.589 125.353  22.808  1.00  0.00     0.104 A 
BRANCH  10  11
ATOM     11  N   UNL     1      46.488 124.297  22.411  1.00  0.00    -0.130 N 
ATOM     12  C   UNL     1      47.837 124.336  22.444  1.00  0.00     0.163 A 
ATOM     13  N   UNL     1      46.108 123.115  21.949  1.00  0.00    -0.126 N 
ATOM     14  C   UNL     1      48.324 123.127  21.984  1.00  0.00     0.097 A 
ATOM     15  C   UNL     1      47.203 122.382  21.679  1.00  0.00     0.335 A 
ATOM     16  H   UNL     1      45.121 122.812  21.792  1.00  0.00     0.488 HD
ENDBRANCH  10  11
ENDBRANCH   4   5
ENDBRANCH   1   4
BRANCH   1  17
ATOM     17  O   UNL     1      42.770 130.620  22.957  1.00  0.00    -0.431 OA
BRANCH  17  18
ATOM     18  C   UNL     1      43.697 131.090  22.012  1.00  0.00     0.166 A 
ATOM     19  C   UNL     1      43.464 131.009  20.628  1.00  0.00     0.059 A 
ATOM     20  C   UNL     1      44.908 131.620  22.474  1.00  0.00     0.168 A 
ATOM     21  C   UNL     1      44.406 131.501  19.711  1.00  0.00    -0.010 A 
ATOM     22  C   UNL     1      45.873 132.090  21.569  1.00  0.00    -0.011 A 
ATOM     23  C   UNL     1      45.609 132.044  20.192  1.00  0.00     0.015 A 
ATOM     24  F   UNL     1      45.138 131.687  23.811  1.00  0.00    -0.203 F 
ATOM     25  C   UNL     1      47.151 132.694  22.074  1.00  0.00     0.048 C 
BRANCH  21  26
ATOM     26  C   UNL     1      44.137 131.448  18.255  1.00  0.00     0.032 A 
ATOM     27  C   UNL     1      43.022 132.107  17.684  1.00  0.00     0.013 A 
ATOM     28  C   UNL     1      44.965 130.736  17.378  1.00  0.00     0.212 A 
ATOM     29  C   UNL     1      42.781 132.045  16.292  1.00  0.00     0.008 A 
ATOM     30  C   UNL     1      44.727 130.680  16.036  1.00  0.00     0.249 A 
ATOM     31  O   UNL     1      46.034 130.023  17.642  1.00  0.00    -0.403 OA
ATOM     32  C   UNL     1      43.642 131.322  15.447  1.00  0.00     0.083 A 
ATOM     33  N   UNL     1      45.667 129.923  15.452  1.00  0.00    -0.176 N 
ATOM     34  C   UNL     1      46.453 129.537  16.484  1.00  0.00     0.521 A 
ATOM     35  H   UNL     1      45.766 129.680  14.441  1.00  0.00     0.457 HD
ENDBRANCH  21  26
ENDBRANCH  17  18
ENDBRANCH   1  17
TORSDOF 7
ENDMDL
MODEL 5
REMARK VINA RESULT:      -1.2      4.784      7.953
REMARK SMILES Cc1cc(-c2cccc3[nH+]coc23)cc(O/C(S)=N/c2ccc(-n3ccc[nH+]3)cc2)c1F
REMARK SMILES IDX 17 1 18 2 19 4 20 5 21 6 30 7 22 8 29 9 23 10 24 11 25 12
REMARK SMILES IDX 28 13 26 14 27 15 16 17 15 18 14 19 31 20 4 21 2 22 3 23
REMARK SMILES IDX 32 24 1 25 5 26 6 27 13 28 7 29 9 30 12 31 8 32 10 33 11 34
REMARK H PARENT 18 3 28 16 10 35
ROOT
ATOM      1  C   UNL     1      45.789 125.207  22.709  1.00  0.00     0.253 C 
ENDROOT
BRANCH   1   2
ATOM      2  S   UNL     1      45.268 124.712  21.062  1.00  0.00    -0.084 SA
ATOM      3  H   UNL     1      44.986 126.039  20.690  1.00  0.00     0.113 HD
ENDBRANCH   1   2
BRANCH   1   4
ATOM      4  N   UNL     1      47.011 125.031  23.127  1.00  0.00    -0.208 NA
BRANCH   4   5
ATOM      5  C   UNL     1      48.131 124.627  22.330  1.00  0.00     0.068 A 
ATOM      6  C   UNL     1      47.950 124.414  20.959  1.00  0.00     0.031 A 
ATOM      7  C   UNL     1      49.376 124.348  22.912  1.00  0.00     0.031 A 
ATOM      8  C   UNL     1      49.013 123.972  20.167  1.00  0.00     0.035 A 
ATOM      9  C   UNL     1      50.441 123.906  22.122  1.00  0.00     0.035 A 
ATOM     10  C   UNL     1      50.272 123.717  20.737  1.00  0.00     0.104 A 
BRANCH  10  11
ATOM     11  N   UNL     1      51.367 123.261  19.918  1.00  0.00    -0.130 N 
ATOM     12  C   UNL     1      51.273 122.683  18.702  1.00  0.00     0.163 A 
ATOM     13  N   UNL     1      52.647 123.348  20.250  1.00  0.00    -0.126 N 
ATOM     14  C   UNL     1      52.548 122.395  18.251  1.00  0.00     0.097 A 
ATOM     15  C   UNL     1      53.389 122.828  19.256  1.00  0.00     0.335 A 
ATOM     16  H   UNL     1      53.017 123.731  21.148  1.00  0.00     0.488 HD
ENDBRANCH  10  11
ENDBRANCH   4   5
ENDBRANCH   1   4
BRANCH   1  17
ATOM     17  O   UNL     1      44.827 125.792  23.543  1.00  0.00    -0.431 OA
BRANCH  17  18
ATOM     18  C   UNL     1      44.116 126.975  23.277  1.00  0.00     0.166 A 
ATOM     19  C   UNL     1      44.654 128.010  22.492  1.00  0.00     0.059 A 
ATOM     20  C   UNL     1      42.849 127.134  23.850  1.00  0.00     0.168 A 
ATOM     21  C   UNL     1      43.911 129.174  22.233  1.00  0.00    -0.010 A 
ATOM     22  C   UNL     1      42.107 128.305  23.624  1.00  0.00    -0.011 A 
ATOM     23  C   UNL     1      42.635 129.311  22.803  1.00  0.00     0.015 A 
ATOM     24  F   UNL     1      42.336 126.139  24.618  1.00  0.00    -0.203 F 
ATOM     25  C   UNL     1      40.731 128.450  24.208  1.00  0.00     0.048 C 
BRANCH  21  26
ATOM     26  C   UNL     1      44.468 130.245  21.373  1.00  0.00     0.032 A 
ATOM     27  C   UNL     1      45.855 130.327  21.097  1.00  0.00     0.013 A 
ATOM     28  C   UNL     1      43.653 131.230  20.802  1.00  0.00     0.212 A 
ATOM     29  C   UNL     1      46.368 131.355  20.274  1.00  0.00     0.008 A 
ATOM     30  C   UNL     1      44.154 132.219  20.008  1.00  0.00     0.249 A 
ATOM     31  O   UNL     1      42.357 131.403  20.916  1.00  0.00    -0.403 OA
ATOM     32  C   UNL     1      45.511 132.321  19.716  1.00  0.00     0.083 A 
ATOM     33  N   UNL     1      43.154 133.021  19.616  1.00  0.00    -0.176 N 
ATOM     34  C   UNL     1      42.061 132.477  20.202  1.00  0.00     0.521 A 
ATOM     35  H   UNL     1      43.204 133.869  19.009  1.00  0.00     0.457 HD
ENDBRANCH  21  26
ENDBRANCH  17  18
ENDBRANCH   1  17
TORSDOF 7
ENDMDL


