MODEL 1
REMARK VINA RESULT:      -5.1      0.000      0.000
REMARK SMILES Cc1cc(-c2c([NH2+]c3cccc4c3CCC4)ccc3[nH]ccc23)cc(O)c1F
REMARK SMILES IDX 5 1 6 2 17 3 18 4 19 5 20 6 21 7 22 8 23 9 4 11 2 12 3 13
REMARK SMILES IDX 27 14 25 15 24 16 1 17 28 18 26 19 7 21 8 24 9 25 13 26
REMARK SMILES IDX 10 27 12 28 14 29 11 30 16 31 15 32
REMARK H PARENT 20 10 26 20 7 22 7 23
ROOT
ATOM      1  C   UNL     1      45.198 125.385  22.889  1.00  0.00     0.053 A 
ATOM      2  C   UNL     1      46.439 124.856  23.352  1.00  0.00     0.143 A 
ATOM      3  C   UNL     1      46.598 123.447  23.452  1.00  0.00     0.071 A 
ATOM      4  C   UNL     1      45.558 122.571  23.102  1.00  0.00     0.033 A 
ATOM      5  C   UNL     1      44.364 123.124  22.653  1.00  0.00     0.046 A 
ATOM      6  N   UNL     1      43.255 122.465  22.276  1.00  0.00    -0.361 N 
ATOM      7  C   UNL     1      42.361 123.415  21.928  1.00  0.00     0.083 A 
ATOM      8  C   UNL     1      42.904 124.685  22.085  1.00  0.00     0.029 A 
ATOM      9  C   UNL     1      44.188 124.478  22.550  1.00  0.00     0.013 A 
ATOM     10  H   UNL     1      43.111 121.431  22.256  1.00  0.00     0.166 HD
ENDROOT
BRANCH   1  11
ATOM     11  C   UNL     1      44.954 126.833  22.773  1.00  0.00    -0.008 A 
ATOM     12  C   UNL     1      43.910 128.864  23.613  1.00  0.00    -0.011 A 
ATOM     13  C   UNL     1      44.127 127.481  23.701  1.00  0.00     0.015 A 
ATOM     14  C   UNL     1      44.475 129.586  22.546  1.00  0.00     0.167 A 
ATOM     15  C   UNL     1      45.279 128.936  21.603  1.00  0.00     0.152 A 
ATOM     16  C   UNL     1      45.521 127.560  21.719  1.00  0.00     0.058 A 
ATOM     17  C   UNL     1      43.044 129.557  24.625  1.00  0.00     0.048 C 
ATOM     18  F   UNL     1      44.251 130.920  22.427  1.00  0.00    -0.203 F 
BRANCH  15  19
ATOM     19  O   UNL     1      45.838 129.664  20.554  1.00  0.00    -0.505 OA
ATOM     20  H   UNL     1      46.547 130.369  20.716  1.00  0.00     0.293 HD
ENDBRANCH  15  19
ENDBRANCH   1  11
BRANCH   2  21
ATOM     21  N   UNL     1      47.535 125.725  23.730  1.00  0.00    -0.281 N 
ATOM     22  H   UNL     1      47.672 125.646  24.762  1.00  0.00     0.358 HD
ATOM     23  H   UNL     1      47.301 126.726  23.533  1.00  0.00     0.358 HD
BRANCH  21  24
ATOM     24  C   UNL     1      48.743 125.399  23.002  1.00  0.00     0.138 A 
ATOM     25  C   UNL     1      48.687 124.649  21.805  1.00  0.00     0.068 A 
ATOM     26  C   UNL     1      50.007 125.861  23.426  1.00  0.00     0.017 A 
ATOM     27  C   UNL     1      49.862 124.325  21.106  1.00  0.00     0.006 A 
ATOM     28  C   UNL     1      51.151 125.536  22.737  1.00  0.00    -0.039 A 
ATOM     29  C   UNL     1      50.314 126.736  24.590  1.00  0.00     0.042 C 
ATOM     30  C   UNL     1      51.104 124.763  21.577  1.00  0.00     0.004 A 
ATOM     31  C   UNL     1      52.368 126.111  23.353  1.00  0.00     0.036 C 
ATOM     32  C   UNL     1      51.850 126.804  24.623  1.00  0.00     0.010 C 
ENDBRANCH  21  24
ENDBRANCH   2  21
TORSDOF 4
ENDMDL
MODEL 2
REMARK VINA RESULT:      -4.4      1.360      2.551
REMARK SMILES Cc1cc(-c2c([NH2+]c3cccc4c3CCC4)ccc3[nH]ccc23)cc(O)c1F
REMARK SMILES IDX 5 1 6 2 17 3 18 4 19 5 20 6 21 7 22 8 23 9 4 11 2 12 3 13
REMARK SMILES IDX 27 14 25 15 24 16 1 17 28 18 26 19 7 21 8 24 9 25 13 26
REMARK SMILES IDX 10 27 12 28 14 29 11 30 16 31 15 32
REMARK H PARENT 20 10 26 20 7 22 7 23
ROOT
ATOM      1  C   UNL     1      45.501 125.747  22.388  1.00  0.00     0.053 A 
ATOM      2  C   UNL     1      46.825 125.228  22.291  1.00  0.00     0.143 A 
ATOM      3  C   UNL     1      47.022 123.819  22.312  1.00  0.00     0.071 A 
ATOM      4  C   UNL     1      45.936 122.936  22.425  1.00  0.00     0.033 A 
ATOM      5  C   UNL     1      44.660 123.479  22.516  1.00  0.00     0.046 A 
ATOM      6  N   UNL     1      43.500 122.812  22.634  1.00  0.00    -0.361 N 
ATOM      7  C   UNL     1      42.535 123.755  22.693  1.00  0.00     0.083 A 
ATOM      8  C   UNL     1      43.085 125.029  22.612  1.00  0.00     0.029 A 
ATOM      9  C   UNL     1      44.448 124.832  22.499  1.00  0.00     0.013 A 
ATOM     10  H   UNL     1      43.368 121.777  22.674  1.00  0.00     0.166 HD
ENDROOT
BRANCH   1  11
ATOM     11  C   UNL     1      45.220 127.193  22.388  1.00  0.00    -0.008 A 
ATOM     12  C   UNL     1      45.292 129.350  21.265  1.00  0.00    -0.011 A 
ATOM     13  C   UNL     1      45.580 127.977  21.284  1.00  0.00     0.015 A 
ATOM     14  C   UNL     1      44.699 129.947  22.391  1.00  0.00     0.167 A 
ATOM     15  C   UNL     1      44.364 129.171  23.507  1.00  0.00     0.152 A 
ATOM     16  C   UNL     1      44.620 127.793  23.503  1.00  0.00     0.058 A 
ATOM     17  C   UNL     1      45.658 130.179  20.068  1.00  0.00     0.048 C 
ATOM     18  F   UNL     1      44.441 131.280  22.404  1.00  0.00    -0.203 F 
BRANCH  15  19
ATOM     19  O   UNL     1      43.771 129.775  24.614  1.00  0.00    -0.505 OA
ATOM     20  H   UNL     1      43.602 129.262  25.471  1.00  0.00     0.293 HD
ENDBRANCH  15  19
ENDBRANCH   1  11
BRANCH   2  21
ATOM     21  N   UNL     1      47.972 126.105  22.179  1.00  0.00    -0.281 N 
ATOM     22  H   UNL     1      47.742 127.006  22.654  1.00  0.00     0.358 HD
ATOM     23  H   UNL     1      48.168 126.335  21.177  1.00  0.00     0.358 HD
BRANCH  21  24
ATOM     24  C   UNL     1      49.161 125.494  22.736  1.00  0.00     0.138 A 
ATOM     25  C   UNL     1      49.525 125.713  24.084  1.00  0.00     0.068 A 
ATOM     26  C   UNL     1      49.966 124.619  21.975  1.00  0.00     0.017 A 
ATOM     27  C   UNL     1      50.684 125.129  24.618  1.00  0.00     0.006 A 
ATOM     28  C   UNL     1      51.101 124.055  22.507  1.00  0.00    -0.039 A 
ATOM     29  C   UNL     1      49.744 124.161  20.577  1.00  0.00     0.042 C 
ATOM     30  C   UNL     1      51.485 124.299  23.825  1.00  0.00     0.004 A 
ATOM     31  C   UNL     1      51.805 123.179  21.542  1.00  0.00     0.036 C 
ATOM     32  C   UNL     1      50.992 123.325  20.246  1.00  0.00     0.010 C 
ENDBRANCH  21  24
ENDBRANCH   2  21
TORSDOF 4
ENDMDL
MODEL 3
REMARK VINA RESULT:      -3.4      2.732      6.302
REMARK SMILES Cc1cc(-c2c([NH2+]c3cccc4c3CCC4)ccc3[nH]ccc23)cc(O)c1F
REMARK SMILES IDX 5 1 6 2 17 3 18 4 19 5 20 6 21 7 22 8 23 9 4 11 2 12 3 13
REMARK SMILES IDX 27 14 25 15 24 16 1 17 28 18 26 19 7 21 8 24 9 25 13 26
REMARK SMILES IDX 10 27 12 28 14 29 11 30 16 31 15 32
REMARK H PARENT 20 10 26 20 7 22 7 23
ROOT
ATOM      1  C   UNL     1      46.750 125.408  22.913  1.00  0.00     0.053 A 
ATOM      2  C   UNL     1      45.830 126.446  22.581  1.00  0.00     0.143 A 
ATOM      3  C   UNL     1      44.462 126.302  22.942  1.00  0.00     0.071 A 
ATOM      4  C   UNL     1      44.005 125.159  23.617  1.00  0.00     0.033 A 
ATOM      5  C   UNL     1      44.931 124.169  23.925  1.00  0.00     0.046 A 
ATOM      6  N   UNL     1      44.698 123.008  24.558  1.00  0.00    -0.361 N 
ATOM      7  C   UNL     1      45.891 122.377  24.624  1.00  0.00     0.083 A 
ATOM      8  C   UNL     1      46.887 123.142  24.029  1.00  0.00     0.029 A 
ATOM      9  C   UNL     1      46.253 124.287  23.587  1.00  0.00     0.013 A 
ATOM     10  H   UNL     1      43.784 122.660  24.924  1.00  0.00     0.166 HD
ENDROOT
BRANCH   1  11
ATOM     11  C   UNL     1      48.178 125.480  22.560  1.00  0.00    -0.008 A 
ATOM     12  C   UNL     1      50.414 126.332  23.000  1.00  0.00    -0.011 A 
ATOM     13  C   UNL     1      49.048 126.279  23.314  1.00  0.00     0.015 A 
ATOM     14  C   UNL     1      50.894 125.629  21.882  1.00  0.00     0.167 A 
ATOM     15  C   UNL     1      50.023 124.851  21.111  1.00  0.00     0.152 A 
ATOM     16  C   UNL     1      48.665 124.773  21.453  1.00  0.00     0.058 A 
ATOM     17  C   UNL     1      51.344 127.171  23.828  1.00  0.00     0.048 C 
ATOM     18  F   UNL     1      52.208 125.692  21.545  1.00  0.00    -0.203 F 
BRANCH  15  19
ATOM     19  O   UNL     1      50.513 124.153  20.008  1.00  0.00    -0.505 OA
ATOM     20  H   UNL     1      50.691 124.616  19.125  1.00  0.00     0.293 HD
ENDBRANCH  15  19
ENDBRANCH   1  11
BRANCH   2  21
ATOM     21  N   UNL     1      46.259 127.638  21.879  1.00  0.00    -0.281 N 
ATOM     22  H   UNL     1      46.404 127.391  20.875  1.00  0.00     0.358 HD
ATOM     23  H   UNL     1      47.182 127.972  22.243  1.00  0.00     0.358 HD
BRANCH  21  24
ATOM     24  C   UNL     1      45.305 128.716  22.034  1.00  0.00     0.138 A 
ATOM     25  C   UNL     1      44.425 128.752  23.140  1.00  0.00     0.068 A 
ATOM     26  C   UNL     1      45.254 129.792  21.122  1.00  0.00     0.017 A 
ATOM     27  C   UNL     1      43.493 129.792  23.282  1.00  0.00     0.006 A 
ATOM     28  C   UNL     1      44.335 130.804  21.268  1.00  0.00    -0.039 A 
ATOM     29  C   UNL     1      46.128 130.028  19.942  1.00  0.00     0.042 C 
ATOM     30  C   UNL     1      43.439 130.823  22.337  1.00  0.00     0.004 A 
ATOM     31  C   UNL     1      44.442 131.827  20.203  1.00  0.00     0.036 C 
ATOM     32  C   UNL     1      45.534 131.278  19.270  1.00  0.00     0.010 C 
ENDBRANCH  21  24
ENDBRANCH   2  21
TORSDOF 4
ENDMDL
MODEL 4
REMARK VINA RESULT:      -2.6      6.299      8.092
REMARK SMILES Cc1cc(-c2c([NH2+]c3cccc4c3CCC4)ccc3[nH]ccc23)cc(O)c1F
REMARK SMILES IDX 5 1 6 2 17 3 18 4 19 5 20 6 21 7 22 8 23 9 4 11 2 12 3 13
REMARK SMILES IDX 27 14 25 15 24 16 1 17 28 18 26 19 7 21 8 24 9 25 13 26
REMARK SMILES IDX 10 27 12 28 14 29 11 30 16 31 15 32
REMARK H PARENT 20 10 26 20 7 22 7 23
ROOT
ATOM      1  C   UNL     1      44.974 131.932  21.683  1.00  0.00     0.053 A 
ATOM      2  C   UNL     1      45.933 132.860  22.188  1.00  0.00     0.143 A 
ATOM      3  C   UNL     1      45.998 133.097  23.589  1.00  0.00     0.071 A 
ATOM      4  C   UNL     1      45.137 132.434  24.479  1.00  0.00     0.033 A 
ATOM      5  C   UNL     1      44.218 131.536  23.950  1.00  0.00     0.046 A 
ATOM      6  N   UNL     1      43.311 130.810  24.625  1.00  0.00    -0.361 N 
ATOM      7  C   UNL     1      42.644 130.094  23.694  1.00  0.00     0.083 A 
ATOM      8  C   UNL     1      43.129 130.367  22.420  1.00  0.00     0.029 A 
ATOM      9  C   UNL     1      44.137 131.293  22.604  1.00  0.00     0.013 A 
ATOM     10  H   UNL     1      43.152 130.799  25.656  1.00  0.00     0.166 HD
ENDROOT
BRANCH   1  11
ATOM     11  C   UNL     1      44.838 131.646  20.245  1.00  0.00    -0.008 A 
ATOM     12  C   UNL     1      43.544 131.770  18.189  1.00  0.00    -0.011 A 
ATOM     13  C   UNL     1      43.671 132.016  19.564  1.00  0.00     0.015 A 
ATOM     14  C   UNL     1      44.570 131.089  17.511  1.00  0.00     0.167 A 
ATOM     15  C   UNL     1      45.725 130.694  18.195  1.00  0.00     0.152 A 
ATOM     16  C   UNL     1      45.861 130.977  19.561  1.00  0.00     0.058 A 
ATOM     17  C   UNL     1      42.301 132.192  17.460  1.00  0.00     0.048 C 
ATOM     18  F   UNL     1      44.452 130.815  16.186  1.00  0.00    -0.203 F 
BRANCH  15  19
ATOM     19  O   UNL     1      46.738 130.024  17.509  1.00  0.00    -0.505 OA
ATOM     20  H   UNL     1      46.879 129.027  17.615  1.00  0.00     0.293 HD
ENDBRANCH  15  19
ENDBRANCH   1  11
BRANCH   2  21
ATOM     21  N   UNL     1      46.834 133.569  21.304  1.00  0.00    -0.281 N 
ATOM     22  H   UNL     1      46.311 134.364  20.874  1.00  0.00     0.358 HD
ATOM     23  H   UNL     1      47.144 132.953  20.517  1.00  0.00     0.358 HD
BRANCH  21  24
ATOM     24  C   UNL     1      48.016 134.023  22.006  1.00  0.00     0.138 A 
ATOM     25  C   UNL     1      48.594 133.241  23.032  1.00  0.00     0.068 A 
ATOM     26  C   UNL     1      48.663 135.229  21.658  1.00  0.00     0.017 A 
ATOM     27  C   UNL     1      49.734 133.689  23.719  1.00  0.00     0.006 A 
ATOM     28  C   UNL     1      49.777 135.659  22.340  1.00  0.00    -0.039 A 
ATOM     29  C   UNL     1      48.307 136.171  20.564  1.00  0.00     0.042 C 
ATOM     30  C   UNL     1      50.327 134.910  23.379  1.00  0.00     0.004 A 
ATOM     31  C   UNL     1      50.294 136.948  21.825  1.00  0.00     0.036 C 
ATOM     32  C   UNL     1      49.281 137.348  20.740  1.00  0.00     0.010 C 
ENDBRANCH  21  24
ENDBRANCH   2  21
TORSDOF 4
ENDMDL
MODEL 5
REMARK VINA RESULT:      -2.4      3.173      6.244
REMARK SMILES Cc1cc(-c2c([NH2+]c3cccc4c3CCC4)ccc3[nH]ccc23)cc(O)c1F
REMARK SMILES IDX 5 1 6 2 17 3 18 4 19 5 20 6 21 7 22 8 23 9 4 11 2 12 3 13
REMARK SMILES IDX 27 14 25 15 24 16 1 17 28 18 26 19 7 21 8 24 9 25 13 26
REMARK SMILES IDX 10 27 12 28 14 29 11 30 16 31 15 32
REMARK H PARENT 20 10 26 20 7 22 7 23
ROOT
ATOM      1  C   UNL     1      44.146 130.171  21.727  1.00  0.00     0.053 A 
ATOM      2  C   UNL     1      44.783 128.996  22.225  1.00  0.00     0.143 A 
ATOM      3  C   UNL     1      44.664 128.675  23.605  1.00  0.00     0.071 A 
ATOM      4  C   UNL     1      43.931 129.491  24.481  1.00  0.00     0.033 A 
ATOM      5  C   UNL     1      43.323 130.627  23.959  1.00  0.00     0.046 A 
ATOM      6  N   UNL     1      42.587 131.532  24.625  1.00  0.00    -0.361 N 
ATOM      7  C   UNL     1      42.215 132.453  23.708  1.00  0.00     0.083 A 
ATOM      8  C   UNL     1      42.718 132.129  22.453  1.00  0.00     0.029 A 
ATOM      9  C   UNL     1      43.425 130.956  22.634  1.00  0.00     0.013 A 
ATOM     10  H   UNL     1      42.350 131.530  25.642  1.00  0.00     0.166 HD
ENDROOT
BRANCH   1  11
ATOM     11  C   UNL     1      44.236 130.577  20.314  1.00  0.00    -0.008 A 
ATOM     12  C   UNL     1      45.431 130.570  18.196  1.00  0.00    -0.011 A 
ATOM     13  C   UNL     1      45.350 130.210  19.549  1.00  0.00     0.015 A 
ATOM     14  C   UNL     1      44.417 131.360  17.629  1.00  0.00     0.167 A 
ATOM     15  C   UNL     1      43.315 131.752  18.399  1.00  0.00     0.152 A 
ATOM     16  C   UNL     1      43.223 131.356  19.741  1.00  0.00     0.058 A 
ATOM     17  C   UNL     1      46.616 130.151  17.375  1.00  0.00     0.048 C 
ATOM     18  F   UNL     1      44.493 131.745  16.329  1.00  0.00    -0.203 F 
BRANCH  15  19
ATOM     19  O   UNL     1      42.313 132.531  17.823  1.00  0.00    -0.505 OA
ATOM     20  H   UNL     1      41.868 133.284  18.334  1.00  0.00     0.293 HD
ENDBRANCH  15  19
ENDBRANCH   1  11
BRANCH   2  21
ATOM     21  N   UNL     1      45.554 128.131  21.356  1.00  0.00    -0.281 N 
ATOM     22  H   UNL     1      46.402 128.654  21.045  1.00  0.00     0.358 HD
ATOM     23  H   UNL     1      45.013 127.894  20.493  1.00  0.00     0.358 HD
BRANCH  21  24
ATOM     24  C   UNL     1      45.901 126.891  22.018  1.00  0.00     0.138 A 
ATOM     25  C   UNL     1      47.232 126.632  22.420  1.00  0.00     0.068 A 
ATOM     26  C   UNL     1      44.922 125.924  22.334  1.00  0.00     0.017 A 
ATOM     27  C   UNL     1      47.568 125.424  23.051  1.00  0.00     0.006 A 
ATOM     28  C   UNL     1      45.263 124.744  22.950  1.00  0.00    -0.039 A 
ATOM     29  C   UNL     1      43.455 126.004  22.102  1.00  0.00     0.042 C 
ATOM     30  C   UNL     1      46.580 124.467  23.313  1.00  0.00     0.004 A 
ATOM     31  C   UNL     1      44.093 123.867  23.182  1.00  0.00     0.036 C 
ATOM     32  C   UNL     1      42.924 124.628  22.536  1.00  0.00     0.010 C 
ENDBRANCH  21  24
ENDBRANCH   2  21
TORSDOF 4
ENDMDL
MODEL 6
REMARK VINA RESULT:      -2.4      6.224      8.176
REMARK SMILES Cc1cc(-c2c([NH2+]c3cccc4c3CCC4)ccc3[nH]ccc23)cc(O)c1F
REMARK SMILES IDX 5 1 6 2 17 3 18 4 19 5 20 6 21 7 22 8 23 9 4 11 2 12 3 13
REMARK SMILES IDX 27 14 25 15 24 16 1 17 28 18 26 19 7 21 8 24 9 25 13 26
REMARK SMILES IDX 10 27 12 28 14 29 11 30 16 31 15 32
REMARK H PARENT 20 10 26 20 7 22 7 23
ROOT
ATOM      1  C   UNL     1      44.793 131.912  21.701  1.00  0.00     0.053 A 
ATOM      2  C   UNL     1      45.706 132.874  22.228  1.00  0.00     0.143 A 
ATOM      3  C   UNL     1      45.861 132.982  23.638  1.00  0.00     0.071 A 
ATOM      4  C   UNL     1      45.135 132.161  24.515  1.00  0.00     0.033 A 
ATOM      5  C   UNL     1      44.256 131.235  23.964  1.00  0.00     0.046 A 
ATOM      6  N   UNL     1      43.473 130.367  24.625  1.00  0.00    -0.361 N 
ATOM      7  C   UNL     1      42.797 129.682  23.676  1.00  0.00     0.083 A 
ATOM      8  C   UNL     1      43.154 130.118  22.405  1.00  0.00     0.029 A 
ATOM      9  C   UNL     1      44.090 131.114  22.610  1.00  0.00     0.013 A 
ATOM     10  H   UNL     1      43.397 130.244  25.658  1.00  0.00     0.166 HD
ENDROOT
BRANCH   1  11
ATOM     11  C   UNL     1      44.568 131.751  20.255  1.00  0.00    -0.008 A 
ATOM     12  C   UNL     1      45.307 130.924  18.090  1.00  0.00    -0.011 A 
ATOM     13  C   UNL     1      45.526 131.105  19.463  1.00  0.00     0.015 A 
ATOM     14  C   UNL     1      44.148 131.456  17.499  1.00  0.00     0.167 A 
ATOM     15  C   UNL     1      43.202 132.127  18.282  1.00  0.00     0.152 A 
ATOM     16  C   UNL     1      43.410 132.271  19.661  1.00  0.00     0.058 A 
ATOM     17  C   UNL     1      46.327 130.207  17.253  1.00  0.00     0.048 C 
ATOM     18  F   UNL     1      43.933 131.319  16.165  1.00  0.00    -0.203 F 
BRANCH  15  19
ATOM     19  O   UNL     1      42.054 132.646  17.685  1.00  0.00    -0.505 OA
ATOM     20  H   UNL     1      41.326 132.041  17.322  1.00  0.00     0.293 HD
ENDBRANCH  15  19
ENDBRANCH   1  11
BRANCH   2  21
ATOM     21  N   UNL     1      46.469 133.745  21.358  1.00  0.00    -0.281 N 
ATOM     22  H   UNL     1      45.876 134.571  21.123  1.00  0.00     0.358 HD
ATOM     23  H   UNL     1      46.690 133.266  20.455  1.00  0.00     0.358 HD
BRANCH  21  24
ATOM     24  C   UNL     1      47.720 134.139  21.971  1.00  0.00     0.138 A 
ATOM     25  C   UNL     1      48.326 133.335  22.964  1.00  0.00     0.068 A 
ATOM     26  C   UNL     1      48.406 135.303  21.563  1.00  0.00     0.017 A 
ATOM     27  C   UNL     1      49.534 133.725  23.564  1.00  0.00     0.006 A 
ATOM     28  C   UNL     1      49.586 135.678  22.160  1.00  0.00    -0.039 A 
ATOM     29  C   UNL     1      48.025 136.254  20.485  1.00  0.00     0.042 C 
ATOM     30  C   UNL     1      50.167 134.908  23.168  1.00  0.00     0.004 A 
ATOM     31  C   UNL     1      50.136 136.931  21.594  1.00  0.00     0.036 C 
ATOM     32  C   UNL     1      49.073 137.377  20.577  1.00  0.00     0.010 C 
ENDBRANCH  21  24
ENDBRANCH   2  21
TORSDOF 4
ENDMDL


