REMARK SMILES Cc1cc(N)c(O)c(-n2nc3ccccc3n2)c1F
REMARK SMILES IDX 1 1 2 2 3 3 4 4 6 5 8 6 18 7 19 8 5 9 9 12 10 13 17 14 11 15
REMARK SMILES IDX 16 16 12 17 15 18 13 19 14 20 7 21
REMARK H PARENT 5 10 5 11 7 22
ROOT
ATOM      1  C   UNL     1      -0.605  -2.377   2.196  1.00  0.00     0.048 C 
ATOM      2  C   UNL     1      -0.215  -2.075   0.777  1.00  0.00    -0.011 A 
ATOM      3  C   UNL     1       0.865  -2.743   0.186  1.00  0.00     0.036 A 
ATOM      4  C   UNL     1       1.251  -2.454  -1.128  1.00  0.00     0.077 A 
ATOM      5  C   UNL     1       0.556  -1.476  -1.865  1.00  0.00     0.169 A 
ATOM      6  C   UNL     1      -0.503  -0.761  -1.258  1.00  0.00     0.165 A 
ATOM      7  C   UNL     1      -0.887  -1.075   0.057  1.00  0.00     0.157 A 
ATOM      8  F   UNL     1      -1.892  -0.381   0.652  1.00  0.00    -0.204 F 
ENDROOT
BRANCH   4   9
ATOM      9  N   UNL     1       2.343  -3.171  -1.716  1.00  0.00    -0.396 N 
ATOM     10  H   UNL     1       2.853  -3.903  -1.173  1.00  0.00     0.156 HD
ATOM     11  H   UNL     1       2.659  -2.980  -2.692  1.00  0.00     0.156 HD
ENDBRANCH   4   9
BRANCH   6  12
ATOM     12  N   UNL     1      -1.173   0.304  -1.950  1.00  0.00    -0.143 N 
ATOM     13  N   UNL     1      -2.497   0.457  -1.952  1.00  0.00    -0.148 NA
ATOM     14  N   UNL     1      -0.535   1.280  -2.596  1.00  0.00    -0.148 NA
ATOM     15  C   UNL     1      -2.710   1.580  -2.653  1.00  0.00     0.113 A 
ATOM     16  C   UNL     1      -1.509   2.084  -3.047  1.00  0.00     0.113 A 
ATOM     17  C   UNL     1      -3.914   2.203  -2.964  1.00  0.00     0.032 A 
ATOM     18  C   UNL     1      -1.403   3.256  -3.789  1.00  0.00     0.032 A 
ATOM     19  C   UNL     1      -3.851   3.393  -3.717  1.00  0.00     0.002 A 
ATOM     20  C   UNL     1      -2.601   3.917  -4.127  1.00  0.00     0.002 A 
ENDBRANCH   6  12
BRANCH   5  21
ATOM     21  O   UNL     1       0.914  -1.257  -3.197  1.00  0.00    -0.504 OA
ATOM     22  H   UNL     1       0.377  -0.677  -3.827  1.00  0.00     0.293 HD
ENDBRANCH   5  21
TORSDOF 3


