MODEL 1
REMARK VINA RESULT:      -5.7      0.000      0.000
REMARK SMILES [NH3+]CC[C@H]1CC[C@@]([S-])(c2cnc3ccnn3c2)CC1
REMARK SMILES IDX 2 1 1 2 3 6 4 7 5 8 19 9 6 10 18 11 7 12 8 13 9 14 10 15
REMARK SMILES IDX 17 16 11 17 16 18 12 19 15 20 13 21 14 22
REMARK H PARENT 1 3 1 4 1 5
ROOT
ATOM      1  C   UNL     1      43.802 131.631  17.337  1.00  0.00     0.259 C 
ENDROOT
BRANCH   1   2
ATOM      2  N   UNL     1      44.451 131.983  16.073  1.00  0.00    -0.358 N 
ATOM      3  H   UNL     1      43.910 132.730  15.583  1.00  0.00     0.344 HD
ATOM      4  H   UNL     1      45.432 132.303  16.243  1.00  0.00     0.344 HD
ATOM      5  H   UNL     1      44.476 131.139  15.456  1.00  0.00     0.344 HD
ENDBRANCH   1   2
BRANCH   1   6
ATOM      6  C   UNL     1      44.818 131.310  18.451  1.00  0.00     0.065 C 
BRANCH   6   7
ATOM      7  C   UNL     1      44.438 131.842  19.854  1.00  0.00    -0.006 C 
ATOM      8  C   UNL     1      42.990 131.469  20.242  1.00  0.00     0.003 C 
ATOM      9  C   UNL     1      45.427 131.288  20.899  1.00  0.00     0.003 C 
ATOM     10  C   UNL     1      42.658 131.909  21.681  1.00  0.00    -0.014 C 
ATOM     11  C   UNL     1      45.074 131.781  22.308  1.00  0.00    -0.014 C 
ATOM     12  C   UNL     1      43.648 131.335  22.732  1.00  0.00    -0.123 C 
ATOM     13  S   UNL     1      43.268 132.100  24.305  1.00  0.00    -0.781 S 
BRANCH  12  14
ATOM     14  C   UNL     1      43.554 129.808  22.935  1.00  0.00    -0.029 A 
ATOM     15  C   UNL     1      44.698 128.985  22.721  1.00  0.00     0.117 A 
ATOM     16  C   UNL     1      42.394 129.168  23.442  1.00  0.00     0.119 A 
ATOM     17  N   UNL     1      44.651 127.638  22.929  1.00  0.00    -0.237 NA
ATOM     18  N   UNL     1      42.420 127.827  23.618  1.00  0.00    -0.222 N 
ATOM     19  C   UNL     1      43.499 127.086  23.365  1.00  0.00     0.154 A 
ATOM     20  N   UNL     1      41.438 127.061  24.061  1.00  0.00    -0.175 NA
ATOM     21  C   UNL     1      43.240 125.767  23.647  1.00  0.00     0.071 A 
ATOM     22  C   UNL     1      41.918 125.795  24.085  1.00  0.00     0.138 A 
ENDBRANCH  12  14
ENDBRANCH   6   7
ENDBRANCH   1   6
TORSDOF 4
ENDMDL
MODEL 2
REMARK VINA RESULT:      -5.4      1.998      6.130
REMARK SMILES [NH3+]CC[C@H]1CC[C@@]([S-])(c2cnc3ccnn3c2)CC1
REMARK SMILES IDX 2 1 1 2 3 6 4 7 5 8 19 9 6 10 18 11 7 12 8 13 9 14 10 15
REMARK SMILES IDX 17 16 11 17 16 18 12 19 15 20 13 21 14 22
REMARK H PARENT 1 3 1 4 1 5
ROOT
ATOM      1  C   UNL     1      42.030 125.468  24.606  1.00  0.00     0.259 C 
ENDROOT
BRANCH   1   2
ATOM      2  N   UNL     1      41.514 124.261  23.958  1.00  0.00    -0.358 N 
ATOM      3  H   UNL     1      40.499 124.137  24.175  1.00  0.00     0.344 HD
ATOM      4  H   UNL     1      41.657 124.312  22.923  1.00  0.00     0.344 HD
ATOM      5  H   UNL     1      42.031 123.429  24.326  1.00  0.00     0.344 HD
ENDBRANCH   1   2
BRANCH   1   6
ATOM      6  C   UNL     1      42.577 126.492  23.592  1.00  0.00     0.065 C 
BRANCH   6   7
ATOM      7  C   UNL     1      42.899 127.886  24.182  1.00  0.00    -0.006 C 
ATOM      8  C   UNL     1      44.339 128.336  23.852  1.00  0.00     0.003 C 
ATOM      9  C   UNL     1      41.885 128.917  23.647  1.00  0.00     0.003 C 
ATOM     10  C   UNL     1      44.615 129.768  24.351  1.00  0.00    -0.014 C 
ATOM     11  C   UNL     1      42.182 130.319  24.197  1.00  0.00    -0.014 C 
ATOM     12  C   UNL     1      43.600 130.806  23.796  1.00  0.00    -0.123 C 
ATOM     13  S   UNL     1      43.911 132.361  24.625  1.00  0.00    -0.781 S 
BRANCH  12  14
ATOM     14  C   UNL     1      43.716 131.068  22.280  1.00  0.00    -0.029 A 
ATOM     15  C   UNL     1      42.771 131.912  21.624  1.00  0.00     0.117 A 
ATOM     16  C   UNL     1      44.799 130.595  21.495  1.00  0.00     0.119 A 
ATOM     17  N   UNL     1      42.873 132.190  20.293  1.00  0.00    -0.237 NA
ATOM     18  N   UNL     1      44.830 130.907  20.179  1.00  0.00    -0.222 N 
ATOM     19  C   UNL     1      43.903 131.665  19.595  1.00  0.00     0.154 A 
ATOM     20  N   UNL     1      45.743 130.545  19.295  1.00  0.00    -0.175 NA
ATOM     21  C   UNL     1      44.197 131.825  18.263  1.00  0.00     0.071 A 
ATOM     22  C   UNL     1      45.374 131.095  18.114  1.00  0.00     0.138 A 
ENDBRANCH  12  14
ENDBRANCH   6   7
ENDBRANCH   1   6
TORSDOF 4
ENDMDL
MODEL 3
REMARK VINA RESULT:      -5.4      0.889      1.825
REMARK SMILES [NH3+]CC[C@H]1CC[C@@]([S-])(c2cnc3ccnn3c2)CC1
REMARK SMILES IDX 2 1 1 2 3 6 4 7 5 8 19 9 6 10 18 11 7 12 8 13 9 14 10 15
REMARK SMILES IDX 17 16 11 17 16 18 12 19 15 20 13 21 14 22
REMARK H PARENT 1 3 1 4 1 5
ROOT
ATOM      1  C   UNL     1      45.298 131.609  17.270  1.00  0.00     0.259 C 
ENDROOT
BRANCH   1   2
ATOM      2  N   UNL     1      45.594 130.581  16.271  1.00  0.00    -0.358 N 
ATOM      3  H   UNL     1      46.158 130.986  15.490  1.00  0.00     0.344 HD
ATOM      4  H   UNL     1      46.107 129.782  16.708  1.00  0.00     0.344 HD
ATOM      5  H   UNL     1      44.694 130.224  15.874  1.00  0.00     0.344 HD
ENDBRANCH   1   2
BRANCH   1   6
ATOM      6  C   UNL     1      44.063 131.260  18.124  1.00  0.00     0.065 C 
BRANCH   6   7
ATOM      7  C   UNL     1      44.092 131.812  19.571  1.00  0.00    -0.006 C 
ATOM      8  C   UNL     1      42.782 131.511  20.331  1.00  0.00     0.003 C 
ATOM      9  C   UNL     1      45.294 131.210  20.325  1.00  0.00     0.003 C 
ATOM     10  C   UNL     1      42.862 131.969  21.801  1.00  0.00    -0.014 C 
ATOM     11  C   UNL     1      45.349 131.721  21.771  1.00  0.00    -0.014 C 
ATOM     12  C   UNL     1      44.066 131.347  22.562  1.00  0.00    -0.123 C 
ATOM     13  S   UNL     1      44.152 132.131  24.168  1.00  0.00    -0.781 S 
BRANCH  12  14
ATOM     14  C   UNL     1      43.956 129.827  22.804  1.00  0.00    -0.029 A 
ATOM     15  C   UNL     1      42.768 129.276  23.369  1.00  0.00     0.117 A 
ATOM     16  C   UNL     1      44.949 128.905  22.385  1.00  0.00     0.119 A 
ATOM     17  N   UNL     1      42.630 127.933  23.558  1.00  0.00    -0.237 NA
ATOM     18  N   UNL     1      44.745 127.587  22.611  1.00  0.00    -0.222 N 
ATOM     19  C   UNL     1      43.637 127.115  23.182  1.00  0.00     0.154 A 
ATOM     20  N   UNL     1      45.559 126.590  22.309  1.00  0.00    -0.175 NA
ATOM     21  C   UNL     1      43.700 125.746  23.270  1.00  0.00     0.071 A 
ATOM     22  C   UNL     1      44.939 125.453  22.705  1.00  0.00     0.138 A 
ENDBRANCH  12  14
ENDBRANCH   6   7
ENDBRANCH   1   6
TORSDOF 4
ENDMDL
MODEL 4
REMARK VINA RESULT:      -5.3      2.115      5.977
REMARK SMILES [NH3+]CC[C@H]1CC[C@@]([S-])(c2cnc3ccnn3c2)CC1
REMARK SMILES IDX 2 1 1 2 3 6 4 7 5 8 19 9 6 10 18 11 7 12 8 13 9 14 10 15
REMARK SMILES IDX 17 16 11 17 16 18 12 19 15 20 13 21 14 22
REMARK H PARENT 1 3 1 4 1 5
ROOT
ATOM      1  C   UNL     1      40.201 127.370  23.655  1.00  0.00     0.259 C 
ENDROOT
BRANCH   1   2
ATOM      2  N   UNL     1      39.440 126.140  23.429  1.00  0.00    -0.358 N 
ATOM      3  H   UNL     1      39.832 125.359  24.003  1.00  0.00     0.344 HD
ATOM      4  H   UNL     1      38.431 126.286  23.662  1.00  0.00     0.344 HD
ATOM      5  H   UNL     1      39.516 125.874  22.420  1.00  0.00     0.344 HD
ENDBRANCH   1   2
BRANCH   1   6
ATOM      6  C   UNL     1      41.671 127.091  24.026  1.00  0.00     0.065 C 
BRANCH   6   7
ATOM      7  C   UNL     1      42.469 128.328  24.506  1.00  0.00    -0.006 C 
ATOM      8  C   UNL     1      43.914 128.333  23.961  1.00  0.00     0.003 C 
ATOM      9  C   UNL     1      41.734 129.613  24.075  1.00  0.00     0.003 C 
ATOM     10  C   UNL     1      44.664 129.619  24.355  1.00  0.00    -0.014 C 
ATOM     11  C   UNL     1      42.503 130.864  24.518  1.00  0.00    -0.014 C 
ATOM     12  C   UNL     1      43.928 130.911  23.903  1.00  0.00    -0.123 C 
ATOM     13  S   UNL     1      44.797 132.304  24.615  1.00  0.00    -0.781 S 
BRANCH  12  14
ATOM     14  C   UNL     1      43.894 131.129  22.376  1.00  0.00    -0.029 A 
ATOM     15  C   UNL     1      42.835 131.877  21.782  1.00  0.00     0.117 A 
ATOM     16  C   UNL     1      44.940 130.711  21.514  1.00  0.00     0.119 A 
ATOM     17  N   UNL     1      42.801 132.115  20.440  1.00  0.00    -0.237 NA
ATOM     18  N   UNL     1      44.835 130.979  20.192  1.00  0.00    -0.222 N 
ATOM     19  C   UNL     1      43.805 131.645  19.670  1.00  0.00     0.154 A 
ATOM     20  N   UNL     1      45.695 130.656  19.242  1.00  0.00    -0.175 NA
ATOM     21  C   UNL     1      43.972 131.780  18.313  1.00  0.00     0.071 A 
ATOM     22  C   UNL     1      45.185 131.136  18.082  1.00  0.00     0.138 A 
ENDBRANCH  12  14
ENDBRANCH   6   7
ENDBRANCH   1   6
TORSDOF 4
ENDMDL
MODEL 5
REMARK VINA RESULT:      -4.4      1.997      5.743
REMARK SMILES [NH3+]CC[C@H]1CC[C@@]([S-])(c2cnc3ccnn3c2)CC1
REMARK SMILES IDX 2 1 1 2 3 6 4 7 5 8 19 9 6 10 18 11 7 12 8 13 9 14 10 15
REMARK SMILES IDX 17 16 11 17 16 18 12 19 15 20 13 21 14 22
REMARK H PARENT 1 3 1 4 1 5
ROOT
ATOM      1  C   UNL     1      44.008 125.884  22.777  1.00  0.00     0.259 C 
ENDROOT
BRANCH   1   2
ATOM      2  N   UNL     1      44.209 124.564  23.379  1.00  0.00    -0.358 N 
ATOM      3  H   UNL     1      43.288 124.131  23.618  1.00  0.00     0.344 HD
ATOM      4  H   UNL     1      44.740 123.942  22.728  1.00  0.00     0.344 HD
ATOM      5  H   UNL     1      44.759 124.673  24.262  1.00  0.00     0.344 HD
ENDBRANCH   1   2
BRANCH   1   6
ATOM      6  C   UNL     1      42.808 126.632  23.389  1.00  0.00     0.065 C 
BRANCH   6   7
ATOM      7  C   UNL     1      43.148 128.001  24.027  1.00  0.00    -0.006 C 
ATOM      8  C   UNL     1      44.613 128.414  23.764  1.00  0.00     0.003 C 
ATOM      9  C   UNL     1      42.188 129.076  23.479  1.00  0.00     0.003 C 
ATOM     10  C   UNL     1      44.912 129.824  24.309  1.00  0.00    -0.014 C 
ATOM     11  C   UNL     1      42.505 130.454  24.075  1.00  0.00    -0.014 C 
ATOM     12  C   UNL     1      43.951 130.906  23.741  1.00  0.00    -0.123 C 
ATOM     13  S   UNL     1      44.277 132.430  24.621  1.00  0.00    -0.781 S 
BRANCH  12  14
ATOM     14  C   UNL     1      44.135 131.201  22.238  1.00  0.00    -0.029 A 
ATOM     15  C   UNL     1      45.441 131.403  21.701  1.00  0.00     0.117 A 
ATOM     16  C   UNL     1      43.062 131.174  21.309  1.00  0.00     0.119 A 
ATOM     17  N   UNL     1      45.634 131.628  20.371  1.00  0.00    -0.237 NA
ATOM     18  N   UNL     1      43.330 131.411  20.005  1.00  0.00    -0.222 N 
ATOM     19  C   UNL     1      44.562 131.639  19.550  1.00  0.00     0.154 A 
ATOM     20  N   UNL     1      42.464 131.443  19.006  1.00  0.00    -0.175 NA
ATOM     21  C   UNL     1      44.532 131.832  18.190  1.00  0.00     0.071 A 
ATOM     22  C   UNL     1      43.180 131.701  17.885  1.00  0.00     0.138 A 
ENDBRANCH  12  14
ENDBRANCH   6   7
ENDBRANCH   1   6
TORSDOF 4
ENDMDL
MODEL 6
REMARK VINA RESULT:      -4.3      2.218      5.692
REMARK SMILES [NH3+]CC[C@H]1CC[C@@]([S-])(c2cnc3ccnn3c2)CC1
REMARK SMILES IDX 2 1 1 2 3 6 4 7 5 8 19 9 6 10 18 11 7 12 8 13 9 14 10 15
REMARK SMILES IDX 17 16 11 17 16 18 12 19 15 20 13 21 14 22
REMARK H PARENT 1 3 1 4 1 5
ROOT
ATOM      1  C   UNL     1      45.546 126.609  22.795  1.00  0.00     0.259 C 
ENDROOT
BRANCH   1   2
ATOM      2  N   UNL     1      46.874 126.090  23.126  1.00  0.00    -0.358 N 
ATOM      3  H   UNL     1      47.612 126.773  22.839  1.00  0.00     0.344 HD
ATOM      4  H   UNL     1      46.945 125.893  24.150  1.00  0.00     0.344 HD
ATOM      5  H   UNL     1      47.031 125.199  22.602  1.00  0.00     0.344 HD
ENDBRANCH   1   2
BRANCH   1   6
ATOM      6  C   UNL     1      44.605 126.637  24.016  1.00  0.00     0.065 C 
BRANCH   6   7
ATOM      7  C   UNL     1      43.918 127.999  24.279  1.00  0.00    -0.006 C 
ATOM      8  C   UNL     1      44.930 129.166  24.292  1.00  0.00     0.003 C 
ATOM      9  C   UNL     1      42.838 128.246  23.206  1.00  0.00     0.003 C 
ATOM     10  C   UNL     1      44.225 130.527  24.448  1.00  0.00    -0.014 C 
ATOM     11  C   UNL     1      42.144 129.597  23.423  1.00  0.00    -0.014 C 
ATOM     12  C   UNL     1      43.149 130.778  23.354  1.00  0.00    -0.123 C 
ATOM     13  S   UNL     1      42.278 132.279  23.790  1.00  0.00    -0.781 S 
BRANCH  12  14
ATOM     14  C   UNL     1      43.714 130.976  21.932  1.00  0.00    -0.029 A 
ATOM     15  C   UNL     1      45.091 130.718  21.666  1.00  0.00     0.117 A 
ATOM     16  C   UNL     1      42.900 131.305  20.817  1.00  0.00     0.119 A 
ATOM     17  N   UNL     1      45.608 130.850  20.411  1.00  0.00    -0.237 NA
ATOM     18  N   UNL     1      43.485 131.423  19.603  1.00  0.00    -0.222 N 
ATOM     19  C   UNL     1      44.786 131.215  19.404  1.00  0.00     0.154 A 
ATOM     20  N   UNL     1      42.895 131.736  18.462  1.00  0.00    -0.175 NA
ATOM     21  C   UNL     1      45.092 131.392  18.077  1.00  0.00     0.071 A 
ATOM     22  C   UNL     1      43.863 131.724  17.514  1.00  0.00     0.138 A 
ENDBRANCH  12  14
ENDBRANCH   6   7
ENDBRANCH   1   6
TORSDOF 4
ENDMDL
MODEL 7
REMARK VINA RESULT:      -3.6      1.952      5.993
REMARK SMILES [NH3+]CC[C@H]1CC[C@@]([S-])(c2cnc3ccnn3c2)CC1
REMARK SMILES IDX 2 1 1 2 3 6 4 7 5 8 19 9 6 10 18 11 7 12 8 13 9 14 10 15
REMARK SMILES IDX 17 16 11 17 16 18 12 19 15 20 13 21 14 22
REMARK H PARENT 1 3 1 4 1 5
ROOT
ATOM      1  C   UNL     1      41.136 127.320  23.749  1.00  0.00     0.259 C 
ENDROOT
BRANCH   1   2
ATOM      2  N   UNL     1      39.971 126.876  22.982  1.00  0.00    -0.358 N 
ATOM      3  H   UNL     1      39.503 127.692  22.526  1.00  0.00     0.344 HD
ATOM      4  H   UNL     1      40.254 126.175  22.260  1.00  0.00     0.344 HD
ATOM      5  H   UNL     1      39.285 126.429  23.633  1.00  0.00     0.344 HD
ENDBRANCH   1   2
BRANCH   1   6
ATOM      6  C   UNL     1      40.875 128.641  24.501  1.00  0.00     0.065 C 
BRANCH   6   7
ATOM      7  C   UNL     1      42.103 129.576  24.622  1.00  0.00    -0.006 C 
ATOM      8  C   UNL     1      43.312 129.052  23.816  1.00  0.00     0.003 C 
ATOM      9  C   UNL     1      41.720 130.991  24.145  1.00  0.00     0.003 C 
ATOM     10  C   UNL     1      44.492 130.042  23.856  1.00  0.00    -0.014 C 
ATOM     11  C   UNL     1      42.918 131.946  24.235  1.00  0.00    -0.014 C 
ATOM     12  C   UNL     1      44.105 131.463  23.359  1.00  0.00    -0.123 C 
ATOM     13  S   UNL     1      45.501 132.540  23.667  1.00  0.00    -0.781 S 
BRANCH  12  14
ATOM     14  C   UNL     1      43.788 131.550  21.852  1.00  0.00    -0.029 A 
ATOM     15  C   UNL     1      42.525 132.048  21.413  1.00  0.00     0.117 A 
ATOM     16  C   UNL     1      44.743 131.258  20.844  1.00  0.00     0.119 A 
ATOM     17  N   UNL     1      42.234 132.170  20.087  1.00  0.00    -0.237 NA
ATOM     18  N   UNL     1      44.379 131.398  19.548  1.00  0.00    -0.222 N 
ATOM     19  C   UNL     1      43.173 131.827  19.179  1.00  0.00     0.154 A 
ATOM     20  N   UNL     1      45.122 131.160  18.482  1.00  0.00    -0.175 NA
ATOM     21  C   UNL     1      43.093 131.882  17.809  1.00  0.00     0.071 A 
ATOM     22  C   UNL     1      44.353 131.448  17.404  1.00  0.00     0.138 A 
ENDBRANCH  12  14
ENDBRANCH   6   7
ENDBRANCH   1   6
TORSDOF 4
ENDMDL
MODEL 8
REMARK VINA RESULT:      -3.6      1.906      2.513
REMARK SMILES [NH3+]CC[C@H]1CC[C@@]([S-])(c2cnc3ccnn3c2)CC1
REMARK SMILES IDX 2 1 1 2 3 6 4 7 5 8 19 9 6 10 18 11 7 12 8 13 9 14 10 15
REMARK SMILES IDX 17 16 11 17 16 18 12 19 15 20 13 21 14 22
REMARK H PARENT 1 3 1 4 1 5
ROOT
ATOM      1  C   UNL     1      45.127 129.965  15.483  1.00  0.00     0.259 C 
ENDROOT
BRANCH   1   2
ATOM      2  N   UNL     1      45.514 128.554  15.425  1.00  0.00    -0.358 N 
ATOM      3  H   UNL     1      44.696 127.944  15.655  1.00  0.00     0.344 HD
ATOM      4  H   UNL     1      45.886 128.315  14.478  1.00  0.00     0.344 HD
ATOM      5  H   UNL     1      46.262 128.377  16.134  1.00  0.00     0.344 HD
ENDBRANCH   1   2
BRANCH   1   6
ATOM      6  C   UNL     1      44.213 130.275  16.685  1.00  0.00     0.065 C 
BRANCH   6   7
ATOM      7  C   UNL     1      44.859 131.146  17.789  1.00  0.00    -0.006 C 
ATOM      8  C   UNL     1      43.800 131.825  18.685  1.00  0.00     0.003 C 
ATOM      9  C   UNL     1      45.800 130.275  18.646  1.00  0.00     0.003 C 
ATOM     10  C   UNL     1      44.453 132.602  19.845  1.00  0.00    -0.014 C 
ATOM     11  C   UNL     1      46.449 131.100  19.764  1.00  0.00    -0.014 C 
ATOM     12  C   UNL     1      45.387 131.716  20.715  1.00  0.00    -0.123 C 
ATOM     13  S   UNL     1      46.229 132.793  21.870  1.00  0.00    -0.781 S 
BRANCH  12  14
ATOM     14  C   UNL     1      44.658 130.639  21.546  1.00  0.00    -0.029 A 
ATOM     15  C   UNL     1      45.221 129.336  21.682  1.00  0.00     0.117 A 
ATOM     16  C   UNL     1      43.484 130.907  22.296  1.00  0.00     0.119 A 
ATOM     17  N   UNL     1      44.616 128.378  22.440  1.00  0.00    -0.237 NA
ATOM     18  N   UNL     1      42.937 129.905  23.022  1.00  0.00    -0.222 N 
ATOM     19  C   UNL     1      43.472 128.686  23.087  1.00  0.00     0.154 A 
ATOM     20  N   UNL     1      41.844 129.962  23.763  1.00  0.00    -0.175 NA
ATOM     21  C   UNL     1      42.714 127.884  23.905  1.00  0.00     0.071 A 
ATOM     22  C   UNL     1      41.688 128.734  24.312  1.00  0.00     0.138 A 
ENDBRANCH  12  14
ENDBRANCH   6   7
ENDBRANCH   1   6
TORSDOF 4
ENDMDL
MODEL 9
REMARK VINA RESULT:      -3.5      2.119      5.601
REMARK SMILES [NH3+]CC[C@H]1CC[C@@]([S-])(c2cnc3ccnn3c2)CC1
REMARK SMILES IDX 2 1 1 2 3 6 4 7 5 8 19 9 6 10 18 11 7 12 8 13 9 14 10 15
REMARK SMILES IDX 17 16 11 17 16 18 12 19 15 20 13 21 14 22
REMARK H PARENT 1 3 1 4 1 5
ROOT
ATOM      1  C   UNL     1      41.372 127.529  22.798  1.00  0.00     0.259 C 
ENDROOT
BRANCH   1   2
ATOM      2  N   UNL     1      39.924 127.689  22.651  1.00  0.00    -0.358 N 
ATOM      3  H   UNL     1      39.707 128.290  21.824  1.00  0.00     0.344 HD
ATOM      4  H   UNL     1      39.462 126.756  22.549  1.00  0.00     0.344 HD
ATOM      5  H   UNL     1      39.546 128.159  23.505  1.00  0.00     0.344 HD
ENDBRANCH   1   2
BRANCH   1   6
ATOM      6  C   UNL     1      41.830 127.641  24.266  1.00  0.00     0.065 C 
BRANCH   6   7
ATOM      7  C   UNL     1      42.560 128.958  24.624  1.00  0.00    -0.006 C 
ATOM      8  C   UNL     1      44.030 128.953  24.150  1.00  0.00     0.003 C 
ATOM      9  C   UNL     1      41.805 130.149  24.000  1.00  0.00     0.003 C 
ATOM     10  C   UNL     1      44.716 130.307  24.414  1.00  0.00    -0.014 C 
ATOM     11  C   UNL     1      42.508 131.475  24.318  1.00  0.00    -0.014 C 
ATOM     12  C   UNL     1      43.960 131.503  23.769  1.00  0.00    -0.123 C 
ATOM     13  S   UNL     1      44.745 133.006  24.340  1.00  0.00    -0.781 S 
BRANCH  12  14
ATOM     14  C   UNL     1      43.997 131.528  22.227  1.00  0.00    -0.029 A 
ATOM     15  C   UNL     1      45.147 131.053  21.530  1.00  0.00     0.117 A 
ATOM     16  C   UNL     1      42.882 131.903  21.434  1.00  0.00     0.119 A 
ATOM     17  N   UNL     1      45.191 131.029  20.168  1.00  0.00    -0.237 NA
ATOM     18  N   UNL     1      43.002 131.859  20.088  1.00  0.00    -0.222 N 
ATOM     19  C   UNL     1      44.111 131.449  19.474  1.00  0.00     0.154 A 
ATOM     20  N   UNL     1      42.083 132.184  19.195  1.00  0.00    -0.175 NA
ATOM     21  C   UNL     1      43.940 131.496  18.112  1.00  0.00     0.071 A 
ATOM     22  C   UNL     1      42.638 131.971  17.977  1.00  0.00     0.138 A 
ENDBRANCH  12  14
ENDBRANCH   6   7
ENDBRANCH   1   6
TORSDOF 4
ENDMDL


