MODEL 1
REMARK VINA RESULT:      -3.6      0.000      0.000
REMARK SMILES CCC[C@H](C)[N-]C(=O)N(c1ccc(C)cc1)c1ccc2cc[nH]c2c1[O-]
REMARK SMILES IDX 6 1 4 2 5 3 3 4 2 5 1 6 7 7 8 8 9 9 10 10 11 11 16 12 12 13
REMARK SMILES IDX 15 14 13 15 14 16 17 17 18 18 25 19 19 20 24 21 20 22 23 23
REMARK SMILES IDX 21 24 22 25 26 26
REMARK H PARENT 23 27
ROOT
ATOM      1  N   UNL     1      46.963 132.729  21.617  1.00  0.00    -0.427 NA
ENDROOT
BRANCH   1   2
ATOM      2  C   UNL     1      47.391 133.872  22.418  1.00  0.00    -0.009 C 
ATOM      3  C   UNL     1      46.855 133.753  23.849  1.00  0.00     0.007 C 
BRANCH   2   4
ATOM      4  C   UNL     1      48.927 133.989  22.380  1.00  0.00     0.002 C 
BRANCH   4   5
ATOM      5  C   UNL     1      49.432 135.402  22.041  1.00  0.00    -0.003 C 
ATOM      6  C   UNL     1      48.492 136.100  21.061  1.00  0.00     0.004 C 
ENDBRANCH   4   5
ENDBRANCH   2   4
ENDBRANCH   1   2
BRANCH   1   7
ATOM      7  C   UNL     1      45.868 132.751  20.693  1.00  0.00     0.162 C 
ATOM      8  O   UNL     1      45.454 133.852  20.236  1.00  0.00    -0.298 OA
BRANCH   7   9
ATOM      9  N   UNL     1      45.253 131.516  20.278  1.00  0.00    -0.384 N 
BRANCH   9  10
ATOM     10  C   UNL     1      45.148 131.193  18.876  1.00  0.00    -0.035 A 
ATOM     11  C   UNL     1      44.100 131.715  18.098  1.00  0.00     0.004 A 
ATOM     12  C   UNL     1      46.099 130.358  18.267  1.00  0.00     0.004 A 
ATOM     13  C   UNL     1      43.999 131.398  16.740  1.00  0.00     0.003 A 
ATOM     14  C   UNL     1      45.999 130.043  16.909  1.00  0.00     0.003 A 
ATOM     15  C   UNL     1      44.955 130.571  16.134  1.00  0.00    -0.051 A 
ATOM     16  C   UNL     1      44.821 130.201  14.687  1.00  0.00     0.044 C 
ENDBRANCH   9  10
BRANCH   9  17
ATOM     17  C   UNL     1      44.691 130.625  21.263  1.00  0.00    -0.041 A 
ATOM     18  C   UNL     1      45.366 129.422  21.597  1.00  0.00     0.004 A 
ATOM     19  C   UNL     1      43.478 130.950  21.920  1.00  0.00    -0.080 A 
ATOM     20  C   UNL     1      44.847 128.551  22.572  1.00  0.00     0.010 A 
ATOM     21  C   UNL     1      42.995 130.066  22.883  1.00  0.00     0.038 A 
ATOM     22  C   UNL     1      43.657 128.910  23.196  1.00  0.00    -0.001 A 
ATOM     23  N   UNL     1      41.876 130.186  23.618  1.00  0.00    -0.362 N 
ATOM     24  C   UNL     1      42.929 128.266  24.173  1.00  0.00     0.028 A 
ATOM     25  C   UNL     1      41.832 129.088  24.408  1.00  0.00     0.083 A 
ATOM     26  O   UNL     1      42.776 132.110  21.610  1.00  0.00    -0.871 OA
ATOM     27  H   UNL     1      41.179 130.962  23.590  1.00  0.00     0.166 HD
ENDBRANCH   9  17
ENDBRANCH   7   9
ENDBRANCH   1   7
TORSDOF 7
ENDMDL
MODEL 2
REMARK VINA RESULT:      -2.8      1.398      5.130
REMARK SMILES CCC[C@H](C)[N-]C(=O)N(c1ccc(C)cc1)c1ccc2cc[nH]c2c1[O-]
REMARK SMILES IDX 6 1 4 2 5 3 3 4 2 5 1 6 7 7 8 8 9 9 10 10 11 11 16 12 12 13
REMARK SMILES IDX 15 14 13 15 14 16 17 17 18 18 25 19 19 20 24 21 20 22 23 23
REMARK SMILES IDX 21 24 22 25 26 26
REMARK H PARENT 23 27
ROOT
ATOM      1  N   UNL     1      46.755 133.044  21.629  1.00  0.00    -0.427 NA
ENDROOT
BRANCH   1   2
ATOM      2  C   UNL     1      47.320 134.281  22.162  1.00  0.00    -0.009 C 
ATOM      3  C   UNL     1      47.628 134.125  23.656  1.00  0.00     0.007 C 
BRANCH   2   4
ATOM      4  C   UNL     1      48.568 134.676  21.349  1.00  0.00     0.002 C 
BRANCH   4   5
ATOM      5  C   UNL     1      49.391 135.807  21.991  1.00  0.00    -0.003 C 
ATOM      6  C   UNL     1      49.554 136.981  21.029  1.00  0.00     0.004 C 
ENDBRANCH   4   5
ENDBRANCH   2   4
ENDBRANCH   1   2
BRANCH   1   7
ATOM      7  C   UNL     1      45.569 132.414  22.128  1.00  0.00     0.162 C 
ATOM      8  O   UNL     1      45.022 132.848  23.178  1.00  0.00    -0.298 OA
BRANCH   7   9
ATOM      9  N   UNL     1      44.999 131.295  21.422  1.00  0.00    -0.384 N 
BRANCH   9  10
ATOM     10  C   UNL     1      44.368 130.222  22.152  1.00  0.00    -0.035 A 
ATOM     11  C   UNL     1      43.047 130.351  22.614  1.00  0.00     0.004 A 
ATOM     12  C   UNL     1      45.064 129.028  22.402  1.00  0.00     0.004 A 
ATOM     13  C   UNL     1      42.438 129.312  23.323  1.00  0.00     0.003 A 
ATOM     14  C   UNL     1      44.456 127.988  23.109  1.00  0.00     0.003 A 
ATOM     15  C   UNL     1      43.135 128.118  23.563  1.00  0.00    -0.051 A 
ATOM     16  C   UNL     1      42.493 127.021  24.359  1.00  0.00     0.044 C 
ENDBRANCH   9  10
BRANCH   9  17
ATOM     17  C   UNL     1      45.105 131.220  19.986  1.00  0.00    -0.041 A 
ATOM     18  C   UNL     1      46.281 130.697  19.389  1.00  0.00     0.004 A 
ATOM     19  C   UNL     1      44.034 131.647  19.161  1.00  0.00    -0.080 A 
ATOM     20  C   UNL     1      46.395 130.594  17.991  1.00  0.00     0.010 A 
ATOM     21  C   UNL     1      44.180 131.528  17.780  1.00  0.00     0.038 A 
ATOM     22  C   UNL     1      45.319 131.019  17.218  1.00  0.00    -0.001 A 
ATOM     23  N   UNL     1      43.293 131.867  16.830  1.00  0.00    -0.362 N 
ATOM     24  C   UNL     1      45.150 131.034  15.850  1.00  0.00     0.028 A 
ATOM     25  C   UNL     1      43.881 131.567  15.649  1.00  0.00     0.083 A 
ATOM     26  O   UNL     1      42.872 132.183  19.705  1.00  0.00    -0.871 OA
ATOM     27  H   UNL     1      42.343 132.279  16.967  1.00  0.00     0.166 HD
ENDBRANCH   9  17
ENDBRANCH   7   9
ENDBRANCH   1   7
TORSDOF 7
ENDMDL
MODEL 3
REMARK VINA RESULT:      -2.7      1.666      2.423
REMARK SMILES CCC[C@H](C)[N-]C(=O)N(c1ccc(C)cc1)c1ccc2cc[nH]c2c1[O-]
REMARK SMILES IDX 6 1 4 2 5 3 3 4 2 5 1 6 7 7 8 8 9 9 10 10 11 11 16 12 12 13
REMARK SMILES IDX 15 14 13 15 14 16 17 17 18 18 25 19 19 20 24 21 20 22 23 23
REMARK SMILES IDX 21 24 22 25 26 26
REMARK H PARENT 23 27
ROOT
ATOM      1  N   UNL     1      46.750 132.844  21.758  1.00  0.00    -0.427 NA
ENDROOT
BRANCH   1   2
ATOM      2  C   UNL     1      47.475 134.042  22.172  1.00  0.00    -0.009 C 
ATOM      3  C   UNL     1      48.678 133.663  23.045  1.00  0.00     0.007 C 
BRANCH   2   4
ATOM      4  C   UNL     1      47.890 134.855  20.931  1.00  0.00     0.002 C 
BRANCH   4   5
ATOM      5  C   UNL     1      48.267 136.314  21.245  1.00  0.00    -0.003 C 
ATOM      6  C   UNL     1      49.777 136.520  21.162  1.00  0.00     0.004 C 
ENDBRANCH   4   5
ENDBRANCH   2   4
ENDBRANCH   1   2
BRANCH   1   7
ATOM      7  C   UNL     1      45.564 132.354  22.395  1.00  0.00     0.162 C 
ATOM      8  O   UNL     1      45.232 132.795  23.530  1.00  0.00    -0.298 OA
BRANCH   7   9
ATOM      9  N   UNL     1      44.747 131.369  21.733  1.00  0.00    -0.384 N 
BRANCH   9  10
ATOM     10  C   UNL     1      44.623 131.375  20.296  1.00  0.00    -0.035 A 
ATOM     11  C   UNL     1      45.651 130.859  19.488  1.00  0.00     0.004 A 
ATOM     12  C   UNL     1      43.468 131.890  19.685  1.00  0.00     0.004 A 
ATOM     13  C   UNL     1      45.530 130.868  18.095  1.00  0.00     0.003 A 
ATOM     14  C   UNL     1      43.346 131.897  18.293  1.00  0.00     0.003 A 
ATOM     15  C   UNL     1      44.371 131.376  17.490  1.00  0.00    -0.051 A 
ATOM     16  C   UNL     1      44.263 131.420  15.995  1.00  0.00     0.044 C 
ENDBRANCH   9  10
BRANCH   9  17
ATOM     17  C   UNL     1      44.008 130.407  22.513  1.00  0.00    -0.041 A 
ATOM     18  C   UNL     1      42.855 130.814  23.234  1.00  0.00     0.004 A 
ATOM     19  C   UNL     1      44.410 129.048  22.550  1.00  0.00    -0.080 A 
ATOM     20  C   UNL     1      42.107 129.887  23.981  1.00  0.00     0.010 A 
ATOM     21  C   UNL     1      43.644 128.156  23.298  1.00  0.00     0.038 A 
ATOM     22  C   UNL     1      42.533 128.562  23.987  1.00  0.00    -0.001 A 
ATOM     23  N   UNL     1      43.847 126.838  23.462  1.00  0.00    -0.362 N 
ATOM     24  C   UNL     1      42.006 127.455  24.615  1.00  0.00     0.028 A 
ATOM     25  C   UNL     1      42.849 126.405  24.266  1.00  0.00     0.083 A 
ATOM     26  O   UNL     1      45.544 128.611  21.874  1.00  0.00    -0.871 OA
ATOM     27  H   UNL     1      44.616 126.260  23.056  1.00  0.00     0.166 HD
ENDBRANCH   9  17
ENDBRANCH   7   9
ENDBRANCH   1   7
TORSDOF 7
ENDMDL
MODEL 4
REMARK VINA RESULT:      -2.5      1.519      2.142
REMARK SMILES CCC[C@H](C)[N-]C(=O)N(c1ccc(C)cc1)c1ccc2cc[nH]c2c1[O-]
REMARK SMILES IDX 6 1 4 2 5 3 3 4 2 5 1 6 7 7 8 8 9 9 10 10 11 11 16 12 12 13
REMARK SMILES IDX 15 14 13 15 14 16 17 17 18 18 25 19 19 20 24 21 20 22 23 23
REMARK SMILES IDX 21 24 22 25 26 26
REMARK H PARENT 23 27
ROOT
ATOM      1  N   UNL     1      46.309 132.921  22.686  1.00  0.00    -0.427 NA
ENDROOT
BRANCH   1   2
ATOM      2  C   UNL     1      46.969 134.207  22.891  1.00  0.00    -0.009 C 
ATOM      3  C   UNL     1      46.954 134.584  24.377  1.00  0.00     0.007 C 
BRANCH   2   4
ATOM      4  C   UNL     1      48.398 134.156  22.317  1.00  0.00     0.002 C 
BRANCH   4   5
ATOM      5  C   UNL     1      49.498 134.241  23.390  1.00  0.00    -0.003 C 
ATOM      6  C   UNL     1      50.462 135.388  23.097  1.00  0.00     0.004 C 
ENDBRANCH   4   5
ENDBRANCH   2   4
ENDBRANCH   1   2
BRANCH   1   7
ATOM      7  C   UNL     1      46.328 132.187  21.455  1.00  0.00     0.162 C 
ATOM      8  O   UNL     1      47.392 132.122  20.779  1.00  0.00    -0.298 OA
BRANCH   7   9
ATOM      9  N   UNL     1      45.137 131.517  20.999  1.00  0.00    -0.384 N 
BRANCH   9  10
ATOM     10  C   UNL     1      44.818 131.480  19.593  1.00  0.00    -0.035 A 
ATOM     11  C   UNL     1      45.761 131.022  18.656  1.00  0.00     0.004 A 
ATOM     12  C   UNL     1      43.554 131.894  19.141  1.00  0.00     0.004 A 
ATOM     13  C   UNL     1      45.451 130.990  17.294  1.00  0.00     0.003 A 
ATOM     14  C   UNL     1      43.243 131.861  17.779  1.00  0.00     0.003 A 
ATOM     15  C   UNL     1      44.184 131.397  16.848  1.00  0.00    -0.051 A 
ATOM     16  C   UNL     1      43.869 131.399  15.382  1.00  0.00     0.044 C 
ENDBRANCH   9  10
BRANCH   9  17
ATOM     17  C   UNL     1      44.234 130.925  21.955  1.00  0.00    -0.041 A 
ATOM     18  C   UNL     1      43.195 131.707  22.525  1.00  0.00     0.004 A 
ATOM     19  C   UNL     1      44.360 129.561  22.317  1.00  0.00    -0.080 A 
ATOM     20  C   UNL     1      42.290 131.144  23.442  1.00  0.00     0.010 A 
ATOM     21  C   UNL     1      43.443 129.035  23.226  1.00  0.00     0.038 A 
ATOM     22  C   UNL     1      42.445 129.799  23.767  1.00  0.00    -0.001 A 
ATOM     23  N   UNL     1      43.384 127.777  23.695  1.00  0.00    -0.362 N 
ATOM     24  C   UNL     1      41.719 128.993  24.616  1.00  0.00     0.028 A 
ATOM     25  C   UNL     1      42.332 127.747  24.545  1.00  0.00     0.083 A 
ATOM     26  O   UNL     1      45.374 128.765  21.796  1.00  0.00    -0.871 OA
ATOM     27  H   UNL     1      44.017 126.982  23.458  1.00  0.00     0.166 HD
ENDBRANCH   9  17
ENDBRANCH   7   9
ENDBRANCH   1   7
TORSDOF 7
ENDMDL
MODEL 5
REMARK VINA RESULT:      -2.4      0.669      1.410
REMARK SMILES CCC[C@H](C)[N-]C(=O)N(c1ccc(C)cc1)c1ccc2cc[nH]c2c1[O-]
REMARK SMILES IDX 6 1 4 2 5 3 3 4 2 5 1 6 7 7 8 8 9 9 10 10 11 11 16 12 12 13
REMARK SMILES IDX 15 14 13 15 14 16 17 17 18 18 25 19 19 20 24 21 20 22 23 23
REMARK SMILES IDX 21 24 22 25 26 26
REMARK H PARENT 23 27
ROOT
ATOM      1  N   UNL     1      47.047 132.885  21.158  1.00  0.00    -0.427 NA
ENDROOT
BRANCH   1   2
ATOM      2  C   UNL     1      47.416 133.856  22.184  1.00  0.00    -0.009 C 
ATOM      3  C   UNL     1      46.595 133.624  23.458  1.00  0.00     0.007 C 
BRANCH   2   4
ATOM      4  C   UNL     1      48.933 133.784  22.448  1.00  0.00     0.002 C 
BRANCH   4   5
ATOM      5  C   UNL     1      49.351 134.366  23.810  1.00  0.00    -0.003 C 
ATOM      6  C   UNL     1      50.138 133.343  24.625  1.00  0.00     0.004 C 
ENDBRANCH   4   5
ENDBRANCH   2   4
ENDBRANCH   1   2
BRANCH   1   7
ATOM      7  C   UNL     1      45.755 132.806  20.544  1.00  0.00     0.162 C 
ATOM      8  O   UNL     1      45.101 133.861  20.318  1.00  0.00    -0.298 OA
BRANCH   7   9
ATOM      9  N   UNL     1      45.212 131.524  20.174  1.00  0.00    -0.384 N 
BRANCH   9  10
ATOM     10  C   UNL     1      45.130 131.143  18.786  1.00  0.00    -0.035 A 
ATOM     11  C   UNL     1      46.002 130.175  18.257  1.00  0.00     0.004 A 
ATOM     12  C   UNL     1      44.170 131.729  17.944  1.00  0.00     0.004 A 
ATOM     13  C   UNL     1      45.922 129.808  16.911  1.00  0.00     0.003 A 
ATOM     14  C   UNL     1      44.090 131.362  16.598  1.00  0.00     0.003 A 
ATOM     15  C   UNL     1      44.957 130.391  16.076  1.00  0.00    -0.051 A 
ATOM     16  C   UNL     1      44.902 130.024  14.622  1.00  0.00     0.044 C 
ENDBRANCH   9  10
BRANCH   9  17
ATOM     17  C   UNL     1      44.698 130.640  21.192  1.00  0.00    -0.041 A 
ATOM     18  C   UNL     1      45.439 129.489  21.570  1.00  0.00     0.004 A 
ATOM     19  C   UNL     1      43.467 130.920  21.835  1.00  0.00    -0.080 A 
ATOM     20  C   UNL     1      44.966 128.627  22.577  1.00  0.00     0.010 A 
ATOM     21  C   UNL     1      43.031 130.047  22.830  1.00  0.00     0.038 A 
ATOM     22  C   UNL     1      43.756 128.942  23.187  1.00  0.00    -0.001 A 
ATOM     23  N   UNL     1      41.905 130.131  23.559  1.00  0.00    -0.362 N 
ATOM     24  C   UNL     1      43.062 128.295  24.186  1.00  0.00     0.028 A 
ATOM     25  C   UNL     1      41.920 129.062  24.389  1.00  0.00     0.083 A 
ATOM     26  O   UNL     1      42.702 132.026  21.482  1.00  0.00    -0.871 OA
ATOM     27  H   UNL     1      41.166 130.866  23.501  1.00  0.00     0.166 HD
ENDBRANCH   9  17
ENDBRANCH   7   9
ENDBRANCH   1   7
TORSDOF 7
ENDMDL
MODEL 6
REMARK VINA RESULT:      -2.1      2.713      7.029
REMARK SMILES CCC[C@H](C)[N-]C(=O)N(c1ccc(C)cc1)c1ccc2cc[nH]c2c1[O-]
REMARK SMILES IDX 6 1 4 2 5 3 3 4 2 5 1 6 7 7 8 8 9 9 10 10 11 11 16 12 12 13
REMARK SMILES IDX 15 14 13 15 14 16 17 17 18 18 25 19 19 20 24 21 20 22 23 23
REMARK SMILES IDX 21 24 22 25 26 26
REMARK H PARENT 23 27
ROOT
ATOM      1  N   UNL     1      42.305 131.492  18.880  1.00  0.00    -0.427 NA
ENDROOT
BRANCH   1   2
ATOM      2  C   UNL     1      42.536 132.178  20.149  1.00  0.00    -0.009 C 
ATOM      3  C   UNL     1      41.418 133.193  20.418  1.00  0.00     0.007 C 
BRANCH   2   4
ATOM      4  C   UNL     1      42.668 131.144  21.283  1.00  0.00     0.002 C 
BRANCH   4   5
ATOM      5  C   UNL     1      43.318 131.706  22.559  1.00  0.00    -0.003 C 
ATOM      6  C   UNL     1      42.338 131.683  23.729  1.00  0.00     0.004 C 
ENDBRANCH   4   5
ENDBRANCH   2   4
ENDBRANCH   1   2
BRANCH   1   7
ATOM      7  C   UNL     1      43.140 131.624  17.724  1.00  0.00     0.162 C 
ATOM      8  O   UNL     1      42.627 131.908  16.607  1.00  0.00    -0.298 OA
BRANCH   7   9
ATOM      9  N   UNL     1      44.565 131.446  17.842  1.00  0.00    -0.384 N 
BRANCH   9  10
ATOM     10  C   UNL     1      45.252 131.863  19.040  1.00  0.00    -0.035 A 
ATOM     11  C   UNL     1      45.944 130.929  19.829  1.00  0.00     0.004 A 
ATOM     12  C   UNL     1      45.246 133.213  19.428  1.00  0.00     0.004 A 
ATOM     13  C   UNL     1      46.608 131.334  20.991  1.00  0.00     0.003 A 
ATOM     14  C   UNL     1      45.911 133.619  20.588  1.00  0.00     0.003 A 
ATOM     15  C   UNL     1      46.606 132.685  21.370  1.00  0.00    -0.051 A 
ATOM     16  C   UNL     1      47.284 133.110  22.639  1.00  0.00     0.044 C 
ENDBRANCH   9  10
BRANCH   9  17
ATOM     17  C   UNL     1      45.315 130.898  16.738  1.00  0.00    -0.041 A 
ATOM     18  C   UNL     1      45.380 129.492  16.554  1.00  0.00     0.004 A 
ATOM     19  C   UNL     1      45.974 131.753  15.821  1.00  0.00    -0.080 A 
ATOM     20  C   UNL     1      46.087 128.939  15.472  1.00  0.00     0.010 A 
ATOM     21  C   UNL     1      46.663 131.171  14.757  1.00  0.00     0.038 A 
ATOM     22  C   UNL     1      46.716 129.814  14.591  1.00  0.00    -0.001 A 
ATOM     23  N   UNL     1      47.346 131.795  13.783  1.00  0.00    -0.362 N 
ATOM     24  C   UNL     1      47.463 129.563  13.460  1.00  0.00     0.028 A 
ATOM     25  C   UNL     1      47.835 130.816  12.988  1.00  0.00     0.083 A 
ATOM     26  O   UNL     1      45.952 133.135  15.975  1.00  0.00    -0.871 OA
ATOM     27  H   UNL     1      47.476 132.823  13.659  1.00  0.00     0.166 HD
ENDBRANCH   9  17
ENDBRANCH   7   9
ENDBRANCH   1   7
TORSDOF 7
ENDMDL
MODEL 7
REMARK VINA RESULT:      -2.1      1.373      5.519
REMARK SMILES CCC[C@H](C)[N-]C(=O)N(c1ccc(C)cc1)c1ccc2cc[nH]c2c1[O-]
REMARK SMILES IDX 6 1 4 2 5 3 3 4 2 5 1 6 7 7 8 8 9 9 10 10 11 11 16 12 12 13
REMARK SMILES IDX 15 14 13 15 14 16 17 17 18 18 25 19 19 20 24 21 20 22 23 23
REMARK SMILES IDX 21 24 22 25 26 26
REMARK H PARENT 23 27
ROOT
ATOM      1  N   UNL     1      47.104 132.840  21.533  1.00  0.00    -0.427 NA
ENDROOT
BRANCH   1   2
ATOM      2  C   UNL     1      47.631 133.823  22.475  1.00  0.00    -0.009 C 
ATOM      3  C   UNL     1      48.959 133.336  23.068  1.00  0.00     0.007 C 
BRANCH   2   4
ATOM      4  C   UNL     1      47.771 135.190  21.778  1.00  0.00     0.002 C 
BRANCH   4   5
ATOM      5  C   UNL     1      49.223 135.554  21.418  1.00  0.00    -0.003 C 
ATOM      6  C   UNL     1      49.288 136.898  20.698  1.00  0.00     0.004 C 
ENDBRANCH   4   5
ENDBRANCH   2   4
ENDBRANCH   1   2
BRANCH   1   7
ATOM      7  C   UNL     1      45.870 132.982  20.820  1.00  0.00     0.162 C 
ATOM      8  O   UNL     1      45.461 134.130  20.494  1.00  0.00    -0.298 OA
BRANCH   7   9
ATOM      9  N   UNL     1      45.105 131.813  20.465  1.00  0.00    -0.384 N 
BRANCH   9  10
ATOM     10  C   UNL     1      44.512 130.994  21.493  1.00  0.00    -0.035 A 
ATOM     11  C   UNL     1      45.046 129.730  21.798  1.00  0.00     0.004 A 
ATOM     12  C   UNL     1      43.396 131.454  22.211  1.00  0.00     0.004 A 
ATOM     13  C   UNL     1      44.468 128.937  22.794  1.00  0.00     0.003 A 
ATOM     14  C   UNL     1      42.818 130.662  23.207  1.00  0.00     0.003 A 
ATOM     15  C   UNL     1      43.358 129.404  23.513  1.00  0.00    -0.051 A 
ATOM     16  C   UNL     1      42.717 128.534  24.552  1.00  0.00     0.044 C 
ENDBRANCH   9  10
BRANCH   9  17
ATOM     17  C   UNL     1      44.978 131.430  19.080  1.00  0.00    -0.041 A 
ATOM     18  C   UNL     1      43.855 131.860  18.326  1.00  0.00     0.004 A 
ATOM     19  C   UNL     1      45.978 130.643  18.456  1.00  0.00    -0.080 A 
ATOM     20  C   UNL     1      43.724 131.517  16.969  1.00  0.00     0.010 A 
ATOM     21  C   UNL     1      45.817 130.324  17.108  1.00  0.00     0.038 A 
ATOM     22  C   UNL     1      44.729 130.747  16.393  1.00  0.00    -0.001 A 
ATOM     23  N   UNL     1      46.641 129.598  16.334  1.00  0.00    -0.362 N 
ATOM     24  C   UNL     1      44.868 130.271  15.107  1.00  0.00     0.028 A 
ATOM     25  C   UNL     1      46.065 129.564  15.110  1.00  0.00     0.083 A 
ATOM     26  O   UNL     1      47.084 130.185  19.163  1.00  0.00    -0.871 OA
ATOM     27  H   UNL     1      47.542 129.150  16.612  1.00  0.00     0.166 HD
ENDBRANCH   9  17
ENDBRANCH   7   9
ENDBRANCH   1   7
TORSDOF 7
ENDMDL
MODEL 8
REMARK VINA RESULT:      -1.9      1.467      5.277
REMARK SMILES CCC[C@H](C)[N-]C(=O)N(c1ccc(C)cc1)c1ccc2cc[nH]c2c1[O-]
REMARK SMILES IDX 6 1 4 2 5 3 3 4 2 5 1 6 7 7 8 8 9 9 10 10 11 11 16 12 12 13
REMARK SMILES IDX 15 14 13 15 14 16 17 17 18 18 25 19 19 20 24 21 20 22 23 23
REMARK SMILES IDX 21 24 22 25 26 26
REMARK H PARENT 23 27
ROOT
ATOM      1  N   UNL     1      46.722 132.670  21.622  1.00  0.00    -0.427 NA
ENDROOT
BRANCH   1   2
ATOM      2  C   UNL     1      47.157 133.865  22.340  1.00  0.00    -0.009 C 
ATOM      3  C   UNL     1      46.688 133.811  23.799  1.00  0.00     0.007 C 
BRANCH   2   4
ATOM      4  C   UNL     1      48.687 134.012  22.226  1.00  0.00     0.002 C 
BRANCH   4   5
ATOM      5  C   UNL     1      49.366 134.444  23.537  1.00  0.00    -0.003 C 
ATOM      6  C   UNL     1      50.570 133.559  23.849  1.00  0.00     0.004 C 
ENDBRANCH   4   5
ENDBRANCH   2   4
ENDBRANCH   1   2
BRANCH   1   7
ATOM      7  C   UNL     1      45.407 132.108  21.707  1.00  0.00     0.162 C 
ATOM      8  O   UNL     1      44.520 132.684  22.395  1.00  0.00    -0.298 OA
BRANCH   7   9
ATOM      9  N   UNL     1      45.096 130.893  20.996  1.00  0.00    -0.384 N 
BRANCH   9  10
ATOM     10  C   UNL     1      44.825 129.677  21.722  1.00  0.00    -0.035 A 
ATOM     11  C   UNL     1      45.523 128.494  21.421  1.00  0.00     0.004 A 
ATOM     12  C   UNL     1      43.865 129.660  22.747  1.00  0.00     0.004 A 
ATOM     13  C   UNL     1      45.257 127.315  22.124  1.00  0.00     0.003 A 
ATOM     14  C   UNL     1      43.600 128.483  23.451  1.00  0.00     0.003 A 
ATOM     15  C   UNL     1      44.303 127.306  23.152  1.00  0.00    -0.051 A 
ATOM     16  C   UNL     1      43.992 126.030  23.877  1.00  0.00     0.044 C 
ENDBRANCH   9  10
BRANCH   9  17
ATOM     17  C   UNL     1      45.109 130.881  19.554  1.00  0.00    -0.041 A 
ATOM     18  C   UNL     1      46.175 130.249  18.861  1.00  0.00     0.004 A 
ATOM     19  C   UNL     1      44.055 131.477  18.819  1.00  0.00    -0.080 A 
ATOM     20  C   UNL     1      46.194 130.206  17.455  1.00  0.00     0.010 A 
ATOM     21  C   UNL     1      44.105 131.413  17.427  1.00  0.00     0.038 A 
ATOM     22  C   UNL     1      45.137 130.799  16.771  1.00  0.00    -0.001 A 
ATOM     23  N   UNL     1      43.214 131.907  16.551  1.00  0.00    -0.362 N 
ATOM     24  C   UNL     1      44.892 130.905  15.420  1.00  0.00     0.028 A 
ATOM     25  C   UNL     1      43.691 131.598  15.323  1.00  0.00     0.083 A 
ATOM     26  O   UNL     1      43.002 132.123  19.458  1.00  0.00    -0.871 OA
ATOM     27  H   UNL     1      42.333 132.424  16.767  1.00  0.00     0.166 HD
ENDBRANCH   9  17
ENDBRANCH   7   9
ENDBRANCH   1   7
TORSDOF 7
ENDMDL
MODEL 9
REMARK VINA RESULT:      -1.8      1.008      1.891
REMARK SMILES CCC[C@H](C)[N-]C(=O)N(c1ccc(C)cc1)c1ccc2cc[nH]c2c1[O-]
REMARK SMILES IDX 6 1 4 2 5 3 3 4 2 5 1 6 7 7 8 8 9 9 10 10 11 11 16 12 12 13
REMARK SMILES IDX 15 14 13 15 14 16 17 17 18 18 25 19 19 20 24 21 20 22 23 23
REMARK SMILES IDX 21 24 22 25 26 26
REMARK H PARENT 23 27
ROOT
ATOM      1  N   UNL     1      46.553 133.108  21.662  1.00  0.00    -0.427 NA
ENDROOT
BRANCH   1   2
ATOM      2  C   UNL     1      47.589 134.090  21.972  1.00  0.00    -0.009 C 
ATOM      3  C   UNL     1      47.326 135.400  21.220  1.00  0.00     0.007 C 
BRANCH   2   4
ATOM      4  C   UNL     1      47.667 134.300  23.497  1.00  0.00     0.002 C 
BRANCH   4   5
ATOM      5  C   UNL     1      46.394 133.869  24.246  1.00  0.00    -0.003 C 
ATOM      6  C   UNL     1      45.533 135.078  24.603  1.00  0.00     0.004 C 
ENDBRANCH   4   5
ENDBRANCH   2   4
ENDBRANCH   1   2
BRANCH   1   7
ATOM      7  C   UNL     1      46.758 131.943  20.855  1.00  0.00     0.162 C 
ATOM      8  O   UNL     1      47.926 131.615  20.509  1.00  0.00    -0.298 OA
BRANCH   7   9
ATOM      9  N   UNL     1      45.630 131.141  20.451  1.00  0.00    -0.384 N 
BRANCH   9  10
ATOM     10  C   UNL     1      45.213 131.118  19.070  1.00  0.00    -0.035 A 
ATOM     11  C   UNL     1      45.825 130.246  18.153  1.00  0.00     0.004 A 
ATOM     12  C   UNL     1      44.182 131.963  18.626  1.00  0.00     0.004 A 
ATOM     13  C   UNL     1      45.420 130.227  16.815  1.00  0.00     0.003 A 
ATOM     14  C   UNL     1      43.777 131.943  17.289  1.00  0.00     0.003 A 
ATOM     15  C   UNL     1      44.385 131.067  16.378  1.00  0.00    -0.051 A 
ATOM     16  C   UNL     1      43.982 131.072  14.933  1.00  0.00     0.044 C 
ENDBRANCH   9  10
BRANCH   9  17
ATOM     17  C   UNL     1      44.884 130.401  21.438  1.00  0.00    -0.041 A 
ATOM     18  C   UNL     1      45.246 129.063  21.744  1.00  0.00     0.004 A 
ATOM     19  C   UNL     1      43.800 131.005  22.124  1.00  0.00    -0.080 A 
ATOM     20  C   UNL     1      44.545 128.332  22.720  1.00  0.00     0.010 A 
ATOM     21  C   UNL     1      43.130 130.252  23.087  1.00  0.00     0.038 A 
ATOM     22  C   UNL     1      43.491 128.963  23.373  1.00  0.00    -0.001 A 
ATOM     23  N   UNL     1      42.089 130.633  23.846  1.00  0.00    -0.362 N 
ATOM     24  C   UNL     1      42.644 128.504  24.358  1.00  0.00     0.028 A 
ATOM     25  C   UNL     1      41.789 129.568  24.625  1.00  0.00     0.083 A 
ATOM     26  O   UNL     1      43.401 132.307  21.841  1.00  0.00    -0.871 OA
ATOM     27  H   UNL     1      41.605 131.558  23.841  1.00  0.00     0.166 HD
ENDBRANCH   9  17
ENDBRANCH   7   9
ENDBRANCH   1   7
TORSDOF 7
ENDMDL


