REMARK SMILES CC(=O)[N-]c1cc(C)cc(-n2nc3ccccc3n2)c1O
REMARK SMILES IDX 5 1 6 2 7 3 8 4 9 5 10 6 20 7 4 8 2 9 1 10 3 11 21 12 11 14
REMARK SMILES IDX 12 15 19 16 13 17 18 18 14 19 17 20 15 21 16 22
REMARK H PARENT 21 13
ROOT
ATOM      1  C   UNL     1       2.443   0.612  -0.069  1.00  0.00    -0.089 A 
ATOM      2  C   UNL     1       2.610   1.260  -1.296  1.00  0.00    -0.009 A 
ATOM      3  C   UNL     1       1.570   1.292  -2.231  1.00  0.00    -0.050 A 
ATOM      4  C   UNL     1       1.739   2.039  -3.521  1.00  0.00     0.044 C 
ATOM      5  C   UNL     1       0.344   0.693  -1.919  1.00  0.00     0.037 A 
ATOM      6  C   UNL     1       0.159   0.012  -0.702  1.00  0.00     0.126 A 
ATOM      7  C   UNL     1       1.231  -0.053   0.218  1.00  0.00     0.128 A 
ENDROOT
BRANCH   1   8
ATOM      8  N   UNL     1       3.529   0.626   0.864  1.00  0.00    -0.624 NA
BRANCH   8   9
ATOM      9  C   UNL     1       3.468   1.228   2.163  1.00  0.00     0.051 C 
ATOM     10  C   UNL     1       2.311   2.084   2.579  1.00  0.00     0.065 C 
ATOM     11  O   UNL     1       4.409   1.027   2.975  1.00  0.00    -0.321 OA
ENDBRANCH   8   9
ENDBRANCH   1   8
BRANCH   7  12
ATOM     12  O   UNL     1       1.095  -0.804   1.389  1.00  0.00    -0.507 OA
ATOM     13  H   UNL     1       1.859  -0.960   2.034  1.00  0.00     0.293 HD
ENDBRANCH   7  12
BRANCH   6  14
ATOM     14  N   UNL     1      -1.113  -0.612  -0.423  1.00  0.00    -0.147 N 
ATOM     15  N   UNL     1      -1.469  -1.086   0.771  1.00  0.00    -0.148 NA
ATOM     16  N   UNL     1      -2.073  -0.758  -1.337  1.00  0.00    -0.148 NA
ATOM     17  C   UNL     1      -2.712  -1.559   0.602  1.00  0.00     0.113 A 
ATOM     18  C   UNL     1      -3.082  -1.358  -0.689  1.00  0.00     0.113 A 
ATOM     19  C   UNL     1      -3.553  -2.163   1.531  1.00  0.00     0.032 A 
ATOM     20  C   UNL     1      -4.329  -1.743  -1.173  1.00  0.00     0.032 A 
ATOM     21  C   UNL     1      -4.826  -2.568   1.082  1.00  0.00     0.002 A 
ATOM     22  C   UNL     1      -5.212  -2.359  -0.265  1.00  0.00     0.002 A 
ENDBRANCH   6  14
TORSDOF 4


