REMARK SMILES C[C@@](O)(CCl)C(=O)Nc1cc(F)c[n-]/c1=N\c1c[nH]c2[nH+]ccc-2c1
REMARK SMILES IDX 9 1 10 2 11 3 12 4 13 5 14 6 15 7 8 8 6 9 7 10 2 12 1 13
REMARK SMILES IDX 3 14 4 16 5 17 16 18 17 19 25 20 18 21 24 22 19 23 23 24
REMARK SMILES IDX 20 25 22 26 21 27
REMARK H PARENT 8 11 3 15 19 28 21 29
ROOT
ATOM      1  C   UNL     1       0.477   1.793   0.398  1.00  0.00     0.043 A 
ATOM      2  C   UNL     1       1.506   2.749   0.362  1.00  0.00     0.064 A 
ATOM      3  C   UNL     1       2.841   2.344   0.364  1.00  0.00     0.121 A 
ATOM      4  F   UNL     1       3.836   3.264   0.331  1.00  0.00    -0.207 F 
ATOM      5  C   UNL     1       3.142   0.984   0.416  1.00  0.00     0.018 A 
ATOM      6  N   UNL     1       2.140   0.069   0.467  1.00  0.00    -0.438 NA
ATOM      7  C   UNL     1       0.824   0.427   0.455  1.00  0.00    -0.034 A 
ENDROOT
BRANCH   1   8
ATOM      8  N   UNL     1      -0.904   2.198   0.432  1.00  0.00    -0.324 N 
ATOM      9  C   UNL     1      -1.421   3.320  -0.306  1.00  0.00     0.257 C 
ATOM     10  O   UNL     1      -0.735   3.829  -1.235  1.00  0.00    -0.271 OA
ATOM     11  H   UNL     1      -1.573   1.615   0.982  1.00  0.00     0.170 HD
BRANCH   9  12
ATOM     12  C   UNL     1      -2.806   3.873  -0.007  1.00  0.00     0.154 C 
ATOM     13  C   UNL     1      -3.878   2.821  -0.360  1.00  0.00     0.054 C 
BRANCH  12  14
ATOM     14  O   UNL     1      -3.038   5.045  -0.756  1.00  0.00    -0.379 OA
ATOM     15  H   UNL     1      -3.063   4.799  -1.718  1.00  0.00     0.212 HD
ENDBRANCH  12  14
BRANCH  12  16
ATOM     16  C   UNL     1      -2.922   4.238   1.487  1.00  0.00     0.154 C 
ATOM     17  Cl  UNL     1      -1.724   5.476   1.964  1.00  0.00    -0.123 Cl
ENDBRANCH  12  16
ENDBRANCH   9  12
ENDBRANCH   1   8
BRANCH   7  18
ATOM     18  N   UNL     1      -0.115  -0.474   0.524  1.00  0.00    -0.431 NA
BRANCH  18  19
ATOM     19  C   UNL     1       0.053  -1.902   0.532  1.00  0.00    -0.001 A 
ATOM     20  C   UNL     1       1.025  -2.543  -0.277  1.00  0.00     0.024 A 
ATOM     21  C   UNL     1      -0.846  -2.682   1.310  1.00  0.00     0.201 A 
ATOM     22  C   UNL     1       1.082  -3.926  -0.227  1.00  0.00     0.068 A 
ATOM     23  N   UNL     1      -0.770  -4.048   1.337  1.00  0.00    -0.247 N 
ATOM     24  C   UNL     1       1.861  -4.860  -0.870  1.00  0.00     0.060 A 
ATOM     25  C   UNL     1       0.179  -4.660   0.593  1.00  0.00     0.284 A 
ATOM     26  C   UNL     1       1.408  -6.104  -0.418  1.00  0.00     0.198 A 
ATOM     27  N   UNL     1       0.387  -5.978   0.466  1.00  0.00    -0.247 N 
ATOM     28  H   UNL     1      -1.436  -4.606   1.917  1.00  0.00     0.312 HD
ATOM     29  H   UNL     1      -0.135  -6.749   0.939  1.00  0.00     0.311 HD
ENDBRANCH  18  19
ENDBRANCH   7  18
TORSDOF 6


