REMARK SMILES CC[C@@H](O)C(=O)[N@@H+]1C[C@H](c2ccc3cc[nH]c3c2)[C@H](C)C[C@H]1F
REMARK SMILES IDX 5 1 6 2 3 3 2 4 1 5 4 6 7 8 8 9 22 10 9 11 21 12 19 13 23 15
REMARK SMILES IDX 20 16 10 17 11 18 18 19 12 20 17 21 13 22 16 23 14 24 15 25
REMARK H PARENT 4 7 7 14 16 26
ROOT
ATOM      1  C   UNL     1      -3.110  -0.716   0.519  1.00  0.00     0.343 C 
ATOM      2  O   UNL     1      -3.289  -0.894   1.717  1.00  0.00    -0.228 OA
ENDROOT
BRANCH   1   3
ATOM      3  C   UNL     1      -3.595  -1.767  -0.456  1.00  0.00     0.243 C 
BRANCH   3   4
ATOM      4  C   UNL     1      -4.827  -1.260  -1.220  1.00  0.00     0.043 C 
ATOM      5  C   UNL     1      -5.431  -2.348  -2.106  1.00  0.00     0.007 C 
ENDBRANCH   3   4
BRANCH   3   6
ATOM      6  O   UNL     1      -2.571  -2.089  -1.361  1.00  0.00    -0.379 OA
ATOM      7  H   UNL     1      -1.904  -2.626  -0.858  1.00  0.00     0.211 HD
ENDBRANCH   3   6
ENDBRANCH   1   3
BRANCH   1   8
ATOM      8  N   UNL     1      -2.449   0.490   0.052  1.00  0.00    -0.240 N 
ATOM      9  C   UNL     1      -1.046   0.497   0.518  1.00  0.00     0.281 C 
ATOM     10  C   UNL     1      -3.174   1.694   0.521  1.00  0.00     0.374 C 
ATOM     11  C   UNL     1      -0.297   1.742  -0.013  1.00  0.00     0.078 C 
ATOM     12  C   UNL     1      -2.502   2.980   0.007  1.00  0.00     0.107 C 
ATOM     13  C   UNL     1      -1.012   3.054   0.400  1.00  0.00     0.008 C 
ATOM     14  H   UNL     1      -2.450   0.491  -0.996  1.00  0.00     0.359 HD
ATOM     15  F   UNL     1      -4.481   1.671   0.058  1.00  0.00    -0.185 F 
ATOM     16  C   UNL     1      -0.845   3.415   1.889  1.00  0.00     0.009 C 
BRANCH  11  17
ATOM     17  C   UNL     1       1.188   1.751   0.321  1.00  0.00    -0.037 A 
ATOM     18  C   UNL     1       2.106   2.250  -0.643  1.00  0.00     0.005 A 
ATOM     19  C   UNL     1       1.676   1.333   1.586  1.00  0.00     0.031 A 
ATOM     20  C   UNL     1       3.484   2.308  -0.370  1.00  0.00     0.010 A 
ATOM     21  C   UNL     1       3.047   1.405   1.822  1.00  0.00     0.046 A 
ATOM     22  C   UNL     1       3.918   1.873   0.877  1.00  0.00    -0.001 A 
ATOM     23  N   UNL     1       3.701   1.060   2.943  1.00  0.00    -0.361 N 
ATOM     24  C   UNL     1       5.183   1.823   1.420  1.00  0.00     0.028 A 
ATOM     25  C   UNL     1       5.008   1.313   2.703  1.00  0.00     0.083 A 
ATOM     26  H   UNL     1       3.289   0.677   3.823  1.00  0.00     0.166 HD
ENDBRANCH  11  17
ENDBRANCH   1   8
TORSDOF 5


