REMARK SMILES Nc1cc(F)c[nH]/c1=N\c1c[n-]c2nccc-2c1
REMARK SMILES IDX 8 1 2 2 3 3 4 4 5 5 6 6 7 7 9 9 10 10 15 11 14 12 16 13
REMARK SMILES IDX 13 14 17 15 12 16 18 17 11 18 1 19
REMARK H PARENT 7 8 1 20 1 21
ROOT
ATOM      1  C   UNL     1      -0.693   1.392   0.154  1.00  0.00     0.154 A 
ATOM      2  C   UNL     1       0.234   2.454   0.210  1.00  0.00     0.078 A 
ATOM      3  C   UNL     1      -0.188   3.745  -0.129  1.00  0.00     0.070 A 
ATOM      4  C   UNL     1      -1.503   3.969  -0.528  1.00  0.00     0.141 A 
ATOM      5  F   UNL     1      -1.915   5.218  -0.859  1.00  0.00    -0.205 F 
ATOM      6  C   UNL     1      -2.388   2.896  -0.596  1.00  0.00     0.123 A 
ATOM      7  N   UNL     1      -1.975   1.642  -0.266  1.00  0.00    -0.342 N 
ATOM      8  H   UNL     1      -2.668   0.871  -0.383  1.00  0.00     0.168 HD
ENDROOT
BRANCH   1   9
ATOM      9  N   UNL     1      -0.299   0.187   0.469  1.00  0.00    -0.230 NA
BRANCH   9  10
ATOM     10  C   UNL     1      -1.105  -0.995   0.577  1.00  0.00     0.062 A 
ATOM     11  C   UNL     1      -4.266  -3.936   1.850  1.00  0.00    -0.022 A 
ATOM     12  N   UNL     1      -3.280  -4.429   1.054  1.00  0.00    -0.442 NA
ATOM     13  C   UNL     1      -4.107  -2.576   2.130  1.00  0.00     0.003 A 
ATOM     14  C   UNL     1      -2.488  -3.372   0.818  1.00  0.00    -0.052 A 
ATOM     15  C   UNL     1      -2.966  -2.200   1.469  1.00  0.00    -0.025 A 
ATOM     16  N   UNL     1      -1.347  -3.366   0.093  1.00  0.00    -0.440 NA
ATOM     17  C   UNL     1      -2.277  -1.003   1.369  1.00  0.00     0.036 A 
ATOM     18  C   UNL     1      -0.648  -2.196  -0.028  1.00  0.00     0.006 A 
ENDBRANCH   9  10
ENDBRANCH   1   9
BRANCH   2  19
ATOM     19  N   UNL     1       1.592   2.240   0.618  1.00  0.00    -0.396 N 
ATOM     20  H   UNL     1       1.942   1.292   0.883  1.00  0.00     0.156 HD
ATOM     21  H   UNL     1       2.267   3.036   0.659  1.00  0.00     0.156 HD
ENDBRANCH   2  19
TORSDOF 3


