REMARK SMILES C=C[C@H]1C[C@@](N)(c2ccc3[nH]ccc3c2)[C@H](Nc2ccc(C)[nH+]c2F)C[C@H]1F
REMARK SMILES IDX 3 1 4 2 5 3 16 4 26 5 27 6 28 7 2 8 1 9 6 10 7 13 8 14 15 15
REMARK SMILES IDX 9 16 14 17 10 18 13 19 11 20 12 21 17 23 18 25 19 26 24 27
REMARK SMILES IDX 20 28 23 29 21 30 25 31 22 33
REMARK H PARENT 6 11 6 12 11 22 17 24 23 32
ROOT
ATOM      1  C   UNL     1      -2.116   0.112   3.677  1.00  0.00     0.048 C 
ATOM      2  C   UNL     1      -2.136  -0.189   2.164  1.00  0.00     0.040 C 
ATOM      3  C   UNL     1      -0.906  -1.034   1.721  1.00  0.00     0.062 C 
ATOM      4  C   UNL     1       0.401  -0.274   2.138  1.00  0.00     0.107 C 
ATOM      5  C   UNL     1       0.418   0.023   3.652  1.00  0.00     0.065 C 
ATOM      6  C   UNL     1      -0.815   0.833   4.077  1.00  0.00     0.175 C 
ATOM      7  F   UNL     1      -0.761   2.095   3.505  1.00  0.00    -0.247 F 
ENDROOT
BRANCH   1   8
ATOM      8  C   UNL     1      -3.314   0.955   4.051  1.00  0.00    -0.028 C 
ATOM      9  C   UNL     1      -4.142   0.611   5.042  1.00  0.00     0.004 C 
ENDBRANCH   1   8
BRANCH   3  10
ATOM     10  N   UNL     1      -0.961  -2.323   2.436  1.00  0.00    -0.320 NA
ATOM     11  H   UNL     1      -0.158  -2.936   2.169  1.00  0.00     0.119 HD
ATOM     12  H   UNL     1      -1.851  -2.825   2.213  1.00  0.00     0.119 HD
ENDBRANCH   3  10
BRANCH   3  13
ATOM     13  C   UNL     1      -0.948  -1.223   0.187  1.00  0.00    -0.025 A 
ATOM     14  C   UNL     1      -0.972  -2.515  -0.425  1.00  0.00     0.008 A 
ATOM     15  C   UNL     1      -0.890  -0.082  -0.660  1.00  0.00     0.016 A 
ATOM     16  C   UNL     1      -0.895  -2.664  -1.821  1.00  0.00     0.027 A 
ATOM     17  C   UNL     1      -0.808  -0.272  -2.036  1.00  0.00    -0.000 A 
ATOM     18  C   UNL     1      -0.803  -1.516  -2.596  1.00  0.00     0.045 A 
ATOM     19  C   UNL     1      -0.678   0.642  -3.058  1.00  0.00     0.028 A 
ATOM     20  N   UNL     1      -0.679  -1.440  -3.931  1.00  0.00    -0.361 N 
ATOM     21  C   UNL     1      -0.601  -0.120  -4.219  1.00  0.00     0.083 A 
ATOM     22  H   UNL     1      -0.638  -2.232  -4.609  1.00  0.00     0.166 HD
ENDBRANCH   3  13
BRANCH   4  23
ATOM     23  N   UNL     1       1.606  -1.034   1.771  1.00  0.00    -0.372 N 
ATOM     24  H   UNL     1       1.902  -1.813   2.403  1.00  0.00     0.161 HD
BRANCH  23  25
ATOM     25  C   UNL     1       2.148  -1.020   0.439  1.00  0.00     0.140 A 
ATOM     26  C   UNL     1       2.331   0.182  -0.259  1.00  0.00     0.042 A 
ATOM     27  C   UNL     1       2.458  -2.227  -0.206  1.00  0.00     0.381 A 
ATOM     28  C   UNL     1       2.763   0.161  -1.585  1.00  0.00     0.076 A 
ATOM     29  N   UNL     1       2.875  -2.226  -1.502  1.00  0.00    -0.182 N 
ATOM     30  C   UNL     1       3.036  -1.066  -2.203  1.00  0.00     0.179 A 
ATOM     31  F   UNL     1       2.284  -3.409   0.438  1.00  0.00    -0.134 F 
ATOM     32  H   UNL     1       3.060  -3.143  -1.967  1.00  0.00     0.456 HD
ATOM     33  C   UNL     1       3.426  -1.106  -3.650  1.00  0.00     0.123 C 
ENDBRANCH  23  25
ENDBRANCH   4  23
TORSDOF 5


