MODEL 1
REMARK VINA RESULT:     -10.1      0.000      0.000
REMARK SMILES c1cc(Nc2ccc3cc[nH]c3c2)c2oncc2c1
REMARK SMILES IDX 5 1 6 2 7 3 8 4 9 5 10 6 11 7 12 8 13 9 4 11 3 13 1 14 2 15
REMARK SMILES IDX 19 16 18 17 14 18 17 19 15 20 16 21
REMARK H PARENT 11 10 4 12
ROOT
ATOM      1  C   UNL     1      45.168 131.236  16.442  1.00  0.00     0.041 A 
ATOM      2  C   UNL     1      45.229 129.820  16.418  1.00  0.00     0.027 A 
ATOM      3  C   UNL     1      46.021 129.150  15.467  1.00  0.00     0.012 A 
ATOM      4  C   UNL     1      46.747 129.923  14.566  1.00  0.00    -0.001 A 
ATOM      5  C   UNL     1      47.598 129.553  13.547  1.00  0.00     0.028 A 
ATOM      6  C   UNL     1      48.046 130.749  12.996  1.00  0.00     0.083 A 
ATOM      7  N   UNL     1      47.502 131.808  13.639  1.00  0.00    -0.361 N 
ATOM      8  C   UNL     1      46.711 131.290  14.594  1.00  0.00     0.047 A 
ATOM      9  C   UNL     1      45.940 131.985  15.523  1.00  0.00     0.052 A 
ATOM     10  H   UNL     1      47.665 132.818  13.434  1.00  0.00     0.166 HD
ENDROOT
BRANCH   1  11
ATOM     11  N   UNL     1      44.369 131.886  17.444  1.00  0.00    -0.352 N 
ATOM     12  H   UNL     1      43.668 132.594  17.130  1.00  0.00     0.167 HD
BRANCH  11  13
ATOM     13  C   UNL     1      44.451 131.604  18.850  1.00  0.00     0.085 A 
ATOM     14  C   UNL     1      45.591 130.537  20.746  1.00  0.00     0.003 A 
ATOM     15  C   UNL     1      45.520 130.840  19.366  1.00  0.00     0.030 A 
ATOM     16  C   UNL     1      44.586 130.977  21.627  1.00  0.00     0.014 A 
ATOM     17  C   UNL     1      43.534 131.706  21.084  1.00  0.00     0.044 A 
ATOM     18  C   UNL     1      43.459 132.003  19.756  1.00  0.00     0.190 A 
ATOM     19  C   UNL     1      42.397 132.245  21.640  1.00  0.00     0.166 A 
ATOM     20  O   UNL     1      42.350 132.665  19.531  1.00  0.00    -0.354 OA
ATOM     21  N   UNL     1      41.688 132.831  20.646  1.00  0.00    -0.087 NA
ENDBRANCH  11  13
ENDBRANCH   1  11
TORSDOF 2
ENDMDL
MODEL 2
REMARK VINA RESULT:     -10.0      1.630      2.383
REMARK SMILES c1cc(Nc2ccc3cc[nH]c3c2)c2oncc2c1
REMARK SMILES IDX 5 1 6 2 7 3 8 4 9 5 10 6 11 7 12 8 13 9 4 11 3 13 1 14 2 15
REMARK SMILES IDX 19 16 18 17 14 18 17 19 15 20 16 21
REMARK H PARENT 11 10 4 12
ROOT
ATOM      1  C   UNL     1      45.787 130.831  17.239  1.00  0.00     0.041 A 
ATOM      2  C   UNL     1      45.521 132.047  16.560  1.00  0.00     0.027 A 
ATOM      3  C   UNL     1      45.972 132.250  15.244  1.00  0.00     0.012 A 
ATOM      4  C   UNL     1      46.674 131.217  14.631  1.00  0.00    -0.001 A 
ATOM      5  C   UNL     1      47.222 131.128  13.370  1.00  0.00     0.028 A 
ATOM      6  C   UNL     1      47.786 129.857  13.308  1.00  0.00     0.083 A 
ATOM      7  N   UNL     1      47.597 129.191  14.470  1.00  0.00    -0.361 N 
ATOM      8  C   UNL     1      46.918 130.031  15.269  1.00  0.00     0.047 A 
ATOM      9  C   UNL     1      46.484 129.796  16.571  1.00  0.00     0.052 A 
ATOM     10  H   UNL     1      47.914 128.223  14.696  1.00  0.00     0.166 HD
ENDROOT
BRANCH   1  11
ATOM     11  N   UNL     1      45.287 130.648  18.574  1.00  0.00    -0.352 N 
ATOM     12  H   UNL     1      45.834 130.039  19.224  1.00  0.00     0.167 HD
BRANCH  11  13
ATOM     13  C   UNL     1      44.098 131.273  19.084  1.00  0.00     0.085 A 
ATOM     14  C   UNL     1      41.973 132.442  18.697  1.00  0.00     0.003 A 
ATOM     15  C   UNL     1      43.133 131.803  18.200  1.00  0.00     0.030 A 
ATOM     16  C   UNL     1      41.770 132.577  20.083  1.00  0.00     0.014 A 
ATOM     17  C   UNL     1      42.750 132.065  20.926  1.00  0.00     0.044 A 
ATOM     18  C   UNL     1      43.870 131.447  20.455  1.00  0.00     0.190 A 
ATOM     19  C   UNL     1      42.882 132.058  22.295  1.00  0.00     0.166 A 
ATOM     20  O   UNL     1      44.623 131.101  21.470  1.00  0.00    -0.354 OA
ATOM     21  N   UNL     1      44.055 131.453  22.595  1.00  0.00    -0.087 NA
ENDBRANCH  11  13
ENDBRANCH   1  11
TORSDOF 2
ENDMDL
MODEL 3
REMARK VINA RESULT:      -9.6      0.915      1.506
REMARK SMILES c1cc(Nc2ccc3cc[nH]c3c2)c2oncc2c1
REMARK SMILES IDX 5 1 6 2 7 3 8 4 9 5 10 6 11 7 12 8 13 9 4 11 3 13 1 14 2 15
REMARK SMILES IDX 19 16 18 17 14 18 17 19 15 20 16 21
REMARK H PARENT 11 10 4 12
ROOT
ATOM      1  C   UNL     1      45.222 131.004  16.081  1.00  0.00     0.041 A 
ATOM      2  C   UNL     1      45.569 132.203  15.408  1.00  0.00     0.027 A 
ATOM      3  C   UNL     1      46.567 132.208  14.417  1.00  0.00     0.012 A 
ATOM      4  C   UNL     1      47.187 131.001  14.113  1.00  0.00    -0.001 A 
ATOM      5  C   UNL     1      48.175 130.703  13.200  1.00  0.00     0.028 A 
ATOM      6  C   UNL     1      48.386 129.334  13.327  1.00  0.00     0.083 A 
ATOM      7  N   UNL     1      47.571 128.807  14.270  1.00  0.00    -0.361 N 
ATOM      8  C   UNL     1      46.846 129.834  14.742  1.00  0.00     0.047 A 
ATOM      9  C   UNL     1      45.861 129.793  15.727  1.00  0.00     0.052 A 
ATOM     10  H   UNL     1      47.519 127.808  14.566  1.00  0.00     0.166 HD
ENDROOT
BRANCH   1  11
ATOM     11  N   UNL     1      44.179 131.032  17.070  1.00  0.00    -0.352 N 
ATOM     12  H   UNL     1      43.193 130.908  16.747  1.00  0.00     0.167 HD
BRANCH  11  13
ATOM     13  C   UNL     1      44.407 131.187  18.480  1.00  0.00     0.085 A 
ATOM     14  C   UNL     1      45.802 130.812  20.466  1.00  0.00     0.003 A 
ATOM     15  C   UNL     1      45.585 130.684  19.074  1.00  0.00     0.030 A 
ATOM     16  C   UNL     1      44.839 131.427  21.286  1.00  0.00     0.014 A 
ATOM     17  C   UNL     1      43.679 131.891  20.674  1.00  0.00     0.044 A 
ATOM     18  C   UNL     1      43.463 131.773  19.333  1.00  0.00     0.190 A 
ATOM     19  C   UNL     1      42.548 132.495  21.171  1.00  0.00     0.166 A 
ATOM     20  O   UNL     1      42.281 132.263  19.049  1.00  0.00    -0.354 OA
ATOM     21  N   UNL     1      41.704 132.710  20.134  1.00  0.00    -0.087 NA
ENDBRANCH  11  13
ENDBRANCH   1  11
TORSDOF 2
ENDMDL
MODEL 4
REMARK VINA RESULT:      -9.4      1.506      2.218
REMARK SMILES c1cc(Nc2ccc3cc[nH]c3c2)c2oncc2c1
REMARK SMILES IDX 5 1 6 2 7 3 8 4 9 5 10 6 11 7 12 8 13 9 4 11 3 13 1 14 2 15
REMARK SMILES IDX 19 16 18 17 14 18 17 19 15 20 16 21
REMARK H PARENT 11 10 4 12
ROOT
ATOM      1  C   UNL     1      44.442 131.174  15.972  1.00  0.00     0.041 A 
ATOM      2  C   UNL     1      44.583 129.771  16.122  1.00  0.00     0.027 A 
ATOM      3  C   UNL     1      45.611 129.077  15.459  1.00  0.00     0.012 A 
ATOM      4  C   UNL     1      46.487 129.813  14.667  1.00  0.00    -0.001 A 
ATOM      5  C   UNL     1      47.573 129.414  13.919  1.00  0.00     0.028 A 
ATOM      6  C   UNL     1      48.074 130.583  13.354  1.00  0.00     0.083 A 
ATOM      7  N   UNL     1      47.338 131.653  13.733  1.00  0.00    -0.361 N 
ATOM      8  C   UNL     1      46.373 131.170  14.533  1.00  0.00     0.047 A 
ATOM      9  C   UNL     1      45.368 131.889  15.176  1.00  0.00     0.052 A 
ATOM     10  H   UNL     1      47.491 132.648  13.458  1.00  0.00     0.166 HD
ENDROOT
BRANCH   1  11
ATOM     11  N   UNL     1      43.396 131.854  16.685  1.00  0.00    -0.352 N 
ATOM     12  H   UNL     1      42.667 132.354  16.128  1.00  0.00     0.167 HD
BRANCH  11  13
ATOM     13  C   UNL     1      43.270 131.866  18.116  1.00  0.00     0.085 A 
ATOM     14  C   UNL     1      41.966 132.374  20.135  1.00  0.00     0.003 A 
ATOM     15  C   UNL     1      42.086 132.336  18.726  1.00  0.00     0.030 A 
ATOM     16  C   UNL     1      43.033 131.961  20.954  1.00  0.00     0.014 A 
ATOM     17  C   UNL     1      44.193 131.526  20.323  1.00  0.00     0.044 A 
ATOM     18  C   UNL     1      44.316 131.485  18.966  1.00  0.00     0.190 A 
ATOM     19  C   UNL     1      45.406 131.097  20.809  1.00  0.00     0.166 A 
ATOM     20  O   UNL     1      45.521 131.069  18.661  1.00  0.00    -0.354 OA
ATOM     21  N   UNL     1      46.203 130.824  19.749  1.00  0.00    -0.087 NA
ENDBRANCH  11  13
ENDBRANCH   1  11
TORSDOF 2
ENDMDL
MODEL 5
REMARK VINA RESULT:      -8.9      1.094      1.368
REMARK SMILES c1cc(Nc2ccc3cc[nH]c3c2)c2oncc2c1
REMARK SMILES IDX 5 1 6 2 7 3 8 4 9 5 10 6 11 7 12 8 13 9 4 11 3 13 1 14 2 15
REMARK SMILES IDX 19 16 18 17 14 18 17 19 15 20 16 21
REMARK H PARENT 11 10 4 12
ROOT
ATOM      1  C   UNL     1      44.474 131.419  16.566  1.00  0.00     0.041 A 
ATOM      2  C   UNL     1      44.020 131.648  15.243  1.00  0.00     0.027 A 
ATOM      3  C   UNL     1      44.788 131.241  14.137  1.00  0.00     0.012 A 
ATOM      4  C   UNL     1      45.997 130.598  14.388  1.00  0.00    -0.001 A 
ATOM      5  C   UNL     1      46.940 130.090  13.522  1.00  0.00     0.028 A 
ATOM      6  C   UNL     1      47.929 129.549  14.338  1.00  0.00     0.083 A 
ATOM      7  N   UNL     1      47.615 129.712  15.644  1.00  0.00    -0.361 N 
ATOM      8  C   UNL     1      46.435 130.354  15.661  1.00  0.00     0.047 A 
ATOM      9  C   UNL     1      45.698 130.742  16.777  1.00  0.00     0.052 A 
ATOM     10  H   UNL     1      48.177 129.402  16.467  1.00  0.00     0.166 HD
ENDROOT
BRANCH   1  11
ATOM     11  N   UNL     1      43.650 131.826  17.671  1.00  0.00    -0.352 N 
ATOM     12  H   UNL     1      42.735 132.283  17.459  1.00  0.00     0.167 HD
BRANCH  11  13
ATOM     13  C   UNL     1      43.989 131.616  19.051  1.00  0.00     0.085 A 
ATOM     14  C   UNL     1      45.515 130.726  20.758  1.00  0.00     0.003 A 
ATOM     15  C   UNL     1      45.189 130.957  19.401  1.00  0.00     0.030 A 
ATOM     16  C   UNL     1      44.641 131.132  21.783  1.00  0.00     0.014 A 
ATOM     17  C   UNL     1      43.457 131.757  21.404  1.00  0.00     0.044 A 
ATOM     18  C   UNL     1      43.136 131.985  20.099  1.00  0.00     0.190 A 
ATOM     19  C   UNL     1      42.391 132.237  22.128  1.00  0.00     0.166 A 
ATOM     20  O   UNL     1      41.956 132.553  20.045  1.00  0.00    -0.354 OA
ATOM     21  N   UNL     1      41.480 132.722  21.252  1.00  0.00    -0.087 NA
ENDBRANCH  11  13
ENDBRANCH   1  11
TORSDOF 2
ENDMDL
MODEL 6
REMARK VINA RESULT:      -8.7      1.700      2.635
REMARK SMILES c1cc(Nc2ccc3cc[nH]c3c2)c2oncc2c1
REMARK SMILES IDX 5 1 6 2 7 3 8 4 9 5 10 6 11 7 12 8 13 9 4 11 3 13 1 14 2 15
REMARK SMILES IDX 19 16 18 17 14 18 17 19 15 20 16 21
REMARK H PARENT 11 10 4 12
ROOT
ATOM      1  C   UNL     1      44.500 131.287  16.125  1.00  0.00     0.041 A 
ATOM      2  C   UNL     1      45.248 132.428  15.742  1.00  0.00     0.027 A 
ATOM      3  C   UNL     1      46.434 132.295  14.997  1.00  0.00     0.012 A 
ATOM      4  C   UNL     1      46.837 131.011  14.642  1.00  0.00    -0.001 A 
ATOM      5  C   UNL     1      47.930 130.580  13.923  1.00  0.00     0.028 A 
ATOM      6  C   UNL     1      47.806 129.195  13.870  1.00  0.00     0.083 A 
ATOM      7  N   UNL     1      46.693 128.787  14.522  1.00  0.00    -0.361 N 
ATOM      8  C   UNL     1      46.112 129.904  14.989  1.00  0.00     0.047 A 
ATOM      9  C   UNL     1      44.932 130.000  15.724  1.00  0.00     0.052 A 
ATOM     10  H   UNL     1      46.358 127.805  14.636  1.00  0.00     0.166 HD
ENDROOT
BRANCH   1  11
ATOM     11  N   UNL     1      43.279 131.463  16.862  1.00  0.00    -0.352 N 
ATOM     12  H   UNL     1      42.376 131.401  16.340  1.00  0.00     0.167 HD
BRANCH  11  13
ATOM     13  C   UNL     1      43.217 131.689  18.280  1.00  0.00     0.085 A 
ATOM     14  C   UNL     1      42.047 132.585  20.244  1.00  0.00     0.003 A 
ATOM     15  C   UNL     1      42.101 132.338  18.853  1.00  0.00     0.030 A 
ATOM     16  C   UNL     1      43.114 132.206  21.080  1.00  0.00     0.014 A 
ATOM     17  C   UNL     1      44.208 131.590  20.482  1.00  0.00     0.044 A 
ATOM     18  C   UNL     1      44.267 131.347  19.142  1.00  0.00     0.190 A 
ATOM     19  C   UNL     1      45.403 131.135  20.985  1.00  0.00     0.166 A 
ATOM     20  O   UNL     1      45.421 130.792  18.862  1.00  0.00    -0.354 OA
ATOM     21  N   UNL     1      46.130 130.648  19.951  1.00  0.00    -0.087 NA
ENDBRANCH  11  13
ENDBRANCH   1  11
TORSDOF 2
ENDMDL
MODEL 7
REMARK VINA RESULT:      -8.7      2.275      7.106
REMARK SMILES c1cc(Nc2ccc3cc[nH]c3c2)c2oncc2c1
REMARK SMILES IDX 5 1 6 2 7 3 8 4 9 5 10 6 11 7 12 8 13 9 4 11 3 13 1 14 2 15
REMARK SMILES IDX 19 16 18 17 14 18 17 19 15 20 16 21
REMARK H PARENT 11 10 4 12
ROOT
ATOM      1  C   UNL     1      45.018 130.949  19.383  1.00  0.00     0.041 A 
ATOM      2  C   UNL     1      43.821 131.680  19.179  1.00  0.00     0.027 A 
ATOM      3  C   UNL     1      42.991 132.019  20.263  1.00  0.00     0.012 A 
ATOM      4  C   UNL     1      43.392 131.624  21.536  1.00  0.00    -0.001 A 
ATOM      5  C   UNL     1      42.799 131.816  22.765  1.00  0.00     0.028 A 
ATOM      6  C   UNL     1      43.659 131.218  23.681  1.00  0.00     0.083 A 
ATOM      7  N   UNL     1      44.731 130.682  23.054  1.00  0.00    -0.361 N 
ATOM      8  C   UNL     1      44.556 130.936  21.746  1.00  0.00     0.047 A 
ATOM      9  C   UNL     1      45.402 130.587  20.696  1.00  0.00     0.052 A 
ATOM     10  H   UNL     1      45.529 130.177  23.498  1.00  0.00     0.166 HD
ENDROOT
BRANCH   1  11
ATOM     11  N   UNL     1      45.854 130.643  18.254  1.00  0.00    -0.352 N 
ATOM     12  H   UNL     1      46.789 130.213  18.438  1.00  0.00     0.167 HD
BRANCH  11  13
ATOM     13  C   UNL     1      45.477 130.864  16.886  1.00  0.00     0.085 A 
ATOM     14  C   UNL     1      43.855 131.672  15.228  1.00  0.00     0.003 A 
ATOM     15  C   UNL     1      44.243 131.476  16.574  1.00  0.00     0.030 A 
ATOM     16  C   UNL     1      44.684 131.243  14.175  1.00  0.00     0.014 A 
ATOM     17  C   UNL     1      45.881 130.623  14.516  1.00  0.00     0.044 A 
ATOM     18  C   UNL     1      46.263 130.432  15.810  1.00  0.00     0.190 A 
ATOM     19  C   UNL     1      46.884 130.067  13.757  1.00  0.00     0.166 A 
ATOM     20  O   UNL     1      47.410 129.797  15.825  1.00  0.00    -0.354 OA
ATOM     21  N   UNL     1      47.814 129.564  14.603  1.00  0.00    -0.087 NA
ENDBRANCH  11  13
ENDBRANCH   1  11
TORSDOF 2
ENDMDL
MODEL 8
REMARK VINA RESULT:      -8.3      2.036      6.920
REMARK SMILES c1cc(Nc2ccc3cc[nH]c3c2)c2oncc2c1
REMARK SMILES IDX 5 1 6 2 7 3 8 4 9 5 10 6 11 7 12 8 13 9 4 11 3 13 1 14 2 15
REMARK SMILES IDX 19 16 18 17 14 18 17 19 15 20 16 21
REMARK H PARENT 11 10 4 12
ROOT
ATOM      1  C   UNL     1      45.360 130.731  19.105  1.00  0.00     0.041 A 
ATOM      2  C   UNL     1      45.762 130.214  20.362  1.00  0.00     0.027 A 
ATOM      3  C   UNL     1      45.034 130.511  21.529  1.00  0.00     0.012 A 
ATOM      4  C   UNL     1      43.904 131.313  21.403  1.00  0.00    -0.001 A 
ATOM      5  C   UNL     1      43.007 131.757  22.350  1.00  0.00     0.028 A 
ATOM      6  C   UNL     1      42.076 132.510  21.643  1.00  0.00     0.083 A 
ATOM      7  N   UNL     1      42.377 132.534  20.325  1.00  0.00    -0.361 N 
ATOM      8  C   UNL     1      43.495 131.800  20.191  1.00  0.00     0.047 A 
ATOM      9  C   UNL     1      44.192 131.525  19.017  1.00  0.00     0.052 A 
ATOM     10  H   UNL     1      41.848 133.021  19.569  1.00  0.00     0.166 HD
ENDROOT
BRANCH   1  11
ATOM     11  N   UNL     1      46.113 130.386  17.931  1.00  0.00    -0.352 N 
ATOM     12  H   UNL     1      47.003 129.854  18.057  1.00  0.00     0.167 HD
BRANCH  11  13
ATOM     13  C   UNL     1      45.705 130.698  16.589  1.00  0.00     0.085 A 
ATOM     14  C   UNL     1      44.029 131.574  15.022  1.00  0.00     0.003 A 
ATOM     15  C   UNL     1      44.446 131.289  16.343  1.00  0.00     0.030 A 
ATOM     16  C   UNL     1      44.855 131.257  13.928  1.00  0.00     0.014 A 
ATOM     17  C   UNL     1      46.078 130.655  14.202  1.00  0.00     0.044 A 
ATOM     18  C   UNL     1      46.487 130.377  15.472  1.00  0.00     0.190 A 
ATOM     19  C   UNL     1      47.086 130.194  13.388  1.00  0.00     0.166 A 
ATOM     20  O   UNL     1      47.655 129.784  15.421  1.00  0.00    -0.354 OA
ATOM     21  N   UNL     1      48.046 129.660  14.180  1.00  0.00    -0.087 NA
ENDBRANCH  11  13
ENDBRANCH   1  11
TORSDOF 2
ENDMDL
MODEL 9
REMARK VINA RESULT:      -8.1      1.395      1.989
REMARK SMILES c1cc(Nc2ccc3cc[nH]c3c2)c2oncc2c1
REMARK SMILES IDX 5 1 6 2 7 3 8 4 9 5 10 6 11 7 12 8 13 9 4 11 3 13 1 14 2 15
REMARK SMILES IDX 19 16 18 17 14 18 17 19 15 20 16 21
REMARK H PARENT 11 10 4 12
ROOT
ATOM      1  C   UNL     1      45.914 130.494  17.466  1.00  0.00     0.041 A 
ATOM      2  C   UNL     1      45.511 131.777  17.015  1.00  0.00     0.027 A 
ATOM      3  C   UNL     1      45.806 132.206  15.709  1.00  0.00     0.012 A 
ATOM      4  C   UNL     1      46.493 131.328  14.876  1.00  0.00    -0.001 A 
ATOM      5  C   UNL     1      46.906 131.468  13.569  1.00  0.00     0.028 A 
ATOM      6  C   UNL     1      47.528 130.264  13.254  1.00  0.00     0.083 A 
ATOM      7  N   UNL     1      47.502 129.419  14.311  1.00  0.00    -0.361 N 
ATOM      8  C   UNL     1      46.869 130.081  15.294  1.00  0.00     0.047 A 
ATOM      9  C   UNL     1      46.591 129.623  16.579  1.00  0.00     0.052 A 
ATOM     10  H   UNL     1      47.894 128.453  14.351  1.00  0.00     0.166 HD
ENDROOT
BRANCH   1  11
ATOM     11  N   UNL     1      45.572 130.079  18.798  1.00  0.00    -0.352 N 
ATOM     12  H   UNL     1      45.948 129.165  19.140  1.00  0.00     0.167 HD
BRANCH  11  13
ATOM     13  C   UNL     1      44.771 130.853  19.705  1.00  0.00     0.085 A 
ATOM     14  C   UNL     1      44.309 131.670  21.975  1.00  0.00     0.003 A 
ATOM     15  C   UNL     1      45.110 130.930  21.074  1.00  0.00     0.030 A 
ATOM     16  C   UNL     1      43.149 132.327  21.526  1.00  0.00     0.014 A 
ATOM     17  C   UNL     1      42.830 132.213  20.178  1.00  0.00     0.044 A 
ATOM     18  C   UNL     1      43.597 131.503  19.302  1.00  0.00     0.190 A 
ATOM     19  C   UNL     1      41.776 132.688  19.432  1.00  0.00     0.166 A 
ATOM     20  O   UNL     1      43.036 131.543  18.118  1.00  0.00    -0.354 OA
ATOM     21  N   UNL     1      41.938 132.251  18.161  1.00  0.00    -0.087 NA
ENDBRANCH  11  13
ENDBRANCH   1  11
TORSDOF 2
ENDMDL


