MODEL 1
REMARK VINA RESULT:     -10.2      0.000      0.000
REMARK SMILES Oc1cc(-c2cccc3[nH+]coc23)cc(F)c1F
REMARK SMILES IDX 2 1 3 2 4 3 14 4 15 5 16 6 17 7 18 8 1 9 5 11 6 12 13 13
REMARK SMILES IDX 7 14 12 15 9 16 8 17 11 18 10 19
REMARK H PARENT 1 10 10 20
ROOT
ATOM      1  C   UNL     1      46.524 130.253  15.522  1.00  0.00     0.154 A 
ATOM      2  C   UNL     1      46.246 130.352  16.893  1.00  0.00     0.058 A 
ATOM      3  C   UNL     1      45.101 131.035  17.342  1.00  0.00    -0.008 A 
ATOM      4  C   UNL     1      44.243 131.623  16.394  1.00  0.00     0.051 A 
ATOM      5  C   UNL     1      44.521 131.522  15.028  1.00  0.00     0.163 A 
ATOM      6  F   UNL     1      43.681 132.087  14.125  1.00  0.00    -0.204 F 
ATOM      7  C   UNL     1      45.659 130.838  14.592  1.00  0.00     0.200 A 
ATOM      8  F   UNL     1      45.924 130.743  13.265  1.00  0.00    -0.200 F 
ENDROOT
BRANCH   1   9
ATOM      9  O   UNL     1      47.659 129.577  15.078  1.00  0.00    -0.505 OA
ATOM     10  H   UNL     1      48.525 129.592  15.604  1.00  0.00     0.293 HD
ENDBRANCH   1   9
BRANCH   3  11
ATOM     11  C   UNL     1      44.805 131.144  18.792  1.00  0.00     0.032 A 
ATOM     12  C   UNL     1      45.719 130.681  19.769  1.00  0.00     0.013 A 
ATOM     13  C   UNL     1      43.615 131.714  19.264  1.00  0.00     0.212 A 
ATOM     14  C   UNL     1      45.423 130.791  21.148  1.00  0.00     0.008 A 
ATOM     15  O   UNL     1      42.620 132.236  18.586  1.00  0.00    -0.403 OA
ATOM     16  C   UNL     1      43.335 131.815  20.595  1.00  0.00     0.249 A 
ATOM     17  C   UNL     1      44.213 131.366  21.575  1.00  0.00     0.083 A 
ATOM     18  C   UNL     1      41.737 132.649  19.482  1.00  0.00     0.521 A 
ATOM     19  N   UNL     1      42.142 132.407  20.752  1.00  0.00    -0.176 N 
ATOM     20  H   UNL     1      41.643 132.635  21.640  1.00  0.00     0.457 HD
ENDBRANCH   3  11
TORSDOF 2
ENDMDL
MODEL 2
REMARK VINA RESULT:      -9.7      1.341      1.967
REMARK SMILES Oc1cc(-c2cccc3[nH+]coc23)cc(F)c1F
REMARK SMILES IDX 2 1 3 2 4 3 14 4 15 5 16 6 17 7 18 8 1 9 5 11 6 12 13 13
REMARK SMILES IDX 7 14 12 15 9 16 8 17 11 18 10 19
REMARK H PARENT 1 10 10 20
ROOT
ATOM      1  C   UNL     1      44.257 131.451  14.980  1.00  0.00     0.154 A 
ATOM      2  C   UNL     1      44.028 131.526  16.361  1.00  0.00     0.058 A 
ATOM      3  C   UNL     1      45.008 131.092  17.273  1.00  0.00    -0.008 A 
ATOM      4  C   UNL     1      46.219 130.576  16.776  1.00  0.00     0.051 A 
ATOM      5  C   UNL     1      46.447 130.503  15.399  1.00  0.00     0.163 A 
ATOM      6  F   UNL     1      47.622 130.010  14.934  1.00  0.00    -0.204 F 
ATOM      7  C   UNL     1      45.468 130.941  14.502  1.00  0.00     0.200 A 
ATOM      8  F   UNL     1      45.695 130.867  13.166  1.00  0.00    -0.200 F 
ENDROOT
BRANCH   1   9
ATOM      9  O   UNL     1      43.286 131.880  14.077  1.00  0.00    -0.505 OA
ATOM     10  H   UNL     1      43.309 132.810  13.676  1.00  0.00     0.293 HD
ENDBRANCH   1   9
BRANCH   3  11
ATOM     11  C   UNL     1      44.768 131.168  18.735  1.00  0.00     0.032 A 
ATOM     12  C   UNL     1      45.718 130.681  19.665  1.00  0.00     0.013 A 
ATOM     13  C   UNL     1      43.598 131.727  19.265  1.00  0.00     0.212 A 
ATOM     14  C   UNL     1      45.476 130.759  21.056  1.00  0.00     0.008 A 
ATOM     15  O   UNL     1      42.579 132.266  18.639  1.00  0.00    -0.403 OA
ATOM     16  C   UNL     1      43.370 131.798  20.608  1.00  0.00     0.249 A 
ATOM     17  C   UNL     1      44.285 131.325  21.543  1.00  0.00     0.083 A 
ATOM     18  C   UNL     1      41.732 132.659  19.577  1.00  0.00     0.521 A 
ATOM     19  N   UNL     1      42.186 132.387  20.825  1.00  0.00    -0.176 N 
ATOM     20  H   UNL     1      41.721 132.594  21.737  1.00  0.00     0.457 HD
ENDBRANCH   3  11
TORSDOF 2
ENDMDL
MODEL 3
REMARK VINA RESULT:      -9.6      1.158      1.179
REMARK SMILES Oc1cc(-c2cccc3[nH+]coc23)cc(F)c1F
REMARK SMILES IDX 2 1 3 2 4 3 14 4 15 5 16 6 17 7 18 8 1 9 5 11 6 12 13 13
REMARK SMILES IDX 7 14 12 15 9 16 8 17 11 18 10 19
REMARK H PARENT 1 10 10 20
ROOT
ATOM      1  C   UNL     1      45.661 129.403  15.673  1.00  0.00     0.154 A 
ATOM      2  C   UNL     1      45.258 129.621  16.998  1.00  0.00     0.058 A 
ATOM      3  C   UNL     1      45.278 130.917  17.546  1.00  0.00    -0.008 A 
ATOM      4  C   UNL     1      45.715 131.989  16.746  1.00  0.00     0.051 A 
ATOM      5  C   UNL     1      46.116 131.769  15.425  1.00  0.00     0.163 A 
ATOM      6  F   UNL     1      46.528 132.813  14.663  1.00  0.00    -0.204 F 
ATOM      7  C   UNL     1      46.088 130.479  14.888  1.00  0.00     0.200 A 
ATOM      8  F   UNL     1      46.478 130.272  13.605  1.00  0.00    -0.200 F 
ENDROOT
BRANCH   1   9
ATOM      9  O   UNL     1      45.642 128.120  15.130  1.00  0.00    -0.505 OA
ATOM     10  H   UNL     1      44.857 127.787  14.582  1.00  0.00     0.293 HD
ENDBRANCH   1   9
BRANCH   3  11
ATOM     11  C   UNL     1      44.854 131.152  18.949  1.00  0.00     0.032 A 
ATOM     12  C   UNL     1      45.694 130.819  20.039  1.00  0.00     0.013 A 
ATOM     13  C   UNL     1      43.612 131.717  19.262  1.00  0.00     0.212 A 
ATOM     14  C   UNL     1      45.276 131.048  21.371  1.00  0.00     0.008 A 
ATOM     15  O   UNL     1      42.663 132.135  18.456  1.00  0.00    -0.403 OA
ATOM     16  C   UNL     1      43.214 131.934  20.548  1.00  0.00     0.249 A 
ATOM     17  C   UNL     1      44.018 131.615  21.638  1.00  0.00     0.083 A 
ATOM     18  C   UNL     1      41.695 132.597  19.230  1.00  0.00     0.521 A 
ATOM     19  N   UNL     1      41.996 132.492  20.547  1.00  0.00    -0.176 N 
ATOM     20  H   UNL     1      41.415 132.784  21.364  1.00  0.00     0.457 HD
ENDBRANCH   3  11
TORSDOF 2
ENDMDL
MODEL 4
REMARK VINA RESULT:      -9.3      1.708      2.485
REMARK SMILES Oc1cc(-c2cccc3[nH+]coc23)cc(F)c1F
REMARK SMILES IDX 2 1 3 2 4 3 14 4 15 5 16 6 17 7 18 8 1 9 5 11 6 12 13 13
REMARK SMILES IDX 7 14 12 15 9 16 8 17 11 18 10 19
REMARK H PARENT 1 10 10 20
ROOT
ATOM      1  C   UNL     1      45.701 129.350  15.467  1.00  0.00     0.154 A 
ATOM      2  C   UNL     1      44.912 129.750  16.555  1.00  0.00     0.058 A 
ATOM      3  C   UNL     1      44.843 131.105  16.928  1.00  0.00    -0.008 A 
ATOM      4  C   UNL     1      45.583 132.052  16.196  1.00  0.00     0.051 A 
ATOM      5  C   UNL     1      46.368 131.652  15.111  1.00  0.00     0.163 A 
ATOM      6  F   UNL     1      47.070 132.577  14.410  1.00  0.00    -0.204 F 
ATOM      7  C   UNL     1      46.427 130.305  14.746  1.00  0.00     0.200 A 
ATOM      8  F   UNL     1      47.190 129.922  13.691  1.00  0.00    -0.200 F 
ENDROOT
BRANCH   1   9
ATOM      9  O   UNL     1      45.770 128.009  15.098  1.00  0.00    -0.505 OA
ATOM     10  H   UNL     1      45.912 127.277  15.785  1.00  0.00     0.293 HD
ENDBRANCH   1   9
BRANCH   3  11
ATOM     11  C   UNL     1      44.011 131.531  18.081  1.00  0.00     0.032 A 
ATOM     12  C   UNL     1      42.697 132.025  17.900  1.00  0.00     0.013 A 
ATOM     13  C   UNL     1      44.480 131.460  19.399  1.00  0.00     0.212 A 
ATOM     14  C   UNL     1      41.916 132.428  19.008  1.00  0.00     0.008 A 
ATOM     15  O   UNL     1      45.635 131.025  19.846  1.00  0.00    -0.403 OA
ATOM     16  C   UNL     1      43.722 131.852  20.463  1.00  0.00     0.249 A 
ATOM     17  C   UNL     1      42.430 132.343  20.314  1.00  0.00     0.083 A 
ATOM     18  C   UNL     1      45.594 131.150  21.163  1.00  0.00     0.521 A 
ATOM     19  N   UNL     1      44.417 131.663  21.594  1.00  0.00    -0.176 N 
ATOM     20  H   UNL     1      44.121 131.857  22.577  1.00  0.00     0.457 HD
ENDBRANCH   3  11
TORSDOF 2
ENDMDL
MODEL 5
REMARK VINA RESULT:      -9.2      1.265      2.179
REMARK SMILES Oc1cc(-c2cccc3[nH+]coc23)cc(F)c1F
REMARK SMILES IDX 2 1 3 2 4 3 14 4 15 5 16 6 17 7 18 8 1 9 5 11 6 12 13 13
REMARK SMILES IDX 7 14 12 15 9 16 8 17 11 18 10 19
REMARK H PARENT 1 10 10 20
ROOT
ATOM      1  C   UNL     1      46.353 130.279  15.832  1.00  0.00     0.154 A 
ATOM      2  C   UNL     1      45.711 130.626  17.029  1.00  0.00     0.058 A 
ATOM      3  C   UNL     1      44.446 131.243  17.008  1.00  0.00    -0.008 A 
ATOM      4  C   UNL     1      43.840 131.512  15.767  1.00  0.00     0.051 A 
ATOM      5  C   UNL     1      44.481 131.165  14.575  1.00  0.00     0.163 A 
ATOM      6  F   UNL     1      43.882 131.424  13.386  1.00  0.00    -0.204 F 
ATOM      7  C   UNL     1      45.735 130.549  14.606  1.00  0.00     0.200 A 
ATOM      8  F   UNL     1      46.353 130.214  13.446  1.00  0.00    -0.200 F 
ENDROOT
BRANCH   1   9
ATOM      9  O   UNL     1      47.606 129.669  15.852  1.00  0.00    -0.505 OA
ATOM     10  H   UNL     1      47.705 128.665  15.954  1.00  0.00     0.293 HD
ENDBRANCH   1   9
BRANCH   3  11
ATOM     11  C   UNL     1      43.764 131.613  18.273  1.00  0.00     0.032 A 
ATOM     12  C   UNL     1      42.468 132.184  18.273  1.00  0.00     0.013 A 
ATOM     13  C   UNL     1      44.363 131.412  19.523  1.00  0.00     0.212 A 
ATOM     14  C   UNL     1      41.831 132.532  19.486  1.00  0.00     0.008 A 
ATOM     15  O   UNL     1      45.531 130.887  19.809  1.00  0.00    -0.403 OA
ATOM     16  C   UNL     1      43.743 131.752  20.690  1.00  0.00     0.249 A 
ATOM     17  C   UNL     1      42.472 132.316  20.719  1.00  0.00     0.083 A 
ATOM     18  C   UNL     1      45.635 130.906  21.128  1.00  0.00     0.521 A 
ATOM     19  N   UNL     1      44.539 131.438  21.721  1.00  0.00    -0.176 N 
ATOM     20  H   UNL     1      44.359 131.566  22.742  1.00  0.00     0.457 HD
ENDBRANCH   3  11
TORSDOF 2
ENDMDL
MODEL 6
REMARK VINA RESULT:      -8.7      1.897      2.933
REMARK SMILES Oc1cc(-c2cccc3[nH+]coc23)cc(F)c1F
REMARK SMILES IDX 2 1 3 2 4 3 14 4 15 5 16 6 17 7 18 8 1 9 5 11 6 12 13 13
REMARK SMILES IDX 7 14 12 15 9 16 8 17 11 18 10 19
REMARK H PARENT 1 10 10 20
ROOT
ATOM      1  C   UNL     1      43.951 131.478  14.547  1.00  0.00     0.154 A 
ATOM      2  C   UNL     1      43.459 131.669  15.846  1.00  0.00     0.058 A 
ATOM      3  C   UNL     1      44.294 131.478  16.962  1.00  0.00    -0.008 A 
ATOM      4  C   UNL     1      45.630 131.087  16.755  1.00  0.00     0.051 A 
ATOM      5  C   UNL     1      46.120 130.898  15.460  1.00  0.00     0.163 A 
ATOM      6  F   UNL     1      47.411 130.528  15.274  1.00  0.00    -0.204 F 
ATOM      7  C   UNL     1      45.283 131.094  14.358  1.00  0.00     0.200 A 
ATOM      8  F   UNL     1      45.764 130.909  13.102  1.00  0.00    -0.200 F 
ENDROOT
BRANCH   1   9
ATOM      9  O   UNL     1      43.124 131.665  13.442  1.00  0.00    -0.505 OA
ATOM     10  H   UNL     1      42.126 131.498  13.493  1.00  0.00     0.293 HD
ENDBRANCH   1   9
BRANCH   3  11
ATOM     11  C   UNL     1      43.775 131.677  18.338  1.00  0.00     0.032 A 
ATOM     12  C   UNL     1      42.484 132.211  18.571  1.00  0.00     0.013 A 
ATOM     13  C   UNL     1      44.530 131.343  19.470  1.00  0.00     0.212 A 
ATOM     14  C   UNL     1      42.004 132.396  19.888  1.00  0.00     0.008 A 
ATOM     15  O   UNL     1      45.730 130.816  19.540  1.00  0.00    -0.403 OA
ATOM     16  C   UNL     1      44.061 131.525  20.737  1.00  0.00     0.249 A 
ATOM     17  C   UNL     1      42.799 132.049  20.994  1.00  0.00     0.083 A 
ATOM     18  C   UNL     1      46.001 130.679  20.828  1.00  0.00     0.521 A 
ATOM     19  N   UNL     1      44.985 131.109  21.615  1.00  0.00    -0.176 N 
ATOM     20  H   UNL     1      44.936 131.109  22.658  1.00  0.00     0.457 HD
ENDBRANCH   3  11
TORSDOF 2
ENDMDL
MODEL 7
REMARK VINA RESULT:      -8.6      1.317      1.646
REMARK SMILES Oc1cc(-c2cccc3[nH+]coc23)cc(F)c1F
REMARK SMILES IDX 2 1 3 2 4 3 14 4 15 5 16 6 17 7 18 8 1 9 5 11 6 12 13 13
REMARK SMILES IDX 7 14 12 15 9 16 8 17 11 18 10 19
REMARK H PARENT 1 10 10 20
ROOT
ATOM      1  C   UNL     1      46.061 131.767  15.415  1.00  0.00     0.154 A 
ATOM      2  C   UNL     1      45.694 131.968  16.753  1.00  0.00     0.058 A 
ATOM      3  C   UNL     1      45.233 130.893  17.537  1.00  0.00    -0.008 A 
ATOM      4  C   UNL     1      45.140 129.616  16.954  1.00  0.00     0.051 A 
ATOM      5  C   UNL     1      45.507 129.418  15.620  1.00  0.00     0.163 A 
ATOM      6  F   UNL     1      45.419 128.179  15.073  1.00  0.00    -0.204 F 
ATOM      7  C   UNL     1      45.968 130.490  14.852  1.00  0.00     0.200 A 
ATOM      8  F   UNL     1      46.322 130.292  13.557  1.00  0.00    -0.200 F 
ENDROOT
BRANCH   1   9
ATOM      9  O   UNL     1      46.516 132.831  14.640  1.00  0.00    -0.505 OA
ATOM     10  H   UNL     1      47.047 133.594  15.045  1.00  0.00     0.293 HD
ENDBRANCH   1   9
BRANCH   3  11
ATOM     11  C   UNL     1      44.842 131.102  18.953  1.00  0.00     0.032 A 
ATOM     12  C   UNL     1      45.693 130.720  20.018  1.00  0.00     0.013 A 
ATOM     13  C   UNL     1      43.620 131.691  19.304  1.00  0.00     0.212 A 
ATOM     14  C   UNL     1      45.306 130.924  21.363  1.00  0.00     0.008 A 
ATOM     15  O   UNL     1      42.668 132.154  18.528  1.00  0.00    -0.403 OA
ATOM     16  C   UNL     1      43.253 131.884  20.603  1.00  0.00     0.249 A 
ATOM     17  C   UNL     1      44.068 131.516  21.669  1.00  0.00     0.083 A 
ATOM     18  C   UNL     1      41.727 132.620  19.332  1.00  0.00     0.521 A 
ATOM     19  N   UNL     1      42.049 132.473  20.640  1.00  0.00    -0.176 N 
ATOM     20  H   UNL     1      41.491 132.758  21.475  1.00  0.00     0.457 HD
ENDBRANCH   3  11
TORSDOF 2
ENDMDL
MODEL 8
REMARK VINA RESULT:      -8.4      1.865      2.716
REMARK SMILES Oc1cc(-c2cccc3[nH+]coc23)cc(F)c1F
REMARK SMILES IDX 2 1 3 2 4 3 14 4 15 5 16 6 17 7 18 8 1 9 5 11 6 12 13 13
REMARK SMILES IDX 7 14 12 15 9 16 8 17 11 18 10 19
REMARK H PARENT 1 10 10 20
ROOT
ATOM      1  C   UNL     1      46.399 131.455  14.992  1.00  0.00     0.154 A 
ATOM      2  C   UNL     1      45.638 131.899  16.083  1.00  0.00     0.058 A 
ATOM      3  C   UNL     1      44.868 130.992  16.834  1.00  0.00    -0.008 A 
ATOM      4  C   UNL     1      44.869 129.633  16.470  1.00  0.00     0.051 A 
ATOM      5  C   UNL     1      45.629 129.192  15.383  1.00  0.00     0.163 A 
ATOM      6  F   UNL     1      45.626 127.877  15.047  1.00  0.00    -0.204 F 
ATOM      7  C   UNL     1      46.394 130.100  14.646  1.00  0.00     0.200 A 
ATOM      8  F   UNL     1      47.130 129.665  13.592  1.00  0.00    -0.200 F 
ENDROOT
BRANCH   1   9
ATOM      9  O   UNL     1      47.161 132.353  14.248  1.00  0.00    -0.505 OA
ATOM     10  H   UNL     1      47.560 133.186  14.668  1.00  0.00     0.293 HD
ENDBRANCH   1   9
BRANCH   3  11
ATOM     11  C   UNL     1      44.060 131.460  17.987  1.00  0.00     0.032 A 
ATOM     12  C   UNL     1      42.747 131.962  17.813  1.00  0.00     0.013 A 
ATOM     13  C   UNL     1      44.550 131.421  19.299  1.00  0.00     0.212 A 
ATOM     14  C   UNL     1      41.989 132.404  18.922  1.00  0.00     0.008 A 
ATOM     15  O   UNL     1      45.707 130.987  19.740  1.00  0.00    -0.403 OA
ATOM     16  C   UNL     1      43.813 131.851  20.363  1.00  0.00     0.249 A 
ATOM     17  C   UNL     1      42.523 132.351  20.221  1.00  0.00     0.083 A 
ATOM     18  C   UNL     1      45.689 131.150  21.053  1.00  0.00     0.521 A 
ATOM     19  N   UNL     1      44.524 131.687  21.488  1.00  0.00    -0.176 N 
ATOM     20  H   UNL     1      44.247 131.912  22.469  1.00  0.00     0.457 HD
ENDBRANCH   3  11
TORSDOF 2
ENDMDL
MODEL 9
REMARK VINA RESULT:      -8.2      3.320      5.518
REMARK SMILES Oc1cc(-c2cccc3[nH+]coc23)cc(F)c1F
REMARK SMILES IDX 2 1 3 2 4 3 14 4 15 5 16 6 17 7 18 8 1 9 5 11 6 12 13 13
REMARK SMILES IDX 7 14 12 15 9 16 8 17 11 18 10 19
REMARK H PARENT 1 10 10 20
ROOT
ATOM      1  C   UNL     1      44.433 131.579  20.739  1.00  0.00     0.154 A 
ATOM      2  C   UNL     1      45.066 131.187  19.551  1.00  0.00     0.058 A 
ATOM      3  C   UNL     1      44.399 131.291  18.317  1.00  0.00    -0.008 A 
ATOM      4  C   UNL     1      43.083 131.791  18.294  1.00  0.00     0.051 A 
ATOM      5  C   UNL     1      42.454 132.183  19.479  1.00  0.00     0.163 A 
ATOM      6  F   UNL     1      41.188 132.669  19.441  1.00  0.00    -0.204 F 
ATOM      7  C   UNL     1      43.127 132.078  20.699  1.00  0.00     0.200 A 
ATOM      8  F   UNL     1      42.511 132.460  21.846  1.00  0.00    -0.200 F 
ENDROOT
BRANCH   1   9
ATOM      9  O   UNL     1      45.094 131.474  21.961  1.00  0.00    -0.505 OA
ATOM     10  H   UNL     1      45.079 130.616  22.500  1.00  0.00     0.293 HD
ENDBRANCH   1   9
BRANCH   3  11
ATOM     11  C   UNL     1      45.065 130.875  17.058  1.00  0.00     0.032 A 
ATOM     12  C   UNL     1      46.285 130.156  17.071  1.00  0.00     0.013 A 
ATOM     13  C   UNL     1      44.519 131.164  15.801  1.00  0.00     0.212 A 
ATOM     14  C   UNL     1      46.909 129.766  15.864  1.00  0.00     0.008 A 
ATOM     15  O   UNL     1      43.403 131.786  15.504  1.00  0.00    -0.403 OA
ATOM     16  C   UNL     1      45.127 130.786  14.640  1.00  0.00     0.249 A 
ATOM     17  C   UNL     1      46.327 130.082  14.624  1.00  0.00     0.083 A 
ATOM     18  C   UNL     1      43.324 131.799  14.183  1.00  0.00     0.521 A 
ATOM     19  N   UNL     1      44.380 131.183  13.600  1.00  0.00    -0.176 N 
ATOM     20  H   UNL     1      44.563 131.047  12.580  1.00  0.00     0.457 HD
ENDBRANCH   3  11
TORSDOF 2
ENDMDL


