REMARK SMILES O/C(=N\c1ccc(CN2CCCCC2)cc1)Sc1cccc(-c2ccc3c(c2)CC3)c1
REMARK SMILES IDX 2 1 1 2 3 4 4 5 5 6 16 7 6 8 15 9 7 10 8 11 9 12 10 13 14 14
REMARK SMILES IDX 11 15 13 16 12 17 17 18 18 19 19 20 31 21 20 22 22 23 21 24
REMARK SMILES IDX 23 25 24 26 28 27 25 28 27 29 26 30 29 31 30 32
REMARK H PARENT 1 3
ROOT
ATOM      1  C   UNL     1       0.443   3.293  -2.889  1.00  0.00     0.253 C 
ENDROOT
BRANCH   1   2
ATOM      2  O   UNL     1      -0.624   4.134  -2.588  1.00  0.00    -0.488 OA
ATOM      3  H   UNL     1      -1.182   4.546  -3.325  1.00  0.00     0.295 HD
ENDBRANCH   1   2
BRANCH   1   4
ATOM      4  N   UNL     1       1.156   2.727  -1.960  1.00  0.00    -0.208 NA
BRANCH   4   5
ATOM      5  C   UNL     1       1.032   2.865  -0.533  1.00  0.00     0.068 A 
ATOM      6  C   UNL     1       1.524   1.827   0.269  1.00  0.00     0.029 A 
ATOM      7  C   UNL     1       0.493   4.009   0.087  1.00  0.00     0.029 A 
ATOM      8  C   UNL     1       1.427   1.893   1.662  1.00  0.00     0.007 A 
ATOM      9  C   UNL     1       0.381   4.068   1.481  1.00  0.00     0.007 A 
ATOM     10  C   UNL     1       0.824   3.001   2.277  1.00  0.00    -0.034 A 
BRANCH  10  11
ATOM     11  C   UNL     1       0.704   3.072   3.781  1.00  0.00     0.120 C 
BRANCH  11  12
ATOM     12  N   UNL     1       0.233   1.788   4.342  1.00  0.00    -0.299 NA
ATOM     13  C   UNL     1       0.435   1.768   5.805  1.00  0.00     0.085 C 
ATOM     14  C   UNL     1      -1.193   1.564   4.022  1.00  0.00     0.085 C 
ATOM     15  C   UNL     1       0.048   0.401   6.378  1.00  0.00     0.016 C 
ATOM     16  C   UNL     1      -1.638   0.187   4.521  1.00  0.00     0.016 C 
ATOM     17  C   UNL     1      -1.403   0.061   6.028  1.00  0.00     0.003 C 
ENDBRANCH  11  12
ENDBRANCH  10  11
ENDBRANCH   4   5
ENDBRANCH   1   4
BRANCH   1  18
ATOM     18  S   UNL     1       0.809   2.914  -4.599  1.00  0.00    -0.031 SA
BRANCH  18  19
ATOM     19  C   UNL     1      -0.393   1.585  -4.630  1.00  0.00     0.017 A 
ATOM     20  C   UNL     1      -1.689   1.828  -5.097  1.00  0.00     0.015 A 
ATOM     21  C   UNL     1      -0.049   0.314  -4.153  1.00  0.00     0.024 A 
ATOM     22  C   UNL     1      -2.641   0.807  -5.083  1.00  0.00     0.002 A 
ATOM     23  C   UNL     1      -1.005  -0.718  -4.115  1.00  0.00    -0.017 A 
ATOM     24  C   UNL     1      -2.304  -0.459  -4.594  1.00  0.00     0.009 A 
BRANCH  23  25
ATOM     25  C   UNL     1      -0.659  -2.047  -3.547  1.00  0.00    -0.018 A 
ATOM     26  C   UNL     1      -1.614  -2.744  -2.724  1.00  0.00     0.009 A 
ATOM     27  C   UNL     1       0.626  -2.615  -3.800  1.00  0.00     0.012 A 
ATOM     28  C   UNL     1      -1.330  -4.001  -2.138  1.00  0.00     0.004 A 
ATOM     29  C   UNL     1       0.872  -3.837  -3.209  1.00  0.00    -0.044 A 
ATOM     30  C   UNL     1      -0.078  -4.510  -2.405  1.00  0.00    -0.044 A 
ATOM     31  C   UNL     1       1.851  -4.944  -3.010  1.00  0.00     0.040 C 
ATOM     32  C   UNL     1       0.877  -5.632  -2.183  1.00  0.00     0.040 C 
ENDBRANCH  23  25
ENDBRANCH  18  19
ENDBRANCH   1  18
TORSDOF 8


