REMARK SMILES Cc1cc2ccc([C@@H]3O[C@H](C)NN3C(O)=C3C[NH2+]C3)cc2[nH]1
REMARK SMILES IDX 8 1 9 2 10 3 11 4 12 5 13 6 7 8 2 9 3 10 22 11 4 12 21 13
REMARK SMILES IDX 5 14 20 15 6 16 1 17 14 19 15 20 16 22 17 23 19 24 18 25
REMARK H PARENT 12 7 22 18 15 21 18 26 18 27
ROOT
ATOM      1  C   UNL     1       0.543   2.067   0.472  1.00  0.00     0.267 C 
ATOM      2  O   UNL     1       0.103   2.959  -0.520  1.00  0.00    -0.333 OA
ATOM      3  C   UNL     1       0.853   2.666  -1.687  1.00  0.00     0.204 C 
ATOM      4  C   UNL     1      -0.057   2.717  -2.916  1.00  0.00     0.058 C 
ATOM      5  N   UNL     1       1.516   1.364  -1.546  1.00  0.00    -0.201 NA
ATOM      6  N   UNL     1       1.387   1.100  -0.187  1.00  0.00    -0.243 N 
ATOM      7  H   UNL     1       0.972   0.620  -2.043  1.00  0.00     0.151 HD
ENDROOT
BRANCH   1   8
ATOM      8  C   UNL     1      -0.644   1.393   1.112  1.00  0.00     0.005 A 
ATOM      9  C   UNL     1      -4.382  -1.117   1.414  1.00  0.00     0.013 A 
ATOM     10  C   UNL     1      -3.951  -0.582   2.625  1.00  0.00     0.031 A 
ATOM     11  N   UNL     1      -3.557  -0.761   0.401  1.00  0.00    -0.359 N 
ATOM     12  C   UNL     1      -2.823   0.143   2.309  1.00  0.00    -0.000 A 
ATOM     13  C   UNL     1      -2.613   0.014   0.961  1.00  0.00     0.046 A 
ATOM     14  C   UNL     1      -1.970   0.890   3.117  1.00  0.00     0.011 A 
ATOM     15  C   UNL     1      -1.534   0.624   0.326  1.00  0.00     0.035 A 
ATOM     16  C   UNL     1      -0.872   1.521   2.507  1.00  0.00     0.009 A 
ATOM     17  C   UNL     1      -5.542  -2.043   1.250  1.00  0.00     0.064 C 
ATOM     18  H   UNL     1      -3.631  -1.039  -0.603  1.00  0.00     0.166 HD
ENDBRANCH   1   8
BRANCH   6  19
ATOM     19  C   UNL     1       2.152   0.097   0.503  1.00  0.00     0.214 C 
BRANCH  19  20
ATOM     20  O   UNL     1       2.049  -0.006   1.891  1.00  0.00    -0.493 OA
ATOM     21  H   UNL     1       2.568  -0.699   2.417  1.00  0.00     0.295 HD
ENDBRANCH  19  20
BRANCH  19  22
ATOM     22  C   UNL     1       2.957  -0.736  -0.160  1.00  0.00     0.099 C 
ATOM     23  C   UNL     1       3.896  -1.877   0.153  1.00  0.00     0.304 C 
ATOM     24  C   UNL     1       3.404  -1.033  -1.574  1.00  0.00     0.304 C 
ATOM     25  N   UNL     1       4.291  -2.117  -1.216  1.00  0.00    -0.339 N 
ATOM     26  H   UNL     1       5.298  -1.888  -1.391  1.00  0.00     0.346 HD
ATOM     27  H   UNL     1       3.959  -3.043  -1.575  1.00  0.00     0.346 HD
ENDBRANCH  19  22
ENDBRANCH   6  19
TORSDOF 4


