MODEL 1
REMARK VINA RESULT:      -9.4      0.000      0.000
REMARK SMILES C[C@@H]1CCc2ccc(-c3cccnc3F)nc2[C@H]1F
REMARK SMILES IDX 1 1 2 2 3 3 4 4 5 5 6 6 7 7 8 8 16 9 17 10 18 11 19 12 9 13
REMARK SMILES IDX 10 14 14 15 11 16 13 17 12 18 15 19
REMARK H PARENT
ROOT
ATOM      1  C   UNL     1      44.705 131.423  23.124  1.00  0.00     0.011 C 
ATOM      2  C   UNL     1      44.261 131.887  21.732  1.00  0.00     0.027 C 
ATOM      3  C   UNL     1      42.753 131.654  21.542  1.00  0.00     0.011 C 
ATOM      4  C   UNL     1      42.283 132.246  20.211  1.00  0.00     0.038 C 
ATOM      5  C   UNL     1      43.166 131.843  19.055  1.00  0.00    -0.023 A 
ATOM      6  C   UNL     1      42.701 132.008  17.745  1.00  0.00     0.008 A 
ATOM      7  C   UNL     1      43.523 131.701  16.662  1.00  0.00     0.029 A 
ATOM      8  C   UNL     1      44.827 131.232  16.890  1.00  0.00     0.075 A 
ATOM      9  N   UNL     1      45.264 131.097  18.173  1.00  0.00    -0.249 NA
ATOM     10  C   UNL     1      44.493 131.402  19.252  1.00  0.00     0.079 A 
ATOM     11  C   UNL     1      45.050 131.151  20.631  1.00  0.00     0.218 C 
ATOM     12  F   UNL     1      46.375 131.552  20.669  1.00  0.00    -0.240 F 
ENDROOT
BRANCH   8  13
ATOM     13  C   UNL     1      45.733 130.884  15.767  1.00  0.00     0.055 A 
ATOM     14  C   UNL     1      46.402 131.884  15.038  1.00  0.00     0.017 A 
ATOM     15  C   UNL     1      45.926 129.541  15.385  1.00  0.00     0.222 A 
ATOM     16  C   UNL     1      47.240 131.541  13.976  1.00  0.00     0.021 A 
ATOM     17  N   UNL     1      46.750 129.237  14.346  1.00  0.00    -0.228 NA
ATOM     18  C   UNL     1      47.404 130.197  13.641  1.00  0.00     0.114 A 
ATOM     19  F   UNL     1      45.320 128.530  16.056  1.00  0.00    -0.184 F 
ENDBRANCH   8  13
TORSDOF 1
ENDMDL
MODEL 2
REMARK VINA RESULT:      -9.0      1.256      1.560
REMARK SMILES C[C@@H]1CCc2ccc(-c3cccnc3F)nc2[C@H]1F
REMARK SMILES IDX 1 1 2 2 3 3 4 4 5 5 6 6 7 7 8 8 16 9 17 10 18 11 19 12 9 13
REMARK SMILES IDX 10 14 14 15 11 16 13 17 12 18 15 19
REMARK H PARENT
ROOT
ATOM      1  C   UNL     1      44.682 131.395  23.388  1.00  0.00     0.011 C 
ATOM      2  C   UNL     1      44.244 131.868  21.997  1.00  0.00     0.027 C 
ATOM      3  C   UNL     1      42.728 131.684  21.819  1.00  0.00     0.011 C 
ATOM      4  C   UNL     1      42.269 132.286  20.487  1.00  0.00     0.038 C 
ATOM      5  C   UNL     1      43.130 131.848  19.328  1.00  0.00    -0.023 A 
ATOM      6  C   UNL     1      42.663 132.023  18.020  1.00  0.00     0.008 A 
ATOM      7  C   UNL     1      43.467 131.683  16.933  1.00  0.00     0.029 A 
ATOM      8  C   UNL     1      44.755 131.172  17.155  1.00  0.00     0.075 A 
ATOM      9  N   UNL     1      45.196 131.028  18.435  1.00  0.00    -0.249 NA
ATOM     10  C   UNL     1      44.443 131.363  19.519  1.00  0.00     0.079 A 
ATOM     11  C   UNL     1      45.001 131.100  20.894  1.00  0.00     0.218 C 
ATOM     12  F   UNL     1      46.339 131.457  20.922  1.00  0.00    -0.240 F 
ENDROOT
BRANCH   8  13
ATOM     13  C   UNL     1      45.641 130.789  16.027  1.00  0.00     0.055 A 
ATOM     14  C   UNL     1      45.858 129.437  15.701  1.00  0.00     0.017 A 
ATOM     15  C   UNL     1      46.309 131.771  15.268  1.00  0.00     0.222 A 
ATOM     16  C   UNL     1      46.704 129.094  14.647  1.00  0.00     0.021 A 
ATOM     17  N   UNL     1      47.127 131.405  14.244  1.00  0.00    -0.228 NA
ATOM     18  C   UNL     1      47.337 130.103  13.921  1.00  0.00     0.114 A 
ATOM     19  F   UNL     1      46.131 133.091  15.523  1.00  0.00    -0.184 F 
ENDBRANCH   8  13
TORSDOF 1
ENDMDL
MODEL 3
REMARK VINA RESULT:      -8.5      1.412      6.126
REMARK SMILES C[C@@H]1CCc2ccc(-c3cccnc3F)nc2[C@H]1F
REMARK SMILES IDX 1 1 2 2 3 3 4 4 5 5 6 6 7 7 8 8 16 9 17 10 18 11 19 12 9 13
REMARK SMILES IDX 10 14 14 15 11 16 13 17 12 18 15 19
REMARK H PARENT
ROOT
ATOM      1  C   UNL     1      47.889 129.606  13.961  1.00  0.00     0.011 C 
ATOM      2  C   UNL     1      46.509 129.918  14.552  1.00  0.00     0.027 C 
ATOM      3  C   UNL     1      45.841 131.068  13.781  1.00  0.00     0.011 C 
ATOM      4  C   UNL     1      44.408 131.284  14.278  1.00  0.00     0.038 C 
ATOM      5  C   UNL     1      44.325 131.360  15.783  1.00  0.00    -0.023 A 
ATOM      6  C   UNL     1      43.172 131.883  16.381  1.00  0.00     0.008 A 
ATOM      7  C   UNL     1      43.047 131.905  17.770  1.00  0.00     0.029 A 
ATOM      8  C   UNL     1      44.081 131.390  18.568  1.00  0.00     0.075 A 
ATOM      9  N   UNL     1      45.184 130.869  17.964  1.00  0.00    -0.249 NA
ATOM     10  C   UNL     1      45.332 130.819  16.611  1.00  0.00     0.079 A 
ATOM     11  C   UNL     1      46.623 130.283  16.046  1.00  0.00     0.218 C 
ATOM     12  F   UNL     1      47.007 129.163  16.764  1.00  0.00    -0.240 F 
ENDROOT
BRANCH   8  13
ATOM     13  C   UNL     1      43.994 131.402  20.050  1.00  0.00     0.055 A 
ATOM     14  C   UNL     1      42.897 131.988  20.708  1.00  0.00     0.017 A 
ATOM     15  C   UNL     1      45.022 130.846  20.838  1.00  0.00     0.222 A 
ATOM     16  C   UNL     1      42.837 132.003  22.101  1.00  0.00     0.021 A 
ATOM     17  N   UNL     1      44.935 130.874  22.195  1.00  0.00    -0.228 NA
ATOM     18  C   UNL     1      43.876 131.434  22.837  1.00  0.00     0.114 A 
ATOM     19  F   UNL     1      46.099 130.254  20.264  1.00  0.00    -0.184 F 
ENDBRANCH   8  13
TORSDOF 1
ENDMDL
MODEL 4
REMARK VINA RESULT:      -8.4      1.848      6.241
REMARK SMILES C[C@@H]1CCc2ccc(-c3cccnc3F)nc2[C@H]1F
REMARK SMILES IDX 1 1 2 2 3 3 4 4 5 5 6 6 7 7 8 8 16 9 17 10 18 11 19 12 9 13
REMARK SMILES IDX 10 14 14 15 11 16 13 17 12 18 15 19
REMARK H PARENT
ROOT
ATOM      1  C   UNL     1      48.182 129.602  13.977  1.00  0.00     0.011 C 
ATOM      2  C   UNL     1      46.770 129.892  14.499  1.00  0.00     0.027 C 
ATOM      3  C   UNL     1      46.098 130.987  13.653  1.00  0.00     0.011 C 
ATOM      4  C   UNL     1      44.640 131.176  14.083  1.00  0.00     0.038 C 
ATOM      5  C   UNL     1      44.493 131.310  15.579  1.00  0.00    -0.023 A 
ATOM      6  C   UNL     1      43.301 131.819  16.108  1.00  0.00     0.008 A 
ATOM      7  C   UNL     1      43.117 131.894  17.488  1.00  0.00     0.029 A 
ATOM      8  C   UNL     1      44.133 131.447  18.348  1.00  0.00     0.075 A 
ATOM      9  N   UNL     1      45.276 130.937  17.811  1.00  0.00    -0.249 NA
ATOM     10  C   UNL     1      45.481 130.837  16.469  1.00  0.00     0.079 A 
ATOM     11  C   UNL     1      46.810 130.321  15.979  1.00  0.00     0.218 C 
ATOM     12  F   UNL     1      47.200 129.245  16.759  1.00  0.00    -0.240 F 
ENDROOT
BRANCH   8  13
ATOM     13  C   UNL     1      43.984 131.516  19.824  1.00  0.00     0.055 A 
ATOM     14  C   UNL     1      45.004 131.059  20.678  1.00  0.00     0.017 A 
ATOM     15  C   UNL     1      42.804 132.021  20.408  1.00  0.00     0.222 A 
ATOM     16  C   UNL     1      44.843 131.119  22.063  1.00  0.00     0.021 A 
ATOM     17  N   UNL     1      42.677 132.069  21.761  1.00  0.00    -0.228 NA
ATOM     18  C   UNL     1      43.660 131.634  22.592  1.00  0.00     0.114 A 
ATOM     19  F   UNL     1      41.791 132.490  19.639  1.00  0.00    -0.184 F 
ENDBRANCH   8  13
TORSDOF 1
ENDMDL
MODEL 5
REMARK VINA RESULT:      -7.5      1.960      2.873
REMARK SMILES C[C@@H]1CCc2ccc(-c3cccnc3F)nc2[C@H]1F
REMARK SMILES IDX 1 1 2 2 3 3 4 4 5 5 6 6 7 7 8 8 16 9 17 10 18 11 19 12 9 13
REMARK SMILES IDX 10 14 14 15 11 16 13 17 12 18 15 19
REMARK H PARENT
ROOT
ATOM      1  C   UNL     1      40.896 133.379  21.291  1.00  0.00     0.011 C 
ATOM      2  C   UNL     1      41.968 132.318  21.013  1.00  0.00     0.027 C 
ATOM      3  C   UNL     1      43.037 132.331  22.119  1.00  0.00     0.011 C 
ATOM      4  C   UNL     1      44.027 131.180  21.920  1.00  0.00     0.038 C 
ATOM      5  C   UNL     1      44.540 131.100  20.503  1.00  0.00    -0.023 A 
ATOM      6  C   UNL     1      45.684 130.341  20.229  1.00  0.00     0.008 A 
ATOM      7  C   UNL     1      46.141 130.200  18.919  1.00  0.00     0.029 A 
ATOM      8  C   UNL     1      45.441 130.818  17.870  1.00  0.00     0.075 A 
ATOM      9  N   UNL     1      44.320 131.535  18.158  1.00  0.00    -0.249 NA
ATOM     10  C   UNL     1      43.839 131.680  19.423  1.00  0.00     0.079 A 
ATOM     11  C   UNL     1      42.628 132.552  19.640  1.00  0.00     0.218 C 
ATOM     12  F   UNL     1      41.703 132.309  18.638  1.00  0.00    -0.240 F 
ENDROOT
BRANCH   8  13
ATOM     13  C   UNL     1      45.896 130.703  16.462  1.00  0.00     0.055 A 
ATOM     14  C   UNL     1      46.148 129.447  15.881  1.00  0.00     0.017 A 
ATOM     15  C   UNL     1      46.111 131.854  15.676  1.00  0.00     0.222 A 
ATOM     16  C   UNL     1      46.589 129.357  14.560  1.00  0.00     0.021 A 
ATOM     17  N   UNL     1      46.539 131.735  14.391  1.00  0.00    -0.228 NA
ATOM     18  C   UNL     1      46.780 130.525  13.822  1.00  0.00     0.114 A 
ATOM     19  F   UNL     1      45.872 133.093  16.174  1.00  0.00    -0.184 F 
ENDBRANCH   8  13
TORSDOF 1
ENDMDL
MODEL 6
REMARK VINA RESULT:      -7.3      1.569      2.424
REMARK SMILES C[C@@H]1CCc2ccc(-c3cccnc3F)nc2[C@H]1F
REMARK SMILES IDX 1 1 2 2 3 3 4 4 5 5 6 6 7 7 8 8 16 9 17 10 18 11 19 12 9 13
REMARK SMILES IDX 10 14 14 15 11 16 13 17 12 18 15 19
REMARK H PARENT
ROOT
ATOM      1  C   UNL     1      40.863 133.448  21.128  1.00  0.00     0.011 C 
ATOM      2  C   UNL     1      41.925 132.384  20.826  1.00  0.00     0.027 C 
ATOM      3  C   UNL     1      42.992 132.359  21.933  1.00  0.00     0.011 C 
ATOM      4  C   UNL     1      43.971 131.203  21.707  1.00  0.00     0.038 C 
ATOM      5  C   UNL     1      44.487 131.153  20.289  1.00  0.00    -0.023 A 
ATOM      6  C   UNL     1      45.624 130.391  19.998  1.00  0.00     0.008 A 
ATOM      7  C   UNL     1      46.081 130.279  18.686  1.00  0.00     0.029 A 
ATOM      8  C   UNL     1      45.389 130.930  17.652  1.00  0.00     0.075 A 
ATOM      9  N   UNL     1      44.275 131.650  17.956  1.00  0.00    -0.249 NA
ATOM     10  C   UNL     1      43.793 131.768  19.224  1.00  0.00     0.079 A 
ATOM     11  C   UNL     1      42.591 132.646  19.460  1.00  0.00     0.218 C 
ATOM     12  F   UNL     1      41.665 132.437  18.451  1.00  0.00    -0.240 F 
ENDROOT
BRANCH   8  13
ATOM     13  C   UNL     1      45.846 130.846  16.242  1.00  0.00     0.055 A 
ATOM     14  C   UNL     1      46.370 131.972  15.581  1.00  0.00     0.017 A 
ATOM     15  C   UNL     1      45.744 129.639  15.520  1.00  0.00     0.222 A 
ATOM     16  C   UNL     1      46.782 131.880  14.251  1.00  0.00     0.021 A 
ATOM     17  N   UNL     1      46.156 129.579  14.225  1.00  0.00    -0.228 NA
ATOM     18  C   UNL     1      46.667 130.661  13.582  1.00  0.00     0.114 A 
ATOM     19  F   UNL     1      45.260 128.515  16.105  1.00  0.00    -0.184 F 
ENDBRANCH   8  13
TORSDOF 1
ENDMDL
MODEL 7
REMARK VINA RESULT:      -7.2      1.179      1.386
REMARK SMILES C[C@@H]1CCc2ccc(-c3cccnc3F)nc2[C@H]1F
REMARK SMILES IDX 1 1 2 2 3 3 4 4 5 5 6 6 7 7 8 8 16 9 17 10 18 11 19 12 9 13
REMARK SMILES IDX 10 14 14 15 11 16 13 17 12 18 15 19
REMARK H PARENT
ROOT
ATOM      1  C   UNL     1      44.689 130.752  23.843  1.00  0.00     0.011 C 
ATOM      2  C   UNL     1      44.154 131.462  22.594  1.00  0.00     0.027 C 
ATOM      3  C   UNL     1      42.617 131.438  22.578  1.00  0.00     0.011 C 
ATOM      4  C   UNL     1      42.081 132.269  21.409  1.00  0.00     0.038 C 
ATOM      5  C   UNL     1      42.762 131.936  20.104  1.00  0.00    -0.023 A 
ATOM      6  C   UNL     1      42.176 132.343  18.899  1.00  0.00     0.008 A 
ATOM      7  C   UNL     1      42.818 132.102  17.686  1.00  0.00     0.029 A 
ATOM      8  C   UNL     1      44.064 131.454  17.676  1.00  0.00     0.075 A 
ATOM      9  N   UNL     1      44.624 131.084  18.861  1.00  0.00    -0.249 NA
ATOM     10  C   UNL     1      44.031 131.318  20.064  1.00  0.00     0.079 A 
ATOM     11  C   UNL     1      44.704 130.806  21.312  1.00  0.00     0.218 C 
ATOM     12  F   UNL     1      46.067 131.038  21.225  1.00  0.00    -0.240 F 
ENDROOT
BRANCH   8  13
ATOM     13  C   UNL     1      44.779 131.168  16.407  1.00  0.00     0.055 A 
ATOM     14  C   UNL     1      44.260 131.594  15.171  1.00  0.00     0.017 A 
ATOM     15  C   UNL     1      45.986 130.440  16.406  1.00  0.00     0.222 A 
ATOM     16  C   UNL     1      44.937 131.306  13.985  1.00  0.00     0.021 A 
ATOM     17  N   UNL     1      46.624 130.175  15.234  1.00  0.00    -0.228 NA
ATOM     18  C   UNL     1      46.132 130.587  14.037  1.00  0.00     0.114 A 
ATOM     19  F   UNL     1      46.544 130.014  17.566  1.00  0.00    -0.184 F 
ENDBRANCH   8  13
TORSDOF 1
ENDMDL
MODEL 8
REMARK VINA RESULT:      -6.5      2.015      2.910
REMARK SMILES C[C@@H]1CCc2ccc(-c3cccnc3F)nc2[C@H]1F
REMARK SMILES IDX 1 1 2 2 3 3 4 4 5 5 6 6 7 7 8 8 16 9 17 10 18 11 19 12 9 13
REMARK SMILES IDX 10 14 14 15 11 16 13 17 12 18 15 19
REMARK H PARENT
ROOT
ATOM      1  C   UNL     1      41.461 132.737  23.047  1.00  0.00     0.011 C 
ATOM      2  C   UNL     1      42.457 131.787  22.373  1.00  0.00     0.027 C 
ATOM      3  C   UNL     1      43.757 131.703  23.190  1.00  0.00     0.011 C 
ATOM      4  C   UNL     1      44.696 130.648  22.597  1.00  0.00     0.038 C 
ATOM      5  C   UNL     1      44.860 130.795  21.104  1.00  0.00    -0.023 A 
ATOM      6  C   UNL     1      45.921 130.147  20.462  1.00  0.00     0.008 A 
ATOM      7  C   UNL     1      46.056 130.217  19.076  1.00  0.00     0.029 A 
ATOM      8  C   UNL     1      45.115 130.937  18.323  1.00  0.00     0.075 A 
ATOM      9  N   UNL     1      44.080 131.543  18.966  1.00  0.00    -0.249 NA
ATOM     10  C   UNL     1      43.910 131.482  20.316  1.00  0.00     0.079 A 
ATOM     11  C   UNL     1      42.768 132.247  20.935  1.00  0.00     0.218 C 
ATOM     12  F   UNL     1      41.637 132.096  20.150  1.00  0.00    -0.240 F 
ENDROOT
BRANCH   8  13
ATOM     13  C   UNL     1      45.225 131.046  16.846  1.00  0.00     0.055 A 
ATOM     14  C   UNL     1      46.414 130.698  16.180  1.00  0.00     0.017 A 
ATOM     15  C   UNL     1      44.146 131.526  16.075  1.00  0.00     0.222 A 
ATOM     16  C   UNL     1      46.506 130.820  14.793  1.00  0.00     0.021 A 
ATOM     17  N   UNL     1      44.265 131.632  14.724  1.00  0.00    -0.228 NA
ATOM     18  C   UNL     1      45.408 131.293  14.073  1.00  0.00     0.114 A 
ATOM     19  F   UNL     1      42.969 131.864  16.657  1.00  0.00    -0.184 F 
ENDBRANCH   8  13
TORSDOF 1
ENDMDL


