REMARK SMILES O=C(C(=O)[C@@H]1CCc2nc(-c3ccc4[nH]ccc4c3)[nH+]cc2[C@H]1F)c1ccccc1
REMARK SMILES IDX 5 1 6 2 7 3 8 4 9 5 10 6 20 7 21 8 22 9 23 10 24 11 3 13
REMARK SMILES IDX 4 14 2 15 1 16 25 17 26 18 30 19 27 20 29 21 28 22 11 23
REMARK SMILES IDX 12 24 19 25 13 26 18 27 14 28 17 29 15 30 16 31
REMARK H PARENT 20 12 15 32
ROOT
ATOM      1  C   UNL     1       0.209  -1.497  -0.869  1.00  0.00     0.104 C 
ATOM      2  C   UNL     1      -1.242  -1.101  -0.552  1.00  0.00     0.024 C 
ATOM      3  C   UNL     1      -1.275  -0.069   0.579  1.00  0.00     0.086 C 
ATOM      4  C   UNL     1      -0.329   1.077   0.336  1.00  0.00     0.162 A 
ATOM      5  N   UNL     1      -0.507   2.227   1.036  1.00  0.00    -0.045 NA
ATOM      6  C   UNL     1       0.334   3.288   0.901  1.00  0.00     0.328 A 
ATOM      7  N   UNL     1       1.400   3.193   0.054  1.00  0.00    -0.243 N 
ATOM      8  C   UNL     1       1.626   2.059  -0.660  1.00  0.00     0.208 A 
ATOM      9  C   UNL     1       0.778   0.954  -0.525  1.00  0.00     0.073 A 
ATOM     10  C   UNL     1       0.997  -0.276  -1.381  1.00  0.00     0.215 C 
ATOM     11  F   UNL     1       2.346  -0.589  -1.414  1.00  0.00    -0.241 F 
ATOM     12  H   UNL     1       2.079   3.979  -0.045  1.00  0.00     0.312 HD
ENDROOT
BRANCH   1  13
ATOM     13  C   UNL     1       0.251  -2.616  -1.886  1.00  0.00     0.209 C 
ATOM     14  O   UNL     1      -0.450  -2.527  -2.930  1.00  0.00    -0.290 OA
BRANCH  13  15
ATOM     15  C   UNL     1       1.162  -3.772  -1.712  1.00  0.00     0.228 C 
ATOM     16  O   UNL     1       2.118  -3.681  -0.895  1.00  0.00    -0.285 OA
BRANCH  15  17
ATOM     17  C   UNL     1       1.000  -5.025  -2.488  1.00  0.00     0.026 A 
ATOM     18  C   UNL     1       2.132  -5.788  -2.829  1.00  0.00     0.012 A 
ATOM     19  C   UNL     1      -0.274  -5.493  -2.861  1.00  0.00     0.012 A 
ATOM     20  C   UNL     1       1.993  -6.979  -3.550  1.00  0.00     0.001 A 
ATOM     21  C   UNL     1      -0.408  -6.685  -3.580  1.00  0.00     0.001 A 
ATOM     22  C   UNL     1       0.724  -7.425  -3.928  1.00  0.00     0.000 A 
ENDBRANCH  15  17
ENDBRANCH  13  15
ENDBRANCH   1  13
BRANCH   6  23
ATOM     23  C   UNL     1       0.081   4.519   1.690  1.00  0.00     0.069 A 
ATOM     24  C   UNL     1      -0.593   4.431   2.939  1.00  0.00     0.019 A 
ATOM     25  C   UNL     1       0.477   5.790   1.205  1.00  0.00     0.027 A 
ATOM     26  C   UNL     1      -0.853   5.583   3.703  1.00  0.00     0.027 A 
ATOM     27  C   UNL     1       0.203   6.908   1.989  1.00  0.00     0.000 A 
ATOM     28  C   UNL     1      -0.437   6.809   3.194  1.00  0.00     0.045 A 
ATOM     29  C   UNL     1       0.465   8.243   1.770  1.00  0.00     0.028 A 
ATOM     30  N   UNL     1      -0.592   8.021   3.753  1.00  0.00    -0.361 N 
ATOM     31  C   UNL     1      -0.041   8.901   2.886  1.00  0.00     0.083 A 
ATOM     32  H   UNL     1      -1.046   8.242   4.667  1.00  0.00     0.166 HD
ENDBRANCH   6  23
TORSDOF 4


