REMARK SMILES Cc1c(CCC(O)=C2CCC2)c(F)cc2[nH]c(-c3nc[nH+]cc3F)cc12
REMARK SMILES IDX 4 1 3 2 2 3 26 4 12 5 25 6 15 7 14 8 17 9 16 10 1 11 13 12
REMARK SMILES IDX 18 14 19 15 23 16 20 17 22 18 21 19 24 20 5 22 6 23 7 24
REMARK SMILES IDX 8 26 9 27 11 28 10 29
REMARK H PARENT 16 13 21 21 7 25
ROOT
ATOM      1  C   UNL     1       0.293  -3.181   1.659  1.00  0.00     0.047 C 
ENDROOT
BRANCH   1   2
ATOM      2  C   UNL     1       0.416  -2.492   0.314  1.00  0.00    -0.008 A 
ATOM      3  C   UNL     1       1.108  -1.251   0.154  1.00  0.00    -0.036 A 
ATOM      4  C   UNL     1       1.118  -0.679  -1.131  1.00  0.00     0.004 A 
ATOM      5  C   UNL     1      -0.219  -3.092  -0.809  1.00  0.00     0.128 A 
ATOM      6  C   UNL     1       1.698   0.483  -1.613  1.00  0.00     0.041 A 
ATOM      7  C   UNL     1       0.493  -1.275  -2.195  1.00  0.00     0.049 A 
ATOM      8  C   UNL     1      -0.181  -2.482  -2.070  1.00  0.00     0.066 A 
ATOM      9  C   UNL     1       1.375   0.531  -2.970  1.00  0.00     0.095 A 
ATOM     10  N   UNL     1       0.644  -0.554  -3.317  1.00  0.00    -0.351 N 
ATOM     11  C   UNL     1       1.844  -0.596   1.298  1.00  0.00     0.045 C 
ATOM     12  F   UNL     1      -0.881  -4.270  -0.678  1.00  0.00    -0.207 F 
ATOM     13  H   UNL     1       0.272  -0.788  -4.265  1.00  0.00     0.167 HD
BRANCH   9  14
ATOM     14  C   UNL     1       1.788   1.567  -3.943  1.00  0.00     0.237 A 
ATOM     15  N   UNL     1       1.765   1.257  -5.269  1.00  0.00    -0.044 NA
ATOM     16  C   UNL     1       2.186   2.859  -3.555  1.00  0.00     0.215 A 
ATOM     17  C   UNL     1       2.131   2.158  -6.216  1.00  0.00     0.449 A 
ATOM     18  C   UNL     1       2.559   3.769  -4.545  1.00  0.00     0.241 A 
ATOM     19  N   UNL     1       2.530   3.405  -5.853  1.00  0.00    -0.247 N 
ATOM     20  F   UNL     1       2.174   3.259  -2.260  1.00  0.00    -0.198 F 
ATOM     21  H   UNL     1       2.809   4.093  -6.588  1.00  0.00     0.311 HD
ENDBRANCH   9  14
ENDBRANCH   1   2
BRANCH   1  22
ATOM     22  C   UNL     1      -1.092  -2.968   2.291  1.00  0.00     0.079 C 
BRANCH  22  23
ATOM     23  C   UNL     1      -1.279  -1.553   2.767  1.00  0.00     0.092 C 
BRANCH  23  24
ATOM     24  O   UNL     1      -0.759  -1.161   3.998  1.00  0.00    -0.512 OA
ATOM     25  H   UNL     1      -0.254  -1.813   4.586  1.00  0.00     0.293 HD
ENDBRANCH  23  24
BRANCH  23  26
ATOM     26  C   UNL     1      -1.911  -0.652   2.017  1.00  0.00    -0.033 C 
ATOM     27  C   UNL     1      -2.614  -0.593   0.674  1.00  0.00     0.035 C 
ATOM     28  C   UNL     1      -2.258   0.819   2.122  1.00  0.00     0.035 C 
ATOM     29  C   UNL     1      -2.946   0.859   0.796  1.00  0.00     0.009 C 
ENDBRANCH  23  26
ENDBRANCH  22  23
ENDBRANCH   1  22
TORSDOF 6


