REMARK SMILES O/C(=N\c1cc(F)c(F)cc1[NH2+]c1ccc(F)cc1)[C@H]1C[C@H](O)CN1
REMARK SMILES IDX 3 1 2 2 1 3 20 5 25 6 21 7 24 8 22 9 23 11 4 13 5 14 11 15
REMARK SMILES IDX 6 16 10 17 8 18 7 19 9 20 12 21 13 24 14 25 19 26 15 27
REMARK SMILES IDX 18 28 16 29 17 30
REMARK H PARENT 1 4 25 10 23 12 12 22 12 23
ROOT
ATOM      1  N   UNL     1       0.480  -0.623   0.800  1.00  0.00    -0.210 NA
ENDROOT
BRANCH   1   2
ATOM      2  C   UNL     1      -0.781  -0.484   1.089  1.00  0.00     0.203 C 
BRANCH   2   3
ATOM      3  O   UNL     1      -1.269  -0.836   2.348  1.00  0.00    -0.495 OA
ATOM      4  H   UNL     1      -2.242  -0.703   2.594  1.00  0.00     0.295 HD
ENDBRANCH   2   3
BRANCH   2   5
ATOM      5  C   UNL     1      -1.705   0.135   0.076  1.00  0.00     0.143 C 
ATOM      6  N   UNL     1      -1.435  -0.401  -1.261  1.00  0.00    -0.303 NA
ATOM      7  C   UNL     1      -1.527   1.645   0.005  1.00  0.00     0.062 C 
ATOM      8  C   UNL     1      -1.600   0.699  -2.216  1.00  0.00     0.113 C 
ATOM      9  C   UNL     1      -1.867   1.986  -1.433  1.00  0.00     0.130 C 
ATOM     10  H   UNL     1      -2.135  -1.151  -1.475  1.00  0.00     0.123 HD
BRANCH   9  11
ATOM     11  O   UNL     1      -3.208   2.396  -1.559  1.00  0.00    -0.392 OA
ATOM     12  H   UNL     1      -3.788   1.656  -1.236  1.00  0.00     0.211 HD
ENDBRANCH   9  11
ENDBRANCH   2   5
ENDBRANCH   1   2
BRANCH   1  13
ATOM     13  C   UNL     1       1.489  -1.217   1.632  1.00  0.00     0.131 A 
ATOM     14  C   UNL     1       1.214  -2.366   2.399  1.00  0.00     0.077 A 
ATOM     15  C   UNL     1       2.803  -0.694   1.609  1.00  0.00     0.163 A 
ATOM     16  C   UNL     1       2.218  -2.963   3.164  1.00  0.00     0.161 A 
ATOM     17  C   UNL     1       3.803  -1.313   2.381  1.00  0.00     0.113 A 
ATOM     18  C   UNL     1       3.510  -2.435   3.158  1.00  0.00     0.164 A 
ATOM     19  F   UNL     1       1.940  -4.068   3.899  1.00  0.00    -0.204 F 
ATOM     20  F   UNL     1       4.486  -3.020   3.896  1.00  0.00    -0.204 F 
BRANCH  15  21
ATOM     21  N   UNL     1       3.130   0.458   0.798  1.00  0.00    -0.280 N 
ATOM     22  H   UNL     1       2.372   1.176   0.885  1.00  0.00     0.358 HD
ATOM     23  H   UNL     1       4.008   0.913   1.142  1.00  0.00     0.358 HD
BRANCH  21  24
ATOM     24  C   UNL     1       3.315   0.064  -0.578  1.00  0.00     0.134 A 
ATOM     25  C   UNL     1       4.464  -0.652  -0.964  1.00  0.00     0.071 A 
ATOM     26  C   UNL     1       2.353   0.388  -1.552  1.00  0.00     0.071 A 
ATOM     27  C   UNL     1       4.638  -1.044  -2.294  1.00  0.00     0.045 A 
ATOM     28  C   UNL     1       2.531  -0.008  -2.881  1.00  0.00     0.045 A 
ATOM     29  C   UNL     1       3.672  -0.725  -3.252  1.00  0.00     0.123 A 
ATOM     30  F   UNL     1       3.843  -1.107  -4.542  1.00  0.00    -0.207 F 
ENDBRANCH  21  24
ENDBRANCH  15  21
ENDBRANCH   1  13
TORSDOF 7


