MODEL 1
REMARK VINA RESULT:     -10.1      0.000      0.000
REMARK SMILES O=C1NCc2[nH+]cc(-c3ccc4[nH]ccc4c3)cc21
REMARK SMILES IDX 1 1 2 2 3 3 4 4 5 5 6 6 7 7 8 8 18 9 19 10 9 13 10 14 17 15
REMARK SMILES IDX 11 16 16 17 12 18 15 19 13 20 14 21
REMARK H PARENT 3 11 6 12 13 22
ROOT
ATOM      1  O   UNL     1      41.608 132.996  20.475  1.00  0.00    -0.269 OA
ATOM      2  C   UNL     1      42.500 132.278  20.997  1.00  0.00     0.258 C 
ATOM      3  N   UNL     1      42.534 131.920  22.374  1.00  0.00    -0.342 N 
ATOM      4  C   UNL     1      43.715 131.082  22.609  1.00  0.00     0.225 C 
ATOM      5  C   UNL     1      44.346 130.997  21.250  1.00  0.00     0.211 A 
ATOM      6  N   UNL     1      45.482 130.335  20.914  1.00  0.00    -0.212 N 
ATOM      7  C   UNL     1      45.927 130.362  19.621  1.00  0.00     0.315 A 
ATOM      8  C   UNL     1      45.213 131.075  18.622  1.00  0.00     0.046 A 
ATOM      9  C   UNL     1      44.034 131.758  18.988  1.00  0.00     0.035 A 
ATOM     10  C   UNL     1      43.628 131.697  20.315  1.00  0.00     0.109 A 
ATOM     11  H   UNL     1      41.836 132.205  23.095  1.00  0.00     0.164 HD
ATOM     12  H   UNL     1      46.015 129.804  21.638  1.00  0.00     0.453 HD
ENDROOT
BRANCH   8  13
ATOM     13  C   UNL     1      45.699 131.104  17.219  1.00  0.00    -0.012 A 
ATOM     14  C   UNL     1      45.458 132.239  16.399  1.00  0.00     0.011 A 
ATOM     15  C   UNL     1      46.408 130.001  16.686  1.00  0.00     0.019 A 
ATOM     16  C   UNL     1      45.914 132.278  15.069  1.00  0.00     0.027 A 
ATOM     17  C   UNL     1      46.845 130.075  15.366  1.00  0.00    -0.000 A 
ATOM     18  C   UNL     1      46.608 131.173  14.584  1.00  0.00     0.045 A 
ATOM     19  C   UNL     1      47.549 129.170  14.602  1.00  0.00     0.028 A 
ATOM     20  N   UNL     1      47.127 131.006  13.358  1.00  0.00    -0.361 N 
ATOM     21  C   UNL     1      47.705 129.784  13.363  1.00  0.00     0.083 A 
ATOM     22  H   UNL     1      47.095 131.681  12.561  1.00  0.00     0.166 HD
ENDBRANCH   8  13
TORSDOF 1
ENDMDL
MODEL 2
REMARK VINA RESULT:      -9.0      1.691      2.470
REMARK SMILES O=C1NCc2[nH+]cc(-c3ccc4[nH]ccc4c3)cc21
REMARK SMILES IDX 1 1 2 2 3 3 4 4 5 5 6 6 7 7 8 8 18 9 19 10 9 13 10 14 17 15
REMARK SMILES IDX 11 16 16 17 12 18 15 19 13 20 14 21
REMARK H PARENT 3 11 6 12 13 22
ROOT
ATOM      1  O   UNL     1      44.775 131.214  22.069  1.00  0.00    -0.269 OA
ATOM      2  C   UNL     1      43.829 131.666  21.373  1.00  0.00     0.258 C 
ATOM      3  N   UNL     1      42.663 132.282  21.909  1.00  0.00    -0.342 N 
ATOM      4  C   UNL     1      41.791 132.678  20.799  1.00  0.00     0.225 C 
ATOM      5  C   UNL     1      42.561 132.236  19.589  1.00  0.00     0.211 A 
ATOM      6  N   UNL     1      42.191 132.364  18.290  1.00  0.00    -0.212 N 
ATOM      7  C   UNL     1      43.012 131.900  17.300  1.00  0.00     0.315 A 
ATOM      8  C   UNL     1      44.253 131.284  17.615  1.00  0.00     0.046 A 
ATOM      9  C   UNL     1      44.623 131.158  18.971  1.00  0.00     0.035 A 
ATOM     10  C   UNL     1      43.751 131.648  19.935  1.00  0.00     0.109 A 
ATOM     11  H   UNL     1      42.463 132.427  22.923  1.00  0.00     0.164 HD
ATOM     12  H   UNL     1      41.283 132.817  18.045  1.00  0.00     0.453 HD
ENDROOT
BRANCH   8  13
ATOM     13  C   UNL     1      45.142 130.779  16.538  1.00  0.00    -0.012 A 
ATOM     14  C   UNL     1      45.313 129.381  16.344  1.00  0.00     0.011 A 
ATOM     15  C   UNL     1      45.828 131.686  15.695  1.00  0.00     0.019 A 
ATOM     16  C   UNL     1      46.152 128.892  15.326  1.00  0.00     0.027 A 
ATOM     17  C   UNL     1      46.649 131.165  14.698  1.00  0.00    -0.000 A 
ATOM     18  C   UNL     1      46.807 129.818  14.519  1.00  0.00     0.045 A 
ATOM     19  C   UNL     1      47.419 131.799  13.748  1.00  0.00     0.028 A 
ATOM     20  N   UNL     1      47.643 129.566  13.499  1.00  0.00    -0.361 N 
ATOM     21  C   UNL     1      48.020 130.775  13.023  1.00  0.00     0.083 A 
ATOM     22  H   UNL     1      47.942 128.631  13.142  1.00  0.00     0.166 HD
ENDBRANCH   8  13
TORSDOF 1
ENDMDL
MODEL 3
REMARK VINA RESULT:      -8.9      2.096      6.867
REMARK SMILES O=C1NCc2[nH+]cc(-c3ccc4[nH]ccc4c3)cc21
REMARK SMILES IDX 1 1 2 2 3 3 4 4 5 5 6 6 7 7 8 8 18 9 19 10 9 13 10 14 17 15
REMARK SMILES IDX 11 16 16 17 12 18 15 19 13 20 14 21
REMARK H PARENT 3 11 6 12 13 22
ROOT
ATOM      1  O   UNL     1      43.561 131.794  14.009  1.00  0.00    -0.269 OA
ATOM      2  C   UNL     1      44.603 131.276  14.490  1.00  0.00     0.258 C 
ATOM      3  N   UNL     1      45.679 130.769  13.709  1.00  0.00    -0.342 N 
ATOM      4  C   UNL     1      46.708 130.249  14.614  1.00  0.00     0.225 C 
ATOM      5  C   UNL     1      46.125 130.504  15.973  1.00  0.00     0.211 A 
ATOM      6  N   UNL     1      46.681 130.202  17.174  1.00  0.00    -0.212 N 
ATOM      7  C   UNL     1      46.010 130.499  18.327  1.00  0.00     0.315 A 
ATOM      8  C   UNL     1      44.735 131.123  18.286  1.00  0.00     0.046 A 
ATOM      9  C   UNL     1      44.171 131.430  17.030  1.00  0.00     0.035 A 
ATOM     10  C   UNL     1      44.896 131.106  15.890  1.00  0.00     0.109 A 
ATOM     11  H   UNL     1      45.727 130.768  12.667  1.00  0.00     0.164 HD
ATOM     12  H   UNL     1      47.619 129.746  17.218  1.00  0.00     0.453 HD
ENDROOT
BRANCH   8  13
ATOM     13  C   UNL     1      44.008 131.443  19.540  1.00  0.00    -0.012 A 
ATOM     14  C   UNL     1      42.802 132.195  19.499  1.00  0.00     0.011 A 
ATOM     15  C   UNL     1      44.508 131.003  20.789  1.00  0.00     0.019 A 
ATOM     16  C   UNL     1      42.104 132.505  20.681  1.00  0.00     0.027 A 
ATOM     17  C   UNL     1      43.790 131.326  21.937  1.00  0.00    -0.000 A 
ATOM     18  C   UNL     1      42.630 132.051  21.887  1.00  0.00     0.045 A 
ATOM     19  C   UNL     1      44.034 131.031  23.260  1.00  0.00     0.028 A 
ATOM     20  N   UNL     1      42.127 132.231  23.118  1.00  0.00    -0.361 N 
ATOM     21  C   UNL     1      42.981 131.609  23.962  1.00  0.00     0.083 A 
ATOM     22  H   UNL     1      41.253 132.744  23.375  1.00  0.00     0.166 HD
ENDBRANCH   8  13
TORSDOF 1
ENDMDL
MODEL 4
REMARK VINA RESULT:      -8.2      1.676      2.147
REMARK SMILES O=C1NCc2[nH+]cc(-c3ccc4[nH]ccc4c3)cc21
REMARK SMILES IDX 1 1 2 2 3 3 4 4 5 5 6 6 7 7 8 8 18 9 19 10 9 13 10 14 17 15
REMARK SMILES IDX 11 16 16 17 12 18 15 19 13 20 14 21
REMARK H PARENT 3 11 6 12 13 22
ROOT
ATOM      1  O   UNL     1      45.578 131.419  21.731  1.00  0.00    -0.269 OA
ATOM      2  C   UNL     1      44.452 131.690  21.237  1.00  0.00     0.258 C 
ATOM      3  N   UNL     1      43.307 132.048  22.002  1.00  0.00    -0.342 N 
ATOM      4  C   UNL     1      42.189 132.289  21.085  1.00  0.00     0.225 C 
ATOM      5  C   UNL     1      42.797 132.037  19.736  1.00  0.00     0.211 A 
ATOM      6  N   UNL     1      42.180 132.119  18.531  1.00  0.00    -0.212 N 
ATOM      7  C   UNL     1      42.881 131.851  17.388  1.00  0.00     0.315 A 
ATOM      8  C   UNL     1      44.253 131.487  17.447  1.00  0.00     0.046 A 
ATOM      9  C   UNL     1      44.880 131.407  18.708  1.00  0.00     0.035 A 
ATOM     10  C   UNL     1      44.120 131.690  19.836  1.00  0.00     0.109 A 
ATOM     11  H   UNL     1      43.270 132.126  23.042  1.00  0.00     0.164 HD
ATOM     12  H   UNL     1      41.172 132.387  18.473  1.00  0.00     0.453 HD
ENDROOT
BRANCH   8  13
ATOM     13  C   UNL     1      45.013 131.196  16.204  1.00  0.00    -0.012 A 
ATOM     14  C   UNL     1      44.530 131.644  14.945  1.00  0.00     0.011 A 
ATOM     15  C   UNL     1      46.226 130.468  16.263  1.00  0.00     0.019 A 
ATOM     16  C   UNL     1      45.241 131.374  13.762  1.00  0.00     0.027 A 
ATOM     17  C   UNL     1      46.903 130.221  15.072  1.00  0.00    -0.000 A 
ATOM     18  C   UNL     1      46.430 130.658  13.864  1.00  0.00     0.045 A 
ATOM     19  C   UNL     1      48.086 129.556  14.834  1.00  0.00     0.028 A 
ATOM     20  N   UNL     1      47.256 130.298  12.869  1.00  0.00    -0.361 N 
ATOM     21  C   UNL     1      48.272 129.625  13.457  1.00  0.00     0.083 A 
ATOM     22  H   UNL     1      47.143 130.498  11.850  1.00  0.00     0.166 HD
ENDBRANCH   8  13
TORSDOF 1
ENDMDL
MODEL 5
REMARK VINA RESULT:      -8.0      2.435      7.019
REMARK SMILES O=C1NCc2[nH+]cc(-c3ccc4[nH]ccc4c3)cc21
REMARK SMILES IDX 1 1 2 2 3 3 4 4 5 5 6 6 7 7 8 8 18 9 19 10 9 13 10 14 17 15
REMARK SMILES IDX 11 16 16 17 12 18 15 19 13 20 14 21
REMARK H PARENT 3 11 6 12 13 22
ROOT
ATOM      1  O   UNL     1      47.331 128.054  14.720  1.00  0.00    -0.269 OA
ATOM      2  C   UNL     1      47.276 129.278  14.426  1.00  0.00     0.258 C 
ATOM      3  N   UNL     1      47.880 129.851  13.273  1.00  0.00    -0.342 N 
ATOM      4  C   UNL     1      47.604 131.292  13.269  1.00  0.00     0.225 C 
ATOM      5  C   UNL     1      46.794 131.484  14.517  1.00  0.00     0.211 A 
ATOM      6  N   UNL     1      46.282 132.649  14.991  1.00  0.00    -0.212 N 
ATOM      7  C   UNL     1      45.565 132.652  16.156  1.00  0.00     0.315 A 
ATOM      8  C   UNL     1      45.348 131.449  16.879  1.00  0.00     0.046 A 
ATOM      9  C   UNL     1      45.887 130.247  16.373  1.00  0.00     0.035 A 
ATOM     10  C   UNL     1      46.606 130.301  15.185  1.00  0.00     0.109 A 
ATOM     11  H   UNL     1      48.426 129.334  12.550  1.00  0.00     0.164 HD
ATOM     12  H   UNL     1      46.432 133.540  14.468  1.00  0.00     0.453 HD
ENDROOT
BRANCH   8  13
ATOM     13  C   UNL     1      44.571 131.456  18.144  1.00  0.00    -0.012 A 
ATOM     14  C   UNL     1      43.187 131.780  18.135  1.00  0.00     0.011 A 
ATOM     15  C   UNL     1      45.201 131.139  19.371  1.00  0.00     0.019 A 
ATOM     16  C   UNL     1      42.440 131.789  19.327  1.00  0.00     0.027 A 
ATOM     17  C   UNL     1      44.430 131.157  20.531  1.00  0.00    -0.000 A 
ATOM     18  C   UNL     1      43.098 131.470  20.511  1.00  0.00     0.045 A 
ATOM     19  C   UNL     1      44.771 130.891  21.839  1.00  0.00     0.028 A 
ATOM     20  N   UNL     1      42.577 131.418  21.747  1.00  0.00    -0.361 N 
ATOM     21  C   UNL     1      43.596 131.063  22.563  1.00  0.00     0.083 A 
ATOM     22  H   UNL     1      41.588 131.609  22.025  1.00  0.00     0.166 HD
ENDBRANCH   8  13
TORSDOF 1
ENDMDL
MODEL 6
REMARK VINA RESULT:      -7.9      2.470      7.178
REMARK SMILES O=C1NCc2[nH+]cc(-c3ccc4[nH]ccc4c3)cc21
REMARK SMILES IDX 1 1 2 2 3 3 4 4 5 5 6 6 7 7 8 8 18 9 19 10 9 13 10 14 17 15
REMARK SMILES IDX 11 16 16 17 12 18 15 19 13 20 14 21
REMARK H PARENT 3 11 6 12 13 22
ROOT
ATOM      1  O   UNL     1      48.371 128.969  14.765  1.00  0.00    -0.269 OA
ATOM      2  C   UNL     1      47.500 129.800  14.397  1.00  0.00     0.258 C 
ATOM      3  N   UNL     1      47.326 130.233  13.053  1.00  0.00    -0.342 N 
ATOM      4  C   UNL     1      46.222 131.198  13.012  1.00  0.00     0.225 C 
ATOM      5  C   UNL     1      45.786 131.274  14.447  1.00  0.00     0.211 A 
ATOM      6  N   UNL     1      44.789 132.037  14.961  1.00  0.00    -0.212 N 
ATOM      7  C   UNL     1      44.521 131.992  16.301  1.00  0.00     0.315 A 
ATOM      8  C   UNL     1      45.276 131.155  17.165  1.00  0.00     0.046 A 
ATOM      9  C   UNL     1      46.310 130.368  16.615  1.00  0.00     0.035 A 
ATOM     10  C   UNL     1      46.538 130.452  15.247  1.00  0.00     0.109 A 
ATOM     11  H   UNL     1      47.889 129.917  12.233  1.00  0.00     0.164 HD
ATOM     12  H   UNL     1      44.224 132.655  14.336  1.00  0.00     0.453 HD
ENDROOT
BRANCH   8  13
ATOM     13  C   UNL     1      44.985 131.110  18.621  1.00  0.00    -0.012 A 
ATOM     14  C   UNL     1      45.867 130.437  19.509  1.00  0.00     0.011 A 
ATOM     15  C   UNL     1      43.826 131.738  19.137  1.00  0.00     0.019 A 
ATOM     16  C   UNL     1      45.602 130.389  20.890  1.00  0.00     0.027 A 
ATOM     17  C   UNL     1      43.597 131.670  20.509  1.00  0.00    -0.000 A 
ATOM     18  C   UNL     1      44.452 131.020  21.356  1.00  0.00     0.045 A 
ATOM     19  C   UNL     1      42.572 132.184  21.273  1.00  0.00     0.028 A 
ATOM     20  N   UNL     1      44.018 131.095  22.624  1.00  0.00    -0.361 N 
ATOM     21  C   UNL     1      42.868 131.806  22.579  1.00  0.00     0.083 A 
ATOM     22  H   UNL     1      44.472 130.690  23.473  1.00  0.00     0.166 HD
ENDBRANCH   8  13
TORSDOF 1
ENDMDL
MODEL 7
REMARK VINA RESULT:      -7.8      0.912      1.511
REMARK SMILES O=C1NCc2[nH+]cc(-c3ccc4[nH]ccc4c3)cc21
REMARK SMILES IDX 1 1 2 2 3 3 4 4 5 5 6 6 7 7 8 8 18 9 19 10 9 13 10 14 17 15
REMARK SMILES IDX 11 16 16 17 12 18 15 19 13 20 14 21
REMARK H PARENT 3 11 6 12 13 22
ROOT
ATOM      1  O   UNL     1      41.220 132.904  19.530  1.00  0.00    -0.269 OA
ATOM      2  C   UNL     1      42.148 132.448  20.248  1.00  0.00     0.258 C 
ATOM      3  N   UNL     1      42.153 132.489  21.670  1.00  0.00    -0.342 N 
ATOM      4  C   UNL     1      43.390 131.866  22.151  1.00  0.00     0.225 C 
ATOM      5  C   UNL     1      44.084 131.468  20.882  1.00  0.00     0.211 A 
ATOM      6  N   UNL     1      45.287 130.851  20.764  1.00  0.00    -0.212 N 
ATOM      7  C   UNL     1      45.784 130.561  19.523  1.00  0.00     0.315 A 
ATOM      8  C   UNL     1      45.055 130.900  18.352  1.00  0.00     0.046 A 
ATOM      9  C   UNL     1      43.806 131.542  18.491  1.00  0.00     0.035 A 
ATOM     10  C   UNL     1      43.350 131.812  19.776  1.00  0.00     0.109 A 
ATOM     11  H   UNL     1      41.401 132.894  22.271  1.00  0.00     0.164 HD
ATOM     12  H   UNL     1      45.832 130.594  21.617  1.00  0.00     0.453 HD
ENDROOT
BRANCH   8  13
ATOM     13  C   UNL     1      45.598 130.586  17.006  1.00  0.00    -0.012 A 
ATOM     14  C   UNL     1      45.522 129.262  16.492  1.00  0.00     0.011 A 
ATOM     15  C   UNL     1      46.194 131.602  16.221  1.00  0.00     0.019 A 
ATOM     16  C   UNL     1      46.032 128.953  15.218  1.00  0.00     0.027 A 
ATOM     17  C   UNL     1      46.686 131.259  14.964  1.00  0.00    -0.000 A 
ATOM     18  C   UNL     1      46.609 129.982  14.479  1.00  0.00     0.045 A 
ATOM     19  C   UNL     1      47.301 132.029  14.001  1.00  0.00     0.028 A 
ATOM     20  N   UNL     1      47.149 129.904  13.252  1.00  0.00    -0.361 N 
ATOM     21  C   UNL     1      47.572 131.154  12.954  1.00  0.00     0.083 A 
ATOM     22  H   UNL     1      47.225 129.056  12.647  1.00  0.00     0.166 HD
ENDBRANCH   8  13
TORSDOF 1
ENDMDL
MODEL 8
REMARK VINA RESULT:      -7.8      1.744      2.127
REMARK SMILES O=C1NCc2[nH+]cc(-c3ccc4[nH]ccc4c3)cc21
REMARK SMILES IDX 1 1 2 2 3 3 4 4 5 5 6 6 7 7 8 8 18 9 19 10 9 13 10 14 17 15
REMARK SMILES IDX 11 16 16 17 12 18 15 19 13 20 14 21
REMARK H PARENT 3 11 6 12 13 22
ROOT
ATOM      1  O   UNL     1      45.760 128.437  21.907  1.00  0.00    -0.269 OA
ATOM      2  C   UNL     1      45.001 129.436  21.811  1.00  0.00     0.258 C 
ATOM      3  N   UNL     1      44.164 129.909  22.860  1.00  0.00    -0.342 N 
ATOM      4  C   UNL     1      43.432 131.085  22.379  1.00  0.00     0.225 C 
ATOM      5  C   UNL     1      43.924 131.238  20.970  1.00  0.00     0.211 A 
ATOM      6  N   UNL     1      43.553 132.183  20.070  1.00  0.00    -0.212 N 
ATOM      7  C   UNL     1      44.098 132.179  18.816  1.00  0.00     0.315 A 
ATOM      8  C   UNL     1      45.052 131.195  18.441  1.00  0.00     0.046 A 
ATOM      9  C   UNL     1      45.427 130.219  19.389  1.00  0.00     0.035 A 
ATOM     10  C   UNL     1      44.842 130.271  20.648  1.00  0.00     0.109 A 
ATOM     11  H   UNL     1      44.085 129.489  23.812  1.00  0.00     0.164 HD
ATOM     12  H   UNL     1      42.854 132.913  20.333  1.00  0.00     0.453 HD
ENDROOT
BRANCH   8  13
ATOM     13  C   UNL     1      45.641 131.191  17.079  1.00  0.00    -0.012 A 
ATOM     14  C   UNL     1      45.520 132.334  16.241  1.00  0.00     0.011 A 
ATOM     15  C   UNL     1      46.330 130.051  16.601  1.00  0.00     0.019 A 
ATOM     16  C   UNL     1      46.075 132.342  14.949  1.00  0.00     0.027 A 
ATOM     17  C   UNL     1      46.867 130.096  15.317  1.00  0.00    -0.000 A 
ATOM     18  C   UNL     1      46.745 131.201  14.519  1.00  0.00     0.045 A 
ATOM     19  C   UNL     1      47.578 129.152  14.608  1.00  0.00     0.028 A 
ATOM     20  N   UNL     1      47.344 131.002  13.334  1.00  0.00    -0.361 N 
ATOM     21  C   UNL     1      47.856 129.751  13.383  1.00  0.00     0.083 A 
ATOM     22  H   UNL     1      47.406 131.674  12.536  1.00  0.00     0.166 HD
ENDBRANCH   8  13
TORSDOF 1
ENDMDL
MODEL 9
REMARK VINA RESULT:      -7.7      1.960      2.574
REMARK SMILES O=C1NCc2[nH+]cc(-c3ccc4[nH]ccc4c3)cc21
REMARK SMILES IDX 1 1 2 2 3 3 4 4 5 5 6 6 7 7 8 8 18 9 19 10 9 13 10 14 17 15
REMARK SMILES IDX 11 16 16 17 12 18 15 19 13 20 14 21
REMARK H PARENT 3 11 6 12 13 22
ROOT
ATOM      1  O   UNL     1      45.000 129.264  23.251  1.00  0.00    -0.269 OA
ATOM      2  C   UNL     1      44.145 130.176  23.097  1.00  0.00     0.258 C 
ATOM      3  N   UNL     1      43.363 130.725  24.152  1.00  0.00    -0.342 N 
ATOM      4  C   UNL     1      42.485 131.758  23.592  1.00  0.00     0.225 C 
ATOM      5  C   UNL     1      42.835 131.747  22.133  1.00  0.00     0.211 A 
ATOM      6  N   UNL     1      42.300 132.520  21.155  1.00  0.00    -0.212 N 
ATOM      7  C   UNL     1      42.731 132.381  19.865  1.00  0.00     0.315 A 
ATOM      8  C   UNL     1      43.735 131.433  19.534  1.00  0.00     0.046 A 
ATOM      9  C   UNL     1      44.282 130.636  20.562  1.00  0.00     0.035 A 
ATOM     10  C   UNL     1      43.807 130.820  21.855  1.00  0.00     0.109 A 
ATOM     11  H   UNL     1      43.408 130.441  25.155  1.00  0.00     0.164 HD
ATOM     12  H   UNL     1      41.562 133.223  21.386  1.00  0.00     0.453 HD
ENDROOT
BRANCH   8  13
ATOM     13  C   UNL     1      44.200 131.282  18.132  1.00  0.00    -0.012 A 
ATOM     14  C   UNL     1      43.416 131.782  17.057  1.00  0.00     0.011 A 
ATOM     15  C   UNL     1      45.430 130.638  17.852  1.00  0.00     0.019 A 
ATOM     16  C   UNL     1      43.847 131.646  15.725  1.00  0.00     0.027 A 
ATOM     17  C   UNL     1      45.824 130.522  16.522  1.00  0.00    -0.000 A 
ATOM     18  C   UNL     1      45.062 131.008  15.494  1.00  0.00     0.045 A 
ATOM     19  C   UNL     1      46.953 129.959  15.967  1.00  0.00     0.028 A 
ATOM     20  N   UNL     1      45.653 130.777  14.311  1.00  0.00    -0.361 N 
ATOM     21  C   UNL     1      46.810 130.137  14.594  1.00  0.00     0.083 A 
ATOM     22  H   UNL     1      45.297 131.039  13.365  1.00  0.00     0.166 HD
ENDBRANCH   8  13
TORSDOF 1
ENDMDL


