REMARK SMILES O=C1[N-]C[C@H](C(=O)[N@@H+]2CCC[C@@H](c3ccc4cc(F)ccc4n3)[C@H]2F)[N-]1
REMARK SMILES IDX 8 1 9 2 10 3 11 4 12 5 24 6 25 7 6 9 7 10 5 11 2 12 3 13
REMARK SMILES IDX 26 14 4 15 1 16 13 17 14 18 23 19 15 20 22 21 16 22 21 23
REMARK SMILES IDX 17 24 20 25 18 26 19 27
REMARK H PARENT 8 8
ROOT
ATOM      1  N   UNL     1       0.847  -2.331   0.793  1.00  0.00    -0.244 N 
ATOM      2  C   UNL     1       2.286  -2.698   0.749  1.00  0.00     0.272 C 
ATOM      3  C   UNL     1       3.202  -1.656   1.434  1.00  0.00     0.063 C 
ATOM      4  C   UNL     1       2.547  -0.275   1.486  1.00  0.00     0.025 C 
ATOM      5  C   UNL     1       1.201  -0.324   2.248  1.00  0.00     0.132 C 
ATOM      6  C   UNL     1       0.490  -1.699   2.084  1.00  0.00     0.383 C 
ATOM      7  F   UNL     1      -0.887  -1.553   2.204  1.00  0.00    -0.184 F 
ATOM      8  H   UNL     1       0.667  -1.640   0.027  1.00  0.00     0.359 HD
ENDROOT
BRANCH   1   9
ATOM      9  C   UNL     1       0.032  -3.508   0.541  1.00  0.00     0.298 C 
ATOM     10  O   UNL     1      -0.045  -4.393   1.383  1.00  0.00    -0.232 OA
BRANCH   9  11
ATOM     11  C   UNL     1      -0.721  -3.672  -0.761  1.00  0.00     0.008 C 
ATOM     12  C   UNL     1      -0.318  -2.494  -2.695  1.00  0.00    -0.039 C 
ATOM     13  N   UNL     1      -1.503  -1.911  -2.203  1.00  0.00    -0.670 NA
ATOM     14  N   UNL     1       0.193  -3.529  -1.887  1.00  0.00    -0.657 NA
ATOM     15  C   UNL     1      -1.823  -2.594  -0.958  1.00  0.00    -0.121 C 
ATOM     16  O   UNL     1       0.238  -2.118  -3.759  1.00  0.00    -0.341 OA
ENDBRANCH   9  11
ENDBRANCH   1   9
BRANCH   5  17
ATOM     17  C   UNL     1       0.322   0.826   1.806  1.00  0.00     0.053 A 
ATOM     18  C   UNL     1       0.073   1.912   2.661  1.00  0.00     0.025 A 
ATOM     19  N   UNL     1      -0.219   0.821   0.555  1.00  0.00    -0.252 NA
ATOM     20  C   UNL     1      -0.735   2.964   2.227  1.00  0.00     0.012 A 
ATOM     21  C   UNL     1      -1.009   1.831   0.104  1.00  0.00     0.071 A 
ATOM     22  C   UNL     1      -1.288   2.934   0.941  1.00  0.00     0.003 A 
ATOM     23  C   UNL     1      -1.546   1.780  -1.187  1.00  0.00     0.032 A 
ATOM     24  C   UNL     1      -2.105   3.973   0.472  1.00  0.00     0.049 A 
ATOM     25  C   UNL     1      -2.360   2.820  -1.647  1.00  0.00     0.041 A 
ATOM     26  C   UNL     1      -2.639   3.913  -0.820  1.00  0.00     0.123 A 
ATOM     27  F   UNL     1      -3.429   4.918  -1.272  1.00  0.00    -0.207 F 
ENDBRANCH   5  17
TORSDOF 3


