REMARK SMILES CN/C=C(\O)N1CCC[C@H](Cc2cc3ccccc3[nH]2)C1
REMARK SMILES IDX 6 1 7 2 8 3 9 4 10 5 21 6 4 7 5 8 3 10 2 11 1 13 11 14 12 15
REMARK SMILES IDX 13 16 20 17 14 18 19 19 15 20 18 21 16 22 17 23
REMARK H PARENT 5 9 2 12 20 24
ROOT
ATOM      1  N   UNL     1       0.400  -3.104  -0.964  1.00  0.00    -0.342 N 
ATOM      2  C   UNL     1       1.769  -2.694  -1.317  1.00  0.00     0.119 C 
ATOM      3  C   UNL     1       2.466  -2.050  -0.116  1.00  0.00     0.022 C 
ATOM      4  C   UNL     1       1.678  -0.854   0.452  1.00  0.00     0.007 C 
ATOM      5  C   UNL     1       0.155  -0.913   0.163  1.00  0.00     0.014 C 
ATOM      6  C   UNL     1      -0.339  -2.369   0.074  1.00  0.00     0.123 C 
ENDROOT
BRANCH   1   7
ATOM      7  C   UNL     1      -0.227  -4.233  -1.613  1.00  0.00     0.203 C 
BRANCH   7   8
ATOM      8  O   UNL     1      -1.123  -5.034  -0.902  1.00  0.00    -0.494 OA
ATOM      9  H   UNL     1      -1.313  -4.883   0.080  1.00  0.00     0.295 HD
ENDBRANCH   7   8
BRANCH   7  10
ATOM     10  C   UNL     1       0.030  -4.517  -2.898  1.00  0.00     0.144 C 
BRANCH  10  11
ATOM     11  N   UNL     1      -0.578  -5.635  -3.558  1.00  0.00    -0.390 N 
ATOM     12  H   UNL     1      -1.234  -6.270  -3.049  1.00  0.00     0.159 HD
ATOM     13  C   UNL     1      -0.289  -5.910  -4.958  1.00  0.00     0.139 C 
ENDBRANCH  10  11
ENDBRANCH   7  10
ENDBRANCH   1   7
BRANCH   5  14
ATOM     14  C   UNL     1      -0.658  -0.129   1.212  1.00  0.00     0.059 C 
BRANCH  14  15
ATOM     15  C   UNL     1      -0.315   1.331   1.195  1.00  0.00     0.016 A 
ATOM     16  C   UNL     1       0.546   1.964   2.090  1.00  0.00     0.031 A 
ATOM     17  N   UNL     1      -0.755   2.193   0.248  1.00  0.00    -0.358 N 
ATOM     18  C   UNL     1       0.610   3.269   1.654  1.00  0.00    -0.000 A 
ATOM     19  C   UNL     1      -0.185   3.373   0.542  1.00  0.00     0.046 A 
ATOM     20  C   UNL     1       1.321   4.358   2.154  1.00  0.00     0.010 A 
ATOM     21  C   UNL     1      -0.325   4.577  -0.149  1.00  0.00     0.026 A 
ATOM     22  C   UNL     1       1.197   5.587   1.480  1.00  0.00     0.001 A 
ATOM     23  C   UNL     1       0.378   5.696   0.334  1.00  0.00     0.002 A 
ATOM     24  H   UNL     1      -1.392   1.981  -0.552  1.00  0.00     0.166 HD
ENDBRANCH  14  15
ENDBRANCH   5  14
TORSDOF 6


