REMARK SMILES C=C1C(=O)OC[C@H]1C(=O)N(N)c1cccc2cc3ccccc3cc12
REMARK SMILES IDX 8 1 9 2 7 3 2 4 3 5 5 6 6 7 1 8 4 9 10 10 11 11 12 14 13 15
REMARK SMILES IDX 25 16 14 17 24 18 16 19 15 20 23 21 17 22 22 23 18 24 21 25
REMARK SMILES IDX 19 26 20 27
REMARK H PARENT 11 12 11 13
ROOT
ATOM      1  C   UNL     1       0.841   1.056   1.504  1.00  0.00     0.252 C 
ATOM      2  O   UNL     1       1.951   1.150   2.097  1.00  0.00    -0.272 OA
ENDROOT
BRANCH   1   3
ATOM      3  C   UNL     1      -0.333   0.436   2.236  1.00  0.00     0.155 C 
ATOM      4  C   UNL     1       0.085  -0.743   3.059  1.00  0.00     0.046 C 
ATOM      5  C   UNL     1      -0.212  -0.447   4.437  1.00  0.00     0.334 C 
ATOM      6  O   UNL     1      -0.789   0.798   4.553  1.00  0.00    -0.461 OA
ATOM      7  C   UNL     1      -0.932   1.422   3.279  1.00  0.00     0.251 C 
ATOM      8  C   UNL     1       0.587  -1.886   2.592  1.00  0.00     0.021 C 
ATOM      9  O   UNL     1       0.010  -1.207   5.416  1.00  0.00    -0.247 OA
ENDBRANCH   1   3
BRANCH   1  10
ATOM     10  N   UNL     1       0.706   1.601   0.178  1.00  0.00    -0.247 N 
BRANCH  10  11
ATOM     11  N   UNL     1       1.800   2.272  -0.396  1.00  0.00    -0.241 NA
ATOM     12  H   UNL     1       1.545   3.282  -0.480  1.00  0.00     0.144 HD
ATOM     13  H   UNL     1       1.933   1.897  -1.363  1.00  0.00     0.144 HD
ENDBRANCH  10  11
BRANCH  10  14
ATOM     14  C   UNL     1      -0.541   1.552  -0.534  1.00  0.00     0.068 A 
ATOM     15  C   UNL     1      -1.370   2.681  -0.532  1.00  0.00     0.028 A 
ATOM     16  C   UNL     1      -0.945   0.385  -1.224  1.00  0.00     0.008 A 
ATOM     17  C   UNL     1      -2.596   2.660  -1.197  1.00  0.00     0.003 A 
ATOM     18  C   UNL     1      -0.133  -0.764  -1.255  1.00  0.00     0.019 A 
ATOM     19  C   UNL     1      -2.196   0.370  -1.891  1.00  0.00    -0.016 A 
ATOM     20  C   UNL     1      -3.011   1.512  -1.872  1.00  0.00     0.009 A 
ATOM     21  C   UNL     1      -0.559  -1.920  -1.924  1.00  0.00    -0.018 A 
ATOM     22  C   UNL     1      -2.618  -0.785  -2.566  1.00  0.00     0.017 A 
ATOM     23  C   UNL     1       0.246  -3.070  -1.943  1.00  0.00     0.009 A 
ATOM     24  C   UNL     1      -1.810  -1.931  -2.585  1.00  0.00    -0.018 A 
ATOM     25  C   UNL     1      -0.186  -4.219  -2.612  1.00  0.00     0.001 A 
ATOM     26  C   UNL     1      -2.232  -3.091  -3.254  1.00  0.00     0.009 A 
ATOM     27  C   UNL     1      -1.421  -4.229  -3.265  1.00  0.00     0.001 A 
ENDBRANCH  10  14
ENDBRANCH   1  10
TORSDOF 4


