REMARK SMILES CS[C@@H](C)C(=O)Oc1cc(-c2cccc3ncoc23)cc(C)c1F
REMARK SMILES IDX 5 1 6 2 3 3 4 4 2 5 1 6 7 7 8 8 9 9 23 10 10 11 21 12 20 13
REMARK SMILES IDX 24 14 22 15 11 16 12 17 19 18 13 19 18 20 15 21 14 22 17 23
REMARK SMILES IDX 16 24
REMARK H PARENT
ROOT
ATOM      1  C   UNL     1      -0.818   2.169  -2.800  1.00  0.00     0.324 C 
ATOM      2  O   UNL     1      -0.145   3.227  -2.942  1.00  0.00    -0.250 OA
ENDROOT
BRANCH   1   3
ATOM      3  C   UNL     1      -1.653   1.663  -3.937  1.00  0.00     0.153 C 
ATOM      4  C   UNL     1      -3.107   1.506  -3.491  1.00  0.00     0.032 C 
BRANCH   3   5
ATOM      5  S   UNL     1      -0.979   0.054  -4.493  1.00  0.00    -0.150 SA
ATOM      6  C   UNL     1      -1.543   0.188  -6.221  1.00  0.00     0.086 C 
ENDBRANCH   3   5
ENDBRANCH   1   3
BRANCH   1   7
ATOM      7  O   UNL     1      -0.743   1.427  -1.613  1.00  0.00    -0.423 OA
BRANCH   7   8
ATOM      8  C   UNL     1      -0.220   1.909  -0.406  1.00  0.00     0.167 A 
ATOM      9  C   UNL     1       0.556   1.046   0.374  1.00  0.00     0.059 A 
ATOM     10  C   UNL     1      -0.490   3.211   0.058  1.00  0.00     0.168 A 
ATOM     11  C   UNL     1       1.096   1.471   1.599  1.00  0.00    -0.010 A 
ATOM     12  C   UNL     1       0.059   3.655   1.271  1.00  0.00    -0.011 A 
ATOM     13  C   UNL     1       0.845   2.782   2.038  1.00  0.00     0.015 A 
ATOM     14  F   UNL     1      -1.329   4.023  -0.636  1.00  0.00    -0.203 F 
ATOM     15  C   UNL     1      -0.246   5.036   1.777  1.00  0.00     0.048 C 
BRANCH  11  16
ATOM     16  C   UNL     1       1.923   0.547   2.413  1.00  0.00     0.027 A 
ATOM     17  C   UNL     1       2.885  -0.303   1.816  1.00  0.00     0.013 A 
ATOM     18  C   UNL     1       1.790   0.465   3.806  1.00  0.00     0.162 A 
ATOM     19  C   UNL     1       3.667  -1.177   2.605  1.00  0.00     0.003 A 
ATOM     20  O   UNL     1       0.975   1.110   4.598  1.00  0.00    -0.443 OA
ATOM     21  C   UNL     1       2.545  -0.379   4.563  1.00  0.00     0.110 A 
ATOM     22  C   UNL     1       3.500  -1.221   4.001  1.00  0.00     0.032 A 
ATOM     23  C   UNL     1       1.230   0.673   5.820  1.00  0.00     0.309 A 
ATOM     24  N   UNL     1       2.210  -0.267   5.859  1.00  0.00    -0.217 NA
ENDBRANCH  11  16
ENDBRANCH   7   8
ENDBRANCH   1   7
TORSDOF 5


