REMARK SMILES Nc1cccc([NH2+]c2cc(F)cc3cc[nH]c23)c1[O-]
REMARK SMILES IDX 2 1 3 2 4 3 5 4 6 5 18 6 19 7 1 8 7 11 8 14 9 15 17 16 10 17
REMARK SMILES IDX 16 18 13 19 12 20 15 21 14 22 11 23
REMARK H PARENT 1 9 1 10 7 12 7 13 16 24
ROOT
ATOM      1  C   UNL     1       0.298   1.226  -2.852  1.00  0.00     0.029 A 
ATOM      2  C   UNL     1       1.495   0.898  -3.501  1.00  0.00     0.025 A 
ATOM      3  C   UNL     1       2.094  -0.344  -3.291  1.00  0.00     0.008 A 
ATOM      4  C   UNL     1       1.504  -1.270  -2.430  1.00  0.00     0.067 A 
ATOM      5  C   UNL     1       0.300  -0.966  -1.768  1.00  0.00     0.128 A 
ATOM      6  C   UNL     1      -0.301   0.294  -1.983  1.00  0.00    -0.021 A 
ATOM      7  O   UNL     1      -1.489   0.617  -1.338  1.00  0.00    -0.867 OA
ENDROOT
BRANCH   1   8
ATOM      8  N   UNL     1      -0.304   2.506  -3.078  1.00  0.00    -0.399 N 
ATOM      9  H   UNL     1       0.141   3.197  -3.722  1.00  0.00     0.156 HD
ATOM     10  H   UNL     1      -1.195   2.779  -2.607  1.00  0.00     0.156 HD
ENDBRANCH   1   8
BRANCH   5  11
ATOM     11  N   UNL     1      -0.286  -1.924  -0.859  1.00  0.00    -0.280 N 
ATOM     12  H   UNL     1      -1.322  -1.944  -0.988  1.00  0.00     0.358 HD
ATOM     13  H   UNL     1       0.052  -2.890  -1.083  1.00  0.00     0.358 HD
BRANCH  11  14
ATOM     14  C   UNL     1       0.082  -1.610   0.501  1.00  0.00     0.161 A 
ATOM     15  C   UNL     1       1.409  -1.818   0.951  1.00  0.00     0.109 A 
ATOM     16  C   UNL     1      -0.835  -1.088   1.435  1.00  0.00     0.108 A 
ATOM     17  C   UNL     1       1.787  -1.497   2.272  1.00  0.00     0.129 A 
ATOM     18  N   UNL     1      -2.147  -0.829   1.268  1.00  0.00    -0.356 N 
ATOM     19  C   UNL     1      -0.454  -0.780   2.718  1.00  0.00     0.008 A 
ATOM     20  C   UNL     1       0.848  -0.968   3.171  1.00  0.00     0.050 A 
ATOM     21  C   UNL     1      -2.590  -0.348   2.451  1.00  0.00     0.083 A 
ATOM     22  C   UNL     1      -1.561  -0.302   3.382  1.00  0.00     0.028 A 
ATOM     23  F   UNL     1       3.065  -1.702   2.675  1.00  0.00    -0.207 F 
ATOM     24  H   UNL     1      -2.731  -0.970   0.415  1.00  0.00     0.166 HD
ENDBRANCH  11  14
ENDBRANCH   5  11
TORSDOF 3


