MODEL 1
REMARK VINA RESULT:     -10.1      0.000      0.000
REMARK SMILES C=Cc1ccc(-c2cccc3ccoc23)nc1
REMARK SMILES IDX 3 1 4 2 5 3 6 4 16 5 17 6 2 7 1 8 7 9 8 10 15 11 9 12 14 13
REMARK SMILES IDX 11 14 10 15 13 16 12 17
REMARK H PARENT
ROOT
ATOM      1  C   UNL     1      46.358 130.672  14.748  1.00  0.00    -0.008 A 
ATOM      2  C   UNL     1      46.000 131.949  15.199  1.00  0.00     0.012 A 
ATOM      3  C   UNL     1      45.546 132.144  16.505  1.00  0.00     0.030 A 
ATOM      4  C   UNL     1      45.444 131.049  17.383  1.00  0.00     0.074 A 
ATOM      5  N   UNL     1      45.800 129.819  16.917  1.00  0.00    -0.255 NA
ATOM      6  C   UNL     1      46.245 129.601  15.651  1.00  0.00     0.119 A 
ENDROOT
BRANCH   1   7
ATOM      7  C   UNL     1      46.836 130.518  13.349  1.00  0.00     0.002 C 
ATOM      8  C   UNL     1      47.885 131.153  12.826  1.00  0.00     0.009 C 
ENDBRANCH   1   7
BRANCH   4   9
ATOM      9  C   UNL     1      44.967 131.164  18.801  1.00  0.00     0.043 A 
ATOM     10  C   UNL     1      45.797 130.701  19.858  1.00  0.00     0.014 A 
ATOM     11  C   UNL     1      43.722 131.711  19.187  1.00  0.00     0.143 A 
ATOM     12  C   UNL     1      45.392 130.787  21.205  1.00  0.00     0.002 A 
ATOM     13  O   UNL     1      42.770 132.207  18.433  1.00  0.00    -0.464 OA
ATOM     14  C   UNL     1      43.341 131.788  20.504  1.00  0.00     0.021 A 
ATOM     15  C   UNL     1      44.148 131.338  21.541  1.00  0.00     0.012 A 
ATOM     16  C   UNL     1      41.783 132.605  19.212  1.00  0.00     0.196 A 
ATOM     17  C   UNL     1      42.093 132.363  20.542  1.00  0.00     0.050 A 
ENDBRANCH   4   9
TORSDOF 2
ENDMDL
MODEL 2
REMARK VINA RESULT:     -10.0      0.697      1.161
REMARK SMILES C=Cc1ccc(-c2cccc3ccoc23)nc1
REMARK SMILES IDX 3 1 4 2 5 3 6 4 16 5 17 6 2 7 1 8 7 9 8 10 15 11 9 12 14 13
REMARK SMILES IDX 11 14 10 15 13 16 12 17
REMARK H PARENT
ROOT
ATOM      1  C   UNL     1      46.303 130.989  14.770  1.00  0.00    -0.008 A 
ATOM      2  C   UNL     1      46.589 129.913  15.619  1.00  0.00     0.012 A 
ATOM      3  C   UNL     1      46.179 129.926  16.953  1.00  0.00     0.030 A 
ATOM      4  C   UNL     1      45.470 131.033  17.458  1.00  0.00     0.074 A 
ATOM      5  N   UNL     1      45.205 132.065  16.608  1.00  0.00    -0.255 NA
ATOM      6  C   UNL     1      45.593 132.077  15.306  1.00  0.00     0.119 A 
ENDROOT
BRANCH   1   7
ATOM      7  C   UNL     1      46.762 130.925  13.358  1.00  0.00     0.002 C 
ATOM      8  C   UNL     1      48.027 130.760  12.973  1.00  0.00     0.009 C 
ENDBRANCH   1   7
BRANCH   4   9
ATOM      9  C   UNL     1      44.990 131.135  18.876  1.00  0.00     0.043 A 
ATOM     10  C   UNL     1      45.808 130.640  19.927  1.00  0.00     0.014 A 
ATOM     11  C   UNL     1      43.755 131.701  19.267  1.00  0.00     0.143 A 
ATOM     12  C   UNL     1      45.400 130.714  21.275  1.00  0.00     0.002 A 
ATOM     13  O   UNL     1      42.816 132.227  18.517  1.00  0.00    -0.464 OA
ATOM     14  C   UNL     1      43.372 131.766  20.584  1.00  0.00     0.021 A 
ATOM     15  C   UNL     1      44.167 131.284  21.615  1.00  0.00     0.012 A 
ATOM     16  C   UNL     1      41.835 132.632  19.300  1.00  0.00     0.196 A 
ATOM     17  C   UNL     1      42.135 132.364  20.627  1.00  0.00     0.050 A 
ENDBRANCH   4   9
TORSDOF 2
ENDMDL
MODEL 3
REMARK VINA RESULT:      -9.7      1.101      2.235
REMARK SMILES C=Cc1ccc(-c2cccc3ccoc23)nc1
REMARK SMILES IDX 3 1 4 2 5 3 6 4 16 5 17 6 2 7 1 8 7 9 8 10 15 11 9 12 14 13
REMARK SMILES IDX 11 14 10 15 13 16 12 17
REMARK H PARENT
ROOT
ATOM      1  C   UNL     1      46.756 130.497  14.648  1.00  0.00    -0.008 A 
ATOM      2  C   UNL     1      46.452 131.841  14.897  1.00  0.00     0.012 A 
ATOM      3  C   UNL     1      45.633 132.202  15.968  1.00  0.00     0.030 A 
ATOM      4  C   UNL     1      45.102 131.206  16.811  1.00  0.00     0.074 A 
ATOM      5  N   UNL     1      45.415 129.907  16.544  1.00  0.00    -0.255 NA
ATOM      6  C   UNL     1      46.210 129.530  15.509  1.00  0.00     0.119 A 
ENDROOT
BRANCH   1   7
ATOM      7  C   UNL     1      47.634 130.167  13.495  1.00  0.00     0.002 C 
ATOM      8  C   UNL     1      47.935 131.003  12.501  1.00  0.00     0.009 C 
ENDBRANCH   1   7
BRANCH   4   9
ATOM      9  C   UNL     1      44.213 131.499  17.984  1.00  0.00     0.043 A 
ATOM     10  C   UNL     1      42.873 131.916  17.759  1.00  0.00     0.014 A 
ATOM     11  C   UNL     1      44.608 131.392  19.337  1.00  0.00     0.143 A 
ATOM     12  C   UNL     1      42.001 132.202  18.828  1.00  0.00     0.002 A 
ATOM     13  O   UNL     1      45.769 131.035  19.830  1.00  0.00    -0.464 OA
ATOM     14  C   UNL     1      43.746 131.674  20.369  1.00  0.00     0.021 A 
ATOM     15  C   UNL     1      42.436 132.081  20.154  1.00  0.00     0.012 A 
ATOM     16  C   UNL     1      45.695 131.074  21.147  1.00  0.00     0.196 A 
ATOM     17  C   UNL     1      44.428 131.475  21.545  1.00  0.00     0.050 A 
ENDBRANCH   4   9
TORSDOF 2
ENDMDL
MODEL 4
REMARK VINA RESULT:      -9.7      1.362      2.555
REMARK SMILES C=Cc1ccc(-c2cccc3ccoc23)nc1
REMARK SMILES IDX 3 1 4 2 5 3 6 4 16 5 17 6 2 7 1 8 7 9 8 10 15 11 9 12 14 13
REMARK SMILES IDX 11 14 10 15 13 16 12 17
REMARK H PARENT
ROOT
ATOM      1  C   UNL     1      46.819 130.742  14.593  1.00  0.00    -0.008 A 
ATOM      2  C   UNL     1      46.509 129.683  15.455  1.00  0.00     0.012 A 
ATOM      3  C   UNL     1      45.687 129.882  16.565  1.00  0.00     0.030 A 
ATOM      4  C   UNL     1      45.160 131.161  16.827  1.00  0.00     0.074 A 
ATOM      5  N   UNL     1      45.479 132.173  15.971  1.00  0.00    -0.255 NA
ATOM      6  C   UNL     1      46.276 132.005  14.883  1.00  0.00     0.119 A 
ENDROOT
BRANCH   1   7
ATOM      7  C   UNL     1      47.699 130.476  13.424  1.00  0.00     0.002 C 
ATOM      8  C   UNL     1      48.518 129.431  13.308  1.00  0.00     0.009 C 
ENDBRANCH   1   7
BRANCH   4   9
ATOM      9  C   UNL     1      44.270 131.470  17.995  1.00  0.00     0.043 A 
ATOM     10  C   UNL     1      42.928 131.874  17.763  1.00  0.00     0.014 A 
ATOM     11  C   UNL     1      44.666 131.388  19.350  1.00  0.00     0.143 A 
ATOM     12  C   UNL     1      42.054 132.174  18.827  1.00  0.00     0.002 A 
ATOM     13  O   UNL     1      45.830 131.048  19.849  1.00  0.00    -0.464 OA
ATOM     14  C   UNL     1      43.803 131.684  20.376  1.00  0.00     0.021 A 
ATOM     15  C   UNL     1      42.490 132.079  20.155  1.00  0.00     0.012 A 
ATOM     16  C   UNL     1      45.755 131.110  21.165  1.00  0.00     0.196 A 
ATOM     17  C   UNL     1      44.486 131.510  21.556  1.00  0.00     0.050 A 
ENDBRANCH   4   9
TORSDOF 2
ENDMDL
MODEL 5
REMARK VINA RESULT:      -7.7      1.566      2.772
REMARK SMILES C=Cc1ccc(-c2cccc3ccoc23)nc1
REMARK SMILES IDX 3 1 4 2 5 3 6 4 16 5 17 6 2 7 1 8 7 9 8 10 15 11 9 12 14 13
REMARK SMILES IDX 11 14 10 15 13 16 12 17
REMARK H PARENT
ROOT
ATOM      1  C   UNL     1      45.187 130.960  15.580  1.00  0.00    -0.008 A 
ATOM      2  C   UNL     1      45.959 130.798  16.737  1.00  0.00     0.012 A 
ATOM      3  C   UNL     1      45.415 131.042  17.999  1.00  0.00     0.030 A 
ATOM      4  C   UNL     1      44.075 131.457  18.117  1.00  0.00     0.074 A 
ATOM      5  N   UNL     1      43.348 131.607  16.974  1.00  0.00    -0.255 NA
ATOM      6  C   UNL     1      43.853 131.375  15.734  1.00  0.00     0.119 A 
ENDROOT
BRANCH   1   7
ATOM      7  C   UNL     1      45.814 130.687  14.260  1.00  0.00     0.002 C 
ATOM      8  C   UNL     1      47.008 131.138  13.874  1.00  0.00     0.009 C 
ENDBRANCH   1   7
BRANCH   4   9
ATOM      9  C   UNL     1      43.407 131.743  19.430  1.00  0.00     0.043 A 
ATOM     10  C   UNL     1      42.277 132.605  19.466  1.00  0.00     0.014 A 
ATOM     11  C   UNL     1      43.818 131.210  20.673  1.00  0.00     0.143 A 
ATOM     12  C   UNL     1      41.616 132.903  20.675  1.00  0.00     0.002 A 
ATOM     13  O   UNL     1      44.815 130.398  20.932  1.00  0.00    -0.464 OA
ATOM     14  C   UNL     1      43.164 131.509  21.843  1.00  0.00     0.021 A 
ATOM     15  C   UNL     1      42.060 132.350  21.884  1.00  0.00     0.012 A 
ATOM     16  C   UNL     1      44.834 130.159  22.229  1.00  0.00     0.196 A 
ATOM     17  C   UNL     1      43.803 130.840  22.859  1.00  0.00     0.050 A 
ENDBRANCH   4   9
TORSDOF 2
ENDMDL
MODEL 6
REMARK VINA RESULT:      -7.6      1.944      6.368
REMARK SMILES C=Cc1ccc(-c2cccc3ccoc23)nc1
REMARK SMILES IDX 3 1 4 2 5 3 6 4 16 5 17 6 2 7 1 8 7 9 8 10 15 11 9 12 14 13
REMARK SMILES IDX 11 14 10 15 13 16 12 17
REMARK H PARENT
ROOT
ATOM      1  C   UNL     1      44.594 131.289  21.000  1.00  0.00    -0.008 A 
ATOM      2  C   UNL     1      45.677 130.661  20.375  1.00  0.00     0.012 A 
ATOM      3  C   UNL     1      45.760 130.595  18.983  1.00  0.00     0.030 A 
ATOM      4  C   UNL     1      44.743 131.164  18.192  1.00  0.00     0.074 A 
ATOM      5  N   UNL     1      43.701 131.770  18.828  1.00  0.00    -0.255 NA
ATOM      6  C   UNL     1      43.597 131.847  20.181  1.00  0.00     0.119 A 
ENDROOT
BRANCH   1   7
ATOM      7  C   UNL     1      44.554 131.332  22.485  1.00  0.00     0.002 C 
ATOM      8  C   UNL     1      43.443 131.419  23.217  1.00  0.00     0.009 C 
ENDBRANCH   1   7
BRANCH   4   9
ATOM      9  C   UNL     1      44.747 131.141  16.692  1.00  0.00     0.043 A 
ATOM     10  C   UNL     1      43.662 131.722  15.982  1.00  0.00     0.014 A 
ATOM     11  C   UNL     1      45.771 130.573  15.900  1.00  0.00     0.143 A 
ATOM     12  C   UNL     1      43.621 131.725  14.573  1.00  0.00     0.002 A 
ATOM     13  O   UNL     1      46.875 129.977  16.284  1.00  0.00    -0.464 OA
ATOM     14  C   UNL     1      45.717 130.583  14.528  1.00  0.00     0.021 A 
ATOM     15  C   UNL     1      44.659 131.150  13.829  1.00  0.00     0.012 A 
ATOM     16  C   UNL     1      47.541 129.599  15.211  1.00  0.00     0.196 A 
ATOM     17  C   UNL     1      46.850 129.960  14.064  1.00  0.00     0.050 A 
ENDBRANCH   4   9
TORSDOF 2
ENDMDL
MODEL 7
REMARK VINA RESULT:      -7.4      1.804      6.307
REMARK SMILES C=Cc1ccc(-c2cccc3ccoc23)nc1
REMARK SMILES IDX 3 1 4 2 5 3 6 4 16 5 17 6 2 7 1 8 7 9 8 10 15 11 9 12 14 13
REMARK SMILES IDX 11 14 10 15 13 16 12 17
REMARK H PARENT
ROOT
ATOM      1  C   UNL     1      44.455 131.335  21.076  1.00  0.00    -0.008 A 
ATOM      2  C   UNL     1      43.360 131.801  20.340  1.00  0.00     0.012 A 
ATOM      3  C   UNL     1      43.373 131.772  18.944  1.00  0.00     0.030 A 
ATOM      4  C   UNL     1      44.498 131.269  18.263  1.00  0.00     0.074 A 
ATOM      5  N   UNL     1      45.549 130.822  19.007  1.00  0.00    -0.255 NA
ATOM      6  C   UNL     1      45.562 130.839  20.366  1.00  0.00     0.119 A 
ENDROOT
BRANCH   1   7
ATOM      7  C   UNL     1      44.391 131.388  22.560  1.00  0.00     0.002 C 
ATOM      8  C   UNL     1      43.274 131.547  23.271  1.00  0.00     0.009 C 
ENDBRANCH   1   7
BRANCH   4   9
ATOM      9  C   UNL     1      44.601 131.199  16.768  1.00  0.00     0.043 A 
ATOM     10  C   UNL     1      43.585 131.788  15.969  1.00  0.00     0.014 A 
ATOM     11  C   UNL     1      45.658 130.577  16.065  1.00  0.00     0.143 A 
ATOM     12  C   UNL     1      43.638 131.748  14.561  1.00  0.00     0.002 A 
ATOM     13  O   UNL     1      46.714 129.961  16.540  1.00  0.00    -0.464 OA
ATOM     14  C   UNL     1      45.696 130.545  14.692  1.00  0.00     0.021 A 
ATOM     15  C   UNL     1      44.706 131.120  13.906  1.00  0.00     0.012 A 
ATOM     16  C   UNL     1      47.439 129.531  15.525  1.00  0.00     0.196 A 
ATOM     17  C   UNL     1      46.838 129.875  14.324  1.00  0.00     0.050 A 
ENDBRANCH   4   9
TORSDOF 2
ENDMDL
MODEL 8
REMARK VINA RESULT:      -7.2      1.755      5.989
REMARK SMILES C=Cc1ccc(-c2cccc3ccoc23)nc1
REMARK SMILES IDX 3 1 4 2 5 3 6 4 16 5 17 6 2 7 1 8 7 9 8 10 15 11 9 12 14 13
REMARK SMILES IDX 11 14 10 15 13 16 12 17
REMARK H PARENT
ROOT
ATOM      1  C   UNL     1      43.403 131.739  20.913  1.00  0.00    -0.008 A 
ATOM      2  C   UNL     1      44.724 131.281  20.843  1.00  0.00     0.012 A 
ATOM      3  C   UNL     1      45.309 130.974  19.613  1.00  0.00     0.030 A 
ATOM      4  C   UNL     1      44.567 131.123  18.426  1.00  0.00     0.074 A 
ATOM      5  N   UNL     1      43.283 131.571  18.526  1.00  0.00    -0.255 NA
ATOM      6  C   UNL     1      42.690 131.877  19.710  1.00  0.00     0.119 A 
ENDROOT
BRANCH   1   7
ATOM      7  C   UNL     1      42.827 132.052  22.247  1.00  0.00     0.002 C 
ATOM      8  C   UNL     1      43.348 131.668  23.413  1.00  0.00     0.009 C 
ENDBRANCH   1   7
BRANCH   4   9
ATOM      9  C   UNL     1      45.112 130.818  17.062  1.00  0.00     0.043 A 
ATOM     10  C   UNL     1      46.354 130.139  16.942  1.00  0.00     0.014 A 
ATOM     11  C   UNL     1      44.473 131.158  15.848  1.00  0.00     0.143 A 
ATOM     12  C   UNL     1      46.906 129.830  15.682  1.00  0.00     0.002 A 
ATOM     13  O   UNL     1      43.333 131.780  15.663  1.00  0.00    -0.464 OA
ATOM     14  C   UNL     1      45.023 130.850  14.628  1.00  0.00     0.021 A 
ATOM     15  C   UNL     1      46.237 130.187  14.504  1.00  0.00     0.012 A 
ATOM     16  C   UNL     1      43.121 131.887  14.365  1.00  0.00     0.196 A 
ATOM     17  C   UNL     1      44.166 131.312  13.658  1.00  0.00     0.050 A 
ENDBRANCH   4   9
TORSDOF 2
ENDMDL


