MODEL 1
REMARK VINA RESULT:      -5.5      0.000      0.000
REMARK SMILES CCCOC(=O)N1C[C@H](c2ccc3cc[nH]c3c2)[C@H](C)C[C@H]1F
REMARK SMILES IDX 4 1 3 2 2 3 1 4 5 5 6 6 7 7 8 8 22 9 9 10 21 11 19 12 23 13
REMARK SMILES IDX 20 14 10 15 11 16 18 17 12 18 17 19 13 20 16 21 14 22 15 23
REMARK H PARENT 16 24
ROOT
ATOM      1  O   UNL     1      42.888 127.655  23.429  1.00  0.00    -0.449 OA
ENDROOT
BRANCH   1   2
ATOM      2  C   UNL     1      42.031 127.479  24.553  1.00  0.00     0.234 C 
BRANCH   2   3
ATOM      3  C   UNL     1      40.569 127.568  24.115  1.00  0.00     0.038 C 
ATOM      4  C   UNL     1      39.948 126.185  23.927  1.00  0.00     0.007 C 
ENDBRANCH   2   3
ENDBRANCH   1   2
BRANCH   1   5
ATOM      5  C   UNL     1      44.131 128.289  23.516  1.00  0.00     0.412 C 
ATOM      6  O   UNL     1      45.086 127.726  24.120  1.00  0.00    -0.224 OA
BRANCH   5   7
ATOM      7  N   UNL     1      44.319 129.582  22.913  1.00  0.00    -0.277 N 
ATOM      8  C   UNL     1      44.807 129.677  21.528  1.00  0.00     0.134 C 
ATOM      9  C   UNL     1      44.051 130.807  23.685  1.00  0.00     0.268 C 
ATOM     10  C   UNL     1      44.290 130.971  20.874  1.00  0.00     0.042 C 
ATOM     11  C   UNL     1      44.914 131.971  23.178  1.00  0.00     0.065 C 
ATOM     12  C   UNL     1      44.753 132.241  21.657  1.00  0.00    -0.000 C 
ATOM     13  F   UNL     1      42.708 131.130  23.593  1.00  0.00    -0.223 F 
ATOM     14  C   UNL     1      46.047 132.868  21.110  1.00  0.00     0.008 C 
BRANCH  10  15
ATOM     15  C   UNL     1      44.551 131.041  19.374  1.00  0.00    -0.041 A 
ATOM     16  C   UNL     1      43.661 131.712  18.488  1.00  0.00     0.005 A 
ATOM     17  C   UNL     1      45.673 130.362  18.843  1.00  0.00     0.030 A 
ATOM     18  C   UNL     1      43.901 131.729  17.102  1.00  0.00     0.010 A 
ATOM     19  C   UNL     1      45.880 130.400  17.465  1.00  0.00     0.046 A 
ATOM     20  C   UNL     1      45.025 131.062  16.628  1.00  0.00    -0.001 A 
ATOM     21  N   UNL     1      46.877 129.827  16.773  1.00  0.00    -0.361 N 
ATOM     22  C   UNL     1      45.500 130.904  15.344  1.00  0.00     0.028 A 
ATOM     23  C   UNL     1      46.651 130.133  15.475  1.00  0.00     0.083 A 
ATOM     24  H   UNL     1      47.667 129.260  17.154  1.00  0.00     0.166 HD
ENDBRANCH  10  15
ENDBRANCH   5   7
ENDBRANCH   1   5
TORSDOF 5
ENDMDL
MODEL 2
REMARK VINA RESULT:      -5.4      1.646      2.111
REMARK SMILES CCCOC(=O)N1C[C@H](c2ccc3cc[nH]c3c2)[C@H](C)C[C@H]1F
REMARK SMILES IDX 4 1 3 2 2 3 1 4 5 5 6 6 7 7 8 8 22 9 9 10 21 11 19 12 23 13
REMARK SMILES IDX 20 14 10 15 11 16 18 17 12 18 17 19 13 20 16 21 14 22 15 23
REMARK H PARENT 16 24
ROOT
ATOM      1  O   UNL     1      45.069 127.012  22.323  1.00  0.00    -0.449 OA
ENDROOT
BRANCH   1   2
ATOM      2  C   UNL     1      46.277 126.299  22.570  1.00  0.00     0.234 C 
BRANCH   2   3
ATOM      3  C   UNL     1      46.112 125.398  23.795  1.00  0.00     0.038 C 
ATOM      4  C   UNL     1      45.241 124.182  23.490  1.00  0.00     0.007 C 
ENDBRANCH   2   3
ENDBRANCH   1   2
BRANCH   1   5
ATOM      5  C   UNL     1      44.671 128.116  23.083  1.00  0.00     0.412 C 
ATOM      6  O   UNL     1      44.310 127.960  24.282  1.00  0.00    -0.224 OA
BRANCH   5   7
ATOM      7  N   UNL     1      44.676 129.430  22.495  1.00  0.00    -0.277 N 
ATOM      8  C   UNL     1      45.166 129.611  21.120  1.00  0.00     0.134 C 
ATOM      9  C   UNL     1      44.218 130.593  23.274  1.00  0.00     0.268 C 
ATOM     10  C   UNL     1      44.475 130.823  20.468  1.00  0.00     0.042 C 
ATOM     11  C   UNL     1      44.908 131.877  22.792  1.00  0.00     0.065 C 
ATOM     12  C   UNL     1      44.733 132.138  21.271  1.00  0.00    -0.000 C 
ATOM     13  F   UNL     1      42.844 130.717  23.161  1.00  0.00    -0.223 F 
ATOM     14  C   UNL     1      45.930 132.955  20.752  1.00  0.00     0.008 C 
BRANCH  10  15
ATOM     15  C   UNL     1      44.747 130.947  18.974  1.00  0.00    -0.041 A 
ATOM     16  C   UNL     1      43.893 131.697  18.116  1.00  0.00     0.005 A 
ATOM     17  C   UNL     1      45.839 130.241  18.416  1.00  0.00     0.030 A 
ATOM     18  C   UNL     1      44.140 131.766  16.733  1.00  0.00     0.010 A 
ATOM     19  C   UNL     1      46.054 130.332  17.042  1.00  0.00     0.046 A 
ATOM     20  C   UNL     1      45.235 131.069  16.233  1.00  0.00    -0.001 A 
ATOM     21  N   UNL     1      47.028 129.745  16.328  1.00  0.00    -0.361 N 
ATOM     22  C   UNL     1      45.709 130.947  14.944  1.00  0.00     0.028 A 
ATOM     23  C   UNL     1      46.822 130.118  15.045  1.00  0.00     0.083 A 
ATOM     24  H   UNL     1      47.788 129.125  16.686  1.00  0.00     0.166 HD
ENDBRANCH  10  15
ENDBRANCH   5   7
ENDBRANCH   1   5
TORSDOF 5
ENDMDL
MODEL 3
REMARK VINA RESULT:      -5.3      1.438      1.496
REMARK SMILES CCCOC(=O)N1C[C@H](c2ccc3cc[nH]c3c2)[C@H](C)C[C@H]1F
REMARK SMILES IDX 4 1 3 2 2 3 1 4 5 5 6 6 7 7 8 8 22 9 9 10 21 11 19 12 23 13
REMARK SMILES IDX 20 14 10 15 11 16 18 17 12 18 17 19 13 20 16 21 14 22 15 23
REMARK H PARENT 16 24
ROOT
ATOM      1  O   UNL     1      44.198 126.538  22.423  1.00  0.00    -0.449 OA
ENDROOT
BRANCH   1   2
ATOM      2  C   UNL     1      42.991 126.347  23.157  1.00  0.00     0.234 C 
BRANCH   2   3
ATOM      3  C   UNL     1      42.765 124.857  23.413  1.00  0.00     0.038 C 
ATOM      4  C   UNL     1      42.437 124.104  22.125  1.00  0.00     0.007 C 
ENDBRANCH   2   3
ENDBRANCH   1   2
BRANCH   1   5
ATOM      5  C   UNL     1      45.134 127.524  22.749  1.00  0.00     0.412 C 
ATOM      6  O   UNL     1      46.140 127.231  23.453  1.00  0.00    -0.224 OA
BRANCH   5   7
ATOM      7  N   UNL     1      44.949 128.871  22.277  1.00  0.00    -0.277 N 
ATOM      8  C   UNL     1      45.496 129.268  20.971  1.00  0.00     0.134 C 
ATOM      9  C   UNL     1      44.239 129.858  23.109  1.00  0.00     0.268 C 
ATOM     10  C   UNL     1      44.651 130.404  20.367  1.00  0.00     0.042 C 
ATOM     11  C   UNL     1      44.724 131.281  22.800  1.00  0.00     0.065 C 
ATOM     12  C   UNL     1      44.615 131.657  21.298  1.00  0.00    -0.000 C 
ATOM     13  F   UNL     1      42.876 129.757  22.888  1.00  0.00    -0.223 F 
ATOM     14  C   UNL     1      45.682 132.712  20.957  1.00  0.00     0.008 C 
BRANCH  10  15
ATOM     15  C   UNL     1      45.002 130.719  18.918  1.00  0.00    -0.041 A 
ATOM     16  C   UNL     1      44.327 131.738  18.187  1.00  0.00     0.005 A 
ATOM     17  C   UNL     1      45.978 129.931  18.264  1.00  0.00     0.030 A 
ATOM     18  C   UNL     1      44.640 131.985  16.838  1.00  0.00     0.010 A 
ATOM     19  C   UNL     1      46.263 130.204  16.927  1.00  0.00     0.046 A 
ATOM     20  C   UNL     1      45.618 131.197  16.242  1.00  0.00    -0.001 A 
ATOM     21  N   UNL     1      47.150 129.578  16.137  1.00  0.00    -0.361 N 
ATOM     22  C   UNL     1      46.118 131.204  14.958  1.00  0.00     0.028 A 
ATOM     23  C   UNL     1      47.066 130.186  14.932  1.00  0.00     0.083 A 
ATOM     24  H   UNL     1      47.777 128.784  16.396  1.00  0.00     0.166 HD
ENDBRANCH  10  15
ENDBRANCH   5   7
ENDBRANCH   1   5
TORSDOF 5
ENDMDL
MODEL 4
REMARK VINA RESULT:      -5.3      1.499      1.667
REMARK SMILES CCCOC(=O)N1C[C@H](c2ccc3cc[nH]c3c2)[C@H](C)C[C@H]1F
REMARK SMILES IDX 4 1 3 2 2 3 1 4 5 5 6 6 7 7 8 8 22 9 9 10 21 11 19 12 23 13
REMARK SMILES IDX 20 14 10 15 11 16 18 17 12 18 17 19 13 20 16 21 14 22 15 23
REMARK H PARENT 16 24
ROOT
ATOM      1  O   UNL     1      43.964 127.669  23.215  1.00  0.00    -0.449 OA
ENDROOT
BRANCH   1   2
ATOM      2  C   UNL     1      44.214 127.059  24.478  1.00  0.00     0.234 C 
BRANCH   2   3
ATOM      3  C   UNL     1      43.368 125.793  24.624  1.00  0.00     0.038 C 
ATOM      4  C   UNL     1      43.344 124.976  23.334  1.00  0.00     0.007 C 
ENDBRANCH   2   3
ENDBRANCH   1   2
BRANCH   1   5
ATOM      5  C   UNL     1      44.988 128.106  22.369  1.00  0.00     0.412 C 
ATOM      6  O   UNL     1      45.975 127.355  22.131  1.00  0.00    -0.224 OA
BRANCH   5   7
ATOM      7  N   UNL     1      44.914 129.413  21.771  1.00  0.00    -0.277 N 
ATOM      8  C   UNL     1      45.457 129.629  20.421  1.00  0.00     0.134 C 
ATOM      9  C   UNL     1      44.320 130.537  22.515  1.00  0.00     0.268 C 
ATOM     10  C   UNL     1      44.702 130.776  19.725  1.00  0.00     0.042 C 
ATOM     11  C   UNL     1      44.924 131.873  22.058  1.00  0.00     0.065 C 
ATOM     12  C   UNL     1      44.807 132.111  20.528  1.00  0.00    -0.000 C 
ATOM     13  F   UNL     1      42.948 130.544  22.331  1.00  0.00    -0.223 F 
ATOM     14  C   UNL     1      45.956 133.023  20.064  1.00  0.00     0.008 C 
BRANCH  10  15
ATOM     15  C   UNL     1      45.039 130.916  18.245  1.00  0.00    -0.041 A 
ATOM     16  C   UNL     1      44.314 131.794  17.390  1.00  0.00     0.005 A 
ATOM     17  C   UNL     1      46.055 130.100  17.695  1.00  0.00     0.030 A 
ATOM     18  C   UNL     1      44.616 131.878  16.020  1.00  0.00     0.010 A 
ATOM     19  C   UNL     1      46.327 130.209  16.333  1.00  0.00     0.046 A 
ATOM     20  C   UNL     1      45.634 131.069  15.527  1.00  0.00    -0.001 A 
ATOM     21  N   UNL     1      47.247 129.531  15.627  1.00  0.00    -0.361 N 
ATOM     22  C   UNL     1      46.135 130.933  14.250  1.00  0.00     0.028 A 
ATOM     23  C   UNL     1      47.134 129.970  14.353  1.00  0.00     0.083 A 
ATOM     24  H   UNL     1      47.913 128.810  15.985  1.00  0.00     0.166 HD
ENDBRANCH  10  15
ENDBRANCH   5   7
ENDBRANCH   1   5
TORSDOF 5
ENDMDL
MODEL 5
REMARK VINA RESULT:      -5.0      3.807      7.879
REMARK SMILES CCCOC(=O)N1C[C@H](c2ccc3cc[nH]c3c2)[C@H](C)C[C@H]1F
REMARK SMILES IDX 4 1 3 2 2 3 1 4 5 5 6 6 7 7 8 8 22 9 9 10 21 11 19 12 23 13
REMARK SMILES IDX 20 14 10 15 11 16 18 17 12 18 17 19 13 20 16 21 14 22 15 23
REMARK H PARENT 16 24
ROOT
ATOM      1  O   UNL     1      47.653 129.726  15.318  1.00  0.00    -0.449 OA
ENDROOT
BRANCH   1   2
ATOM      2  C   UNL     1      48.315 129.399  14.100  1.00  0.00     0.234 C 
BRANCH   2   3
ATOM      3  C   UNL     1      47.661 130.141  12.934  1.00  0.00     0.038 C 
ATOM      4  C   UNL     1      47.927 131.643  12.998  1.00  0.00     0.007 C 
ENDBRANCH   2   3
ENDBRANCH   1   2
BRANCH   1   5
ATOM      5  C   UNL     1      46.324 129.374  15.577  1.00  0.00     0.412 C 
ATOM      6  O   UNL     1      45.875 128.266  15.174  1.00  0.00    -0.224 OA
BRANCH   5   7
ATOM      7  N   UNL     1      45.472 130.278  16.304  1.00  0.00    -0.277 N 
ATOM      8  C   UNL     1      45.070 129.951  17.681  1.00  0.00     0.134 C 
ATOM      9  C   UNL     1      44.984 131.512  15.667  1.00  0.00     0.268 C 
ATOM     10  C   UNL     1      44.804 131.243  18.474  1.00  0.00     0.042 C 
ATOM     11  C   UNL     1      43.640 131.943  16.271  1.00  0.00     0.065 C 
ATOM     12  C   UNL     1      43.684 132.109  17.815  1.00  0.00    -0.000 C 
ATOM     13  F   UNL     1      45.923 132.519  15.820  1.00  0.00    -0.223 F 
ATOM     14  C   UNL     1      42.281 131.852  18.395  1.00  0.00     0.008 C 
BRANCH  10  15
ATOM     15  C   UNL     1      44.608 131.011  19.967  1.00  0.00    -0.041 A 
ATOM     16  C   UNL     1      45.377 130.051  20.685  1.00  0.00     0.005 A 
ATOM     17  C   UNL     1      43.586 131.720  20.642  1.00  0.00     0.030 A 
ATOM     18  C   UNL     1      45.152 129.825  22.054  1.00  0.00     0.010 A 
ATOM     19  C   UNL     1      43.390 131.470  21.999  1.00  0.00     0.046 A 
ATOM     20  C   UNL     1      44.148 130.557  22.678  1.00  0.00    -0.001 A 
ATOM     21  N   UNL     1      42.483 132.037  22.810  1.00  0.00    -0.361 N 
ATOM     22  C   UNL     1      43.704 130.542  23.983  1.00  0.00     0.028 A 
ATOM     23  C   UNL     1      42.670 131.474  24.025  1.00  0.00     0.083 A 
ATOM     24  H   UNL     1      41.775 132.763  22.559  1.00  0.00     0.166 HD
ENDBRANCH  10  15
ENDBRANCH   5   7
ENDBRANCH   1   5
TORSDOF 5
ENDMDL
MODEL 6
REMARK VINA RESULT:      -4.9      1.250      1.784
REMARK SMILES CCCOC(=O)N1C[C@H](c2ccc3cc[nH]c3c2)[C@H](C)C[C@H]1F
REMARK SMILES IDX 4 1 3 2 2 3 1 4 5 5 6 6 7 7 8 8 22 9 9 10 21 11 19 12 23 13
REMARK SMILES IDX 20 14 10 15 11 16 18 17 12 18 17 19 13 20 16 21 14 22 15 23
REMARK H PARENT 16 24
ROOT
ATOM      1  O   UNL     1      43.825 127.697  23.731  1.00  0.00    -0.449 OA
ENDROOT
BRANCH   1   2
ATOM      2  C   UNL     1      44.744 127.180  22.773  1.00  0.00     0.234 C 
BRANCH   2   3
ATOM      3  C   UNL     1      45.278 125.824  23.238  1.00  0.00     0.038 C 
ATOM      4  C   UNL     1      44.179 124.967  23.863  1.00  0.00     0.007 C 
ENDBRANCH   2   3
ENDBRANCH   1   2
BRANCH   1   5
ATOM      5  C   UNL     1      43.049 128.837  23.499  1.00  0.00     0.412 C 
ATOM      6  O   UNL     1      41.832 128.851  23.834  1.00  0.00    -0.224 OA
BRANCH   5   7
ATOM      7  N   UNL     1      43.642 129.993  22.879  1.00  0.00    -0.277 N 
ATOM      8  C   UNL     1      44.161 129.898  21.506  1.00  0.00     0.134 C 
ATOM      9  C   UNL     1      43.755 131.258  23.624  1.00  0.00     0.268 C 
ATOM     10  C   UNL     1      44.086 131.273  20.817  1.00  0.00     0.042 C 
ATOM     11  C   UNL     1      44.946 132.084  23.119  1.00  0.00     0.065 C 
ATOM     12  C   UNL     1      44.906 132.354  21.591  1.00  0.00    -0.000 C 
ATOM     13  F   UNL     1      42.581 131.981  23.492  1.00  0.00    -0.223 F 
ATOM     14  C   UNL     1      46.342 132.534  21.066  1.00  0.00     0.008 C 
BRANCH  10  15
ATOM     15  C   UNL     1      44.384 131.222  19.324  1.00  0.00    -0.041 A 
ATOM     16  C   UNL     1      43.503 131.795  18.363  1.00  0.00     0.005 A 
ATOM     17  C   UNL     1      45.532 130.526  18.878  1.00  0.00     0.030 A 
ATOM     18  C   UNL     1      43.778 131.702  16.987  1.00  0.00     0.010 A 
ATOM     19  C   UNL     1      45.773 130.453  17.508  1.00  0.00     0.046 A 
ATOM     20  C   UNL     1      44.927 131.022  16.597  1.00  0.00    -0.001 A 
ATOM     21  N   UNL     1      46.800 129.846  16.891  1.00  0.00    -0.361 N 
ATOM     22  C   UNL     1      45.438 130.768  15.343  1.00  0.00     0.028 A 
ATOM     23  C   UNL     1      46.600 130.036  15.567  1.00  0.00     0.083 A 
ATOM     24  H   UNL     1      47.591 129.331  17.337  1.00  0.00     0.166 HD
ENDBRANCH  10  15
ENDBRANCH   5   7
ENDBRANCH   1   5
TORSDOF 5
ENDMDL
MODEL 7
REMARK VINA RESULT:      -4.8      3.226      5.267
REMARK SMILES CCCOC(=O)N1C[C@H](c2ccc3cc[nH]c3c2)[C@H](C)C[C@H]1F
REMARK SMILES IDX 4 1 3 2 2 3 1 4 5 5 6 6 7 7 8 8 22 9 9 10 21 11 19 12 23 13
REMARK SMILES IDX 20 14 10 15 11 16 18 17 12 18 17 19 13 20 16 21 14 22 15 23
REMARK H PARENT 16 24
ROOT
ATOM      1  O   UNL     1      47.520 133.261  21.614  1.00  0.00    -0.449 OA
ENDROOT
BRANCH   1   2
ATOM      2  C   UNL     1      48.313 134.192  22.345  1.00  0.00     0.234 C 
BRANCH   2   3
ATOM      3  C   UNL     1      48.013 135.616  21.874  1.00  0.00     0.038 C 
ATOM      4  C   UNL     1      49.046 136.108  20.862  1.00  0.00     0.007 C 
ENDBRANCH   2   3
ENDBRANCH   1   2
BRANCH   1   5
ATOM      5  C   UNL     1      46.265 132.828  22.050  1.00  0.00     0.412 C 
ATOM      6  O   UNL     1      45.952 132.924  23.269  1.00  0.00    -0.224 OA
BRANCH   5   7
ATOM      7  N   UNL     1      45.329 132.275  21.106  1.00  0.00    -0.277 N 
ATOM      8  C   UNL     1      45.584 132.410  19.664  1.00  0.00     0.134 C 
ATOM      9  C   UNL     1      44.109 131.600  21.579  1.00  0.00     0.268 C 
ATOM     10  C   UNL     1      44.938 131.239  18.901  1.00  0.00     0.042 C 
ATOM     11  C   UNL     1      42.988 131.707  20.536  1.00  0.00     0.065 C 
ATOM     12  C   UNL     1      43.395 131.175  19.135  1.00  0.00    -0.000 C 
ATOM     13  F   UNL     1      44.388 130.270  21.847  1.00  0.00    -0.223 F 
ATOM     14  C   UNL     1      42.575 131.903  18.055  1.00  0.00     0.008 C 
BRANCH  10  15
ATOM     15  C   UNL     1      45.345 131.170  17.434  1.00  0.00    -0.041 A 
ATOM     16  C   UNL     1      44.687 131.946  16.436  1.00  0.00     0.005 A 
ATOM     17  C   UNL     1      46.357 130.261  17.046  1.00  0.00     0.030 A 
ATOM     18  C   UNL     1      45.052 131.837  15.083  1.00  0.00     0.010 A 
ATOM     19  C   UNL     1      46.692 130.179  15.696  1.00  0.00     0.046 A 
ATOM     20  C   UNL     1      46.064 130.942  14.751  1.00  0.00    -0.001 A 
ATOM     21  N   UNL     1      47.619 129.388  15.132  1.00  0.00    -0.361 N 
ATOM     22  C   UNL     1      46.615 130.622  13.529  1.00  0.00     0.028 A 
ATOM     23  C   UNL     1      47.576 129.655  13.807  1.00  0.00     0.083 A 
ATOM     24  H   UNL     1      48.244 128.704  15.613  1.00  0.00     0.166 HD
ENDBRANCH  10  15
ENDBRANCH   5   7
ENDBRANCH   1   5
TORSDOF 5
ENDMDL
MODEL 8
REMARK VINA RESULT:      -4.7      3.674      7.891
REMARK SMILES CCCOC(=O)N1C[C@H](c2ccc3cc[nH]c3c2)[C@H](C)C[C@H]1F
REMARK SMILES IDX 4 1 3 2 2 3 1 4 5 5 6 6 7 7 8 8 22 9 9 10 21 11 19 12 23 13
REMARK SMILES IDX 20 14 10 15 11 16 18 17 12 18 17 19 13 20 16 21 14 22 15 23
REMARK H PARENT 16 24
ROOT
ATOM      1  O   UNL     1      46.184 129.771  14.231  1.00  0.00    -0.449 OA
ENDROOT
BRANCH   1   2
ATOM      2  C   UNL     1      46.665 130.725  13.288  1.00  0.00     0.234 C 
BRANCH   2   3
ATOM      3  C   UNL     1      48.194 130.741  13.295  1.00  0.00     0.038 C 
ATOM      4  C   UNL     1      48.777 129.349  13.061  1.00  0.00     0.007 C 
ENDBRANCH   2   3
ENDBRANCH   1   2
BRANCH   1   5
ATOM      5  C   UNL     1      46.373 129.906  15.609  1.00  0.00     0.412 C 
ATOM      6  O   UNL     1      47.409 129.433  16.154  1.00  0.00    -0.224 OA
BRANCH   5   7
ATOM      7  N   UNL     1      45.384 130.585  16.405  1.00  0.00    -0.277 N 
ATOM      8  C   UNL     1      45.094 130.113  17.767  1.00  0.00     0.134 C 
ATOM      9  C   UNL     1      44.645 131.731  15.849  1.00  0.00     0.268 C 
ATOM     10  C   UNL     1      44.607 131.284  18.639  1.00  0.00     0.042 C 
ATOM     11  C   UNL     1      43.262 131.858  16.504  1.00  0.00     0.065 C 
ATOM     12  C   UNL     1      43.320 131.947  18.053  1.00  0.00    -0.000 C 
ATOM     13  F   UNL     1      45.374 132.893  16.042  1.00  0.00    -0.223 F 
ATOM     14  C   UNL     1      42.012 131.390  18.645  1.00  0.00     0.008 C 
BRANCH  10  15
ATOM     15  C   UNL     1      44.505 130.939  20.120  1.00  0.00    -0.041 A 
ATOM     16  C   UNL     1      45.359 129.974  20.726  1.00  0.00     0.005 A 
ATOM     17  C   UNL     1      43.488 131.545  20.895  1.00  0.00     0.030 A 
ATOM     18  C   UNL     1      45.221 129.642  22.085  1.00  0.00     0.010 A 
ATOM     19  C   UNL     1      43.381 131.192  22.239  1.00  0.00     0.046 A 
ATOM     20  C   UNL     1      44.219 130.275  22.811  1.00  0.00    -0.001 A 
ATOM     21  N   UNL     1      42.493 131.652  23.136  1.00  0.00    -0.361 N 
ATOM     22  C   UNL     1      43.849 130.146  24.133  1.00  0.00     0.028 A 
ATOM     23  C   UNL     1      42.775 131.017  24.296  1.00  0.00     0.083 A 
ATOM     24  H   UNL     1      41.738 132.355  22.974  1.00  0.00     0.166 HD
ENDBRANCH  10  15
ENDBRANCH   5   7
ENDBRANCH   1   5
TORSDOF 5
ENDMDL
MODEL 9
REMARK VINA RESULT:      -4.6      1.840      2.188
REMARK SMILES CCCOC(=O)N1C[C@H](c2ccc3cc[nH]c3c2)[C@H](C)C[C@H]1F
REMARK SMILES IDX 4 1 3 2 2 3 1 4 5 5 6 6 7 7 8 8 22 9 9 10 21 11 19 12 23 13
REMARK SMILES IDX 20 14 10 15 11 16 18 17 12 18 17 19 13 20 16 21 14 22 15 23
REMARK H PARENT 16 24
ROOT
ATOM      1  O   UNL     1      43.566 125.869  23.396  1.00  0.00    -0.449 OA
ENDROOT
BRANCH   1   2
ATOM      2  C   UNL     1      43.621 124.478  23.699  1.00  0.00     0.234 C 
BRANCH   2   3
ATOM      3  C   UNL     1      43.429 123.657  22.423  1.00  0.00     0.038 C 
ATOM      4  C   UNL     1      42.017 123.804  21.861  1.00  0.00     0.007 C 
ENDBRANCH   2   3
ENDBRANCH   1   2
BRANCH   1   5
ATOM      5  C   UNL     1      44.583 126.761  23.748  1.00  0.00     0.412 C 
ATOM      6  O   UNL     1      45.667 126.327  24.229  1.00  0.00    -0.224 OA
BRANCH   5   7
ATOM      7  N   UNL     1      44.392 128.176  23.560  1.00  0.00    -0.277 N 
ATOM      8  C   UNL     1      44.832 128.810  22.308  1.00  0.00     0.134 C 
ATOM      9  C   UNL     1      43.783 128.990  24.625  1.00  0.00     0.268 C 
ATOM     10  C   UNL     1      43.966 130.048  22.010  1.00  0.00     0.042 C 
ATOM     11  C   UNL     1      44.275 130.442  24.549  1.00  0.00     0.065 C 
ATOM     12  C   UNL     1      44.044 131.100  23.162  1.00  0.00    -0.000 C 
ATOM     13  F   UNL     1      42.403 128.945  24.514  1.00  0.00    -0.223 F 
ATOM     14  C   UNL     1      45.104 132.192  22.932  1.00  0.00     0.008 C 
BRANCH  10  15
ATOM     15  C   UNL     1      44.197 130.632  20.622  1.00  0.00    -0.041 A 
ATOM     16  C   UNL     1      43.326 131.613  20.066  1.00  0.00     0.005 A 
ATOM     17  C   UNL     1      45.266 130.135  19.840  1.00  0.00     0.030 A 
ATOM     18  C   UNL     1      43.536 132.109  18.767  1.00  0.00     0.010 A 
ATOM     19  C   UNL     1      45.443 130.649  18.557  1.00  0.00     0.046 A 
ATOM     20  C   UNL     1      44.609 131.603  18.042  1.00  0.00    -0.001 A 
ATOM     21  N   UNL     1      46.391 130.314  17.667  1.00  0.00    -0.361 N 
ATOM     22  C   UNL     1      45.046 131.889  16.767  1.00  0.00     0.028 A 
ATOM     23  C   UNL     1      46.153 131.069  16.570  1.00  0.00     0.083 A 
ATOM     24  H   UNL     1      47.155 129.613  17.791  1.00  0.00     0.166 HD
ENDBRANCH  10  15
ENDBRANCH   5   7
ENDBRANCH   1   5
TORSDOF 5
ENDMDL


