REMARK SMILES C=C[C@@H]1CN[C@H](c2ccc3nc[nH+]n3c2)/[N+](=C(\O)C[C@H]2C[C@@H](C)C2)C1
REMARK SMILES IDX 17 1 18 2 16 4 25 5 6 6 3 7 5 8 4 9 7 11 8 12 15 13 9 14
REMARK SMILES IDX 14 15 10 16 13 17 11 18 12 19 2 21 1 22 19 23 20 24 24 25
REMARK SMILES IDX 21 26 22 27 23 28
REMARK H PARENT 18 3 5 10 13 20
ROOT
ATOM      1  C   UNL     1       0.531   0.435  -0.162  1.00  0.00     0.335 C 
ENDROOT
BRANCH   1   2
ATOM      2  O   UNL     1       0.806   0.748   1.174  1.00  0.00    -0.463 OA
ATOM      3  H   UNL     1       1.675   1.185   1.455  1.00  0.00     0.299 HD
ENDBRANCH   1   2
BRANCH   1   4
ATOM      4  N   UNL     1      -0.623  -0.127  -0.469  1.00  0.00    -0.181 N 
ATOM      5  C   UNL     1      -0.992  -0.550  -1.836  1.00  0.00     0.365 C 
ATOM      6  C   UNL     1      -1.619  -0.382   0.603  1.00  0.00     0.370 C 
ATOM      7  C   UNL     1      -1.410  -2.032  -1.830  1.00  0.00     0.091 C 
ATOM      8  N   UNL     1      -2.756  -1.187   0.116  1.00  0.00    -0.254 NA
ATOM      9  C   UNL     1      -2.283  -2.382  -0.593  1.00  0.00     0.102 C 
ATOM     10  H   UNL     1      -3.355  -0.624  -0.534  1.00  0.00     0.129 HD
BRANCH   6  11
ATOM     11  C   UNL     1      -2.140   0.914   1.192  1.00  0.00     0.056 A 
ATOM     12  C   UNL     1      -2.548   1.987   0.359  1.00  0.00     0.020 A 
ATOM     13  C   UNL     1      -2.269   1.056   2.590  1.00  0.00     0.150 A 
ATOM     14  C   UNL     1      -3.050   3.176   0.915  1.00  0.00     0.080 A 
ATOM     15  N   UNL     1      -2.760   2.225   3.071  1.00  0.00    -0.151 N 
ATOM     16  C   UNL     1      -3.137   3.250   2.300  1.00  0.00     0.282 A 
ATOM     17  N   UNL     1      -2.957   2.566   4.327  1.00  0.00    -0.166 N 
ATOM     18  N   UNL     1      -3.591   4.292   3.027  1.00  0.00    -0.025 NA
ATOM     19  C   UNL     1      -3.460   3.820   4.296  1.00  0.00     0.472 A 
ATOM     20  H   UNL     1      -2.758   1.975   5.164  1.00  0.00     0.340 HD
ENDBRANCH   6  11
BRANCH   7  21
ATOM     21  C   UNL     1      -2.107  -2.390  -3.125  1.00  0.00    -0.024 C 
ATOM     22  C   UNL     1      -2.305  -3.663  -3.480  1.00  0.00     0.004 C 
ENDBRANCH   7  21
ENDBRANCH   1   4
BRANCH   1  23
ATOM     23  C   UNL     1       1.604   0.753  -1.182  1.00  0.00     0.156 C 
BRANCH  23  24
ATOM     24  C   UNL     1       2.436  -0.498  -1.523  1.00  0.00     0.003 C 
ATOM     25  C   UNL     1       3.583  -0.214  -2.493  1.00  0.00     0.007 C 
ATOM     26  C   UNL     1       3.447  -0.895  -0.444  1.00  0.00     0.007 C 
ATOM     27  C   UNL     1       4.591  -0.619  -1.418  1.00  0.00    -0.014 C 
ATOM     28  C   UNL     1       5.511   0.523  -0.978  1.00  0.00     0.007 C 
ENDBRANCH  23  24
ENDBRANCH   1  23
TORSDOF 6


