REMARK SMILES Cc1ccc(-c2ccc(O)cc2)c2cn(C(=O)Nc3ccc(N(C)C)cc3)nc12
REMARK SMILES IDX 1 1 2 2 3 3 4 4 5 5 13 6 14 7 15 8 28 9 29 10 6 11 7 12
REMARK SMILES IDX 12 13 8 14 11 15 9 16 10 17 16 19 18 20 17 21 19 23 20 24
REMARK SMILES IDX 27 25 21 26 26 27 22 28 23 29 24 30 25 31
REMARK H PARENT 10 18 18 22
ROOT
ATOM      1  C   UNL     1      -0.279  -2.526  -4.412  1.00  0.00     0.047 C 
ATOM      2  C   UNL     1      -0.964  -3.105  -3.210  1.00  0.00    -0.023 A 
ATOM      3  C   UNL     1      -1.670  -4.324  -3.284  1.00  0.00     0.006 A 
ATOM      4  C   UNL     1      -2.292  -4.868  -2.139  1.00  0.00     0.010 A 
ATOM      5  C   UNL     1      -2.206  -4.216  -0.887  1.00  0.00    -0.007 A 
ATOM      6  C   UNL     1      -1.490  -3.011  -0.848  1.00  0.00     0.029 A 
ATOM      7  C   UNL     1      -1.240  -2.107   0.162  1.00  0.00     0.129 A 
ATOM      8  N   UNL     1      -0.508  -1.099  -0.369  1.00  0.00    -0.188 N 
ATOM      9  N   UNL     1      -0.290  -1.315  -1.661  1.00  0.00    -0.164 NA
ATOM     10  C   UNL     1      -0.892  -2.480  -1.962  1.00  0.00     0.096 A 
ENDROOT
BRANCH   5  11
ATOM     11  C   UNL     1      -2.848  -4.796   0.315  1.00  0.00    -0.017 A 
ATOM     12  C   UNL     1      -2.130  -4.927   1.517  1.00  0.00     0.012 A 
ATOM     13  C   UNL     1      -4.177  -5.249   0.259  1.00  0.00     0.012 A 
ATOM     14  C   UNL     1      -2.738  -5.484   2.646  1.00  0.00     0.047 A 
ATOM     15  C   UNL     1      -4.782  -5.805   1.390  1.00  0.00     0.047 A 
ATOM     16  C   UNL     1      -4.064  -5.923   2.587  1.00  0.00     0.115 A 
BRANCH  16  17
ATOM     17  O   UNL     1      -4.657  -6.475   3.720  1.00  0.00    -0.508 OA
ATOM     18  H   UNL     1      -5.616  -6.803   3.710  1.00  0.00     0.293 HD
ENDBRANCH  16  17
ENDBRANCH   5  11
BRANCH   8  19
ATOM     19  C   UNL     1      -0.025   0.050   0.341  1.00  0.00     0.346 C 
ATOM     20  N   UNL     1       0.700   1.076  -0.357  1.00  0.00    -0.306 N 
ATOM     21  O   UNL     1      -0.271   0.172   1.572  1.00  0.00    -0.246 OA
ATOM     22  H   UNL     1       0.618   1.111  -1.398  1.00  0.00     0.171 HD
BRANCH  20  23
ATOM     23  C   UNL     1       1.431   2.129   0.295  1.00  0.00     0.043 A 
ATOM     24  C   UNL     1       2.108   1.913   1.506  1.00  0.00     0.028 A 
ATOM     25  C   UNL     1       1.524   3.384  -0.320  1.00  0.00     0.028 A 
ATOM     26  C   UNL     1       2.832   2.945   2.107  1.00  0.00     0.028 A 
ATOM     27  C   UNL     1       2.247   4.419   0.280  1.00  0.00     0.028 A 
ATOM     28  C   UNL     1       2.911   4.219   1.508  1.00  0.00     0.036 A 
BRANCH  28  29
ATOM     29  N   UNL     1       3.662   5.293   2.133  1.00  0.00    -0.378 N 
ATOM     30  C   UNL     1       3.401   6.693   1.774  1.00  0.00     0.143 C 
ATOM     31  C   UNL     1       4.693   4.999   3.135  1.00  0.00     0.143 C 
ENDBRANCH  28  29
ENDBRANCH  20  23
ENDBRANCH   8  19
TORSDOF 5


