MODEL 1
REMARK VINA RESULT:      -9.9      0.000      0.000
REMARK SMILES Cc1cc(-c2c[nH+]c3ccnn3c2)ccc1C(=O)[N-][C@H]1CC12CCC2
REMARK SMILES IDX 1 1 2 2 3 3 4 4 14 5 15 6 16 7 17 8 18 9 19 10 20 11 21 12
REMARK SMILES IDX 22 13 23 14 25 15 24 16 5 17 6 18 13 19 7 20 12 21 8 22
REMARK SMILES IDX 11 23 9 24 10 25
REMARK H PARENT 7 26
ROOT
ATOM      1  C   UNL     1      41.615 132.228  19.036  1.00  0.00     0.045 C 
ATOM      2  C   UNL     1      43.046 131.761  19.069  1.00  0.00    -0.041 A 
ATOM      3  C   UNL     1      43.759 131.701  17.857  1.00  0.00     0.013 A 
ATOM      4  C   UNL     1      45.085 131.245  17.815  1.00  0.00    -0.011 A 
ATOM      5  C   UNL     1      45.704 130.850  19.008  1.00  0.00     0.010 A 
ATOM      6  C   UNL     1      45.017 130.916  20.220  1.00  0.00     0.011 A 
ATOM      7  C   UNL     1      43.691 131.380  20.277  1.00  0.00     0.002 A 
ENDROOT
BRANCH   7   8
ATOM      8  C   UNL     1      43.027 131.452  21.603  1.00  0.00     0.082 C 
ATOM      9  O   UNL     1      42.548 132.539  22.027  1.00  0.00    -0.315 OA
BRANCH   8  10
ATOM     10  N   UNL     1      42.961 130.285  22.429  1.00  0.00    -0.646 NA
BRANCH  10  11
ATOM     11  C   UNL     1      44.150 129.561  22.854  1.00  0.00    -0.100 C 
ATOM     12  C   UNL     1      44.156 129.238  24.353  1.00  0.00    -0.010 C 
ATOM     13  C   UNL     1      43.854 128.158  23.323  1.00  0.00    -0.044 C 
ATOM     14  C   UNL     1      44.725 126.936  23.322  1.00  0.00     0.006 C 
ATOM     15  C   UNL     1      42.560 127.407  23.458  1.00  0.00     0.006 C 
ATOM     16  C   UNL     1      43.420 126.125  23.462  1.00  0.00     0.001 C 
ENDBRANCH  10  11
ENDBRANCH   8  10
ENDBRANCH   7   8
BRANCH   4  17
ATOM     17  C   UNL     1      45.821 131.174  16.526  1.00  0.00     0.063 A 
ATOM     18  C   UNL     1      45.884 132.292  15.657  1.00  0.00     0.210 A 
ATOM     19  C   UNL     1      46.474 129.989  16.128  1.00  0.00     0.245 A 
ATOM     20  N   UNL     1      46.559 132.218  14.471  1.00  0.00    -0.245 N 
ATOM     21  N   UNL     1      47.124 129.987  14.940  1.00  0.00    -0.104 N 
ATOM     22  C   UNL     1      47.169 131.054  14.140  1.00  0.00     0.306 A 
ATOM     23  N   UNL     1      47.792 128.983  14.399  1.00  0.00    -0.086 NA
ATOM     24  C   UNL     1      47.895 130.759  13.010  1.00  0.00     0.125 A 
ATOM     25  C   UNL     1      48.272 129.435  13.216  1.00  0.00     0.167 A 
ATOM     26  H   UNL     1      46.599 133.043  13.833  1.00  0.00     0.312 HD
ENDBRANCH   4  17
TORSDOF 4
ENDMDL
MODEL 2
REMARK VINA RESULT:      -8.8      0.965      1.804
REMARK SMILES Cc1cc(-c2c[nH+]c3ccnn3c2)ccc1C(=O)[N-][C@H]1CC12CCC2
REMARK SMILES IDX 1 1 2 2 3 3 4 4 14 5 15 6 16 7 17 8 18 9 19 10 20 11 21 12
REMARK SMILES IDX 22 13 23 14 25 15 24 16 5 17 6 18 13 19 7 20 12 21 8 22
REMARK SMILES IDX 11 23 9 24 10 25
REMARK H PARENT 7 26
ROOT
ATOM      1  C   UNL     1      45.544 129.714  21.522  1.00  0.00     0.045 C 
ATOM      2  C   UNL     1      44.913 130.515  20.413  1.00  0.00    -0.041 A 
ATOM      3  C   UNL     1      45.531 130.512  19.149  1.00  0.00     0.013 A 
ATOM      4  C   UNL     1      45.010 131.263  18.084  1.00  0.00    -0.011 A 
ATOM      5  C   UNL     1      43.849 132.020  18.292  1.00  0.00     0.010 A 
ATOM      6  C   UNL     1      43.216 132.023  19.534  1.00  0.00     0.011 A 
ATOM      7  C   UNL     1      43.723 131.267  20.607  1.00  0.00     0.002 A 
ENDROOT
BRANCH   7   8
ATOM      8  C   UNL     1      42.985 131.292  21.896  1.00  0.00     0.082 C 
ATOM      9  O   UNL     1      42.993 132.322  22.624  1.00  0.00    -0.315 OA
BRANCH   8  10
ATOM     10  N   UNL     1      42.287 130.124  22.337  1.00  0.00    -0.646 NA
BRANCH  10  11
ATOM     11  C   UNL     1      42.882 129.156  23.248  1.00  0.00    -0.100 C 
ATOM     12  C   UNL     1      42.206 129.128  24.624  1.00  0.00    -0.010 C 
ATOM     13  C   UNL     1      41.949 128.026  23.606  1.00  0.00    -0.044 C 
ATOM     14  C   UNL     1      42.254 126.616  24.017  1.00  0.00     0.006 C 
ATOM     15  C   UNL     1      40.523 127.754  23.218  1.00  0.00     0.006 C 
ATOM     16  C   UNL     1      40.795 126.292  23.631  1.00  0.00     0.001 C 
ENDBRANCH  10  11
ENDBRANCH   8  10
ENDBRANCH   7   8
BRANCH   4  17
ATOM     17  C   UNL     1      45.681 131.262  16.759  1.00  0.00     0.063 A 
ATOM     18  C   UNL     1      45.603 132.386  15.897  1.00  0.00     0.210 A 
ATOM     19  C   UNL     1      46.411 130.140  16.316  1.00  0.00     0.245 A 
ATOM     20  N   UNL     1      46.220 132.376  14.678  1.00  0.00    -0.245 N 
ATOM     21  N   UNL     1      46.997 130.200  15.096  1.00  0.00    -0.104 N 
ATOM     22  C   UNL     1      46.909 131.271  14.305  1.00  0.00     0.306 A 
ATOM     23  N   UNL     1      47.719 129.259  14.513  1.00  0.00    -0.086 NA
ATOM     24  C   UNL     1      47.597 131.045  13.137  1.00  0.00     0.125 A 
ATOM     25  C   UNL     1      48.098 129.757  13.311  1.00  0.00     0.167 A 
ATOM     26  H   UNL     1      46.155 133.204  14.046  1.00  0.00     0.312 HD
ENDBRANCH   4  17
TORSDOF 4
ENDMDL
MODEL 3
REMARK VINA RESULT:      -8.2      1.051      1.803
REMARK SMILES Cc1cc(-c2c[nH+]c3ccnn3c2)ccc1C(=O)[N-][C@H]1CC12CCC2
REMARK SMILES IDX 1 1 2 2 3 3 4 4 14 5 15 6 16 7 17 8 18 9 19 10 20 11 21 12
REMARK SMILES IDX 22 13 23 14 25 15 24 16 5 17 6 18 13 19 7 20 12 21 8 22
REMARK SMILES IDX 11 23 9 24 10 25
REMARK H PARENT 7 26
ROOT
ATOM      1  C   UNL     1      45.530 131.732  21.118  1.00  0.00     0.045 C 
ATOM      2  C   UNL     1      44.696 131.707  19.864  1.00  0.00    -0.041 A 
ATOM      3  C   UNL     1      45.338 131.451  18.638  1.00  0.00     0.013 A 
ATOM      4  C   UNL     1      44.623 131.446  17.430  1.00  0.00    -0.011 A 
ATOM      5  C   UNL     1      43.244 131.695  17.458  1.00  0.00     0.010 A 
ATOM      6  C   UNL     1      42.590 131.937  18.665  1.00  0.00     0.011 A 
ATOM      7  C   UNL     1      43.294 131.936  19.883  1.00  0.00     0.002 A 
ENDROOT
BRANCH   7   8
ATOM      8  C   UNL     1      42.532 132.173  21.136  1.00  0.00     0.082 C 
ATOM      9  O   UNL     1      41.660 133.082  21.198  1.00  0.00    -0.315 OA
BRANCH   8  10
ATOM     10  N   UNL     1      42.815 131.389  22.299  1.00  0.00    -0.646 NA
BRANCH  10  11
ATOM     11  C   UNL     1      43.250 130.002  22.219  1.00  0.00    -0.100 C 
ATOM     12  C   UNL     1      44.181 129.594  23.368  1.00  0.00    -0.010 C 
ATOM     13  C   UNL     1      42.724 129.150  23.348  1.00  0.00    -0.044 C 
ATOM     14  C   UNL     1      42.447 127.676  23.397  1.00  0.00     0.006 C 
ATOM     15  C   UNL     1      41.875 129.492  24.539  1.00  0.00     0.006 C 
ATOM     16  C   UNL     1      41.564 127.982  24.625  1.00  0.00     0.001 C 
ENDBRANCH  10  11
ENDBRANCH   8  10
ENDBRANCH   7   8
BRANCH   4  17
ATOM     17  C   UNL     1      45.315 131.187  16.142  1.00  0.00     0.063 A 
ATOM     18  C   UNL     1      44.823 131.723  14.925  1.00  0.00     0.210 A 
ATOM     19  C   UNL     1      46.482 130.397  16.092  1.00  0.00     0.245 A 
ATOM     20  N   UNL     1      45.464 131.477  13.744  1.00  0.00    -0.245 N 
ATOM     21  N   UNL     1      47.065 130.195  14.886  1.00  0.00    -0.104 N 
ATOM     22  C   UNL     1      46.581 130.711  13.755  1.00  0.00     0.306 A 
ATOM     23  N   UNL     1      48.156 129.492  14.637  1.00  0.00    -0.086 NA
ATOM     24  C   UNL     1      47.376 130.341  12.696  1.00  0.00     0.125 A 
ATOM     25  C   UNL     1      48.365 129.568  13.300  1.00  0.00     0.167 A 
ATOM     26  H   UNL     1      45.094 131.870  12.850  1.00  0.00     0.312 HD
ENDBRANCH   4  17
TORSDOF 4
ENDMDL
MODEL 4
REMARK VINA RESULT:      -7.2      1.389      2.440
REMARK SMILES Cc1cc(-c2c[nH+]c3ccnn3c2)ccc1C(=O)[N-][C@H]1CC12CCC2
REMARK SMILES IDX 1 1 2 2 3 3 4 4 14 5 15 6 16 7 17 8 18 9 19 10 20 11 21 12
REMARK SMILES IDX 22 13 23 14 25 15 24 16 5 17 6 18 13 19 7 20 12 21 8 22
REMARK SMILES IDX 11 23 9 24 10 25
REMARK H PARENT 7 26
ROOT
ATOM      1  C   UNL     1      45.404 132.322  20.887  1.00  0.00     0.045 C 
ATOM      2  C   UNL     1      44.778 131.932  19.573  1.00  0.00    -0.041 A 
ATOM      3  C   UNL     1      45.617 131.470  18.543  1.00  0.00     0.013 A 
ATOM      4  C   UNL     1      45.100 131.121  17.285  1.00  0.00    -0.011 A 
ATOM      5  C   UNL     1      43.720 131.232  17.065  1.00  0.00     0.010 A 
ATOM      6  C   UNL     1      42.873 131.675  18.080  1.00  0.00     0.011 A 
ATOM      7  C   UNL     1      43.378 132.019  19.347  1.00  0.00     0.002 A 
ENDROOT
BRANCH   7   8
ATOM      8  C   UNL     1      42.418 132.457  20.392  1.00  0.00     0.082 C 
ATOM      9  O   UNL     1      41.787 133.543  20.275  1.00  0.00    -0.315 OA
BRANCH   8  10
ATOM     10  N   UNL     1      42.231 131.659  21.565  1.00  0.00    -0.646 NA
BRANCH  10  11
ATOM     11  C   UNL     1      42.891 131.960  22.827  1.00  0.00    -0.100 C 
ATOM     12  C   UNL     1      42.053 131.574  24.053  1.00  0.00    -0.010 C 
ATOM     13  C   UNL     1      43.242 130.726  23.621  1.00  0.00    -0.044 C 
ATOM     14  C   UNL     1      44.336 130.502  24.624  1.00  0.00     0.006 C 
ATOM     15  C   UNL     1      42.998 129.268  23.353  1.00  0.00     0.006 C 
ATOM     16  C   UNL     1      44.118 128.994  24.379  1.00  0.00     0.001 C 
ENDBRANCH  10  11
ENDBRANCH   8  10
ENDBRANCH   7   8
BRANCH   4  17
ATOM     17  C   UNL     1      45.999 130.647  16.202  1.00  0.00     0.063 A 
ATOM     18  C   UNL     1      46.621 129.375  16.270  1.00  0.00     0.210 A 
ATOM     19  C   UNL     1      46.264 131.453  15.076  1.00  0.00     0.245 A 
ATOM     20  N   UNL     1      47.450 128.948  15.271  1.00  0.00    -0.245 N 
ATOM     21  N   UNL     1      47.096 130.966  14.124  1.00  0.00    -0.104 N 
ATOM     22  C   UNL     1      47.668 129.764  14.212  1.00  0.00     0.306 A 
ATOM     23  N   UNL     1      47.462 131.565  13.004  1.00  0.00    -0.086 NA
ATOM     24  C   UNL     1      48.456 129.541  13.108  1.00  0.00     0.125 A 
ATOM     25  C   UNL     1      48.295 130.709  12.366  1.00  0.00     0.167 A 
ATOM     26  H   UNL     1      47.909 128.012  15.329  1.00  0.00     0.312 HD
ENDBRANCH   4  17
TORSDOF 4
ENDMDL


