MODEL 1
REMARK VINA RESULT:      -2.7      0.000      0.000
REMARK SMILES C=C[C@@H]1C[C@@]([NH2+]c2ccc3cc[nH]c3c2)(c2ccc(C(C)=O)cc2)[C@H](F)C[C@@H]1O
REMARK SMILES IDX 3 1 4 2 5 3 25 4 26 5 27 6 28 7 2 8 1 9 29 10 6 12 7 15 8 16
REMARK SMILES IDX 15 17 9 18 14 19 10 20 13 21 11 22 12 23 16 25 17 26 24 27
REMARK SMILES IDX 18 28 23 29 19 30 20 31 21 32 22 33
REMARK H PARENT 29 11 6 13 6 14 13 24
ROOT
ATOM      1  C   UNL     1      43.151 132.394  21.239  1.00  0.00     0.047 C 
ATOM      2  C   UNL     1      43.913 131.506  20.223  1.00  0.00     0.087 C 
ATOM      3  C   UNL     1      45.327 131.051  20.733  1.00  0.00     0.158 C 
ATOM      4  C   UNL     1      45.069 130.304  22.090  1.00  0.00     0.235 C 
ATOM      5  F   UNL     1      44.324 129.154  21.875  1.00  0.00    -0.240 F 
ATOM      6  C   UNL     1      44.340 131.186  23.118  1.00  0.00     0.077 C 
ATOM      7  C   UNL     1      42.980 131.672  22.594  1.00  0.00     0.124 C 
ENDROOT
BRANCH   1   8
ATOM      8  C   UNL     1      41.816 132.819  20.669  1.00  0.00    -0.028 C 
ATOM      9  C   UNL     1      41.560 132.754  19.359  1.00  0.00     0.004 C 
ENDBRANCH   1   8
BRANCH   7  10
ATOM     10  O   UNL     1      42.104 130.578  22.474  1.00  0.00    -0.392 OA
ATOM     11  H   UNL     1      41.182 130.944  22.432  1.00  0.00     0.210 HD
ENDBRANCH   7  10
BRANCH   3  12
ATOM     12  N   UNL     1      45.924 130.075  19.773  1.00  0.00    -0.303 N 
ATOM     13  H   UNL     1      45.499 129.128  19.911  1.00  0.00     0.353 HD
ATOM     14  H   UNL     1      46.945 129.963  19.977  1.00  0.00     0.353 HD
BRANCH  12  15
ATOM     15  C   UNL     1      45.770 130.445  18.379  1.00  0.00     0.132 A 
ATOM     16  C   UNL     1      44.871 131.482  18.004  1.00  0.00     0.068 A 
ATOM     17  C   UNL     1      46.533 129.796  17.379  1.00  0.00     0.094 A 
ATOM     18  C   UNL     1      44.703 131.838  16.655  1.00  0.00     0.016 A 
ATOM     19  C   UNL     1      46.341 130.174  16.052  1.00  0.00     0.051 A 
ATOM     20  C   UNL     1      45.456 131.157  15.705  1.00  0.00    -0.000 A 
ATOM     21  N   UNL     1      46.950 129.675  14.965  1.00  0.00    -0.361 N 
ATOM     22  C   UNL     1      45.503 131.289  14.334  1.00  0.00     0.028 A 
ATOM     23  C   UNL     1      46.441 130.352  13.912  1.00  0.00     0.083 A 
ATOM     24  H   UNL     1      47.669 128.918  14.935  1.00  0.00     0.166 HD
ENDBRANCH  12  15
ENDBRANCH   3  12
BRANCH   3  25
ATOM     25  C   UNL     1      46.316 132.236  20.942  1.00  0.00     0.016 A 
ATOM     26  C   UNL     1      47.642 132.043  21.400  1.00  0.00     0.011 A 
ATOM     27  C   UNL     1      45.862 133.570  20.834  1.00  0.00     0.011 A 
ATOM     28  C   UNL     1      48.490 133.125  21.644  1.00  0.00     0.012 A 
ATOM     29  C   UNL     1      46.711 134.650  21.079  1.00  0.00     0.012 A 
ATOM     30  C   UNL     1      48.040 134.444  21.479  1.00  0.00     0.017 A 
BRANCH  30  31
ATOM     31  C   UNL     1      48.931 135.607  21.739  1.00  0.00     0.159 C 
ATOM     32  C   UNL     1      48.911 136.831  20.873  1.00  0.00     0.093 C 
ATOM     33  O   UNL     1      49.730 135.577  22.714  1.00  0.00    -0.295 OA
ENDBRANCH  30  31
ENDBRANCH   3  25
TORSDOF 6
ENDMDL
MODEL 2
REMARK VINA RESULT:      -1.5      0.926      1.376
REMARK SMILES C=C[C@@H]1C[C@@]([NH2+]c2ccc3cc[nH]c3c2)(c2ccc(C(C)=O)cc2)[C@H](F)C[C@@H]1O
REMARK SMILES IDX 3 1 4 2 5 3 25 4 26 5 27 6 28 7 2 8 1 9 29 10 6 12 7 15 8 16
REMARK SMILES IDX 15 17 9 18 14 19 10 20 13 21 11 22 12 23 16 25 17 26 24 27
REMARK SMILES IDX 18 28 23 29 19 30 20 31 21 32 22 33
REMARK H PARENT 29 11 6 13 6 14 13 24
ROOT
ATOM      1  C   UNL     1      43.208 132.498  21.017  1.00  0.00     0.047 C 
ATOM      2  C   UNL     1      44.025 131.586  20.068  1.00  0.00     0.087 C 
ATOM      3  C   UNL     1      45.413 131.156  20.663  1.00  0.00     0.158 C 
ATOM      4  C   UNL     1      45.091 130.448  22.027  1.00  0.00     0.235 C 
ATOM      5  F   UNL     1      44.364 129.286  21.808  1.00  0.00    -0.240 F 
ATOM      6  C   UNL     1      44.305 131.355  22.989  1.00  0.00     0.077 C 
ATOM      7  C   UNL     1      42.972 131.816  22.383  1.00  0.00     0.124 C 
ENDROOT
BRANCH   1   8
ATOM      8  C   UNL     1      41.901 132.898  20.368  1.00  0.00    -0.028 C 
ATOM      9  C   UNL     1      41.612 132.559  19.108  1.00  0.00     0.004 C 
ENDBRANCH   1   8
BRANCH   7  10
ATOM     10  O   UNL     1      42.109 130.713  22.251  1.00  0.00    -0.392 OA
ATOM     11  H   UNL     1      42.159 130.199  23.099  1.00  0.00     0.210 HD
ENDBRANCH   7  10
BRANCH   3  12
ATOM     12  N   UNL     1      46.063 130.156  19.764  1.00  0.00    -0.303 N 
ATOM     13  H   UNL     1      45.764 129.187  20.025  1.00  0.00     0.353 HD
ATOM     14  H   UNL     1      47.102 130.182  19.904  1.00  0.00     0.353 HD
BRANCH  12  15
ATOM     15  C   UNL     1      45.783 130.355  18.355  1.00  0.00     0.132 A 
ATOM     16  C   UNL     1      46.610 129.755  17.364  1.00  0.00     0.068 A 
ATOM     17  C   UNL     1      44.668 131.128  17.950  1.00  0.00     0.094 A 
ATOM     18  C   UNL     1      46.356 129.954  15.997  1.00  0.00     0.016 A 
ATOM     19  C   UNL     1      44.446 131.303  16.586  1.00  0.00     0.051 A 
ATOM     20  C   UNL     1      45.264 130.739  15.646  1.00  0.00    -0.000 A 
ATOM     21  N   UNL     1      43.462 132.006  16.003  1.00  0.00    -0.361 N 
ATOM     22  C   UNL     1      44.778 131.100  14.408  1.00  0.00     0.028 A 
ATOM     23  C   UNL     1      43.660 131.885  14.671  1.00  0.00     0.083 A 
ATOM     24  H   UNL     1      42.698 132.538  16.477  1.00  0.00     0.166 HD
ENDBRANCH  12  15
ENDBRANCH   3  12
BRANCH   3  25
ATOM     25  C   UNL     1      46.385 132.353  20.886  1.00  0.00     0.016 A 
ATOM     26  C   UNL     1      47.650 132.196  21.502  1.00  0.00     0.011 A 
ATOM     27  C   UNL     1      45.958 133.674  20.624  1.00  0.00     0.011 A 
ATOM     28  C   UNL     1      48.476 133.294  21.753  1.00  0.00     0.012 A 
ATOM     29  C   UNL     1      46.785 134.770  20.876  1.00  0.00     0.012 A 
ATOM     30  C   UNL     1      48.059 134.596  21.435  1.00  0.00     0.017 A 
BRANCH  30  31
ATOM     31  C   UNL     1      48.927 135.775  21.701  1.00  0.00     0.159 C 
ATOM     32  C   UNL     1      48.874 137.006  20.846  1.00  0.00     0.093 C 
ATOM     33  O   UNL     1      49.734 135.753  22.670  1.00  0.00    -0.295 OA
ENDBRANCH  30  31
ENDBRANCH   3  25
TORSDOF 6
ENDMDL
MODEL 3
REMARK VINA RESULT:      -0.4      2.932      5.404
REMARK SMILES C=C[C@@H]1C[C@@]([NH2+]c2ccc3cc[nH]c3c2)(c2ccc(C(C)=O)cc2)[C@H](F)C[C@@H]1O
REMARK SMILES IDX 3 1 4 2 5 3 25 4 26 5 27 6 28 7 2 8 1 9 29 10 6 12 7 15 8 16
REMARK SMILES IDX 15 17 9 18 14 19 10 20 13 21 11 22 12 23 16 25 17 26 24 27
REMARK SMILES IDX 18 28 23 29 19 30 20 31 21 32 22 33
REMARK H PARENT 29 11 6 13 6 14 13 24
ROOT
ATOM      1  C   UNL     1      45.928 132.411  23.193  1.00  0.00     0.047 C 
ATOM      2  C   UNL     1      45.014 132.346  21.944  1.00  0.00     0.087 C 
ATOM      3  C   UNL     1      43.870 131.279  22.066  1.00  0.00     0.158 C 
ATOM      4  C   UNL     1      43.068 131.661  23.362  1.00  0.00     0.235 C 
ATOM      5  F   UNL     1      42.457 132.897  23.205  1.00  0.00    -0.240 F 
ATOM      6  C   UNL     1      43.960 131.700  24.615  1.00  0.00     0.077 C 
ATOM      7  C   UNL     1      45.109 132.708  24.469  1.00  0.00     0.124 C 
ENDROOT
BRANCH   1   8
ATOM      8  C   UNL     1      47.023 133.436  22.992  1.00  0.00    -0.028 C 
ATOM      9  C   UNL     1      47.606 134.051  24.025  1.00  0.00     0.004 C 
ENDBRANCH   1   8
BRANCH   7  10
ATOM     10  O   UNL     1      44.588 134.014  24.441  1.00  0.00    -0.392 OA
ATOM     11  H   UNL     1      44.124 134.163  25.306  1.00  0.00     0.210 HD
ENDBRANCH   7  10
BRANCH   3  12
ATOM     12  N   UNL     1      42.944 131.390  20.899  1.00  0.00    -0.303 N 
ATOM     13  H   UNL     1      42.351 132.248  20.990  1.00  0.00     0.353 HD
ATOM     14  H   UNL     1      42.278 130.581  20.902  1.00  0.00     0.353 HD
BRANCH  12  15
ATOM     15  C   UNL     1      43.613 131.431  19.614  1.00  0.00     0.132 A 
ATOM     16  C   UNL     1      45.016 131.207  19.524  1.00  0.00     0.068 A 
ATOM     17  C   UNL     1      42.874 131.671  18.430  1.00  0.00     0.094 A 
ATOM     18  C   UNL     1      45.676 131.260  18.285  1.00  0.00     0.016 A 
ATOM     19  C   UNL     1      43.562 131.716  17.220  1.00  0.00     0.051 A 
ATOM     20  C   UNL     1      44.914 131.522  17.152  1.00  0.00    -0.000 A 
ATOM     21  N   UNL     1      43.051 131.942  15.999  1.00  0.00    -0.361 N 
ATOM     22  C   UNL     1      45.281 131.629  15.829  1.00  0.00     0.028 A 
ATOM     23  C   UNL     1      44.098 131.891  15.145  1.00  0.00     0.083 A 
ATOM     24  H   UNL     1      42.051 132.122  15.755  1.00  0.00     0.166 HD
ENDBRANCH  12  15
ENDBRANCH   3  12
BRANCH   3  25
ATOM     25  C   UNL     1      44.399 129.816  22.164  1.00  0.00     0.016 A 
ATOM     26  C   UNL     1      43.868 128.880  23.083  1.00  0.00     0.011 A 
ATOM     27  C   UNL     1      45.548 129.427  21.441  1.00  0.00     0.011 A 
ATOM     28  C   UNL     1      44.403 127.595  23.200  1.00  0.00     0.012 A 
ATOM     29  C   UNL     1      46.081 128.142  21.560  1.00  0.00     0.012 A 
ATOM     30  C   UNL     1      45.511 127.204  22.433  1.00  0.00     0.017 A 
BRANCH  30  31
ATOM     31  C   UNL     1      46.095 125.840  22.550  1.00  0.00     0.159 C 
ATOM     32  C   UNL     1      45.286 124.671  23.027  1.00  0.00     0.093 C 
ATOM     33  O   UNL     1      47.302 125.648  22.241  1.00  0.00    -0.295 OA
ENDBRANCH  30  31
ENDBRANCH   3  25
TORSDOF 6
ENDMDL
MODEL 4
REMARK VINA RESULT:       0.1      2.940      5.535
REMARK SMILES C=C[C@@H]1C[C@@]([NH2+]c2ccc3cc[nH]c3c2)(c2ccc(C(C)=O)cc2)[C@H](F)C[C@@H]1O
REMARK SMILES IDX 3 1 4 2 5 3 25 4 26 5 27 6 28 7 2 8 1 9 29 10 6 12 7 15 8 16
REMARK SMILES IDX 15 17 9 18 14 19 10 20 13 21 11 22 12 23 16 25 17 26 24 27
REMARK SMILES IDX 18 28 23 29 19 30 20 31 21 32 22 33
REMARK H PARENT 29 11 6 13 6 14 13 24
ROOT
ATOM      1  C   UNL     1      45.109 131.103  19.866  1.00  0.00     0.047 C 
ATOM      2  C   UNL     1      45.037 130.403  21.246  1.00  0.00     0.087 C 
ATOM      3  C   UNL     1      44.837 131.404  22.440  1.00  0.00     0.158 C 
ATOM      4  C   UNL     1      43.522 132.199  22.114  1.00  0.00     0.235 C 
ATOM      5  F   UNL     1      42.429 131.344  22.111  1.00  0.00    -0.240 F 
ATOM      6  C   UNL     1      43.593 132.922  20.758  1.00  0.00     0.077 C 
ATOM      7  C   UNL     1      43.841 131.945  19.599  1.00  0.00     0.124 C 
ENDROOT
BRANCH   1   8
ATOM      8  C   UNL     1      45.334 130.084  18.770  1.00  0.00    -0.028 C 
ATOM      9  C   UNL     1      45.799 130.438  17.569  1.00  0.00     0.004 C 
ENDBRANCH   1   8
BRANCH   7  10
ATOM     10  O   UNL     1      42.715 131.119  19.431  1.00  0.00    -0.392 OA
ATOM     11  H   UNL     1      42.236 131.098  20.300  1.00  0.00     0.210 HD
ENDBRANCH   7  10
BRANCH   3  12
ATOM     12  N   UNL     1      44.617 130.646  23.708  1.00  0.00    -0.303 N 
ATOM     13  H   UNL     1      43.958 131.168  24.331  1.00  0.00     0.353 HD
ATOM     14  H   UNL     1      45.519 130.579  24.237  1.00  0.00     0.353 HD
BRANCH  12  15
ATOM     15  C   UNL     1      44.096 129.306  23.514  1.00  0.00     0.132 A 
ATOM     16  C   UNL     1      44.946 128.262  23.053  1.00  0.00     0.068 A 
ATOM     17  C   UNL     1      42.741 129.017  23.806  1.00  0.00     0.094 A 
ATOM     18  C   UNL     1      44.447 126.965  22.847  1.00  0.00     0.016 A 
ATOM     19  C   UNL     1      42.282 127.720  23.591  1.00  0.00     0.051 A 
ATOM     20  C   UNL     1      43.105 126.733  23.125  1.00  0.00    -0.000 A 
ATOM     21  N   UNL     1      41.040 127.251  23.791  1.00  0.00    -0.361 N 
ATOM     22  C   UNL     1      42.353 125.583  23.023  1.00  0.00     0.028 A 
ATOM     23  C   UNL     1      41.078 125.945  23.444  1.00  0.00     0.083 A 
ATOM     24  H   UNL     1      40.211 127.783  24.141  1.00  0.00     0.166 HD
ENDBRANCH  12  15
ENDBRANCH   3  12
BRANCH   3  25
ATOM     25  C   UNL     1      46.033 132.384  22.629  1.00  0.00     0.016 A 
ATOM     26  C   UNL     1      46.252 133.087  23.839  1.00  0.00     0.011 A 
ATOM     27  C   UNL     1      46.852 132.727  21.530  1.00  0.00     0.011 A 
ATOM     28  C   UNL     1      47.291 134.011  23.963  1.00  0.00     0.012 A 
ATOM     29  C   UNL     1      47.890 133.652  21.657  1.00  0.00     0.012 A 
ATOM     30  C   UNL     1      48.131 134.300  22.877  1.00  0.00     0.017 A 
BRANCH  30  31
ATOM     31  C   UNL     1      49.240 135.285  22.993  1.00  0.00     0.159 C 
ATOM     32  C   UNL     1      49.981 135.496  24.280  1.00  0.00     0.093 C 
ATOM     33  O   UNL     1      49.578 135.968  21.989  1.00  0.00    -0.295 OA
ENDBRANCH  30  31
ENDBRANCH   3  25
TORSDOF 6
ENDMDL
MODEL 5
REMARK VINA RESULT:       0.2      2.711      6.466
REMARK SMILES C=C[C@@H]1C[C@@]([NH2+]c2ccc3cc[nH]c3c2)(c2ccc(C(C)=O)cc2)[C@H](F)C[C@@H]1O
REMARK SMILES IDX 3 1 4 2 5 3 25 4 26 5 27 6 28 7 2 8 1 9 29 10 6 12 7 15 8 16
REMARK SMILES IDX 15 17 9 18 14 19 10 20 13 21 11 22 12 23 16 25 17 26 24 27
REMARK SMILES IDX 18 28 23 29 19 30 20 31 21 32 22 33
REMARK H PARENT 29 11 6 13 6 14 13 24
ROOT
ATOM      1  C   UNL     1      44.675 129.955  21.428  1.00  0.00     0.047 C 
ATOM      2  C   UNL     1      45.418 131.313  21.399  1.00  0.00     0.087 C 
ATOM      3  C   UNL     1      44.923 132.268  20.255  1.00  0.00     0.158 C 
ATOM      4  C   UNL     1      43.380 132.447  20.487  1.00  0.00     0.235 C 
ATOM      5  F   UNL     1      43.145 133.096  21.691  1.00  0.00    -0.240 F 
ATOM      6  C   UNL     1      42.627 131.106  20.488  1.00  0.00     0.077 C 
ATOM      7  C   UNL     1      43.150 130.155  21.575  1.00  0.00     0.124 C 
ENDROOT
BRANCH   1   8
ATOM      8  C   UNL     1      45.224 129.077  22.531  1.00  0.00    -0.028 C 
ATOM      9  C   UNL     1      44.433 128.269  23.243  1.00  0.00     0.004 C 
ENDBRANCH   1   8
BRANCH   7  10
ATOM     10  O   UNL     1      42.831 130.670  22.844  1.00  0.00    -0.392 OA
ATOM     11  H   UNL     1      42.677 131.645  22.734  1.00  0.00     0.210 HD
ENDBRANCH   7  10
BRANCH   3  12
ATOM     12  N   UNL     1      45.570 133.607  20.395  1.00  0.00    -0.303 N 
ATOM     13  H   UNL     1      44.841 134.354  20.478  1.00  0.00     0.353 HD
ATOM     14  H   UNL     1      46.108 133.829  19.523  1.00  0.00     0.353 HD
BRANCH  12  15
ATOM     15  C   UNL     1      46.466 133.717  21.530  1.00  0.00     0.132 A 
ATOM     16  C   UNL     1      46.023 133.359  22.834  1.00  0.00     0.068 A 
ATOM     17  C   UNL     1      47.800 134.158  21.349  1.00  0.00     0.094 A 
ATOM     18  C   UNL     1      46.878 133.476  23.943  1.00  0.00     0.016 A 
ATOM     19  C   UNL     1      48.619 134.261  22.470  1.00  0.00     0.051 A 
ATOM     20  C   UNL     1      48.172 133.936  23.720  1.00  0.00    -0.000 A 
ATOM     21  N   UNL     1      49.897 134.669  22.511  1.00  0.00    -0.361 N 
ATOM     22  C   UNL     1      49.213 134.146  24.598  1.00  0.00     0.028 A 
ATOM     23  C   UNL     1      50.265 134.601  23.810  1.00  0.00     0.083 A 
ATOM     24  H   UNL     1      50.490 134.977  21.708  1.00  0.00     0.166 HD
ENDBRANCH  12  15
ENDBRANCH   3  12
BRANCH   3  25
ATOM     25  C   UNL     1      45.198 131.712  18.826  1.00  0.00     0.016 A 
ATOM     26  C   UNL     1      45.831 130.464  18.609  1.00  0.00     0.011 A 
ATOM     27  C   UNL     1      44.967 132.521  17.691  1.00  0.00     0.011 A 
ATOM     28  C   UNL     1      46.128 130.016  17.320  1.00  0.00     0.012 A 
ATOM     29  C   UNL     1      45.265 132.072  16.404  1.00  0.00     0.012 A 
ATOM     30  C   UNL     1      45.841 130.809  16.198  1.00  0.00     0.017 A 
BRANCH  30  31
ATOM     31  C   UNL     1      46.156 130.347  14.819  1.00  0.00     0.159 C 
ATOM     32  C   UNL     1      46.984 131.169  13.877  1.00  0.00     0.093 C 
ATOM     33  O   UNL     1      45.722 129.233  14.418  1.00  0.00    -0.295 OA
ENDBRANCH  30  31
ENDBRANCH   3  25
TORSDOF 6
ENDMDL


