REMARK SMILES Cc1cc(O[C@@H]2C=CC(O)=CO2)ccc1/C(O)=N/[C@H]1CC12CCC2
REMARK SMILES IDX 4 1 13 2 14 3 15 4 2 5 1 6 3 7 5 8 6 9 9 10 11 11 8 12 12 13
REMARK SMILES IDX 7 14 10 15 16 17 18 18 19 19 20 20 21 21 22 22 24 23 23 24
REMARK SMILES IDX 17 25
REMARK H PARENT 10 16 17 26
ROOT
ATOM      1  C   UNL     1       2.285   0.944  -0.121  1.00  0.00     0.124 A 
ATOM      2  C   UNL     1       1.537  -0.036   0.550  1.00  0.00     0.047 A 
ATOM      3  C   UNL     1       0.227  -0.312   0.160  1.00  0.00     0.018 A 
ATOM      4  C   UNL     1      -0.372   0.381  -0.908  1.00  0.00     0.039 A 
ATOM      5  C   UNL     1       0.390   1.355  -1.606  1.00  0.00    -0.035 A 
ATOM      6  C   UNL     1      -0.161   2.107  -2.790  1.00  0.00     0.045 C 
ATOM      7  C   UNL     1       1.703   1.633  -1.188  1.00  0.00     0.050 A 
ENDROOT
BRANCH   1   8
ATOM      8  O   UNL     1       3.604   1.264   0.237  1.00  0.00    -0.451 OA
BRANCH   8   9
ATOM      9  C   UNL     1       4.354   0.616   1.262  1.00  0.00     0.388 C 
ATOM     10  C   UNL     1       6.829  -0.789   1.608  1.00  0.00     0.150 C 
ATOM     11  C   UNL     1       5.739  -1.454   1.224  1.00  0.00     0.238 C 
ATOM     12  C   UNL     1       6.793   0.683   1.677  1.00  0.00     0.053 C 
ATOM     13  O   UNL     1       4.566  -0.758   0.909  1.00  0.00    -0.455 OA
ATOM     14  C   UNL     1       5.656   1.348   1.459  1.00  0.00     0.066 C 
BRANCH  10  15
ATOM     15  O   UNL     1       7.996  -1.484   1.913  1.00  0.00    -0.505 OA
ATOM     16  H   UNL     1       8.837  -0.998   2.200  1.00  0.00     0.293 HD
ENDBRANCH  10  15
ENDBRANCH   8   9
ENDBRANCH   1   8
BRANCH   4  17
ATOM     17  C   UNL     1      -1.782   0.070  -1.258  1.00  0.00     0.214 C 
BRANCH  17  18
ATOM     18  N   UNL     1      -2.230  -1.139  -1.075  1.00  0.00    -0.247 NA
BRANCH  18  19
ATOM     19  C   UNL     1      -3.595  -1.565  -1.361  1.00  0.00     0.116 C 
ATOM     20  C   UNL     1      -4.052  -2.738  -0.482  1.00  0.00     0.037 C 
ATOM     21  C   UNL     1      -4.552  -1.326  -0.220  1.00  0.00    -0.005 C 
ATOM     22  C   UNL     1      -4.337  -0.734   1.143  1.00  0.00     0.009 C 
ATOM     23  C   UNL     1      -6.030  -1.079  -0.250  1.00  0.00     0.009 C 
ATOM     24  C   UNL     1      -5.856  -0.458   1.153  1.00  0.00     0.001 C 
ENDBRANCH  18  19
ENDBRANCH  17  18
BRANCH  17  25
ATOM     25  O   UNL     1      -2.613   1.082  -1.747  1.00  0.00    -0.493 OA
ATOM     26  H   UNL     1      -3.585   0.932  -1.987  1.00  0.00     0.295 HD
ENDBRANCH  17  25
ENDBRANCH   4  17
TORSDOF 7


