MODEL 1
REMARK VINA RESULT:      -7.8      0.000      0.000
REMARK SMILES Cc1ccc(-c2ccc(OC(=O)c3n[nH]cc3C=O)cc2)c2c[nH]nc12
REMARK SMILES IDX 10 1 9 2 6 3 7 4 21 5 8 6 20 7 5 8 2 9 3 10 26 11 4 12 25 13
REMARK SMILES IDX 22 14 24 15 23 16 1 17 11 19 12 20 13 21 14 22 17 23 15 24
REMARK SMILES IDX 16 25 18 27 19 28
REMARK H PARENT 24 18 15 26
ROOT
ATOM      1  O   UNL     1      42.388 131.823  21.696  1.00  0.00    -0.422 OA
ENDROOT
BRANCH   1   2
ATOM      2  C   UNL     1      43.055 131.753  20.464  1.00  0.00     0.131 A 
ATOM      3  C   UNL     1      44.477 131.575  18.035  1.00  0.00    -0.017 A 
ATOM      4  C   UNL     1      43.090 131.797  18.032  1.00  0.00     0.012 A 
ATOM      5  C   UNL     1      45.139 131.416  19.262  1.00  0.00     0.012 A 
ATOM      6  C   UNL     1      42.383 131.884  19.235  1.00  0.00     0.048 A 
ATOM      7  C   UNL     1      44.432 131.502  20.465  1.00  0.00     0.048 A 
BRANCH   3   8
ATOM      8  C   UNL     1      45.220 131.474  16.757  1.00  0.00    -0.007 A 
ATOM      9  C   UNL     1      46.638 131.285  14.283  1.00  0.00    -0.023 A 
ATOM     10  C   UNL     1      46.511 132.522  14.948  1.00  0.00     0.006 A 
ATOM     11  C   UNL     1      46.067 130.167  14.895  1.00  0.00     0.096 A 
ATOM     12  C   UNL     1      45.808 132.617  16.169  1.00  0.00     0.010 A 
ATOM     13  N   UNL     1      46.110 128.888  14.477  1.00  0.00    -0.175 NA
ATOM     14  C   UNL     1      45.382 130.258  16.080  1.00  0.00     0.028 A 
ATOM     15  N   UNL     1      45.462 128.169  15.386  1.00  0.00    -0.284 N 
ATOM     16  C   UNL     1      45.010 128.964  16.380  1.00  0.00     0.114 A 
ATOM     17  C   UNL     1      47.422 131.164  13.010  1.00  0.00     0.047 C 
ATOM     18  H   UNL     1      45.340 127.134  15.331  1.00  0.00     0.189 HD
ENDBRANCH   3   8
ENDBRANCH   1   2
BRANCH   1  19
ATOM     19  C   UNL     1      42.933 131.460  22.936  1.00  0.00     0.364 C 
ATOM     20  O   UNL     1      43.683 132.255  23.563  1.00  0.00    -0.244 OA
BRANCH  19  21
ATOM     21  C   UNL     1      42.663 130.111  23.459  1.00  0.00     0.181 A 
ATOM     22  N   UNL     1      41.503 129.788  24.065  1.00  0.00    -0.168 NA
ATOM     23  C   UNL     1      43.490 128.991  23.436  1.00  0.00     0.067 A 
ATOM     24  N   UNL     1      41.568 128.515  24.419  1.00  0.00    -0.284 N 
ATOM     25  C   UNL     1      42.754 128.001  24.054  1.00  0.00     0.117 A 
ATOM     26  H   UNL     1      40.802 128.002  24.909  1.00  0.00     0.189 HD
BRANCH  23  27
ATOM     27  C   UNL     1      44.850 128.849  22.895  1.00  0.00     0.264 C 
ATOM     28  O   UNL     1      45.147 127.855  22.179  1.00  0.00    -0.298 OA
ENDBRANCH  23  27
ENDBRANCH  19  21
ENDBRANCH   1  19
TORSDOF 5
ENDMDL
MODEL 2
REMARK VINA RESULT:      -5.0      1.984      2.401
REMARK SMILES Cc1ccc(-c2ccc(OC(=O)c3n[nH]cc3C=O)cc2)c2c[nH]nc12
REMARK SMILES IDX 10 1 9 2 6 3 7 4 21 5 8 6 20 7 5 8 2 9 3 10 26 11 4 12 25 13
REMARK SMILES IDX 22 14 24 15 23 16 1 17 11 19 12 20 13 21 14 22 17 23 15 24
REMARK SMILES IDX 16 25 18 27 19 28
REMARK H PARENT 24 18 15 26
ROOT
ATOM      1  O   UNL     1      43.504 131.234  22.622  1.00  0.00    -0.422 OA
ENDROOT
BRANCH   1   2
ATOM      2  C   UNL     1      43.922 131.220  21.283  1.00  0.00     0.131 A 
ATOM      3  C   UNL     1      44.818 131.112  18.611  1.00  0.00    -0.017 A 
ATOM      4  C   UNL     1      43.729 131.926  18.963  1.00  0.00     0.012 A 
ATOM      5  C   UNL     1      45.436 130.333  19.604  1.00  0.00     0.012 A 
ATOM      6  C   UNL     1      43.282 131.980  20.286  1.00  0.00     0.048 A 
ATOM      7  C   UNL     1      44.988 130.387  20.926  1.00  0.00     0.048 A 
BRANCH   3   8
ATOM      8  C   UNL     1      45.283 131.050  17.206  1.00  0.00    -0.007 A 
ATOM      9  C   UNL     1      46.186 130.949  14.496  1.00  0.00    -0.023 A 
ATOM     10  C   UNL     1      47.050 130.606  15.557  1.00  0.00     0.006 A 
ATOM     11  C   UNL     1      44.878 131.312  14.826  1.00  0.00     0.096 A 
ATOM     12  C   UNL     1      46.605 130.658  16.897  1.00  0.00     0.010 A 
ATOM     13  N   UNL     1      43.873 131.622  13.987  1.00  0.00    -0.175 NA
ATOM     14  C   UNL     1      44.445 131.365  16.127  1.00  0.00     0.028 A 
ATOM     15  N   UNL     1      42.809 131.868  14.741  1.00  0.00    -0.284 N 
ATOM     16  C   UNL     1      43.114 131.716  16.048  1.00  0.00     0.114 A 
ATOM     17  C   UNL     1      46.633 130.852  13.067  1.00  0.00     0.047 C 
ATOM     18  H   UNL     1      41.872 132.128  14.362  1.00  0.00     0.189 HD
ENDBRANCH   3   8
ENDBRANCH   1   2
BRANCH   1  19
ATOM     19  C   UNL     1      44.051 130.456  23.651  1.00  0.00     0.364 C 
ATOM     20  O   UNL     1      44.709 130.993  24.582  1.00  0.00    -0.244 OA
BRANCH  19  21
ATOM     21  C   UNL     1      43.896 128.992  23.590  1.00  0.00     0.181 A 
ATOM     22  N   UNL     1      44.854 128.184  23.094  1.00  0.00    -0.168 NA
ATOM     23  C   UNL     1      42.814 128.218  23.999  1.00  0.00     0.067 A 
ATOM     24  N   UNL     1      44.418 126.937  23.177  1.00  0.00    -0.284 N 
ATOM     25  C   UNL     1      43.188 126.919  23.719  1.00  0.00     0.117 A 
ATOM     26  H   UNL     1      44.961 126.103  22.863  1.00  0.00     0.189 HD
BRANCH  23  27
ATOM     27  C   UNL     1      41.536 128.641  24.590  1.00  0.00     0.264 C 
ATOM     28  O   UNL     1      41.069 129.784  24.341  1.00  0.00    -0.298 OA
ENDBRANCH  23  27
ENDBRANCH  19  21
ENDBRANCH   1  19
TORSDOF 5
ENDMDL


