REMARK SMILES Cc1ccc(-c2ccc(OC(=O)c3n[nH]cc3C=O)cc2)c2c[nH]nc12
REMARK SMILES IDX 10 1 9 2 6 3 7 4 21 5 8 6 20 7 5 8 2 9 3 10 26 11 4 12 25 13
REMARK SMILES IDX 22 14 24 15 23 16 1 17 11 19 12 20 13 21 14 22 17 23 15 24
REMARK SMILES IDX 16 25 18 27 19 28
REMARK H PARENT 24 18 15 26
ROOT
ATOM      1  O   UNL     1       0.226  -2.789   1.020  1.00  0.00    -0.422 OA
ENDROOT
BRANCH   1   2
ATOM      2  C   UNL     1      -0.029  -1.447   0.700  1.00  0.00     0.131 A 
ATOM      3  C   UNL     1      -0.558   1.269   0.154  1.00  0.00    -0.017 A 
ATOM      4  C   UNL     1       0.054   0.456  -0.814  1.00  0.00     0.012 A 
ATOM      5  C   UNL     1      -0.877   0.717   1.405  1.00  0.00     0.012 A 
ATOM      6  C   UNL     1       0.319  -0.890  -0.545  1.00  0.00     0.048 A 
ATOM      7  C   UNL     1      -0.611  -0.628   1.674  1.00  0.00     0.048 A 
BRANCH   3   8
ATOM      8  C   UNL     1      -0.828   2.697  -0.132  1.00  0.00    -0.007 A 
ATOM      9  C   UNL     1      -1.341   5.458  -0.667  1.00  0.00    -0.023 A 
ATOM     10  C   UNL     1      -0.088   4.886  -0.970  1.00  0.00     0.006 A 
ATOM     11  C   UNL     1      -2.315   4.617  -0.123  1.00  0.00     0.096 A 
ATOM     12  C   UNL     1       0.167   3.522  -0.703  1.00  0.00     0.010 A 
ATOM     13  N   UNL     1      -3.587   4.925   0.190  1.00  0.00    -0.175 NA
ATOM     14  C   UNL     1      -2.068   3.293   0.138  1.00  0.00     0.028 A 
ATOM     15  N   UNL     1      -4.148   3.811   0.644  1.00  0.00    -0.284 N 
ATOM     16  C   UNL     1      -3.259   2.794   0.622  1.00  0.00     0.114 A 
ATOM     17  C   UNL     1      -1.639   6.892  -0.989  1.00  0.00     0.047 C 
ATOM     18  H   UNL     1      -5.141   3.744   0.958  1.00  0.00     0.189 HD
ENDBRANCH   3   8
ENDBRANCH   1   2
BRANCH   1  19
ATOM     19  C   UNL     1       0.267  -3.848   0.103  1.00  0.00     0.364 C 
ATOM     20  O   UNL     1      -0.234  -3.721  -1.046  1.00  0.00    -0.244 OA
BRANCH  19  21
ATOM     21  C   UNL     1       0.850  -5.131   0.530  1.00  0.00     0.181 A 
ATOM     22  N   UNL     1       1.339  -5.326   1.771  1.00  0.00    -0.168 NA
ATOM     23  C   UNL     1       1.001  -6.302  -0.207  1.00  0.00     0.067 A 
ATOM     24  N   UNL     1       1.787  -6.569   1.842  1.00  0.00    -0.284 N 
ATOM     25  C   UNL     1       1.599  -7.189   0.665  1.00  0.00     0.117 A 
ATOM     26  H   UNL     1       2.220  -6.989   2.694  1.00  0.00     0.189 HD
BRANCH  23  27
ATOM     27  C   UNL     1       0.632  -6.578  -1.604  1.00  0.00     0.264 C 
ATOM     28  O   UNL     1       0.843  -7.715  -2.103  1.00  0.00    -0.298 OA
ENDBRANCH  23  27
ENDBRANCH  19  21
ENDBRANCH   1  19
TORSDOF 5


