MODEL 1
REMARK VINA RESULT:      -6.9      0.000      0.000
REMARK SMILES Cn1n[nH+]c2cc([N-]C(=O)c3cc(F)cn3/C(S)=N/[C@H]3CCCO3)ccc21
REMARK SMILES IDX 16 1 15 2 13 3 14 4 12 5 11 6 17 7 18 8 19 10 20 11 24 12
REMARK SMILES IDX 21 13 23 14 22 15 9 16 10 17 8 18 7 19 25 20 6 21 26 22 5 23
REMARK SMILES IDX 27 24 4 25 2 26 3 27 1 29
REMARK H PARENT 18 9 4 28
ROOT
ATOM      1  N   UNL     1      43.462 131.889  20.609  1.00  0.00    -0.292 N 
ATOM      2  C   UNL     1      42.664 132.462  21.533  1.00  0.00     0.133 A 
ATOM      3  C   UNL     1      41.550 132.989  20.919  1.00  0.00     0.142 A 
ATOM      4  F   UNL     1      40.527 133.631  21.532  1.00  0.00    -0.205 F 
ATOM      5  C   UNL     1      41.658 132.739  19.569  1.00  0.00     0.069 A 
ATOM      6  C   UNL     1      42.857 132.065  19.403  1.00  0.00     0.076 A 
ENDROOT
BRANCH   1   7
ATOM      7  C   UNL     1      44.655 131.142  20.907  1.00  0.00     0.167 C 
BRANCH   7   8
ATOM      8  S   UNL     1      46.243 131.994  20.932  1.00  0.00    -0.105 SA
ATOM      9  H   UNL     1      46.380 131.893  19.536  1.00  0.00     0.111 HD
ENDBRANCH   7   8
BRANCH   7  10
ATOM     10  N   UNL     1      44.564 129.874  21.192  1.00  0.00    -0.230 NA
BRANCH  10  11
ATOM     11  C   UNL     1      44.704 129.276  22.519  1.00  0.00     0.237 C 
ATOM     12  O   UNL     1      45.134 127.940  22.376  1.00  0.00    -0.356 OA
ATOM     13  C   UNL     1      43.379 129.296  23.270  1.00  0.00     0.059 C 
ATOM     14  C   UNL     1      44.257 127.120  23.112  1.00  0.00     0.163 C 
ATOM     15  C   UNL     1      43.382 127.986  23.992  1.00  0.00     0.033 C 
ENDBRANCH  10  11
ENDBRANCH   7  10
ENDBRANCH   1   7
BRANCH   6  16
ATOM     16  C   UNL     1      43.408 131.680  18.091  1.00  0.00     0.103 C 
ATOM     17  O   UNL     1      42.703 131.787  17.052  1.00  0.00    -0.313 OA
BRANCH  16  18
ATOM     18  N   UNL     1      44.716 131.099  18.019  1.00  0.00    -0.621 NA
BRANCH  18  19
ATOM     19  C   UNL     1      45.523 130.985  16.840  1.00  0.00    -0.129 A 
ATOM     20  C   UNL     1      45.601 132.096  15.961  1.00  0.00    -0.011 A 
ATOM     21  C   UNL     1      46.187 129.776  16.505  1.00  0.00     0.042 A 
ATOM     22  C   UNL     1      46.358 132.031  14.775  1.00  0.00     0.057 A 
ATOM     23  C   UNL     1      46.924 129.755  15.326  1.00  0.00     0.194 A 
ATOM     24  C   UNL     1      47.010 130.831  14.501  1.00  0.00     0.197 A 
ATOM     25  N   UNL     1      47.626 128.749  14.777  1.00  0.00    -0.143 N 
ATOM     26  N   UNL     1      47.773 130.476  13.452  1.00  0.00    -0.133 N 
ATOM     27  N   UNL     1      48.132 129.208  13.635  1.00  0.00     0.088 NA
ATOM     28  H   UNL     1      47.756 127.782  15.148  1.00  0.00     0.342 HD
ATOM     29  C   UNL     1      48.120 131.280  12.288  1.00  0.00     0.327 C 
ENDBRANCH  18  19
ENDBRANCH  16  18
ENDBRANCH   6  16
TORSDOF 7
ENDMDL
MODEL 2
REMARK VINA RESULT:      -6.3      1.540      1.654
REMARK SMILES Cn1n[nH+]c2cc([N-]C(=O)c3cc(F)cn3/C(S)=N/[C@H]3CCCO3)ccc21
REMARK SMILES IDX 16 1 15 2 13 3 14 4 12 5 11 6 17 7 18 8 19 10 20 11 24 12
REMARK SMILES IDX 21 13 23 14 22 15 9 16 10 17 8 18 7 19 25 20 6 21 26 22 5 23
REMARK SMILES IDX 27 24 4 25 2 26 3 27 1 29
REMARK H PARENT 18 9 4 28
ROOT
ATOM      1  N   UNL     1      43.127 131.932  21.911  1.00  0.00    -0.292 N 
ATOM      2  C   UNL     1      41.988 132.522  22.329  1.00  0.00     0.133 A 
ATOM      3  C   UNL     1      41.359 133.120  21.261  1.00  0.00     0.142 A 
ATOM      4  F   UNL     1      40.186 133.797  21.301  1.00  0.00    -0.205 F 
ATOM      5  C   UNL     1      42.130 132.898  20.142  1.00  0.00     0.069 A 
ATOM      6  C   UNL     1      43.224 132.168  20.575  1.00  0.00     0.076 A 
ENDROOT
BRANCH   1   7
ATOM      7  C   UNL     1      43.978 131.118  22.737  1.00  0.00     0.167 C 
BRANCH   7   8
ATOM      8  S   UNL     1      44.358 131.662  24.413  1.00  0.00    -0.105 SA
ATOM      9  H   UNL     1      44.520 132.997  24.000  1.00  0.00     0.111 HD
ENDBRANCH   7   8
BRANCH   7  10
ATOM     10  N   UNL     1      44.428 129.986  22.276  1.00  0.00    -0.230 NA
BRANCH  10  11
ATOM     11  C   UNL     1      43.934 128.654  22.628  1.00  0.00     0.237 C 
ATOM     12  O   UNL     1      42.822 128.790  23.485  1.00  0.00    -0.356 OA
ATOM     13  C   UNL     1      45.012 127.841  23.333  1.00  0.00     0.059 C 
ATOM     14  C   UNL     1      43.053 127.995  24.625  1.00  0.00     0.163 C 
ATOM     15  C   UNL     1      44.242 127.093  24.374  1.00  0.00     0.033 C 
ENDBRANCH  10  11
ENDBRANCH   7  10
ENDBRANCH   1   7
BRANCH   6  16
ATOM     16  C   UNL     1      44.353 131.788  19.706  1.00  0.00     0.103 C 
ATOM     17  O   UNL     1      45.510 132.230  19.941  1.00  0.00    -0.313 OA
BRANCH  16  18
ATOM     18  N   UNL     1      44.109 130.988  18.542  1.00  0.00    -0.621 NA
BRANCH  18  19
ATOM     19  C   UNL     1      44.936 130.929  17.373  1.00  0.00    -0.129 A 
ATOM     20  C   UNL     1      44.653 131.808  16.296  1.00  0.00    -0.011 A 
ATOM     21  C   UNL     1      45.981 129.976  17.247  1.00  0.00     0.042 A 
ATOM     22  C   UNL     1      45.417 131.775  15.113  1.00  0.00     0.057 A 
ATOM     23  C   UNL     1      46.712 129.979  16.064  1.00  0.00     0.194 A 
ATOM     24  C   UNL     1      46.447 130.839  15.045  1.00  0.00     0.197 A 
ATOM     25  N   UNL     1      47.728 129.185  15.687  1.00  0.00    -0.143 N 
ATOM     26  N   UNL     1      47.311 130.568  14.052  1.00  0.00    -0.133 N 
ATOM     27  N   UNL     1      48.076 129.558  14.458  1.00  0.00     0.088 NA
ATOM     28  H   UNL     1      48.171 128.411  16.230  1.00  0.00     0.342 HD
ATOM     29  C   UNL     1      47.394 131.201  12.742  1.00  0.00     0.327 C 
ENDBRANCH  18  19
ENDBRANCH  16  18
ENDBRANCH   6  16
TORSDOF 7
ENDMDL
MODEL 3
REMARK VINA RESULT:      -6.2      2.444      7.728
REMARK SMILES Cn1n[nH+]c2cc([N-]C(=O)c3cc(F)cn3/C(S)=N/[C@H]3CCCO3)ccc21
REMARK SMILES IDX 16 1 15 2 13 3 14 4 12 5 11 6 17 7 18 8 19 10 20 11 24 12
REMARK SMILES IDX 21 13 23 14 22 15 9 16 10 17 8 18 7 19 25 20 6 21 26 22 5 23
REMARK SMILES IDX 27 24 4 25 2 26 3 27 1 29
REMARK H PARENT 18 9 4 28
ROOT
ATOM      1  N   UNL     1      43.992 131.579  19.000  1.00  0.00    -0.292 N 
ATOM      2  C   UNL     1      42.803 131.801  18.403  1.00  0.00     0.133 A 
ATOM      3  C   UNL     1      41.941 132.394  19.296  1.00  0.00     0.142 A 
ATOM      4  F   UNL     1      40.663 132.770  19.045  1.00  0.00    -0.205 F 
ATOM      5  C   UNL     1      42.612 132.545  20.489  1.00  0.00     0.069 A 
ATOM      6  C   UNL     1      43.877 132.023  20.280  1.00  0.00     0.076 A 
ENDROOT
BRANCH   1   7
ATOM      7  C   UNL     1      45.163 131.077  18.331  1.00  0.00     0.167 C 
BRANCH   7   8
ATOM      8  S   UNL     1      46.147 129.793  19.125  1.00  0.00    -0.105 SA
ATOM      9  H   UNL     1      47.286 130.618  19.170  1.00  0.00     0.111 HD
ENDBRANCH   7   8
BRANCH   7  10
ATOM     10  N   UNL     1      45.471 131.530  17.149  1.00  0.00    -0.230 NA
BRANCH  10  11
ATOM     11  C   UNL     1      45.390 130.786  15.893  1.00  0.00     0.237 C 
ATOM     12  O   UNL     1      46.369 129.770  15.898  1.00  0.00    -0.356 OA
ATOM     13  C   UNL     1      45.630 131.702  14.699  1.00  0.00     0.059 C 
ATOM     14  C   UNL     1      47.121 129.885  14.713  1.00  0.00     0.163 C 
ATOM     15  C   UNL     1      46.428 130.844  13.771  1.00  0.00     0.033 C 
ENDBRANCH  10  11
ENDBRANCH   7  10
ENDBRANCH   1   7
BRANCH   6  16
ATOM     16  C   UNL     1      44.901 131.905  21.335  1.00  0.00     0.103 C 
ATOM     17  O   UNL     1      46.114 132.117  21.066  1.00  0.00    -0.313 OA
BRANCH  16  18
ATOM     18  N   UNL     1      44.518 131.460  22.643  1.00  0.00    -0.621 NA
BRANCH  18  19
ATOM     19  C   UNL     1      43.937 130.189  22.962  1.00  0.00    -0.129 A 
ATOM     20  C   UNL     1      44.733 129.024  22.816  1.00  0.00    -0.011 A 
ATOM     21  C   UNL     1      42.579 130.068  23.357  1.00  0.00     0.042 A 
ATOM     22  C   UNL     1      44.206 127.746  23.091  1.00  0.00     0.057 A 
ATOM     23  C   UNL     1      42.099 128.790  23.620  1.00  0.00     0.194 A 
ATOM     24  C   UNL     1      42.875 127.680  23.497  1.00  0.00     0.197 A 
ATOM     25  N   UNL     1      40.868 128.400  23.989  1.00  0.00    -0.143 N 
ATOM     26  N   UNL     1      42.111 126.617  23.801  1.00  0.00    -0.133 N 
ATOM     27  N   UNL     1      40.895 127.073  24.092  1.00  0.00     0.088 NA
ATOM     28  H   UNL     1      40.031 129.000  24.161  1.00  0.00     0.342 HD
ATOM     29  C   UNL     1      42.489 125.210  23.777  1.00  0.00     0.327 C 
ENDBRANCH  18  19
ENDBRANCH  16  18
ENDBRANCH   6  16
TORSDOF 7
ENDMDL
MODEL 4
REMARK VINA RESULT:      -4.9      2.304      3.980
REMARK SMILES Cn1n[nH+]c2cc([N-]C(=O)c3cc(F)cn3/C(S)=N/[C@H]3CCCO3)ccc21
REMARK SMILES IDX 16 1 15 2 13 3 14 4 12 5 11 6 17 7 18 8 19 10 20 11 24 12
REMARK SMILES IDX 21 13 23 14 22 15 9 16 10 17 8 18 7 19 25 20 6 21 26 22 5 23
REMARK SMILES IDX 27 24 4 25 2 26 3 27 1 29
REMARK H PARENT 18 9 4 28
ROOT
ATOM      1  N   UNL     1      44.533 130.018  22.314  1.00  0.00    -0.292 N 
ATOM      2  C   UNL     1      44.314 128.849  22.952  1.00  0.00     0.133 A 
ATOM      3  C   UNL     1      45.032 127.847  22.339  1.00  0.00     0.142 A 
ATOM      4  F   UNL     1      45.065 126.544  22.712  1.00  0.00    -0.205 F 
ATOM      5  C   UNL     1      45.718 128.407  21.285  1.00  0.00     0.069 A 
ATOM      6  C   UNL     1      45.383 129.751  21.287  1.00  0.00     0.076 A 
ENDROOT
BRANCH   1   7
ATOM      7  C   UNL     1      44.033 131.294  22.751  1.00  0.00     0.167 C 
BRANCH   7   8
ATOM      8  S   UNL     1      44.129 131.724  24.499  1.00  0.00    -0.105 SA
ATOM      9  H   UNL     1      43.410 132.917  24.299  1.00  0.00     0.111 HD
ENDBRANCH   7   8
BRANCH   7  10
ATOM     10  N   UNL     1      43.557 132.131  21.874  1.00  0.00    -0.230 NA
BRANCH  10  11
ATOM     11  C   UNL     1      42.316 131.973  21.116  1.00  0.00     0.237 C 
ATOM     12  O   UNL     1      42.562 131.142  20.003  1.00  0.00    -0.356 OA
ATOM     13  C   UNL     1      41.800 133.320  20.628  1.00  0.00     0.059 C 
ATOM     14  C   UNL     1      42.097 131.807  18.853  1.00  0.00     0.163 C 
ATOM     15  C   UNL     1      41.269 133.003  19.266  1.00  0.00     0.033 C 
ENDBRANCH  10  11
ENDBRANCH   7  10
ENDBRANCH   1   7
BRANCH   6  16
ATOM     16  C   UNL     1      45.835 130.711  20.263  1.00  0.00     0.103 C 
ATOM     17  O   UNL     1      46.824 131.458  20.487  1.00  0.00    -0.313 OA
BRANCH  16  18
ATOM     18  N   UNL     1      45.084 130.851  19.049  1.00  0.00    -0.621 NA
BRANCH  18  19
ATOM     19  C   UNL     1      45.622 130.824  17.720  1.00  0.00    -0.129 A 
ATOM     20  C   UNL     1      45.265 131.865  16.824  1.00  0.00    -0.011 A 
ATOM     21  C   UNL     1      46.443 129.758  17.269  1.00  0.00     0.042 A 
ATOM     22  C   UNL     1      45.743 131.875  15.498  1.00  0.00     0.057 A 
ATOM     23  C   UNL     1      46.894 129.808  15.955  1.00  0.00     0.194 A 
ATOM     24  C   UNL     1      46.564 130.820  15.109  1.00  0.00     0.197 A 
ATOM     25  N   UNL     1      47.659 128.933  15.282  1.00  0.00    -0.143 N 
ATOM     26  N   UNL     1      47.139 130.558  13.922  1.00  0.00    -0.133 N 
ATOM     27  N   UNL     1      47.795 129.407  14.045  1.00  0.00     0.088 NA
ATOM     28  H   UNL     1      48.073 128.042  15.634  1.00  0.00     0.342 HD
ATOM     29  C   UNL     1      47.044 131.335  12.693  1.00  0.00     0.327 C 
ENDBRANCH  18  19
ENDBRANCH  16  18
ENDBRANCH   6  16
TORSDOF 7
ENDMDL
MODEL 5
REMARK VINA RESULT:      -4.7      2.408      2.990
REMARK SMILES Cn1n[nH+]c2cc([N-]C(=O)c3cc(F)cn3/C(S)=N/[C@H]3CCCO3)ccc21
REMARK SMILES IDX 16 1 15 2 13 3 14 4 12 5 11 6 17 7 18 8 19 10 20 11 24 12
REMARK SMILES IDX 21 13 23 14 22 15 9 16 10 17 8 18 7 19 25 20 6 21 26 22 5 23
REMARK SMILES IDX 27 24 4 25 2 26 3 27 1 29
REMARK H PARENT 18 9 4 28
ROOT
ATOM      1  N   UNL     1      44.035 129.878  22.876  1.00  0.00    -0.292 N 
ATOM      2  C   UNL     1      43.421 130.426  23.946  1.00  0.00     0.133 A 
ATOM      3  C   UNL     1      43.297 131.784  23.763  1.00  0.00     0.142 A 
ATOM      4  F   UNL     1      42.724 132.658  24.625  1.00  0.00    -0.205 F 
ATOM      5  C   UNL     1      43.852 132.095  22.541  1.00  0.00     0.069 A 
ATOM      6  C   UNL     1      44.310 130.897  22.018  1.00  0.00     0.076 A 
ENDROOT
BRANCH   1   7
ATOM      7  C   UNL     1      44.228 128.467  22.677  1.00  0.00     0.167 C 
BRANCH   7   8
ATOM      8  S   UNL     1      42.959 127.317  23.242  1.00  0.00    -0.105 SA
ATOM      9  H   UNL     1      42.168 128.360  23.757  1.00  0.00     0.111 HD
ENDBRANCH   7   8
BRANCH   7  10
ATOM     10  N   UNL     1      45.294 128.046  22.059  1.00  0.00    -0.230 NA
BRANCH  10  11
ATOM     11  C   UNL     1      46.181 126.971  22.504  1.00  0.00     0.237 C 
ATOM     12  O   UNL     1      45.813 125.774  21.853  1.00  0.00    -0.356 OA
ATOM     13  C   UNL     1      46.082 126.770  24.011  1.00  0.00     0.059 C 
ATOM     14  C   UNL     1      45.633 124.782  22.837  1.00  0.00     0.163 C 
ATOM     15  C   UNL     1      46.171 125.284  24.158  1.00  0.00     0.033 C 
ENDBRANCH  10  11
ENDBRANCH   7  10
ENDBRANCH   1   7
BRANCH   6  16
ATOM     16  C   UNL     1      45.056 130.786  20.751  1.00  0.00     0.103 C 
ATOM     17  O   UNL     1      46.304 130.613  20.764  1.00  0.00    -0.313 OA
BRANCH  16  18
ATOM     18  N   UNL     1      44.365 130.969  19.508  1.00  0.00    -0.621 NA
BRANCH  18  19
ATOM     19  C   UNL     1      44.953 130.914  18.202  1.00  0.00    -0.129 A 
ATOM     20  C   UNL     1      45.261 132.133  17.545  1.00  0.00    -0.011 A 
ATOM     21  C   UNL     1      45.174 129.681  17.536  1.00  0.00     0.042 A 
ATOM     22  C   UNL     1      45.816 132.139  16.250  1.00  0.00     0.057 A 
ATOM     23  C   UNL     1      45.725 129.731  16.260  1.00  0.00     0.194 A 
ATOM     24  C   UNL     1      46.036 130.904  15.646  1.00  0.00     0.197 A 
ATOM     25  N   UNL     1      46.018 128.727  15.417  1.00  0.00    -0.143 N 
ATOM     26  N   UNL     1      46.525 130.606  14.430  1.00  0.00    -0.133 N 
ATOM     27  N   UNL     1      46.501 129.281  14.307  1.00  0.00     0.088 NA
ATOM     28  H   UNL     1      45.892 127.703  15.573  1.00  0.00     0.342 HD
ATOM     29  C   UNL     1      46.960 131.530  13.391  1.00  0.00     0.327 C 
ENDBRANCH  18  19
ENDBRANCH  16  18
ENDBRANCH   6  16
TORSDOF 7
ENDMDL
MODEL 6
REMARK VINA RESULT:      -4.6      1.755      2.283
REMARK SMILES Cn1n[nH+]c2cc([N-]C(=O)c3cc(F)cn3/C(S)=N/[C@H]3CCCO3)ccc21
REMARK SMILES IDX 16 1 15 2 13 3 14 4 12 5 11 6 17 7 18 8 19 10 20 11 24 12
REMARK SMILES IDX 21 13 23 14 22 15 9 16 10 17 8 18 7 19 25 20 6 21 26 22 5 23
REMARK SMILES IDX 27 24 4 25 2 26 3 27 1 29
REMARK H PARENT 18 9 4 28
ROOT
ATOM      1  N   UNL     1      44.060 130.320  22.200  1.00  0.00    -0.292 N 
ATOM      2  C   UNL     1      43.190 130.366  23.230  1.00  0.00     0.133 A 
ATOM      3  C   UNL     1      42.344 131.440  23.073  1.00  0.00     0.142 A 
ATOM      4  F   UNL     1      41.336 131.793  23.908  1.00  0.00    -0.205 F 
ATOM      5  C   UNL     1      42.697 132.086  21.910  1.00  0.00     0.069 A 
ATOM      6  C   UNL     1      43.769 131.377  21.395  1.00  0.00     0.076 A 
ENDROOT
BRANCH   1   7
ATOM      7  C   UNL     1      45.014 129.266  21.980  1.00  0.00     0.167 C 
BRANCH   7   8
ATOM      8  S   UNL     1      46.071 129.327  20.522  1.00  0.00    -0.105 SA
ATOM      9  H   UNL     1      47.174 128.823  21.235  1.00  0.00     0.111 HD
ENDBRANCH   7   8
BRANCH   7  10
ATOM     10  N   UNL     1      45.124 128.307  22.855  1.00  0.00    -0.230 NA
BRANCH  10  11
ATOM     11  C   UNL     1      44.264 127.128  22.956  1.00  0.00     0.237 C 
ATOM     12  O   UNL     1      42.988 127.529  23.405  1.00  0.00    -0.356 OA
ATOM     13  C   UNL     1      44.841 126.114  23.935  1.00  0.00     0.059 C 
ATOM     14  C   UNL     1      42.648 126.731  24.515  1.00  0.00     0.163 C 
ATOM     15  C   UNL     1      43.625 125.582  24.624  1.00  0.00     0.033 C 
ENDBRANCH  10  11
ENDBRANCH   7  10
ENDBRANCH   1   7
BRANCH   6  16
ATOM     16  C   UNL     1      44.518 131.781  20.190  1.00  0.00     0.103 C 
ATOM     17  O   UNL     1      45.620 132.382  20.301  1.00  0.00    -0.313 OA
BRANCH  16  18
ATOM     18  N   UNL     1      43.939 131.567  18.896  1.00  0.00    -0.621 NA
BRANCH  18  19
ATOM     19  C   UNL     1      44.661 131.330  17.680  1.00  0.00    -0.129 A 
ATOM     20  C   UNL     1      44.243 132.000  16.501  1.00  0.00    -0.011 A 
ATOM     21  C   UNL     1      45.733 130.402  17.619  1.00  0.00     0.042 A 
ATOM     22  C   UNL     1      44.899 131.785  15.273  1.00  0.00     0.057 A 
ATOM     23  C   UNL     1      46.353 130.220  16.388  1.00  0.00     0.194 A 
ATOM     24  C   UNL     1      45.959 130.882  15.268  1.00  0.00     0.197 A 
ATOM     25  N   UNL     1      47.367 129.403  16.056  1.00  0.00    -0.143 N 
ATOM     26  N   UNL     1      46.743 130.468  14.257  1.00  0.00    -0.133 N 
ATOM     27  N   UNL     1      47.587 129.567  14.754  1.00  0.00     0.088 NA
ATOM     28  H   UNL     1      47.891 128.749  16.678  1.00  0.00     0.342 HD
ATOM     29  C   UNL     1      46.679 130.866  12.857  1.00  0.00     0.327 C 
ENDBRANCH  18  19
ENDBRANCH  16  18
ENDBRANCH   6  16
TORSDOF 7
ENDMDL
MODEL 7
REMARK VINA RESULT:      -4.1      2.160      2.568
REMARK SMILES Cn1n[nH+]c2cc([N-]C(=O)c3cc(F)cn3/C(S)=N/[C@H]3CCCO3)ccc21
REMARK SMILES IDX 16 1 15 2 13 3 14 4 12 5 11 6 17 7 18 8 19 10 20 11 24 12
REMARK SMILES IDX 21 13 23 14 22 15 9 16 10 17 8 18 7 19 25 20 6 21 26 22 5 23
REMARK SMILES IDX 27 24 4 25 2 26 3 27 1 29
REMARK H PARENT 18 9 4 28
ROOT
ATOM      1  N   UNL     1      44.821 131.341  21.647  1.00  0.00    -0.292 N 
ATOM      2  C   UNL     1      45.974 131.871  22.106  1.00  0.00     0.133 A 
ATOM      3  C   UNL     1      46.436 132.815  21.216  1.00  0.00     0.142 A 
ATOM      4  F   UNL     1      47.560 133.558  21.351  1.00  0.00    -0.205 F 
ATOM      5  C   UNL     1      45.544 132.874  20.168  1.00  0.00     0.069 A 
ATOM      6  C   UNL     1      44.559 131.944  20.456  1.00  0.00     0.076 A 
ENDROOT
BRANCH   1   7
ATOM      7  C   UNL     1      44.003 130.409  22.374  1.00  0.00     0.167 C 
BRANCH   7   8
ATOM      8  S   UNL     1      42.590 131.022  23.311  1.00  0.00    -0.105 SA
ATOM      9  H   UNL     1      43.148 130.601  24.531  1.00  0.00     0.111 HD
ENDBRANCH   7   8
BRANCH   7  10
ATOM     10  N   UNL     1      44.271 129.136  22.313  1.00  0.00    -0.230 NA
BRANCH  10  11
ATOM     11  C   UNL     1      44.455 128.237  23.453  1.00  0.00     0.237 C 
ATOM     12  O   UNL     1      45.493 127.329  23.157  1.00  0.00    -0.356 OA
ATOM     13  C   UNL     1      43.179 127.459  23.745  1.00  0.00     0.059 C 
ATOM     14  C   UNL     1      45.010 126.026  23.388  1.00  0.00     0.163 C 
ATOM     15  C   UNL     1      43.691 126.105  24.124  1.00  0.00     0.033 C 
ENDBRANCH  10  11
ENDBRANCH   7  10
ENDBRANCH   1   7
BRANCH   6  16
ATOM     16  C   UNL     1      43.446 131.620  19.546  1.00  0.00     0.103 C 
ATOM     17  O   UNL     1      42.480 130.919  19.951  1.00  0.00    -0.313 OA
BRANCH  16  18
ATOM     18  N   UNL     1      43.515 132.029  18.173  1.00  0.00    -0.621 NA
BRANCH  18  19
ATOM     19  C   UNL     1      44.450 131.550  17.198  1.00  0.00    -0.129 A 
ATOM     20  C   UNL     1      45.211 132.497  16.465  1.00  0.00    -0.011 A 
ATOM     21  C   UNL     1      44.584 130.166  16.911  1.00  0.00     0.042 A 
ATOM     22  C   UNL     1      46.125 132.083  15.476  1.00  0.00     0.057 A 
ATOM     23  C   UNL     1      45.498 129.801  15.930  1.00  0.00     0.194 A 
ATOM     24  C   UNL     1      46.238 130.714  15.246  1.00  0.00     0.197 A 
ATOM     25  N   UNL     1      45.804 128.580  15.461  1.00  0.00    -0.143 N 
ATOM     26  N   UNL     1      46.998 130.040  14.366  1.00  0.00    -0.133 N 
ATOM     27  N   UNL     1      46.717 128.748  14.507  1.00  0.00     0.088 NA
ATOM     28  H   UNL     1      45.409 127.661  15.762  1.00  0.00     0.342 HD
ATOM     29  C   UNL     1      47.929 130.588  13.387  1.00  0.00     0.327 C 
ENDBRANCH  18  19
ENDBRANCH  16  18
ENDBRANCH   6  16
TORSDOF 7
ENDMDL


