REMARK SMILES CCOC(=O)n1cc(F)cc(N)/c1=N\c1c[n-]c2nccc-2c1
REMARK SMILES IDX 4 1 5 2 6 3 13 4 11 5 10 6 7 7 8 8 9 9 14 10 15 11 20 12
REMARK SMILES IDX 19 13 21 14 18 15 22 16 17 17 23 18 16 19 12 20 3 23 2 24
REMARK SMILES IDX 1 25
REMARK H PARENT 12 21 12 22
ROOT
ATOM      1  C   UNL     1      -2.141   0.502  -1.046  1.00  0.00     0.419 C 
ATOM      2  O   UNL     1      -1.316   1.150  -1.749  1.00  0.00    -0.223 OA
ENDROOT
BRANCH   1   3
ATOM      3  N   UNL     1      -1.726  -0.685  -0.327  1.00  0.00    -0.232 N 
ATOM      4  C   UNL     1      -0.431  -0.856   0.130  1.00  0.00     0.166 A 
ATOM      5  C   UNL     1      -0.119  -2.019   0.898  1.00  0.00     0.079 A 
ATOM      6  C   UNL     1      -1.081  -3.022   1.032  1.00  0.00     0.070 A 
ATOM      7  C   UNL     1      -2.667  -1.662  -0.142  1.00  0.00     0.139 A 
ATOM      8  C   UNL     1      -2.352  -2.849   0.507  1.00  0.00     0.142 A 
ATOM      9  F   UNL     1      -3.292  -3.813   0.664  1.00  0.00    -0.205 F 
BRANCH   4  10
ATOM     10  N   UNL     1       0.461   0.060  -0.159  1.00  0.00    -0.229 NA
BRANCH  10  11
ATOM     11  C   UNL     1       1.891   0.020  -0.050  1.00  0.00     0.062 A 
ATOM     12  C   UNL     1       6.131   1.320   0.702  1.00  0.00    -0.022 A 
ATOM     13  N   UNL     1       5.979   0.103   0.114  1.00  0.00    -0.442 NA
ATOM     14  C   UNL     1       4.913   1.951   0.963  1.00  0.00     0.003 A 
ATOM     15  C   UNL     1       4.649  -0.045   0.004  1.00  0.00    -0.052 A 
ATOM     16  C   UNL     1       3.950   1.083   0.519  1.00  0.00    -0.025 A 
ATOM     17  N   UNL     1       3.998  -1.095  -0.546  1.00  0.00    -0.440 NA
ATOM     18  C   UNL     1       2.566   1.135   0.486  1.00  0.00     0.036 A 
ATOM     19  C   UNL     1       2.631  -1.073  -0.588  1.00  0.00     0.006 A 
ENDBRANCH  10  11
ENDBRANCH   4  10
BRANCH   5  20
ATOM     20  N   UNL     1       1.080  -2.140   1.675  1.00  0.00    -0.396 N 
ATOM     21  H   UNL     1       1.377  -3.071   2.044  1.00  0.00     0.156 HD
ATOM     22  H   UNL     1       1.547  -1.302   2.083  1.00  0.00     0.156 HD
ENDBRANCH   5  20
ENDBRANCH   1   3
BRANCH   1  23
ATOM     23  O   UNL     1      -3.475   0.921  -0.983  1.00  0.00    -0.449 OA
BRANCH  23  24
ATOM     24  C   UNL     1      -3.956   2.068  -1.674  1.00  0.00     0.231 C 
ATOM     25  C   UNL     1      -5.441   2.244  -1.398  1.00  0.00     0.049 C 
ENDBRANCH  23  24
ENDBRANCH   1  23
TORSDOF 6


