MODEL 1
REMARK VINA RESULT:      -6.1      0.000      0.000
REMARK SMILES [NH-]C(=O)c1ccc(-c2cc(F)cc(F)c2OC(O)=C2CSC2)cc1
REMARK SMILES IDX 8 1 9 2 10 3 11 4 12 5 13 6 14 7 15 8 7 9 4 10 5 11 24 12
REMARK SMILES IDX 6 13 23 14 2 15 3 16 1 17 16 19 17 20 18 21 19 23 20 24
REMARK SMILES IDX 22 25 21 26
REMARK H PARENT 1 18 18 22
ROOT
ATOM      1  C   UNL     1      43.172 131.799  20.430  1.00  0.00     0.031 A 
ATOM      2  C   UNL     1      42.155 132.767  20.354  1.00  0.00     0.052 A 
ATOM      3  C   UNL     1      41.376 133.066  21.474  1.00  0.00     0.127 A 
ATOM      4  F   UNL     1      40.401 134.005  21.389  1.00  0.00    -0.207 F 
ATOM      5  C   UNL     1      41.593 132.393  22.676  1.00  0.00     0.082 A 
ATOM      6  C   UNL     1      42.594 131.424  22.768  1.00  0.00     0.169 A 
ATOM      7  F   UNL     1      42.732 130.731  23.927  1.00  0.00    -0.203 F 
ATOM      8  C   UNL     1      43.399 131.127  21.651  1.00  0.00     0.174 A 
ENDROOT
BRANCH   1   9
ATOM      9  C   UNL     1      43.993 131.506  19.231  1.00  0.00    -0.014 A 
ATOM     10  C   UNL     1      45.552 130.948  16.942  1.00  0.00    -0.001 A 
ATOM     11  C   UNL     1      44.259 131.484  16.813  1.00  0.00     0.011 A 
ATOM     12  C   UNL     1      46.064 130.716  18.231  1.00  0.00     0.011 A 
ATOM     13  C   UNL     1      43.488 131.759  17.947  1.00  0.00     0.009 A 
ATOM     14  C   UNL     1      45.293 130.991  19.363  1.00  0.00     0.009 A 
BRANCH  10  15
ATOM     15  C   UNL     1      46.387 130.651  15.750  1.00  0.00     0.080 C 
ATOM     16  O   UNL     1      46.421 131.469  14.792  1.00  0.00    -0.315 OA
BRANCH  15  17
ATOM     17  N   UNL     1      47.175 129.464  15.663  1.00  0.00    -0.664 NA
ATOM     18  H   UNL     1      47.457 128.904  16.497  1.00  0.00    -0.121 HD
ENDBRANCH  15  17
ENDBRANCH  10  15
ENDBRANCH   1   9
BRANCH   8  19
ATOM     19  O   UNL     1      44.382 130.129  21.714  1.00  0.00    -0.423 OA
BRANCH  19  20
ATOM     20  C   UNL     1      44.670 129.379  22.857  1.00  0.00     0.283 C 
BRANCH  20  21
ATOM     21  O   UNL     1      45.093 130.005  24.030  1.00  0.00    -0.481 OA
ATOM     22  H   UNL     1      45.445 130.956  24.034  1.00  0.00     0.297 HD
ENDBRANCH  20  21
BRANCH  20  23
ATOM     23  C   UNL     1      44.571 128.055  22.799  1.00  0.00     0.030 C 
ATOM     24  C   UNL     1      43.624 127.016  23.348  1.00  0.00     0.109 C 
ATOM     25  C   UNL     1      45.339 126.926  22.154  1.00  0.00     0.109 C 
ATOM     26  S   UNL     1      44.361 125.519  22.689  1.00  0.00    -0.152 SA
ENDBRANCH  20  23
ENDBRANCH  19  20
ENDBRANCH   8  19
TORSDOF 7
ENDMDL
MODEL 2
REMARK VINA RESULT:      -6.0      2.171      3.002
REMARK SMILES [NH-]C(=O)c1ccc(-c2cc(F)cc(F)c2OC(O)=C2CSC2)cc1
REMARK SMILES IDX 8 1 9 2 10 3 11 4 12 5 13 6 14 7 15 8 7 9 4 10 5 11 24 12
REMARK SMILES IDX 6 13 23 14 2 15 3 16 1 17 16 19 17 20 18 21 19 23 20 24
REMARK SMILES IDX 22 25 21 26
REMARK H PARENT 1 18 18 22
ROOT
ATOM      1  C   UNL     1      44.010 131.568  17.586  1.00  0.00     0.031 A 
ATOM      2  C   UNL     1      42.755 132.083  17.215  1.00  0.00     0.052 A 
ATOM      3  C   UNL     1      41.826 132.456  18.190  1.00  0.00     0.127 A 
ATOM      4  F   UNL     1      40.622 132.957  17.820  1.00  0.00    -0.207 F 
ATOM      5  C   UNL     1      42.133 132.305  19.542  1.00  0.00     0.082 A 
ATOM      6  C   UNL     1      43.371 131.788  19.928  1.00  0.00     0.169 A 
ATOM      7  F   UNL     1      43.613 131.580  21.247  1.00  0.00    -0.203 F 
ATOM      8  C   UNL     1      44.324 131.425  18.955  1.00  0.00     0.174 A 
ENDROOT
BRANCH   1   9
ATOM      9  C   UNL     1      44.983 131.189  16.534  1.00  0.00    -0.014 A 
ATOM     10  C   UNL     1      46.839 130.459  14.532  1.00  0.00    -0.001 A 
ATOM     11  C   UNL     1      46.102 129.477  15.216  1.00  0.00     0.011 A 
ATOM     12  C   UNL     1      46.620 131.812  14.847  1.00  0.00     0.011 A 
ATOM     13  C   UNL     1      45.184 129.839  16.207  1.00  0.00     0.009 A 
ATOM     14  C   UNL     1      45.703 132.173  15.837  1.00  0.00     0.009 A 
BRANCH  10  15
ATOM     15  C   UNL     1      47.816 130.095  13.476  1.00  0.00     0.080 C 
ATOM     16  O   UNL     1      47.925 130.818  12.449  1.00  0.00    -0.315 OA
BRANCH  15  17
ATOM     17  N   UNL     1      48.659 128.949  13.596  1.00  0.00    -0.664 NA
ATOM     18  H   UNL     1      48.611 128.134  12.946  1.00  0.00    -0.121 HD
ENDBRANCH  15  17
ENDBRANCH  10  15
ENDBRANCH   1   9
BRANCH   8  19
ATOM     19  O   UNL     1      45.556 130.868  19.323  1.00  0.00    -0.423 OA
BRANCH  19  20
ATOM     20  C   UNL     1      45.997 130.734  20.643  1.00  0.00     0.283 C 
BRANCH  20  21
ATOM     21  O   UNL     1      46.830 131.696  21.215  1.00  0.00    -0.481 OA
ATOM     22  H   UNL     1      46.459 132.511  21.692  1.00  0.00     0.297 HD
ENDBRANCH  20  21
BRANCH  20  23
ATOM     23  C   UNL     1      45.639 129.656  21.332  1.00  0.00     0.030 C 
ATOM     24  C   UNL     1      44.747 129.376  22.517  1.00  0.00     0.109 C 
ATOM     25  C   UNL     1      45.932 128.176  21.281  1.00  0.00     0.109 C 
ATOM     26  S   UNL     1      44.938 127.598  22.659  1.00  0.00    -0.152 SA
ENDBRANCH  20  23
ENDBRANCH  19  20
ENDBRANCH   8  19
TORSDOF 7
ENDMDL
MODEL 3
REMARK VINA RESULT:      -5.8      0.675      1.340
REMARK SMILES [NH-]C(=O)c1ccc(-c2cc(F)cc(F)c2OC(O)=C2CSC2)cc1
REMARK SMILES IDX 8 1 9 2 10 3 11 4 12 5 13 6 14 7 15 8 7 9 4 10 5 11 24 12
REMARK SMILES IDX 6 13 23 14 2 15 3 16 1 17 16 19 17 20 18 21 19 23 20 24
REMARK SMILES IDX 22 25 21 26
REMARK H PARENT 1 18 18 22
ROOT
ATOM      1  C   UNL     1      43.091 131.818  20.416  1.00  0.00     0.031 A 
ATOM      2  C   UNL     1      42.096 132.811  20.371  1.00  0.00     0.052 A 
ATOM      3  C   UNL     1      41.334 133.102  21.505  1.00  0.00     0.127 A 
ATOM      4  F   UNL     1      40.382 134.065  21.451  1.00  0.00    -0.207 F 
ATOM      5  C   UNL     1      41.546 132.397  22.690  1.00  0.00     0.082 A 
ATOM      6  C   UNL     1      42.524 131.402  22.750  1.00  0.00     0.169 A 
ATOM      7  F   UNL     1      42.656 130.680  23.891  1.00  0.00    -0.203 F 
ATOM      8  C   UNL     1      43.312 131.112  21.619  1.00  0.00     0.174 A 
ENDROOT
BRANCH   1   9
ATOM      9  C   UNL     1      43.895 131.534  19.203  1.00  0.00    -0.014 A 
ATOM     10  C   UNL     1      45.433 130.993  16.895  1.00  0.00    -0.001 A 
ATOM     11  C   UNL     1      45.951 130.736  18.177  1.00  0.00     0.011 A 
ATOM     12  C   UNL     1      44.128 131.503  16.782  1.00  0.00     0.011 A 
ATOM     13  C   UNL     1      45.190 131.005  19.318  1.00  0.00     0.009 A 
ATOM     14  C   UNL     1      43.367 131.771  17.924  1.00  0.00     0.009 A 
BRANCH  10  15
ATOM     15  C   UNL     1      46.226 130.712  15.672  1.00  0.00     0.080 C 
ATOM     16  O   UNL     1      47.108 129.813  15.692  1.00  0.00    -0.315 OA
BRANCH  15  17
ATOM     17  N   UNL     1      46.004 131.424  14.455  1.00  0.00    -0.664 NA
ATOM     18  H   UNL     1      45.738 130.957  13.561  1.00  0.00    -0.121 HD
ENDBRANCH  15  17
ENDBRANCH  10  15
ENDBRANCH   1   9
BRANCH   8  19
ATOM     19  O   UNL     1      44.272 130.091  21.649  1.00  0.00    -0.423 OA
BRANCH  19  20
ATOM     20  C   UNL     1      44.614 129.366  22.795  1.00  0.00     0.283 C 
BRANCH  20  21
ATOM     21  O   UNL     1      45.054 130.020  23.946  1.00  0.00    -0.481 OA
ATOM     22  H   UNL     1      44.447 130.636  24.477  1.00  0.00     0.297 HD
ENDBRANCH  20  21
BRANCH  20  23
ATOM     23  C   UNL     1      44.548 128.039  22.758  1.00  0.00     0.030 C 
ATOM     24  C   UNL     1      45.368 126.932  22.143  1.00  0.00     0.109 C 
ATOM     25  C   UNL     1      43.634 126.972  23.310  1.00  0.00     0.109 C 
ATOM     26  S   UNL     1      44.440 125.495  22.685  1.00  0.00    -0.152 SA
ENDBRANCH  20  23
ENDBRANCH  19  20
ENDBRANCH   8  19
TORSDOF 7
ENDMDL
MODEL 4
REMARK VINA RESULT:      -5.4      3.358      6.175
REMARK SMILES [NH-]C(=O)c1ccc(-c2cc(F)cc(F)c2OC(O)=C2CSC2)cc1
REMARK SMILES IDX 8 1 9 2 10 3 11 4 12 5 13 6 14 7 15 8 7 9 4 10 5 11 24 12
REMARK SMILES IDX 6 13 23 14 2 15 3 16 1 17 16 19 17 20 18 21 19 23 20 24
REMARK SMILES IDX 22 25 21 26
REMARK H PARENT 1 18 18 22
ROOT
ATOM      1  C   UNL     1      43.869 129.458  22.680  1.00  0.00     0.031 A 
ATOM      2  C   UNL     1      43.070 129.983  23.711  1.00  0.00     0.052 A 
ATOM      3  C   UNL     1      42.564 131.282  23.623  1.00  0.00     0.127 A 
ATOM      4  F   UNL     1      41.790 131.775  24.620  1.00  0.00    -0.207 F 
ATOM      5  C   UNL     1      42.862 132.074  22.514  1.00  0.00     0.082 A 
ATOM      6  C   UNL     1      43.661 131.572  21.485  1.00  0.00     0.169 A 
ATOM      7  F   UNL     1      43.999 132.390  20.457  1.00  0.00    -0.203 F 
ATOM      8  C   UNL     1      44.162 130.256  21.554  1.00  0.00     0.174 A 
ENDROOT
BRANCH   1   9
ATOM      9  C   UNL     1      44.386 128.072  22.791  1.00  0.00    -0.014 A 
ATOM     10  C   UNL     1      45.376 125.433  22.996  1.00  0.00    -0.001 A 
ATOM     11  C   UNL     1      46.106 126.420  22.311  1.00  0.00     0.011 A 
ATOM     12  C   UNL     1      44.155 125.789  23.596  1.00  0.00     0.011 A 
ATOM     13  C   UNL     1      45.615 127.725  22.209  1.00  0.00     0.009 A 
ATOM     14  C   UNL     1      43.665 127.094  23.494  1.00  0.00     0.009 A 
BRANCH  10  15
ATOM     15  C   UNL     1      45.881 124.043  23.116  1.00  0.00     0.080 C 
ATOM     16  O   UNL     1      47.049 123.837  23.541  1.00  0.00    -0.315 OA
BRANCH  15  17
ATOM     17  N   UNL     1      45.069 122.918  22.779  1.00  0.00    -0.664 NA
ATOM     18  H   UNL     1      44.392 122.920  21.986  1.00  0.00    -0.121 HD
ENDBRANCH  15  17
ENDBRANCH  10  15
ENDBRANCH   1   9
BRANCH   8  19
ATOM     19  O   UNL     1      44.997 129.748  20.549  1.00  0.00    -0.423 OA
BRANCH  19  20
ATOM     20  C   UNL     1      45.849 130.530  19.763  1.00  0.00     0.283 C 
BRANCH  20  21
ATOM     21  O   UNL     1      46.930 131.200  20.337  1.00  0.00    -0.481 OA
ATOM     22  H   UNL     1      46.987 132.213  20.349  1.00  0.00     0.297 HD
ENDBRANCH  20  21
BRANCH  20  23
ATOM     23  C   UNL     1      45.591 130.655  18.466  1.00  0.00     0.030 C 
ATOM     24  C   UNL     1      44.641 131.474  17.626  1.00  0.00     0.109 C 
ATOM     25  C   UNL     1      46.113 130.056  17.182  1.00  0.00     0.109 C 
ATOM     26  S   UNL     1      45.090 130.913  15.981  1.00  0.00    -0.152 SA
ENDBRANCH  20  23
ENDBRANCH  19  20
ENDBRANCH   8  19
TORSDOF 7
ENDMDL
MODEL 5
REMARK VINA RESULT:      -5.3      1.191      1.676
REMARK SMILES [NH-]C(=O)c1ccc(-c2cc(F)cc(F)c2OC(O)=C2CSC2)cc1
REMARK SMILES IDX 8 1 9 2 10 3 11 4 12 5 13 6 14 7 15 8 7 9 4 10 5 11 24 12
REMARK SMILES IDX 6 13 23 14 2 15 3 16 1 17 16 19 17 20 18 21 19 23 20 24
REMARK SMILES IDX 22 25 21 26
REMARK H PARENT 1 18 18 22
ROOT
ATOM      1  C   UNL     1      43.677 131.632  20.172  1.00  0.00     0.031 A 
ATOM      2  C   UNL     1      42.500 132.401  20.136  1.00  0.00     0.052 A 
ATOM      3  C   UNL     1      41.839 132.740  21.318  1.00  0.00     0.127 A 
ATOM      4  F   UNL     1      40.708 133.486  21.271  1.00  0.00    -0.207 F 
ATOM      5  C   UNL     1      42.336 132.304  22.547  1.00  0.00     0.082 A 
ATOM      6  C   UNL     1      43.499 131.534  22.601  1.00  0.00     0.169 A 
ATOM      7  F   UNL     1      43.916 131.059  23.802  1.00  0.00    -0.203 F 
ATOM      8  C   UNL     1      44.185 131.201  21.416  1.00  0.00     0.174 A 
ENDROOT
BRANCH   1   9
ATOM      9  C   UNL     1      44.367 131.294  18.904  1.00  0.00    -0.014 A 
ATOM     10  C   UNL     1      45.690 130.646  16.492  1.00  0.00    -0.001 A 
ATOM     11  C   UNL     1      46.147 130.133  17.719  1.00  0.00     0.011 A 
ATOM     12  C   UNL     1      44.549 131.469  16.485  1.00  0.00     0.011 A 
ATOM     13  C   UNL     1      45.493 130.455  18.912  1.00  0.00     0.009 A 
ATOM     14  C   UNL     1      43.896 131.789  17.678  1.00  0.00     0.009 A 
BRANCH  10  15
ATOM     15  C   UNL     1      46.370 130.314  15.215  1.00  0.00     0.080 C 
ATOM     16  O   UNL     1      45.810 130.587  14.120  1.00  0.00    -0.315 OA
BRANCH  15  17
ATOM     17  N   UNL     1      47.661 129.706  15.189  1.00  0.00    -0.664 NA
ATOM     18  H   UNL     1      47.989 129.032  15.914  1.00  0.00    -0.121 HD
ENDBRANCH  15  17
ENDBRANCH  10  15
ENDBRANCH   1   9
BRANCH   8  19
ATOM     19  O   UNL     1      45.332 130.396  21.448  1.00  0.00    -0.423 OA
BRANCH  19  20
ATOM     20  C   UNL     1      45.324 129.024  21.719  1.00  0.00     0.283 C 
BRANCH  20  21
ATOM     21  O   UNL     1      46.064 128.139  20.934  1.00  0.00    -0.481 OA
ATOM     22  H   UNL     1      45.741 127.197  20.740  1.00  0.00     0.297 HD
ENDBRANCH  20  21
BRANCH  20  23
ATOM     23  C   UNL     1      44.571 128.572  22.716  1.00  0.00     0.030 C 
ATOM     24  C   UNL     1      43.124 128.176  22.885  1.00  0.00     0.109 C 
ATOM     25  C   UNL     1      44.773 128.219  24.170  1.00  0.00     0.109 C 
ATOM     26  S   UNL     1      43.114 127.696  24.614  1.00  0.00    -0.152 SA
ENDBRANCH  20  23
ENDBRANCH  19  20
ENDBRANCH   8  19
TORSDOF 7
ENDMDL
MODEL 6
REMARK VINA RESULT:      -5.1      3.401      6.098
REMARK SMILES [NH-]C(=O)c1ccc(-c2cc(F)cc(F)c2OC(O)=C2CSC2)cc1
REMARK SMILES IDX 8 1 9 2 10 3 11 4 12 5 13 6 14 7 15 8 7 9 4 10 5 11 24 12
REMARK SMILES IDX 6 13 23 14 2 15 3 16 1 17 16 19 17 20 18 21 19 23 20 24
REMARK SMILES IDX 22 25 21 26
REMARK H PARENT 1 18 18 22
ROOT
ATOM      1  C   UNL     1      43.632 129.810  22.637  1.00  0.00     0.031 A 
ATOM      2  C   UNL     1      42.830 130.376  23.644  1.00  0.00     0.052 A 
ATOM      3  C   UNL     1      42.252 131.634  23.465  1.00  0.00     0.127 A 
ATOM      4  F   UNL     1      41.476 132.168  24.441  1.00  0.00    -0.207 F 
ATOM      5  C   UNL     1      42.479 132.347  22.288  1.00  0.00     0.082 A 
ATOM      6  C   UNL     1      43.279 131.804  21.281  1.00  0.00     0.169 A 
ATOM      7  F   UNL     1      43.546 132.551  20.180  1.00  0.00    -0.203 F 
ATOM      8  C   UNL     1      43.852 130.527  21.441  1.00  0.00     0.174 A 
ENDROOT
BRANCH   1   9
ATOM      9  C   UNL     1      44.226 128.467  22.845  1.00  0.00    -0.014 A 
ATOM     10  C   UNL     1      45.355 125.908  23.248  1.00  0.00    -0.001 A 
ATOM     11  C   UNL     1      44.245 126.327  24.002  1.00  0.00     0.011 A 
ATOM     12  C   UNL     1      45.879 126.777  22.275  1.00  0.00     0.011 A 
ATOM     13  C   UNL     1      43.687 127.594  23.803  1.00  0.00     0.009 A 
ATOM     14  C   UNL     1      45.321 128.043  22.076  1.00  0.00     0.009 A 
BRANCH  10  15
ATOM     15  C   UNL     1      45.960 124.567  23.444  1.00  0.00     0.080 C 
ATOM     16  O   UNL     1      45.843 123.692  22.545  1.00  0.00    -0.315 OA
BRANCH  15  17
ATOM     17  N   UNL     1      46.693 124.240  24.625  1.00  0.00    -0.664 NA
ATOM     18  H   UNL     1      47.721 124.063  24.627  1.00  0.00    -0.121 HD
ENDBRANCH  15  17
ENDBRANCH  10  15
ENDBRANCH   1   9
BRANCH   8  19
ATOM     19  O   UNL     1      44.689 129.982  20.458  1.00  0.00    -0.423 OA
BRANCH  19  20
ATOM     20  C   UNL     1      45.663 130.705  19.763  1.00  0.00     0.283 C 
BRANCH  20  21
ATOM     21  O   UNL     1      46.703 131.336  20.446  1.00  0.00    -0.481 OA
ATOM     22  H   UNL     1      47.044 132.253  20.175  1.00  0.00     0.297 HD
ENDBRANCH  20  21
BRANCH  20  23
ATOM     23  C   UNL     1      45.561 130.814  18.442  1.00  0.00     0.030 C 
ATOM     24  C   UNL     1      45.859 129.929  17.257  1.00  0.00     0.109 C 
ATOM     25  C   UNL     1      45.095 131.864  17.462  1.00  0.00     0.109 C 
ATOM     26  S   UNL     1      45.365 131.005  15.910  1.00  0.00    -0.152 SA
ENDBRANCH  20  23
ENDBRANCH  19  20
ENDBRANCH   8  19
TORSDOF 7
ENDMDL
MODEL 7
REMARK VINA RESULT:      -4.9      1.362      1.516
REMARK SMILES [NH-]C(=O)c1ccc(-c2cc(F)cc(F)c2OC(O)=C2CSC2)cc1
REMARK SMILES IDX 8 1 9 2 10 3 11 4 12 5 13 6 14 7 15 8 7 9 4 10 5 11 24 12
REMARK SMILES IDX 6 13 23 14 2 15 3 16 1 17 16 19 17 20 18 21 19 23 20 24
REMARK SMILES IDX 22 25 21 26
REMARK H PARENT 1 18 18 22
ROOT
ATOM      1  C   UNL     1      43.706 131.699  20.140  1.00  0.00     0.031 A 
ATOM      2  C   UNL     1      42.518 132.449  20.093  1.00  0.00     0.052 A 
ATOM      3  C   UNL     1      41.823 132.750  21.266  1.00  0.00     0.127 A 
ATOM      4  F   UNL     1      40.681 133.479  21.209  1.00  0.00    -0.207 F 
ATOM      5  C   UNL     1      42.298 132.294  22.496  1.00  0.00     0.082 A 
ATOM      6  C   UNL     1      43.472 131.541  22.561  1.00  0.00     0.169 A 
ATOM      7  F   UNL     1      43.868 131.046  23.761  1.00  0.00    -0.203 F 
ATOM      8  C   UNL     1      44.192 131.247  21.387  1.00  0.00     0.174 A 
ENDROOT
BRANCH   1   9
ATOM      9  C   UNL     1      44.432 131.401  18.882  1.00  0.00    -0.014 A 
ATOM     10  C   UNL     1      45.810 130.835  16.481  1.00  0.00    -0.001 A 
ATOM     11  C   UNL     1      44.753 131.761  16.498  1.00  0.00     0.011 A 
ATOM     12  C   UNL     1      46.185 130.212  17.685  1.00  0.00     0.011 A 
ATOM     13  C   UNL     1      44.071 132.040  17.686  1.00  0.00     0.009 A 
ATOM     14  C   UNL     1      45.502 130.491  18.872  1.00  0.00     0.009 A 
BRANCH  10  15
ATOM     15  C   UNL     1      46.547 130.527  15.230  1.00  0.00     0.080 C 
ATOM     16  O   UNL     1      47.255 129.487  15.161  1.00  0.00    -0.315 OA
BRANCH  15  17
ATOM     17  N   UNL     1      46.463 131.373  14.083  1.00  0.00    -0.664 NA
ATOM     18  H   UNL     1      45.750 132.127  13.980  1.00  0.00    -0.121 HD
ENDBRANCH  15  17
ENDBRANCH  10  15
ENDBRANCH   1   9
BRANCH   8  19
ATOM     19  O   UNL     1      45.351 130.460  21.428  1.00  0.00    -0.423 OA
BRANCH  19  20
ATOM     20  C   UNL     1      45.367 129.098  21.743  1.00  0.00     0.283 C 
BRANCH  20  21
ATOM     21  O   UNL     1      46.151 128.207  21.009  1.00  0.00    -0.481 OA
ATOM     22  H   UNL     1      46.354 127.271  21.343  1.00  0.00     0.297 HD
ENDBRANCH  20  21
BRANCH  20  23
ATOM     23  C   UNL     1      44.595 128.659  22.731  1.00  0.00     0.030 C 
ATOM     24  C   UNL     1      43.171 128.177  22.859  1.00  0.00     0.109 C 
ATOM     25  C   UNL     1      44.746 128.413  24.214  1.00  0.00     0.109 C 
ATOM     26  S   UNL     1      43.104 127.807  24.613  1.00  0.00    -0.152 SA
ENDBRANCH  20  23
ENDBRANCH  19  20
ENDBRANCH   8  19
TORSDOF 7
ENDMDL
MODEL 8
REMARK VINA RESULT:      -4.7      1.865      2.610
REMARK SMILES [NH-]C(=O)c1ccc(-c2cc(F)cc(F)c2OC(O)=C2CSC2)cc1
REMARK SMILES IDX 8 1 9 2 10 3 11 4 12 5 13 6 14 7 15 8 7 9 4 10 5 11 24 12
REMARK SMILES IDX 6 13 23 14 2 15 3 16 1 17 16 19 17 20 18 21 19 23 20 24
REMARK SMILES IDX 22 25 21 26
REMARK H PARENT 1 18 18 22
ROOT
ATOM      1  C   UNL     1      43.827 131.718  18.383  1.00  0.00     0.031 A 
ATOM      2  C   UNL     1      42.516 132.112  18.066  1.00  0.00     0.052 A 
ATOM      3  C   UNL     1      41.630 132.504  19.072  1.00  0.00     0.127 A 
ATOM      4  F   UNL     1      40.369 132.887  18.753  1.00  0.00    -0.207 F 
ATOM      5  C   UNL     1      42.039 132.493  20.406  1.00  0.00     0.082 A 
ATOM      6  C   UNL     1      43.336 132.098  20.740  1.00  0.00     0.169 A 
ATOM      7  F   UNL     1      43.681 132.023  22.050  1.00  0.00    -0.203 F 
ATOM      8  C   UNL     1      44.244 131.718  19.732  1.00  0.00     0.174 A 
ENDROOT
BRANCH   1   9
ATOM      9  C   UNL     1      44.753 131.317  17.297  1.00  0.00    -0.014 A 
ATOM     10  C   UNL     1      46.517 130.544  15.229  1.00  0.00    -0.001 A 
ATOM     11  C   UNL     1      45.832 129.576  15.983  1.00  0.00     0.011 A 
ATOM     12  C   UNL     1      46.292 131.904  15.507  1.00  0.00     0.011 A 
ATOM     13  C   UNL     1      44.960 129.959  17.007  1.00  0.00     0.009 A 
ATOM     14  C   UNL     1      45.420 132.286  16.530  1.00  0.00     0.009 A 
BRANCH  10  15
ATOM     15  C   UNL     1      47.445 130.157  14.137  1.00  0.00     0.080 C 
ATOM     16  O   UNL     1      47.721 130.986  13.228  1.00  0.00    -0.315 OA
BRANCH  15  17
ATOM     17  N   UNL     1      48.058 128.868  14.095  1.00  0.00    -0.664 NA
ATOM     18  H   UNL     1      47.606 128.036  13.657  1.00  0.00    -0.121 HD
ENDBRANCH  15  17
ENDBRANCH  10  15
ENDBRANCH   1   9
BRANCH   8  19
ATOM     19  O   UNL     1      45.537 131.282  20.052  1.00  0.00    -0.423 OA
BRANCH  19  20
ATOM     20  C   UNL     1      45.880 129.948  20.294  1.00  0.00     0.283 C 
BRANCH  20  21
ATOM     21  O   UNL     1      46.670 129.241  19.386  1.00  0.00    -0.481 OA
ATOM     22  H   UNL     1      47.043 128.323  19.603  1.00  0.00     0.297 HD
ENDBRANCH  20  21
BRANCH  20  23
ATOM     23  C   UNL     1      45.411 129.352  21.385  1.00  0.00     0.030 C 
ATOM     24  C   UNL     1      45.391 127.943  21.924  1.00  0.00     0.109 C 
ATOM     25  C   UNL     1      44.672 129.775  22.632  1.00  0.00     0.109 C 
ATOM     26  S   UNL     1      44.525 128.196  23.475  1.00  0.00    -0.152 SA
ENDBRANCH  20  23
ENDBRANCH  19  20
ENDBRANCH   8  19
TORSDOF 7
ENDMDL
MODEL 9
REMARK VINA RESULT:      -4.6      3.552      4.588
REMARK SMILES [NH-]C(=O)c1ccc(-c2cc(F)cc(F)c2OC(O)=C2CSC2)cc1
REMARK SMILES IDX 8 1 9 2 10 3 11 4 12 5 13 6 14 7 15 8 7 9 4 10 5 11 24 12
REMARK SMILES IDX 6 13 23 14 2 15 3 16 1 17 16 19 17 20 18 21 19 23 20 24
REMARK SMILES IDX 22 25 21 26
REMARK H PARENT 1 18 18 22
ROOT
ATOM      1  C   UNL     1      44.193 131.272  21.446  1.00  0.00     0.031 A 
ATOM      2  C   UNL     1      43.325 130.332  22.028  1.00  0.00     0.052 A 
ATOM      3  C   UNL     1      43.122 130.316  23.410  1.00  0.00     0.127 A 
ATOM      4  F   UNL     1      42.279 129.407  23.959  1.00  0.00    -0.207 F 
ATOM      5  C   UNL     1      43.792 131.227  24.226  1.00  0.00     0.082 A 
ATOM      6  C   UNL     1      44.664 132.163  23.666  1.00  0.00     0.169 A 
ATOM      7  F   UNL     1      45.360 132.986  24.489  1.00  0.00    -0.203 F 
ATOM      8  C   UNL     1      44.863 132.202  22.271  1.00  0.00     0.174 A 
ENDROOT
BRANCH   1   9
ATOM      9  C   UNL     1      44.385 131.277  19.976  1.00  0.00    -0.014 A 
ATOM     10  C   UNL     1      44.758 131.285  17.175  1.00  0.00    -0.001 A 
ATOM     11  C   UNL     1      45.686 130.648  18.018  1.00  0.00     0.011 A 
ATOM     12  C   UNL     1      43.630 131.898  17.748  1.00  0.00     0.011 A 
ATOM     13  C   UNL     1      45.501 130.646  19.404  1.00  0.00     0.009 A 
ATOM     14  C   UNL     1      43.446 131.895  19.134  1.00  0.00     0.009 A 
BRANCH  10  15
ATOM     15  C   UNL     1      44.936 131.297  15.701  1.00  0.00     0.080 C 
ATOM     16  O   UNL     1      44.319 130.459  14.991  1.00  0.00    -0.315 OA
BRANCH  15  17
ATOM     17  N   UNL     1      45.780 132.250  15.055  1.00  0.00    -0.664 NA
ATOM     18  H   UNL     1      46.131 133.112  15.525  1.00  0.00    -0.121 HD
ENDBRANCH  15  17
ENDBRANCH  10  15
ENDBRANCH   1   9
BRANCH   8  19
ATOM     19  O   UNL     1      45.763 133.109  21.695  1.00  0.00    -0.423 OA
BRANCH  19  20
ATOM     20  C   UNL     1      47.130 132.867  21.535  1.00  0.00     0.283 C 
BRANCH  20  21
ATOM     21  O   UNL     1      47.579 131.690  20.935  1.00  0.00    -0.481 OA
ATOM     22  H   UNL     1      47.554 131.558  19.930  1.00  0.00     0.297 HD
ENDBRANCH  20  21
BRANCH  20  23
ATOM     23  C   UNL     1      47.999 133.760  21.998  1.00  0.00     0.030 C 
ATOM     24  C   UNL     1      48.953 133.838  23.165  1.00  0.00     0.109 C 
ATOM     25  C   UNL     1      48.476 135.135  21.595  1.00  0.00     0.109 C 
ATOM     26  S   UNL     1      49.673 135.458  22.893  1.00  0.00    -0.152 SA
ENDBRANCH  20  23
ENDBRANCH  19  20
ENDBRANCH   8  19
TORSDOF 7
ENDMDL


