MODEL 1
REMARK VINA RESULT:      -8.5      0.000      0.000
REMARK SMILES N#CC1=CCCC[C@H]1OC(=O)c1cc(F)ccc1[NH2+]c1cc2ccccc2[n-]1
REMARK SMILES IDX 9 1 8 2 3 3 4 4 5 5 7 6 6 7 2 8 1 9 10 10 11 11 12 12 13 13
REMARK SMILES IDX 18 14 14 15 17 16 16 17 15 18 19 19 20 22 21 23 28 24 22 25
REMARK SMILES IDX 27 26 23 27 26 28 24 29 25 30
REMARK H PARENT 19 20 19 21
ROOT
ATOM      1  O   UNL     1      44.413 129.218  22.549  1.00  0.00    -0.453 OA
ENDROOT
BRANCH   1   2
ATOM      2  C   UNL     1      44.462 128.249  23.599  1.00  0.00     0.217 C 
ATOM      3  C   UNL     1      43.160 127.472  23.655  1.00  0.00     0.066 C 
ATOM      4  C   UNL     1      43.038 126.235  23.148  1.00  0.00    -0.008 C 
ATOM      5  C   UNL     1      44.201 125.452  22.600  1.00  0.00     0.029 C 
ATOM      6  C   UNL     1      45.672 127.330  23.368  1.00  0.00     0.051 C 
ATOM      7  C   UNL     1      45.392 126.342  22.237  1.00  0.00     0.008 C 
BRANCH   3   8
ATOM      8  C   UNL     1      41.987 128.116  24.193  1.00  0.00     0.098 C 
ATOM      9  N   UNL     1      41.048 128.635  24.625  1.00  0.00    -0.193 NA
ENDBRANCH   3   8
ENDBRANCH   1   2
BRANCH   1  10
ATOM     10  C   UNL     1      44.034 130.553  22.737  1.00  0.00     0.344 C 
ATOM     11  O   UNL     1      44.241 131.110  23.850  1.00  0.00    -0.246 OA
BRANCH  10  12
ATOM     12  C   UNL     1      43.447 131.346  21.625  1.00  0.00     0.124 A 
ATOM     13  C   UNL     1      42.289 132.100  21.897  1.00  0.00     0.061 A 
ATOM     14  C   UNL     1      43.986 131.364  20.302  1.00  0.00     0.148 A 
ATOM     15  C   UNL     1      41.678 132.866  20.905  1.00  0.00     0.124 A 
ATOM     16  C   UNL     1      43.346 132.145  19.318  1.00  0.00     0.072 A 
ATOM     17  C   UNL     1      42.206 132.890  19.619  1.00  0.00     0.045 A 
ATOM     18  F   UNL     1      40.567 133.589  21.193  1.00  0.00    -0.207 F 
BRANCH  14  19
ATOM     19  N   UNL     1      45.134 130.570  19.916  1.00  0.00    -0.299 N 
ATOM     20  H   UNL     1      45.999 130.904  20.401  1.00  0.00     0.356 HD
ATOM     21  H   UNL     1      44.997 129.580  20.217  1.00  0.00     0.356 HD
BRANCH  19  22
ATOM     22  C   UNL     1      45.391 130.637  18.500  1.00  0.00     0.036 A 
ATOM     23  C   UNL     1      45.391 131.804  17.732  1.00  0.00     0.050 A 
ATOM     24  N   UNL     1      45.816 129.563  17.791  1.00  0.00    -0.610 NA
ATOM     25  C   UNL     1      45.795 131.394  16.487  1.00  0.00    -0.036 A 
ATOM     26  C   UNL     1      46.045 130.050  16.558  1.00  0.00    -0.125 A 
ATOM     27  C   UNL     1      45.973 132.118  15.310  1.00  0.00     0.007 A 
ATOM     28  C   UNL     1      46.501 129.334  15.451  1.00  0.00    -0.015 A 
ATOM     29  C   UNL     1      46.420 131.419  14.173  1.00  0.00     0.001 A 
ATOM     30  C   UNL     1      46.684 130.034  14.244  1.00  0.00    -0.001 A 
ENDBRANCH  19  22
ENDBRANCH  14  19
ENDBRANCH  10  12
ENDBRANCH   1  10
TORSDOF 6
ENDMDL


