REMARK SMILES Cc1cc(F)ncc1-c1ccc2c(C)[nH][nH+]c2c1
REMARK SMILES IDX 9 1 10 2 11 3 12 4 13 5 14 6 15 7 16 8 17 9 18 10 8 13 2 14
REMARK SMILES IDX 3 15 4 16 7 17 6 18 1 19 5 20
REMARK H PARENT 15 11 16 12
ROOT
ATOM      1  C   UNL     1       0.177   0.474  -0.480  1.00  0.00    -0.010 A 
ATOM      2  C   UNL     1       0.008  -0.933  -0.380  1.00  0.00     0.010 A 
ATOM      3  C   UNL     1       0.519  -1.791  -1.371  1.00  0.00     0.018 A 
ATOM      4  C   UNL     1       1.202  -1.211  -2.436  1.00  0.00     0.073 A 
ATOM      5  C   UNL     1       1.813  -1.739  -3.556  1.00  0.00     0.084 A 
ATOM      6  C   UNL     1       1.857  -3.175  -3.965  1.00  0.00     0.071 C 
ATOM      7  N   UNL     1       2.311  -0.712  -4.284  1.00  0.00    -0.171 N 
ATOM      8  N   UNL     1       2.052   0.431  -3.661  1.00  0.00    -0.126 N 
ATOM      9  C   UNL     1       1.377   0.142  -2.535  1.00  0.00     0.236 A 
ATOM     10  C   UNL     1       0.884   1.022  -1.575  1.00  0.00     0.091 A 
ATOM     11  H   UNL     1       2.814  -0.785  -5.197  1.00  0.00     0.238 HD
ATOM     12  H   UNL     1       2.324   1.378  -4.008  1.00  0.00     0.488 HD
ENDROOT
BRANCH   1  13
ATOM     13  C   UNL     1      -0.356   1.368   0.572  1.00  0.00     0.003 A 
ATOM     14  C   UNL     1      -1.734   1.420   0.895  1.00  0.00    -0.037 A 
ATOM     15  C   UNL     1      -2.158   2.261   1.935  1.00  0.00     0.064 A 
ATOM     16  C   UNL     1      -1.230   3.057   2.607  1.00  0.00     0.213 A 
ATOM     17  C   UNL     1       0.533   2.200   1.272  1.00  0.00     0.123 A 
ATOM     18  N   UNL     1       0.081   3.013   2.262  1.00  0.00    -0.228 NA
ATOM     19  C   UNL     1      -2.757   0.589   0.166  1.00  0.00     0.045 C 
ATOM     20  F   UNL     1      -1.637   3.879   3.605  1.00  0.00    -0.185 F 
ENDBRANCH   1  13
TORSDOF 1


