REMARK SMILES Cc1cc(F)[nH+]cc1-c1ccc2cc(Nc3cn4ccccc4n3)[nH]c2c1
REMARK SMILES IDX 9 1 10 2 11 3 12 4 13 5 14 6 25 7 26 8 27 9 8 11 2 12 3 13
REMARK SMILES IDX 4 14 7 15 6 16 1 17 5 18 15 20 16 22 17 23 24 24 18 25 23 26
REMARK SMILES IDX 19 27 22 28 20 29 21 30
REMARK H PARENT 25 10 6 19 15 21
ROOT
ATOM      1  C   UNL     1      -3.050  -0.156  -0.541  1.00  0.00    -0.010 A 
ATOM      2  C   UNL     1      -2.445  -1.028  -1.483  1.00  0.00     0.010 A 
ATOM      3  C   UNL     1      -1.054  -1.237  -1.477  1.00  0.00     0.011 A 
ATOM      4  C   UNL     1      -0.297  -0.553  -0.530  1.00  0.00     0.002 A 
ATOM      5  C   UNL     1       1.060  -0.568  -0.290  1.00  0.00     0.055 A 
ATOM      6  C   UNL     1       1.237   0.312   0.780  1.00  0.00     0.109 A 
ATOM      7  N   UNL     1       0.056   0.830   1.189  1.00  0.00    -0.341 N 
ATOM      8  C   UNL     1      -0.872   0.297   0.377  1.00  0.00     0.048 A 
ATOM      9  C   UNL     1      -2.246   0.525   0.400  1.00  0.00     0.035 A 
ATOM     10  H   UNL     1      -0.102   1.500   1.975  1.00  0.00     0.168 HD
ENDROOT
BRANCH   1  11
ATOM     11  C   UNL     1      -4.514   0.059  -0.568  1.00  0.00     0.049 A 
ATOM     12  C   UNL     1      -5.341  -0.220   0.547  1.00  0.00    -0.028 A 
ATOM     13  C   UNL     1      -6.714   0.052   0.460  1.00  0.00     0.118 A 
ATOM     14  C   UNL     1      -7.250   0.554  -0.726  1.00  0.00     0.358 A 
ATOM     15  C   UNL     1      -5.107   0.551  -1.742  1.00  0.00     0.317 A 
ATOM     16  N   UNL     1      -6.445   0.785  -1.796  1.00  0.00    -0.186 N 
ATOM     17  C   UNL     1      -4.789  -0.785   1.829  1.00  0.00     0.045 C 
ATOM     18  F   UNL     1      -8.580   0.808  -0.811  1.00  0.00    -0.136 F 
ATOM     19  H   UNL     1      -6.861   1.158  -2.678  1.00  0.00     0.456 HD
ENDBRANCH   1  11
BRANCH   6  20
ATOM     20  N   UNL     1       2.478   0.608   1.438  1.00  0.00    -0.325 N 
ATOM     21  H   UNL     1       2.432   1.060   2.379  1.00  0.00     0.170 HD
BRANCH  20  22
ATOM     22  C   UNL     1       3.774   0.378   0.869  1.00  0.00     0.150 A 
ATOM     23  C   UNL     1       4.968   0.520   1.556  1.00  0.00     0.139 A 
ATOM     24  N   UNL     1       3.997   0.057  -0.429  1.00  0.00    -0.211 NA
ATOM     25  N   UNL     1       5.946   0.269   0.676  1.00  0.00    -0.305 N 
ATOM     26  C   UNL     1       5.343  -0.004  -0.494  1.00  0.00     0.139 A 
ATOM     27  C   UNL     1       7.292   0.273   0.844  1.00  0.00     0.093 A 
ATOM     28  C   UNL     1       6.092  -0.307  -1.630  1.00  0.00     0.048 A 
ATOM     29  C   UNL     1       8.097  -0.026  -0.266  1.00  0.00     0.018 A 
ATOM     30  C   UNL     1       7.491  -0.316  -1.504  1.00  0.00     0.005 A 
ENDBRANCH  20  22
ENDBRANCH   6  20
TORSDOF 3


