MODEL 1
REMARK VINA RESULT:      -3.7      0.000      0.000
REMARK SMILES C/C=C(\C)C(=O)N1CC[C@H](C)[C@H](F)[C@H]1c1ccc(C(C)=O)cc1
REMARK SMILES IDX 7 1 8 2 9 3 10 4 11 5 12 6 13 7 14 8 5 9 6 10 3 11 4 12 2 13
REMARK SMILES IDX 1 14 15 15 16 16 23 17 17 18 22 19 18 20 19 21 21 22 20 23
REMARK H PARENT
ROOT
ATOM      1  N   UNL     1      45.601 124.377  23.177  1.00  0.00    -0.329 N 
ATOM      2  C   UNL     1      46.191 123.887  21.919  1.00  0.00     0.121 C 
ATOM      3  C   UNL     1      47.713 124.014  21.893  1.00  0.00     0.028 C 
ATOM      4  C   UNL     1      48.151 125.417  22.320  1.00  0.00     0.024 C 
ATOM      5  C   UNL     1      49.672 125.572  22.193  1.00  0.00     0.011 C 
ATOM      6  C   UNL     1      47.690 125.681  23.762  1.00  0.00     0.196 C 
ATOM      7  F   UNL     1      48.333 124.804  24.625  1.00  0.00    -0.245 F 
ATOM      8  C   UNL     1      46.162 125.520  23.936  1.00  0.00     0.150 C 
ENDROOT
BRANCH   1   9
ATOM      9  C   UNL     1      44.267 123.932  23.497  1.00  0.00     0.249 C 
ATOM     10  O   UNL     1      44.041 123.415  24.625  1.00  0.00    -0.269 OA
BRANCH   9  11
ATOM     11  C   UNL     1      43.153 124.068  22.530  1.00  0.00     0.010 C 
ATOM     12  C   UNL     1      43.158 125.236  21.576  1.00  0.00     0.050 C 
BRANCH  11  13
ATOM     13  C   UNL     1      42.220 123.101  22.450  1.00  0.00    -0.021 C 
ATOM     14  C   UNL     1      41.321 122.723  23.588  1.00  0.00     0.036 C 
ENDBRANCH  11  13
ENDBRANCH   9  11
ENDBRANCH   1   9
BRANCH   8  15
ATOM     15  C   UNL     1      45.418 126.816  23.636  1.00  0.00    -0.022 A 
ATOM     16  C   UNL     1      44.596 127.383  24.625  1.00  0.00     0.007 A 
ATOM     17  C   UNL     1      45.555 127.486  22.409  1.00  0.00     0.007 A 
ATOM     18  C   UNL     1      43.912 128.577  24.385  1.00  0.00     0.012 A 
ATOM     19  C   UNL     1      44.871 128.680  22.168  1.00  0.00     0.012 A 
ATOM     20  C   UNL     1      44.036 129.241  23.152  1.00  0.00     0.017 A 
BRANCH  20  21
ATOM     21  C   UNL     1      43.298 130.510  22.911  1.00  0.00     0.159 C 
ATOM     22  O   UNL     1      42.645 131.042  23.850  1.00  0.00    -0.295 OA
ATOM     23  C   UNL     1      43.302 131.188  21.574  1.00  0.00     0.093 C 
ENDBRANCH  20  21
ENDBRANCH   8  15
TORSDOF 5
ENDMDL
MODEL 2
REMARK VINA RESULT:      -3.2      3.456      7.282
REMARK SMILES C/C=C(\C)C(=O)N1CC[C@H](C)[C@H](F)[C@H]1c1ccc(C(C)=O)cc1
REMARK SMILES IDX 7 1 8 2 9 3 10 4 11 5 12 6 13 7 14 8 5 9 6 10 3 11 4 12 2 13
REMARK SMILES IDX 1 14 15 15 16 16 23 17 17 18 22 19 18 20 19 21 21 22 20 23
REMARK H PARENT
ROOT
ATOM      1  N   UNL     1      44.493 131.127  21.093  1.00  0.00    -0.329 N 
ATOM      2  C   UNL     1      43.171 131.636  20.685  1.00  0.00     0.121 C 
ATOM      3  C   UNL     1      42.430 132.331  21.826  1.00  0.00     0.028 C 
ATOM      4  C   UNL     1      42.439 131.467  23.089  1.00  0.00     0.024 C 
ATOM      5  C   UNL     1      41.606 132.122  24.199  1.00  0.00     0.011 C 
ATOM      6  C   UNL     1      43.889 131.246  23.548  1.00  0.00     0.196 C 
ATOM      7  F   UNL     1      44.452 132.460  23.915  1.00  0.00    -0.245 F 
ATOM      8  C   UNL     1      44.767 130.600  22.451  1.00  0.00     0.150 C 
ENDROOT
BRANCH   1   9
ATOM      9  C   UNL     1      45.442 130.845  20.045  1.00  0.00     0.249 C 
ATOM     10  O   UNL     1      46.649 130.636  20.343  1.00  0.00    -0.269 OA
BRANCH   9  11
ATOM     11  C   UNL     1      45.032 130.794  18.622  1.00  0.00     0.010 C 
ATOM     12  C   UNL     1      43.939 131.717  18.147  1.00  0.00     0.050 C 
BRANCH  11  13
ATOM     13  C   UNL     1      45.707 130.007  17.763  1.00  0.00    -0.021 C 
ATOM     14  C   UNL     1      46.186 130.470  16.421  1.00  0.00     0.036 C 
ENDBRANCH  11  13
ENDBRANCH   9  11
ENDBRANCH   1   9
BRANCH   8  15
ATOM     15  C   UNL     1      44.696 129.079  22.491  1.00  0.00    -0.022 A 
ATOM     16  C   UNL     1      45.679 128.325  21.828  1.00  0.00     0.007 A 
ATOM     17  C   UNL     1      43.693 128.398  23.203  1.00  0.00     0.007 A 
ATOM     18  C   UNL     1      45.649 126.929  21.857  1.00  0.00     0.012 A 
ATOM     19  C   UNL     1      43.662 127.002  23.233  1.00  0.00     0.012 A 
ATOM     20  C   UNL     1      44.638 126.247  22.556  1.00  0.00     0.017 A 
BRANCH  20  21
ATOM     21  C   UNL     1      44.618 124.759  22.576  1.00  0.00     0.159 C 
ATOM     22  O   UNL     1      45.704 124.118  22.555  1.00  0.00    -0.295 OA
ATOM     23  C   UNL     1      43.335 123.984  22.619  1.00  0.00     0.093 C 
ENDBRANCH  20  21
ENDBRANCH   8  15
TORSDOF 5
ENDMDL
MODEL 3
REMARK VINA RESULT:      -3.2      3.328      7.156
REMARK SMILES C/C=C(\C)C(=O)N1CC[C@H](C)[C@H](F)[C@H]1c1ccc(C(C)=O)cc1
REMARK SMILES IDX 7 1 8 2 9 3 10 4 11 5 12 6 13 7 14 8 5 9 6 10 3 11 4 12 2 13
REMARK SMILES IDX 1 14 15 15 16 16 23 17 17 18 22 19 18 20 19 21 21 22 20 23
REMARK H PARENT
ROOT
ATOM      1  N   UNL     1      44.414 130.945  21.207  1.00  0.00    -0.329 N 
ATOM      2  C   UNL     1      43.094 131.520  20.892  1.00  0.00     0.121 C 
ATOM      3  C   UNL     1      42.486 132.281  22.068  1.00  0.00     0.028 C 
ATOM      4  C   UNL     1      42.549 131.446  23.349  1.00  0.00     0.024 C 
ATOM      5  C   UNL     1      41.845 132.171  24.504  1.00  0.00     0.011 C 
ATOM      6  C   UNL     1      44.016 131.152  23.698  1.00  0.00     0.196 C 
ATOM      7  F   UNL     1      44.673 132.339  23.988  1.00  0.00    -0.245 F 
ATOM      8  C   UNL     1      44.766 130.433  22.553  1.00  0.00     0.150 C 
ENDROOT
BRANCH   1   9
ATOM      9  C   UNL     1      45.259 130.587  20.095  1.00  0.00     0.249 C 
ATOM     10  O   UNL     1      46.344 129.982  20.313  1.00  0.00    -0.269 OA
BRANCH   9  11
ATOM     11  C   UNL     1      44.881 130.910  18.700  1.00  0.00     0.010 C 
ATOM     12  C   UNL     1      43.737 131.863  18.459  1.00  0.00     0.050 C 
BRANCH  11  13
ATOM     13  C   UNL     1      45.624 130.437  17.682  1.00  0.00    -0.021 C 
ATOM     14  C   UNL     1      45.793 131.155  16.378  1.00  0.00     0.036 C 
ENDBRANCH  11  13
ENDBRANCH   9  11
ENDBRANCH   1   9
BRANCH   8  15
ATOM     15  C   UNL     1      44.614 128.919  22.638  1.00  0.00    -0.022 A 
ATOM     16  C   UNL     1      43.508 128.374  23.313  1.00  0.00     0.007 A 
ATOM     17  C   UNL     1      45.529 128.043  22.031  1.00  0.00     0.007 A 
ATOM     18  C   UNL     1      43.334 126.991  23.397  1.00  0.00     0.012 A 
ATOM     19  C   UNL     1      45.357 126.660  22.115  1.00  0.00     0.012 A 
ATOM     20  C   UNL     1      44.258 126.113  22.803  1.00  0.00     0.017 A 
BRANCH  20  21
ATOM     21  C   UNL     1      44.060 124.642  22.903  1.00  0.00     0.159 C 
ATOM     22  O   UNL     1      44.592 124.003  23.852  1.00  0.00    -0.295 OA
ATOM     23  C   UNL     1      43.241 123.882  21.904  1.00  0.00     0.093 C 
ENDBRANCH  20  21
ENDBRANCH   8  15
TORSDOF 5
ENDMDL
MODEL 4
REMARK VINA RESULT:      -2.5      2.047      4.312
REMARK SMILES C/C=C(\C)C(=O)N1CC[C@H](C)[C@H](F)[C@H]1c1ccc(C(C)=O)cc1
REMARK SMILES IDX 7 1 8 2 9 3 10 4 11 5 12 6 13 7 14 8 5 9 6 10 3 11 4 12 2 13
REMARK SMILES IDX 1 14 15 15 16 16 23 17 17 18 22 19 18 20 19 21 21 22 20 23
REMARK H PARENT
ROOT
ATOM      1  N   UNL     1      47.214 124.752  23.304  1.00  0.00    -0.329 N 
ATOM      2  C   UNL     1      47.117 124.067  24.605  1.00  0.00     0.121 C 
ATOM      3  C   UNL     1      46.061 122.963  24.613  1.00  0.00     0.028 C 
ATOM      4  C   UNL     1      44.736 123.471  24.039  1.00  0.00     0.024 C 
ATOM      5  C   UNL     1      43.651 122.391  24.145  1.00  0.00     0.011 C 
ATOM      6  C   UNL     1      44.942 123.902  22.579  1.00  0.00     0.196 C 
ATOM      7  F   UNL     1      45.289 122.799  21.811  1.00  0.00    -0.245 F 
ATOM      8  C   UNL     1      46.040 124.981  22.428  1.00  0.00     0.150 C 
ENDROOT
BRANCH   1   9
ATOM      9  C   UNL     1      48.422 125.492  23.037  1.00  0.00     0.249 C 
ATOM     10  O   UNL     1      48.445 126.735  23.247  1.00  0.00    -0.269 OA
BRANCH   9  11
ATOM     11  C   UNL     1      49.640 124.825  22.523  1.00  0.00     0.010 C 
ATOM     12  C   UNL     1      50.988 125.304  22.999  1.00  0.00     0.050 C 
BRANCH  11  13
ATOM     13  C   UNL     1      49.522 123.744  21.729  1.00  0.00    -0.021 C 
ATOM     14  C   UNL     1      49.154 123.821  20.278  1.00  0.00     0.036 C 
ENDBRANCH  11  13
ENDBRANCH   9  11
ENDBRANCH   1   9
BRANCH   8  15
ATOM     15  C   UNL     1      45.479 126.388  22.592  1.00  0.00    -0.022 A 
ATOM     16  C   UNL     1      44.914 126.766  23.823  1.00  0.00     0.007 A 
ATOM     17  C   UNL     1      45.538 127.339  21.560  1.00  0.00     0.007 A 
ATOM     18  C   UNL     1      44.403 128.052  24.009  1.00  0.00     0.012 A 
ATOM     19  C   UNL     1      45.027 128.626  21.745  1.00  0.00     0.012 A 
ATOM     20  C   UNL     1      44.449 129.000  22.971  1.00  0.00     0.017 A 
BRANCH  20  21
ATOM     21  C   UNL     1      43.897 130.366  23.184  1.00  0.00     0.159 C 
ATOM     22  O   UNL     1      42.917 130.759  22.495  1.00  0.00    -0.295 OA
ATOM     23  C   UNL     1      44.474 131.303  24.201  1.00  0.00     0.093 C 
ENDBRANCH  20  21
ENDBRANCH   8  15
TORSDOF 5
ENDMDL
MODEL 5
REMARK VINA RESULT:      -2.3      3.534      7.392
REMARK SMILES C/C=C(\C)C(=O)N1CC[C@H](C)[C@H](F)[C@H]1c1ccc(C(C)=O)cc1
REMARK SMILES IDX 7 1 8 2 9 3 10 4 11 5 12 6 13 7 14 8 5 9 6 10 3 11 4 12 2 13
REMARK SMILES IDX 1 14 15 15 16 16 23 17 17 18 22 19 18 20 19 21 21 22 20 23
REMARK H PARENT
ROOT
ATOM      1  N   UNL     1      44.469 131.268  20.793  1.00  0.00    -0.329 N 
ATOM      2  C   UNL     1      43.116 131.608  20.318  1.00  0.00     0.121 C 
ATOM      3  C   UNL     1      42.279 132.315  21.382  1.00  0.00     0.028 C 
ATOM      4  C   UNL     1      42.337 131.561  22.713  1.00  0.00     0.024 C 
ATOM      5  C   UNL     1      41.413 132.216  23.748  1.00  0.00     0.011 C 
ATOM      6  C   UNL     1      43.788 131.523  23.217  1.00  0.00     0.196 C 
ATOM      7  F   UNL     1      44.219 132.813  23.494  1.00  0.00    -0.245 F 
ATOM      8  C   UNL     1      44.755 130.881  22.195  1.00  0.00     0.150 C 
ENDROOT
BRANCH   1   9
ATOM      9  C   UNL     1      45.471 130.999  19.791  1.00  0.00     0.249 C 
ATOM     10  O   UNL     1      46.681 130.917  20.133  1.00  0.00    -0.269 OA
BRANCH   9  11
ATOM     11  C   UNL     1      45.110 130.816  18.366  1.00  0.00     0.010 C 
ATOM     12  C   UNL     1      45.736 129.679  17.598  1.00  0.00     0.050 C 
BRANCH  11  13
ATOM     13  C   UNL     1      44.159 131.594  17.814  1.00  0.00    -0.021 C 
ATOM     14  C   UNL     1      43.797 131.551  16.361  1.00  0.00     0.036 C 
ENDBRANCH  11  13
ENDBRANCH   9  11
ENDBRANCH   1   9
BRANCH   8  15
ATOM     15  C   UNL     1      44.832 129.369  22.359  1.00  0.00    -0.022 A 
ATOM     16  C   UNL     1      45.486 128.602  21.380  1.00  0.00     0.007 A 
ATOM     17  C   UNL     1      44.298 128.713  23.482  1.00  0.00     0.007 A 
ATOM     18  C   UNL     1      45.585 127.215  21.509  1.00  0.00     0.012 A 
ATOM     19  C   UNL     1      44.396 127.326  23.611  1.00  0.00     0.012 A 
ATOM     20  C   UNL     1      45.038 126.556  22.624  1.00  0.00     0.017 A 
BRANCH  20  21
ATOM     21  C   UNL     1      45.149 125.076  22.745  1.00  0.00     0.159 C 
ATOM     22  O   UNL     1      46.123 124.571  23.366  1.00  0.00    -0.295 OA
ATOM     23  C   UNL     1      44.130 124.154  22.146  1.00  0.00     0.093 C 
ENDBRANCH  20  21
ENDBRANCH   8  15
TORSDOF 5
ENDMDL
MODEL 6
REMARK VINA RESULT:      -2.0      4.693      8.047
REMARK SMILES C/C=C(\C)C(=O)N1CC[C@H](C)[C@H](F)[C@H]1c1ccc(C(C)=O)cc1
REMARK SMILES IDX 7 1 8 2 9 3 10 4 11 5 12 6 13 7 14 8 5 9 6 10 3 11 4 12 2 13
REMARK SMILES IDX 1 14 15 15 16 16 23 17 17 18 22 19 18 20 19 21 21 22 20 23
REMARK H PARENT
ROOT
ATOM      1  N   UNL     1      44.426 131.289  18.594  1.00  0.00    -0.329 N 
ATOM      2  C   UNL     1      43.084 131.245  17.985  1.00  0.00     0.121 C 
ATOM      3  C   UNL     1      42.148 132.315  18.544  1.00  0.00     0.028 C 
ATOM      4  C   UNL     1      42.174 132.317  20.074  1.00  0.00     0.024 C 
ATOM      5  C   UNL     1      41.156 133.320  20.632  1.00  0.00     0.011 C 
ATOM      6  C   UNL     1      43.593 132.645  20.562  1.00  0.00     0.196 C 
ATOM      7  F   UNL     1      43.933 133.934  20.177  1.00  0.00    -0.245 F 
ATOM      8  C   UNL     1      44.653 131.663  20.010  1.00  0.00     0.150 C 
ENDROOT
BRANCH   1   9
ATOM      9  C   UNL     1      45.496 130.643  17.876  1.00  0.00     0.249 C 
ATOM     10  O   UNL     1      46.492 130.205  18.513  1.00  0.00    -0.269 OA
BRANCH   9  11
ATOM     11  C   UNL     1      45.453 130.480  16.404  1.00  0.00     0.010 C 
ATOM     12  C   UNL     1      45.085 129.134  15.832  1.00  0.00     0.050 C 
BRANCH  11  13
ATOM     13  C   UNL     1      45.638 131.552  15.610  1.00  0.00    -0.021 C 
ATOM     14  C   UNL     1      46.702 131.626  14.557  1.00  0.00     0.036 C 
ENDBRANCH  11  13
ENDBRANCH   9  11
ENDBRANCH   1   9
BRANCH   8  15
ATOM     15  C   UNL     1      44.808 130.437  20.900  1.00  0.00    -0.022 A 
ATOM     16  C   UNL     1      44.001 130.308  22.044  1.00  0.00     0.007 A 
ATOM     17  C   UNL     1      45.711 129.404  20.595  1.00  0.00     0.007 A 
ATOM     18  C   UNL     1      44.110 129.189  22.872  1.00  0.00     0.012 A 
ATOM     19  C   UNL     1      45.821 128.285  21.423  1.00  0.00     0.012 A 
ATOM     20  C   UNL     1      45.024 128.163  22.577  1.00  0.00     0.017 A 
BRANCH  20  21
ATOM     21  C   UNL     1      45.131 126.978  23.471  1.00  0.00     0.159 C 
ATOM     22  O   UNL     1      46.195 126.777  24.119  1.00  0.00    -0.295 OA
ATOM     23  C   UNL     1      44.005 126.002  23.631  1.00  0.00     0.093 C 
ENDBRANCH  20  21
ENDBRANCH   8  15
TORSDOF 5
ENDMDL
MODEL 7
REMARK VINA RESULT:      -1.9      5.281      8.251
REMARK SMILES C/C=C(\C)C(=O)N1CC[C@H](C)[C@H](F)[C@H]1c1ccc(C(C)=O)cc1
REMARK SMILES IDX 7 1 8 2 9 3 10 4 11 5 12 6 13 7 14 8 5 9 6 10 3 11 4 12 2 13
REMARK SMILES IDX 1 14 15 15 16 16 23 17 17 18 22 19 18 20 19 21 21 22 20 23
REMARK H PARENT
ROOT
ATOM      1  N   UNL     1      45.214 132.032  22.412  1.00  0.00    -0.329 N 
ATOM      2  C   UNL     1      44.022 132.496  23.144  1.00  0.00     0.121 C 
ATOM      3  C   UNL     1      43.235 131.349  23.775  1.00  0.00     0.028 C 
ATOM      4  C   UNL     1      42.987 130.232  22.759  1.00  0.00     0.024 C 
ATOM      5  C   UNL     1      42.108 129.132  23.367  1.00  0.00     0.011 C 
ATOM      6  C   UNL     1      44.333 129.663  22.286  1.00  0.00     0.196 C 
ATOM      7  F   UNL     1      44.988 129.064  23.354  1.00  0.00    -0.245 F 
ATOM      8  C   UNL     1      45.255 130.745  21.678  1.00  0.00     0.150 C 
ENDROOT
BRANCH   1   9
ATOM      9  C   UNL     1      46.244 133.005  22.147  1.00  0.00     0.249 C 
ATOM     10  O   UNL     1      46.583 133.238  20.954  1.00  0.00    -0.269 OA
BRANCH   9  11
ATOM     11  C   UNL     1      46.914 133.742  23.244  1.00  0.00     0.010 C 
ATOM     12  C   UNL     1      46.292 133.725  24.617  1.00  0.00     0.050 C 
BRANCH  11  13
ATOM     13  C   UNL     1      48.110 134.320  23.023  1.00  0.00    -0.021 C 
ATOM     14  C   UNL     1      49.336 134.016  23.830  1.00  0.00     0.036 C 
ENDBRANCH  11  13
ENDBRANCH   9  11
ENDBRANCH   1   9
BRANCH   8  15
ATOM     15  C   UNL     1      45.000 130.936  20.189  1.00  0.00    -0.022 A 
ATOM     16  C   UNL     1      45.897 130.383  19.259  1.00  0.00     0.007 A 
ATOM     17  C   UNL     1      43.871 131.622  19.708  1.00  0.00     0.007 A 
ATOM     18  C   UNL     1      45.683 130.530  17.886  1.00  0.00     0.012 A 
ATOM     19  C   UNL     1      43.656 131.770  18.336  1.00  0.00     0.012 A 
ATOM     20  C   UNL     1      44.562 131.229  17.405  1.00  0.00     0.017 A 
BRANCH  20  21
ATOM     21  C   UNL     1      44.349 131.380  15.940  1.00  0.00     0.159 C 
ATOM     22  O   UNL     1      43.260 131.850  15.511  1.00  0.00    -0.295 OA
ATOM     23  C   UNL     1      45.397 130.986  14.942  1.00  0.00     0.093 C 
ENDBRANCH  20  21
ENDBRANCH   8  15
TORSDOF 5
ENDMDL
MODEL 8
REMARK VINA RESULT:      -1.8      4.711      8.112
REMARK SMILES C/C=C(\C)C(=O)N1CC[C@H](C)[C@H](F)[C@H]1c1ccc(C(C)=O)cc1
REMARK SMILES IDX 7 1 8 2 9 3 10 4 11 5 12 6 13 7 14 8 5 9 6 10 3 11 4 12 2 13
REMARK SMILES IDX 1 14 15 15 16 16 23 17 17 18 22 19 18 20 19 21 21 22 20 23
REMARK H PARENT
ROOT
ATOM      1  N   UNL     1      44.503 131.292  18.594  1.00  0.00    -0.329 N 
ATOM      2  C   UNL     1      43.182 131.256  17.940  1.00  0.00     0.121 C 
ATOM      3  C   UNL     1      42.230 132.323  18.475  1.00  0.00     0.028 C 
ATOM      4  C   UNL     1      42.204 132.315  20.005  1.00  0.00     0.024 C 
ATOM      5  C   UNL     1      41.170 133.317  20.535  1.00  0.00     0.011 C 
ATOM      6  C   UNL     1      43.607 132.636  20.543  1.00  0.00     0.196 C 
ATOM      7  F   UNL     1      43.962 133.928  20.178  1.00  0.00    -0.245 F 
ATOM      8  C   UNL     1      44.682 131.656  20.020  1.00  0.00     0.150 C 
ENDROOT
BRANCH   1   9
ATOM      9  C   UNL     1      45.596 130.649  17.908  1.00  0.00     0.249 C 
ATOM     10  O   UNL     1      46.551 130.172  18.579  1.00  0.00    -0.269 OA
BRANCH   9  11
ATOM     11  C   UNL     1      45.622 130.533  16.432  1.00  0.00     0.010 C 
ATOM     12  C   UNL     1      45.178 129.240  15.796  1.00  0.00     0.050 C 
BRANCH  11  13
ATOM     13  C   UNL     1      45.938 131.608  15.685  1.00  0.00    -0.021 C 
ATOM     14  C   UNL     1      46.705 131.526  14.401  1.00  0.00     0.036 C 
ENDBRANCH  11  13
ENDBRANCH   9  11
ENDBRANCH   1   9
BRANCH   8  15
ATOM     15  C   UNL     1      44.805 130.423  20.906  1.00  0.00    -0.022 A 
ATOM     16  C   UNL     1      45.732 129.422  20.570  1.00  0.00     0.007 A 
ATOM     17  C   UNL     1      44.042 130.268  22.076  1.00  0.00     0.007 A 
ATOM     18  C   UNL     1      45.877 128.286  21.370  1.00  0.00     0.012 A 
ATOM     19  C   UNL     1      44.186 129.132  22.876  1.00  0.00     0.012 A 
ATOM     20  C   UNL     1      45.103 128.122  22.532  1.00  0.00     0.017 A 
BRANCH  20  21
ATOM     21  C   UNL     1      45.267 126.905  23.372  1.00  0.00     0.159 C 
ATOM     22  O   UNL     1      45.820 126.995  24.502  1.00  0.00    -0.295 OA
ATOM     23  C   UNL     1      44.793 125.558  22.916  1.00  0.00     0.093 C 
ENDBRANCH  20  21
ENDBRANCH   8  15
TORSDOF 5
ENDMDL
MODEL 9
REMARK VINA RESULT:      -1.6      5.263      8.331
REMARK SMILES C/C=C(\C)C(=O)N1CC[C@H](C)[C@H](F)[C@H]1c1ccc(C(C)=O)cc1
REMARK SMILES IDX 7 1 8 2 9 3 10 4 11 5 12 6 13 7 14 8 5 9 6 10 3 11 4 12 2 13
REMARK SMILES IDX 1 14 15 15 16 16 23 17 17 18 22 19 18 20 19 21 21 22 20 23
REMARK H PARENT
ROOT
ATOM      1  N   UNL     1      45.221 132.107  22.124  1.00  0.00    -0.329 N 
ATOM      2  C   UNL     1      43.992 132.509  22.831  1.00  0.00     0.121 C 
ATOM      3  C   UNL     1      43.291 131.334  23.510  1.00  0.00     0.028 C 
ATOM      4  C   UNL     1      43.137 130.157  22.543  1.00  0.00     0.024 C 
ATOM      5  C   UNL     1      42.342 129.020  23.197  1.00  0.00     0.011 C 
ATOM      6  C   UNL     1      44.526 129.673  22.100  1.00  0.00     0.196 C 
ATOM      7  F   UNL     1      45.218 129.175  23.196  1.00  0.00    -0.245 F 
ATOM      8  C   UNL     1      45.366 130.796  21.448  1.00  0.00     0.150 C 
ENDROOT
BRANCH   1   9
ATOM      9  C   UNL     1      46.175 133.144  21.819  1.00  0.00     0.249 C 
ATOM     10  O   UNL     1      46.184 133.657  20.667  1.00  0.00    -0.269 OA
BRANCH   9  11
ATOM     11  C   UNL     1      47.146 133.624  22.830  1.00  0.00     0.010 C 
ATOM     12  C   UNL     1      46.683 133.808  24.253  1.00  0.00     0.050 C 
BRANCH  11  13
ATOM     13  C   UNL     1      48.438 133.786  22.487  1.00  0.00    -0.021 C 
ATOM     14  C   UNL     1      49.049 135.118  22.174  1.00  0.00     0.036 C 
ENDBRANCH  11  13
ENDBRANCH   9  11
ENDBRANCH   1   9
BRANCH   8  15
ATOM     15  C   UNL     1      45.107 130.901  19.951  1.00  0.00    -0.022 A 
ATOM     16  C   UNL     1      43.978 131.602  19.494  1.00  0.00     0.007 A 
ATOM     17  C   UNL     1      45.984 130.348  19.002  1.00  0.00     0.007 A 
ATOM     18  C   UNL     1      43.720 131.727  18.128  1.00  0.00     0.012 A 
ATOM     19  C   UNL     1      45.727 130.472  17.635  1.00  0.00     0.012 A 
ATOM     20  C   UNL     1      44.588 131.161  17.178  1.00  0.00     0.017 A 
BRANCH  20  21
ATOM     21  C   UNL     1      44.298 131.301  15.725  1.00  0.00     0.159 C 
ATOM     22  O   UNL     1      43.257 131.907  15.350  1.00  0.00    -0.295 OA
ATOM     23  C   UNL     1      45.211 130.738  14.677  1.00  0.00     0.093 C 
ENDBRANCH  20  21
ENDBRANCH   8  15
TORSDOF 5
ENDMDL


