REMARK SMILES CC(=O)c1ccc(-c2ccc(OC(=O)C(=O)[C@@H](F)[C@@H](O)C(C)C)cc2)c2c[nH][nH+]c12
REMARK SMILES IDX 13 1 14 2 12 3 11 4 8 5 9 6 25 7 10 8 24 9 7 10 4 11 5 12
REMARK SMILES IDX 30 13 6 14 29 15 26 16 28 17 27 18 2 21 1 22 3 23 15 24
REMARK SMILES IDX 16 25 17 26 18 27 19 28 20 29 21 31 22 32 23 33
REMARK H PARENT 29 19 28 20 20 30
ROOT
ATOM      1  C   UNL     1       3.379  -0.014  -0.049  1.00  0.00     0.383 C 
ATOM      2  O   UNL     1       3.031  -0.743  -1.018  1.00  0.00    -0.242 OA
ENDROOT
BRANCH   1   3
ATOM      3  O   UNL     1       2.420   0.650   0.727  1.00  0.00    -0.421 OA
BRANCH   3   4
ATOM      4  C   UNL     1       1.049   0.353   0.754  1.00  0.00     0.131 A 
ATOM      5  C   UNL     1      -1.721  -0.160   0.868  1.00  0.00    -0.017 A 
ATOM      6  C   UNL     1      -1.225   1.133   1.101  1.00  0.00     0.012 A 
ATOM      7  C   UNL     1      -0.819  -1.196   0.578  1.00  0.00     0.012 A 
ATOM      8  C   UNL     1       0.149   1.382   1.053  1.00  0.00     0.048 A 
ATOM      9  C   UNL     1       0.556  -0.946   0.530  1.00  0.00     0.048 A 
BRANCH   5  10
ATOM     10  C   UNL     1      -3.178  -0.428   0.908  1.00  0.00    -0.003 A 
ATOM     11  C   UNL     1      -5.999  -0.946   0.971  1.00  0.00     0.092 A 
ATOM     12  C   UNL     1      -5.194  -1.405  -0.098  1.00  0.00     0.019 A 
ATOM     13  C   UNL     1      -5.344  -0.240   1.996  1.00  0.00     0.247 A 
ATOM     14  C   UNL     1      -3.806  -1.151  -0.128  1.00  0.00     0.010 A 
ATOM     15  N   UNL     1      -5.848   0.232   3.154  1.00  0.00    -0.125 N 
ATOM     16  C   UNL     1      -3.992   0.006   1.961  1.00  0.00     0.078 A 
ATOM     17  N   UNL     1      -4.852   0.771   3.844  1.00  0.00    -0.174 N 
ATOM     18  C   UNL     1      -3.700   0.649   3.150  1.00  0.00     0.163 A 
ATOM     19  H   UNL     1      -6.829   0.169   3.501  1.00  0.00     0.488 HD
ATOM     20  H   UNL     1      -4.954   1.198   4.791  1.00  0.00     0.238 HD
BRANCH  11  21
ATOM     21  C   UNL     1      -7.463  -1.198   0.984  1.00  0.00     0.166 C 
ATOM     22  C   UNL     1      -8.063  -2.342   0.225  1.00  0.00     0.094 C 
ATOM     23  O   UNL     1      -8.234  -0.410   1.593  1.00  0.00    -0.294 OA
ENDBRANCH  11  21
ENDBRANCH   5  10
ENDBRANCH   3   4
ENDBRANCH   1   3
BRANCH   1  24
ATOM     24  C   UNL     1       4.808   0.194   0.250  1.00  0.00     0.277 C 
ATOM     25  O   UNL     1       5.122   0.925   1.227  1.00  0.00    -0.283 OA
BRANCH  24  26
ATOM     26  C   UNL     1       5.906  -0.416  -0.589  1.00  0.00     0.274 C 
ATOM     27  F   UNL     1       5.571  -1.717  -0.927  1.00  0.00    -0.235 F 
BRANCH  26  28
ATOM     28  C   UNL     1       6.202   0.389  -1.875  1.00  0.00     0.159 C 
BRANCH  28  29
ATOM     29  O   UNL     1       5.070   0.338  -2.710  1.00  0.00    -0.389 OA
ATOM     30  H   UNL     1       5.391   0.206  -3.640  1.00  0.00     0.211 HD
ENDBRANCH  28  29
BRANCH  28  31
ATOM     31  C   UNL     1       6.599   1.872  -1.613  1.00  0.00     0.015 C 
ATOM     32  C   UNL     1       6.827   2.617  -2.938  1.00  0.00     0.010 C 
ATOM     33  C   UNL     1       7.863   1.987  -0.745  1.00  0.00     0.010 C 
ENDBRANCH  28  31
ENDBRANCH  26  28
ENDBRANCH  24  26
ENDBRANCH   1  24
TORSDOF 9


