MODEL 1
REMARK VINA RESULT:      -5.1      0.000      0.000
REMARK SMILES Cc1ccc([NH2+][C@@H]2CCC[C@@H](NN)[C@]2(O)c2nc3ccccc3[n-]2)cc1F
REMARK SMILES IDX 7 1 8 2 9 3 10 4 11 5 14 6 6 7 5 10 2 11 3 12 26 13 4 14
REMARK SMILES IDX 25 15 1 16 27 17 15 18 16 20 17 21 24 22 18 23 23 24 19 25
REMARK SMILES IDX 22 26 20 27 21 28 12 29 13 31
REMARK H PARENT 6 8 6 9 15 19 12 30 13 32 13 33
ROOT
ATOM      1  C   UNL     1      44.979 129.089  22.802  1.00  0.00     0.225 C 
ATOM      2  C   UNL     1      44.674 128.803  24.298  1.00  0.00     0.069 C 
ATOM      3  C   UNL     1      43.169 128.788  24.597  1.00  0.00     0.008 C 
ATOM      4  C   UNL     1      42.502 130.094  24.156  1.00  0.00     0.024 C 
ATOM      5  C   UNL     1      42.770 130.394  22.662  1.00  0.00     0.111 C 
ATOM      6  C   UNL     1      44.305 130.436  22.369  1.00  0.00     0.150 C 
ENDROOT
BRANCH   1   7
ATOM      7  N   UNL     1      44.606 127.943  21.927  1.00  0.00    -0.309 N 
ATOM      8  H   UNL     1      43.569 127.836  21.865  1.00  0.00     0.352 HD
ATOM      9  H   UNL     1      44.946 128.101  20.952  1.00  0.00     0.352 HD
BRANCH   7  10
ATOM     10  C   UNL     1      45.204 126.706  22.377  1.00  0.00     0.132 A 
ATOM     11  C   UNL     1      46.358 124.283  23.240  1.00  0.00    -0.015 A 
ATOM     12  C   UNL     1      47.166 125.310  22.730  1.00  0.00     0.012 A 
ATOM     13  C   UNL     1      44.971 124.479  23.336  1.00  0.00     0.132 A 
ATOM     14  C   UNL     1      46.593 126.511  22.300  1.00  0.00     0.068 A 
ATOM     15  C   UNL     1      44.399 125.679  22.904  1.00  0.00     0.107 A 
ATOM     16  C   UNL     1      46.976 123.003  23.726  1.00  0.00     0.047 C 
ATOM     17  F   UNL     1      44.172 123.509  23.848  1.00  0.00    -0.206 F 
ENDBRANCH   7  10
ENDBRANCH   1   7
BRANCH   6  18
ATOM     18  O   UNL     1      44.901 131.467  23.130  1.00  0.00    -0.378 OA
ATOM     19  H   UNL     1      45.569 131.066  23.744  1.00  0.00     0.212 HD
ENDBRANCH   6  18
BRANCH   6  20
ATOM     20  C   UNL     1      44.585 130.699  20.896  1.00  0.00    -0.042 A 
ATOM     21  N   UNL     1      43.787 131.471  20.107  1.00  0.00    -0.437 NA
ATOM     22  N   UNL     1      45.619 130.108  20.238  1.00  0.00    -0.437 NA
ATOM     23  C   UNL     1      44.371 131.362  18.906  1.00  0.00    -0.038 A 
ATOM     24  C   UNL     1      45.460 130.552  18.983  1.00  0.00    -0.038 A 
ATOM     25  C   UNL     1      43.972 131.951  17.708  1.00  0.00     0.004 A 
ATOM     26  C   UNL     1      46.246 130.260  17.871  1.00  0.00     0.004 A 
ATOM     27  C   UNL     1      44.743 131.682  16.561  1.00  0.00     0.000 A 
ATOM     28  C   UNL     1      45.875 130.839  16.642  1.00  0.00     0.000 A 
ENDBRANCH   6  20
BRANCH   5  29
ATOM     29  N   UNL     1      42.129 131.660  22.256  1.00  0.00    -0.254 NA
ATOM     30  H   UNL     1      42.732 132.143  21.547  1.00  0.00     0.141 HD
BRANCH  29  31
ATOM     31  N   UNL     1      42.023 132.503  23.378  1.00  0.00    -0.271 NA
ATOM     32  H   UNL     1      41.254 132.124  23.977  1.00  0.00     0.137 HD
ATOM     33  H   UNL     1      41.684 133.434  23.044  1.00  0.00     0.137 HD
ENDBRANCH  29  31
ENDBRANCH   5  29
TORSDOF 6
ENDMDL
MODEL 2
REMARK VINA RESULT:      -5.0      1.898      2.562
REMARK SMILES Cc1ccc([NH2+][C@@H]2CCC[C@@H](NN)[C@]2(O)c2nc3ccccc3[n-]2)cc1F
REMARK SMILES IDX 7 1 8 2 9 3 10 4 11 5 14 6 6 7 5 10 2 11 3 12 26 13 4 14
REMARK SMILES IDX 25 15 1 16 27 17 15 18 16 20 17 21 24 22 18 23 23 24 19 25
REMARK SMILES IDX 22 26 20 27 21 28 12 29 13 31
REMARK H PARENT 6 8 6 9 15 19 12 30 13 32 13 33
ROOT
ATOM      1  C   UNL     1      45.027 130.666  21.321  1.00  0.00     0.225 C 
ATOM      2  C   UNL     1      44.671 131.005  22.794  1.00  0.00     0.069 C 
ATOM      3  C   UNL     1      43.162 131.178  23.008  1.00  0.00     0.008 C 
ATOM      4  C   UNL     1      42.584 132.235  22.062  1.00  0.00     0.024 C 
ATOM      5  C   UNL     1      42.905 131.912  20.583  1.00  0.00     0.111 C 
ATOM      6  C   UNL     1      44.446 131.765  20.365  1.00  0.00     0.150 C 
ENDROOT
BRANCH   1   7
ATOM      7  N   UNL     1      44.608 129.287  20.947  1.00  0.00    -0.309 N 
ATOM      8  H   UNL     1      43.568 129.212  20.886  1.00  0.00     0.352 HD
ATOM      9  H   UNL     1      44.979 129.034  20.005  1.00  0.00     0.352 HD
BRANCH   7  10
ATOM     10  C   UNL     1      45.120 128.300  21.872  1.00  0.00     0.132 A 
ATOM     11  C   UNL     1      46.138 126.387  23.675  1.00  0.00    -0.015 A 
ATOM     12  C   UNL     1      45.090 127.237  24.060  1.00  0.00     0.012 A 
ATOM     13  C   UNL     1      46.662 126.484  22.376  1.00  0.00     0.132 A 
ATOM     14  C   UNL     1      44.586 128.187  23.167  1.00  0.00     0.068 A 
ATOM     15  C   UNL     1      46.159 127.436  21.483  1.00  0.00     0.107 A 
ATOM     16  C   UNL     1      46.661 125.348  24.625  1.00  0.00     0.047 C 
ATOM     17  F   UNL     1      47.660 125.657  21.972  1.00  0.00    -0.206 F 
ENDBRANCH   7  10
ENDBRANCH   1   7
BRANCH   6  18
ATOM     18  O   UNL     1      45.084 132.983  20.689  1.00  0.00    -0.378 OA
ATOM     19  H   UNL     1      45.242 133.494  19.853  1.00  0.00     0.212 HD
ENDBRANCH   6  18
BRANCH   6  20
ATOM     20  C   UNL     1      44.776 131.415  18.922  1.00  0.00    -0.042 A 
ATOM     21  N   UNL     1      44.053 131.862  17.858  1.00  0.00    -0.437 NA
ATOM     22  N   UNL     1      45.778 130.555  18.595  1.00  0.00    -0.437 NA
ATOM     23  C   UNL     1      44.653 131.260  16.823  1.00  0.00    -0.038 A 
ATOM     24  C   UNL     1      45.679 130.482  17.261  1.00  0.00    -0.038 A 
ATOM     25  C   UNL     1      44.323 131.356  15.472  1.00  0.00     0.004 A 
ATOM     26  C   UNL     1      46.465 129.734  16.387  1.00  0.00     0.004 A 
ATOM     27  C   UNL     1      45.097 130.616  14.558  1.00  0.00     0.000 A 
ATOM     28  C   UNL     1      46.163 129.808  15.013  1.00  0.00     0.000 A 
ENDBRANCH   6  20
BRANCH   5  29
ATOM     29  N   UNL     1      42.350 132.944  19.686  1.00  0.00    -0.254 NA
ATOM     30  H   UNL     1      43.000 133.767  19.658  1.00  0.00     0.141 HD
BRANCH  29  31
ATOM     31  N   UNL     1      41.117 133.386  20.200  1.00  0.00    -0.271 NA
ATOM     32  H   UNL     1      40.789 132.662  20.879  1.00  0.00     0.137 HD
ATOM     33  H   UNL     1      40.423 133.369  19.418  1.00  0.00     0.137 HD
ENDBRANCH  29  31
ENDBRANCH   5  29
TORSDOF 6
ENDMDL
MODEL 3
REMARK VINA RESULT:      -4.3      3.800      6.301
REMARK SMILES Cc1ccc([NH2+][C@@H]2CCC[C@@H](NN)[C@]2(O)c2nc3ccccc3[n-]2)cc1F
REMARK SMILES IDX 7 1 8 2 9 3 10 4 11 5 14 6 6 7 5 10 2 11 3 12 26 13 4 14
REMARK SMILES IDX 25 15 1 16 27 17 15 18 16 20 17 21 24 22 18 23 23 24 19 25
REMARK SMILES IDX 22 26 20 27 21 28 12 29 13 31
REMARK H PARENT 6 8 6 9 15 19 12 30 13 32 13 33
ROOT
ATOM      1  C   UNL     1      47.309 124.670  23.257  1.00  0.00     0.225 C 
ATOM      2  C   UNL     1      47.685 123.163  23.250  1.00  0.00     0.069 C 
ATOM      3  C   UNL     1      46.969 122.384  22.141  1.00  0.00     0.008 C 
ATOM      4  C   UNL     1      45.449 122.554  22.235  1.00  0.00     0.024 C 
ATOM      5  C   UNL     1      45.041 124.046  22.222  1.00  0.00     0.111 C 
ATOM      6  C   UNL     1      45.753 124.830  23.373  1.00  0.00     0.150 C 
ENDROOT
BRANCH   1   7
ATOM      7  N   UNL     1      47.884 125.396  22.092  1.00  0.00    -0.309 N 
ATOM      8  H   UNL     1      47.465 125.063  21.195  1.00  0.00     0.352 HD
ATOM      9  H   UNL     1      47.676 126.417  22.156  1.00  0.00     0.352 HD
BRANCH   7  10
ATOM     10  C   UNL     1      49.324 125.271  22.038  1.00  0.00     0.132 A 
ATOM     11  C   UNL     1      52.131 125.038  21.914  1.00  0.00    -0.015 A 
ATOM     12  C   UNL     1      51.528 125.824  22.909  1.00  0.00     0.012 A 
ATOM     13  C   UNL     1      51.323 124.352  20.994  1.00  0.00     0.132 A 
ATOM     14  C   UNL     1      50.136 125.941  22.969  1.00  0.00     0.068 A 
ATOM     15  C   UNL     1      49.931 124.471  21.053  1.00  0.00     0.107 A 
ATOM     16  C   UNL     1      53.625 124.890  21.866  1.00  0.00     0.047 C 
ATOM     17  F   UNL     1      51.882 123.567  20.038  1.00  0.00    -0.206 F 
ENDBRANCH   7  10
ENDBRANCH   1   7
BRANCH   6  18
ATOM     18  O   UNL     1      45.367 124.287  24.619  1.00  0.00    -0.378 OA
ATOM     19  H   UNL     1      45.653 123.338  24.657  1.00  0.00     0.212 HD
ENDBRANCH   6  18
BRANCH   6  20
ATOM     20  C   UNL     1      45.387 126.307  23.354  1.00  0.00    -0.042 A 
ATOM     21  N   UNL     1      44.890 126.970  24.434  1.00  0.00    -0.437 NA
ATOM     22  N   UNL     1      45.453 127.055  22.219  1.00  0.00    -0.437 NA
ATOM     23  C   UNL     1      44.656 128.194  23.943  1.00  0.00    -0.038 A 
ATOM     24  C   UNL     1      44.990 128.245  22.625  1.00  0.00    -0.038 A 
ATOM     25  C   UNL     1      44.136 129.298  24.616  1.00  0.00     0.004 A 
ATOM     26  C   UNL     1      44.835 129.403  21.867  1.00  0.00     0.004 A 
ATOM     27  C   UNL     1      43.966 130.488  23.883  1.00  0.00     0.000 A 
ATOM     28  C   UNL     1      44.314 130.540  22.514  1.00  0.00     0.000 A 
ENDBRANCH   6  20
BRANCH   5  29
ATOM     29  N   UNL     1      43.576 124.193  22.324  1.00  0.00    -0.254 NA
ATOM     30  H   UNL     1      43.158 123.290  22.655  1.00  0.00     0.141 HD
BRANCH  29  31
ATOM     31  N   UNL     1      43.052 124.469  21.047  1.00  0.00    -0.271 NA
ATOM     32  H   UNL     1      42.067 124.117  21.035  1.00  0.00     0.137 HD
ATOM     33  H   UNL     1      43.568 123.876  20.357  1.00  0.00     0.137 HD
ENDBRANCH  29  31
ENDBRANCH   5  29
TORSDOF 6
ENDMDL
MODEL 4
REMARK VINA RESULT:      -2.8      3.470      6.201
REMARK SMILES Cc1ccc([NH2+][C@@H]2CCC[C@@H](NN)[C@]2(O)c2nc3ccccc3[n-]2)cc1F
REMARK SMILES IDX 7 1 8 2 9 3 10 4 11 5 14 6 6 7 5 10 2 11 3 12 26 13 4 14
REMARK SMILES IDX 25 15 1 16 27 17 15 18 16 20 17 21 24 22 18 23 23 24 19 25
REMARK SMILES IDX 22 26 20 27 21 28 12 29 13 31
REMARK H PARENT 6 8 6 9 15 19 12 30 13 32 13 33
ROOT
ATOM      1  C   UNL     1      43.928 124.647  22.902  1.00  0.00     0.225 C 
ATOM      2  C   UNL     1      44.159 123.118  22.761  1.00  0.00     0.069 C 
ATOM      3  C   UNL     1      45.219 122.591  23.737  1.00  0.00     0.008 C 
ATOM      4  C   UNL     1      46.542 123.348  23.582  1.00  0.00     0.024 C 
ATOM      5  C   UNL     1      46.347 124.874  23.740  1.00  0.00     0.111 C 
ATOM      6  C   UNL     1      45.286 125.410  22.723  1.00  0.00     0.150 C 
ENDROOT
BRANCH   1   7
ATOM      7  N   UNL     1      43.229 124.992  24.171  1.00  0.00    -0.309 N 
ATOM      8  H   UNL     1      43.786 124.694  25.003  1.00  0.00     0.352 HD
ATOM      9  H   UNL     1      43.105 126.026  24.251  1.00  0.00     0.352 HD
BRANCH   7  10
ATOM     10  C   UNL     1      41.906 124.412  24.230  1.00  0.00     0.132 A 
ATOM     11  C   UNL     1      39.321 123.290  24.326  1.00  0.00    -0.015 A 
ATOM     12  C   UNL     1      40.446 122.465  24.173  1.00  0.00     0.012 A 
ATOM     13  C   UNL     1      39.495 124.677  24.452  1.00  0.00     0.132 A 
ATOM     14  C   UNL     1      41.728 123.021  24.123  1.00  0.00     0.068 A 
ATOM     15  C   UNL     1      40.777 125.233  24.400  1.00  0.00     0.107 A 
ATOM     16  C   UNL     1      37.947 122.690  24.407  1.00  0.00     0.047 C 
ATOM     17  F   UNL     1      38.424 125.493  24.625  1.00  0.00    -0.206 F 
ENDBRANCH   7  10
ENDBRANCH   1   7
BRANCH   6  18
ATOM     18  O   UNL     1      45.735 125.165  21.405  1.00  0.00    -0.378 OA
ATOM     19  H   UNL     1      45.243 124.384  21.040  1.00  0.00     0.212 HD
ENDBRANCH   6  18
BRANCH   6  20
ATOM     20  C   UNL     1      45.060 126.905  22.887  1.00  0.00    -0.042 A 
ATOM     21  N   UNL     1      45.009 127.528  24.097  1.00  0.00    -0.437 NA
ATOM     22  N   UNL     1      44.807 127.721  21.828  1.00  0.00    -0.437 NA
ATOM     23  C   UNL     1      44.729 128.794  23.763  1.00  0.00    -0.038 A 
ATOM     24  C   UNL     1      44.608 128.910  22.413  1.00  0.00    -0.038 A 
ATOM     25  C   UNL     1      44.558 129.884  24.616  1.00  0.00     0.004 A 
ATOM     26  C   UNL     1      44.307 130.123  21.799  1.00  0.00     0.004 A 
ATOM     27  C   UNL     1      44.255 131.128  24.031  1.00  0.00     0.000 A 
ATOM     28  C   UNL     1      44.129 131.247  22.628  1.00  0.00     0.000 A 
ENDBRANCH   6  20
BRANCH   5  29
ATOM     29  N   UNL     1      47.628 125.589  23.578  1.00  0.00    -0.254 NA
ATOM     30  H   UNL     1      47.687 126.362  24.284  1.00  0.00     0.141 HD
BRANCH  29  31
ATOM     31  N   UNL     1      47.671 126.171  22.297  1.00  0.00    -0.271 NA
ATOM     32  H   UNL     1      48.590 126.664  22.212  1.00  0.00     0.137 HD
ATOM     33  H   UNL     1      46.946 126.924  22.266  1.00  0.00     0.137 HD
ENDBRANCH  29  31
ENDBRANCH   5  29
TORSDOF 6
ENDMDL
MODEL 5
REMARK VINA RESULT:      -2.7      3.301      6.874
REMARK SMILES Cc1ccc([NH2+][C@@H]2CCC[C@@H](NN)[C@]2(O)c2nc3ccccc3[n-]2)cc1F
REMARK SMILES IDX 7 1 8 2 9 3 10 4 11 5 14 6 6 7 5 10 2 11 3 12 26 13 4 14
REMARK SMILES IDX 25 15 1 16 27 17 15 18 16 20 17 21 24 22 18 23 23 24 19 25
REMARK SMILES IDX 22 26 20 27 21 28 12 29 13 31
REMARK H PARENT 6 8 6 9 15 19 12 30 13 32 13 33
ROOT
ATOM      1  C   UNL     1      42.241 126.825  22.701  1.00  0.00     0.225 C 
ATOM      2  C   UNL     1      40.746 127.218  22.855  1.00  0.00     0.069 C 
ATOM      3  C   UNL     1      40.173 126.824  24.222  1.00  0.00     0.008 C 
ATOM      4  C   UNL     1      40.363 125.328  24.493  1.00  0.00     0.024 C 
ATOM      5  C   UNL     1      41.847 124.910  24.368  1.00  0.00     0.111 C 
ATOM      6  C   UNL     1      42.418 125.290  22.962  1.00  0.00     0.150 C 
ENDROOT
BRANCH   1   7
ATOM      7  N   UNL     1      43.130 127.668  23.547  1.00  0.00    -0.309 N 
ATOM      8  H   UNL     1      42.625 128.022  24.390  1.00  0.00     0.352 HD
ATOM      9  H   UNL     1      43.938 127.108  23.899  1.00  0.00     0.352 HD
BRANCH   7  10
ATOM     10  C   UNL     1      43.687 128.776  22.804  1.00  0.00     0.132 A 
ATOM     11  C   UNL     1      44.766 130.928  21.336  1.00  0.00    -0.015 A 
ATOM     12  C   UNL     1      43.728 131.146  22.254  1.00  0.00     0.012 A 
ATOM     13  C   UNL     1      45.277 129.631  21.169  1.00  0.00     0.132 A 
ATOM     14  C   UNL     1      43.191 130.079  22.981  1.00  0.00     0.068 A 
ATOM     15  C   UNL     1      44.739 128.564  21.895  1.00  0.00     0.107 A 
ATOM     16  C   UNL     1      45.361 132.078  20.575  1.00  0.00     0.047 C 
ATOM     17  F   UNL     1      46.298 129.399  20.305  1.00  0.00    -0.206 F 
ENDBRANCH   7  10
ENDBRANCH   1   7
BRANCH   6  18
ATOM     18  O   UNL     1      41.691 124.606  21.962  1.00  0.00    -0.378 OA
ATOM     19  H   UNL     1      42.040 124.876  21.073  1.00  0.00     0.212 HD
ENDBRANCH   6  18
BRANCH   6  20
ATOM     20  C   UNL     1      43.887 124.914  22.836  1.00  0.00    -0.042 A 
ATOM     21  N   UNL     1      44.853 125.788  22.441  1.00  0.00    -0.437 NA
ATOM     22  N   UNL     1      44.329 123.642  23.030  1.00  0.00    -0.437 NA
ATOM     23  C   UNL     1      45.949 125.018  22.409  1.00  0.00    -0.038 A 
ATOM     24  C   UNL     1      45.637 123.741  22.759  1.00  0.00    -0.038 A 
ATOM     25  C   UNL     1      47.246 125.394  22.065  1.00  0.00     0.004 A 
ATOM     26  C   UNL     1      46.595 122.731  22.797  1.00  0.00     0.004 A 
ATOM     27  C   UNL     1      48.242 124.400  22.094  1.00  0.00     0.000 A 
ATOM     28  C   UNL     1      47.918 123.073  22.458  1.00  0.00     0.000 A 
ENDBRANCH   6  20
BRANCH   5  29
ATOM     29  N   UNL     1      42.012 123.466  24.622  1.00  0.00    -0.254 NA
ATOM     30  H   UNL     1      43.031 123.247  24.737  1.00  0.00     0.141 HD
BRANCH  29  31
ATOM     31  N   UNL     1      41.539 122.747  23.509  1.00  0.00    -0.271 NA
ATOM     32  H   UNL     1      40.511 122.608  23.646  1.00  0.00     0.137 HD
ATOM     33  H   UNL     1      41.957 121.789  23.549  1.00  0.00     0.137 HD
ENDBRANCH  29  31
ENDBRANCH   5  29
TORSDOF 6
ENDMDL
MODEL 6
REMARK VINA RESULT:      -2.3      4.577      6.521
REMARK SMILES Cc1ccc([NH2+][C@@H]2CCC[C@@H](NN)[C@]2(O)c2nc3ccccc3[n-]2)cc1F
REMARK SMILES IDX 7 1 8 2 9 3 10 4 11 5 14 6 6 7 5 10 2 11 3 12 26 13 4 14
REMARK SMILES IDX 25 15 1 16 27 17 15 18 16 20 17 21 24 22 18 23 23 24 19 25
REMARK SMILES IDX 22 26 20 27 21 28 12 29 13 31
REMARK H PARENT 6 8 6 9 15 19 12 30 13 32 13 33
ROOT
ATOM      1  C   UNL     1      45.427 132.971  22.211  1.00  0.00     0.225 C 
ATOM      2  C   UNL     1      45.258 133.337  23.711  1.00  0.00     0.069 C 
ATOM      3  C   UNL     1      45.307 132.107  24.625  1.00  0.00     0.008 C 
ATOM      4  C   UNL     1      44.264 131.065  24.210  1.00  0.00     0.024 C 
ATOM      5  C   UNL     1      44.421 130.662  22.724  1.00  0.00     0.111 C 
ATOM      6  C   UNL     1      44.343 131.918  21.795  1.00  0.00     0.150 C 
ENDROOT
BRANCH   1   7
ATOM      7  N   UNL     1      46.815 132.535  21.895  1.00  0.00    -0.309 N 
ATOM      8  H   UNL     1      47.109 131.738  22.503  1.00  0.00     0.352 HD
ATOM      9  H   UNL     1      46.877 132.194  20.909  1.00  0.00     0.352 HD
BRANCH   7  10
ATOM     10  C   UNL     1      47.761 133.622  22.016  1.00  0.00     0.132 A 
ATOM     11  C   UNL     1      49.588 135.755  22.260  1.00  0.00    -0.015 A 
ATOM     12  C   UNL     1      49.722 134.612  23.063  1.00  0.00     0.012 A 
ATOM     13  C   UNL     1      48.548 135.818  21.319  1.00  0.00     0.132 A 
ATOM     14  C   UNL     1      48.814 133.555  22.944  1.00  0.00     0.068 A 
ATOM     15  C   UNL     1      47.640 134.762  21.201  1.00  0.00     0.107 A 
ATOM     16  C   UNL     1      50.579 136.878  22.369  1.00  0.00     0.047 C 
ATOM     17  F   UNL     1      48.413 136.903  20.514  1.00  0.00    -0.206 F 
ENDBRANCH   7  10
ENDBRANCH   1   7
BRANCH   6  18
ATOM     18  O   UNL     1      43.080 132.534  21.944  1.00  0.00    -0.378 OA
ATOM     19  H   UNL     1      43.040 132.970  22.835  1.00  0.00     0.212 HD
ENDBRANCH   6  18
BRANCH   6  20
ATOM     20  C   UNL     1      44.527 131.542  20.332  1.00  0.00    -0.042 A 
ATOM     21  N   UNL     1      45.578 130.808  19.873  1.00  0.00    -0.437 NA
ATOM     22  N   UNL     1      43.690 131.990  19.357  1.00  0.00    -0.437 NA
ATOM     23  C   UNL     1      45.365 130.788  18.551  1.00  0.00    -0.038 A 
ATOM     24  C   UNL     1      44.242 131.491  18.243  1.00  0.00    -0.038 A 
ATOM     25  C   UNL     1      46.142 130.171  17.571  1.00  0.00     0.004 A 
ATOM     26  C   UNL     1      43.797 131.637  16.932  1.00  0.00     0.004 A 
ATOM     27  C   UNL     1      45.722 130.295  16.232  1.00  0.00     0.000 A 
ATOM     28  C   UNL     1      44.555 131.026  15.914  1.00  0.00     0.000 A 
ENDBRANCH   6  20
BRANCH   5  29
ATOM     29  N   UNL     1      43.404 129.666  22.337  1.00  0.00    -0.254 NA
ATOM     30  H   UNL     1      43.145 129.806  21.331  1.00  0.00     0.141 HD
BRANCH  29  31
ATOM     31  N   UNL     1      42.247 129.866  23.112  1.00  0.00    -0.271 NA
ATOM     32  H   UNL     1      41.847 130.792  22.838  1.00  0.00     0.137 HD
ATOM     33  H   UNL     1      42.547 129.976  24.108  1.00  0.00     0.137 HD
ENDBRANCH  29  31
ENDBRANCH   5  29
TORSDOF 6
ENDMDL


