MODEL 1
REMARK VINA RESULT:      -9.8      0.000      0.000
REMARK SMILES CC(=O)c1ccc(-c2cccc([C@H]3CO3)c2)cc1
REMARK SMILES IDX 4 1 5 2 6 3 7 4 17 5 18 6 2 7 1 8 3 9 8 10 9 11 16 12 10 13
REMARK SMILES IDX 12 14 11 15 13 16 14 17 15 18
REMARK H PARENT
ROOT
ATOM      1  C   UNL     1      46.760 130.682  14.683  1.00  0.00     0.017 A 
ATOM      2  C   UNL     1      46.381 131.997  15.011  1.00  0.00     0.012 A 
ATOM      3  C   UNL     1      45.577 132.251  16.126  1.00  0.00     0.009 A 
ATOM      4  C   UNL     1      45.131 131.197  16.940  1.00  0.00    -0.018 A 
ATOM      5  C   UNL     1      45.506 129.883  16.614  1.00  0.00     0.009 A 
ATOM      6  C   UNL     1      46.310 129.627  15.501  1.00  0.00     0.012 A 
ENDROOT
BRANCH   1   7
ATOM      7  C   UNL     1      47.617 130.429  13.494  1.00  0.00     0.159 C 
ATOM      8  C   UNL     1      48.627 129.320  13.465  1.00  0.00     0.093 C 
ATOM      9  O   UNL     1      47.503 131.160  12.472  1.00  0.00    -0.295 OA
ENDBRANCH   1   7
BRANCH   4  10
ATOM     10  C   UNL     1      44.274 131.466  18.124  1.00  0.00    -0.018 A 
ATOM     11  C   UNL     1      42.958 131.936  17.961  1.00  0.00     0.009 A 
ATOM     12  C   UNL     1      44.766 131.254  19.425  1.00  0.00     0.015 A 
ATOM     13  C   UNL     1      42.152 132.184  19.076  1.00  0.00     0.001 A 
ATOM     14  C   UNL     1      43.963 131.520  20.545  1.00  0.00    -0.016 A 
ATOM     15  C   UNL     1      42.650 131.971  20.363  1.00  0.00     0.006 A 
BRANCH  14  16
ATOM     16  C   UNL     1      44.488 131.253  21.925  1.00  0.00     0.174 C 
ATOM     17  C   UNL     1      43.740 130.255  22.724  1.00  0.00     0.198 C 
ATOM     18  O   UNL     1      44.939 129.926  22.064  1.00  0.00    -0.368 OA
ENDBRANCH  14  16
ENDBRANCH   4  10
TORSDOF 3
ENDMDL
MODEL 2
REMARK VINA RESULT:      -9.8      0.801      1.433
REMARK SMILES CC(=O)c1ccc(-c2cccc([C@H]3CO3)c2)cc1
REMARK SMILES IDX 4 1 5 2 6 3 7 4 17 5 18 6 2 7 1 8 3 9 8 10 9 11 16 12 10 13
REMARK SMILES IDX 12 14 11 15 13 16 14 17 15 18
REMARK H PARENT
ROOT
ATOM      1  C   UNL     1      46.803 130.578  14.936  1.00  0.00     0.017 A 
ATOM      2  C   UNL     1      46.619 129.635  15.964  1.00  0.00     0.012 A 
ATOM      3  C   UNL     1      45.812 129.931  17.067  1.00  0.00     0.009 A 
ATOM      4  C   UNL     1      45.171 131.176  17.170  1.00  0.00    -0.018 A 
ATOM      5  C   UNL     1      45.354 132.120  16.146  1.00  0.00     0.009 A 
ATOM      6  C   UNL     1      46.159 131.826  15.042  1.00  0.00     0.012 A 
ENDROOT
BRANCH   1   7
ATOM      7  C   UNL     1      47.663 130.248  13.768  1.00  0.00     0.159 C 
ATOM      8  C   UNL     1      47.823 131.186  12.609  1.00  0.00     0.093 C 
ATOM      9  O   UNL     1      48.283 129.150  13.738  1.00  0.00    -0.295 OA
ENDBRANCH   1   7
BRANCH   4  10
ATOM     10  C   UNL     1      44.315 131.491  18.344  1.00  0.00    -0.018 A 
ATOM     11  C   UNL     1      42.997 131.950  18.163  1.00  0.00     0.009 A 
ATOM     12  C   UNL     1      44.809 131.333  19.652  1.00  0.00     0.015 A 
ATOM     13  C   UNL     1      42.191 132.240  19.267  1.00  0.00     0.001 A 
ATOM     14  C   UNL     1      44.006 131.642  20.761  1.00  0.00    -0.016 A 
ATOM     15  C   UNL     1      42.691 132.081  20.562  1.00  0.00     0.006 A 
BRANCH  14  16
ATOM     16  C   UNL     1      44.533 131.434  22.150  1.00  0.00     0.174 C 
ATOM     17  C   UNL     1      43.517 131.201  23.203  1.00  0.00     0.198 C 
ATOM     18  O   UNL     1      44.243 130.140  22.629  1.00  0.00    -0.368 OA
ENDBRANCH  14  16
ENDBRANCH   4  10
TORSDOF 3
ENDMDL
MODEL 3
REMARK VINA RESULT:      -9.4      0.329      1.179
REMARK SMILES CC(=O)c1ccc(-c2cccc([C@H]3CO3)c2)cc1
REMARK SMILES IDX 4 1 5 2 6 3 7 4 17 5 18 6 2 7 1 8 3 9 8 10 9 11 16 12 10 13
REMARK SMILES IDX 12 14 11 15 13 16 14 17 15 18
REMARK H PARENT
ROOT
ATOM      1  C   UNL     1      46.697 130.708  14.598  1.00  0.00     0.017 A 
ATOM      2  C   UNL     1      46.051 129.655  15.271  1.00  0.00     0.012 A 
ATOM      3  C   UNL     1      45.201 129.913  16.350  1.00  0.00     0.009 A 
ATOM      4  C   UNL     1      44.976 131.230  16.784  1.00  0.00    -0.018 A 
ATOM      5  C   UNL     1      45.620 132.284  16.115  1.00  0.00     0.009 A 
ATOM      6  C   UNL     1      46.469 132.027  15.035  1.00  0.00     0.012 A 
ENDROOT
BRANCH   1   7
ATOM      7  C   UNL     1      47.598 130.417  13.450  1.00  0.00     0.159 C 
ATOM      8  C   UNL     1      48.589 129.291  13.487  1.00  0.00     0.093 C 
ATOM      9  O   UNL     1      47.538 131.128  12.410  1.00  0.00    -0.295 OA
ENDBRANCH   1   7
BRANCH   4  10
ATOM     10  C   UNL     1      44.073 131.504  17.932  1.00  0.00    -0.018 A 
ATOM     11  C   UNL     1      42.740 131.896  17.714  1.00  0.00     0.009 A 
ATOM     12  C   UNL     1      44.539 131.374  19.254  1.00  0.00     0.015 A 
ATOM     13  C   UNL     1      41.890 132.148  18.795  1.00  0.00     0.001 A 
ATOM     14  C   UNL     1      43.691 131.645  20.339  1.00  0.00    -0.016 A 
ATOM     15  C   UNL     1      42.361 132.017  20.103  1.00  0.00     0.006 A 
BRANCH  14  16
ATOM     16  C   UNL     1      44.189 131.466  21.743  1.00  0.00     0.174 C 
ATOM     17  C   UNL     1      43.973 130.131  22.345  1.00  0.00     0.198 C 
ATOM     18  O   UNL     1      45.220 130.509  21.812  1.00  0.00    -0.368 OA
ENDBRANCH  14  16
ENDBRANCH   4  10
TORSDOF 3
ENDMDL
MODEL 4
REMARK VINA RESULT:      -8.7      0.994      1.162
REMARK SMILES CC(=O)c1ccc(-c2cccc([C@H]3CO3)c2)cc1
REMARK SMILES IDX 4 1 5 2 6 3 7 4 17 5 18 6 2 7 1 8 3 9 8 10 9 11 16 12 10 13
REMARK SMILES IDX 12 14 11 15 13 16 14 17 15 18
REMARK H PARENT
ROOT
ATOM      1  C   UNL     1      45.957 130.709  15.360  1.00  0.00     0.017 A 
ATOM      2  C   UNL     1      44.718 131.374  15.295  1.00  0.00     0.012 A 
ATOM      3  C   UNL     1      44.011 131.678  16.462  1.00  0.00     0.009 A 
ATOM      4  C   UNL     1      44.523 131.324  17.721  1.00  0.00    -0.018 A 
ATOM      5  C   UNL     1      45.758 130.659  17.789  1.00  0.00     0.009 A 
ATOM      6  C   UNL     1      46.467 130.355  16.623  1.00  0.00     0.012 A 
ENDROOT
BRANCH   1   7
ATOM      7  C   UNL     1      46.698 130.394  14.109  1.00  0.00     0.159 C 
ATOM      8  C   UNL     1      47.815 129.394  14.079  1.00  0.00     0.093 C 
ATOM      9  O   UNL     1      46.388 130.976  13.034  1.00  0.00    -0.295 OA
ENDBRANCH   1   7
BRANCH   4  10
ATOM     10  C   UNL     1      43.770 131.646  18.961  1.00  0.00    -0.018 A 
ATOM     11  C   UNL     1      42.593 132.415  18.903  1.00  0.00     0.009 A 
ATOM     12  C   UNL     1      44.222 131.185  20.212  1.00  0.00     0.015 A 
ATOM     13  C   UNL     1      41.883 132.713  20.069  1.00  0.00     0.001 A 
ATOM     14  C   UNL     1      43.519 131.499  21.385  1.00  0.00    -0.016 A 
ATOM     15  C   UNL     1      42.340 132.251  21.306  1.00  0.00     0.006 A 
BRANCH  14  16
ATOM     16  C   UNL     1      43.991 130.970  22.708  1.00  0.00     0.174 C 
ATOM     17  C   UNL     1      43.421 129.670  23.130  1.00  0.00     0.198 C 
ATOM     18  O   UNL     1      44.705 129.764  22.561  1.00  0.00    -0.368 OA
ENDBRANCH  14  16
ENDBRANCH   4  10
TORSDOF 3
ENDMDL
MODEL 5
REMARK VINA RESULT:      -8.7      1.264      7.014
REMARK SMILES CC(=O)c1ccc(-c2cccc([C@H]3CO3)c2)cc1
REMARK SMILES IDX 4 1 5 2 6 3 7 4 17 5 18 6 2 7 1 8 3 9 8 10 9 11 16 12 10 13
REMARK SMILES IDX 12 14 11 15 13 16 14 17 15 18
REMARK H PARENT
ROOT
ATOM      1  C   UNL     1      44.232 131.125  21.306  1.00  0.00     0.017 A 
ATOM      2  C   UNL     1      45.369 130.575  20.685  1.00  0.00     0.012 A 
ATOM      3  C   UNL     1      45.518 130.628  19.296  1.00  0.00     0.009 A 
ATOM      4  C   UNL     1      44.534 131.229  18.494  1.00  0.00    -0.018 A 
ATOM      5  C   UNL     1      43.397 131.777  19.111  1.00  0.00     0.009 A 
ATOM      6  C   UNL     1      43.248 131.727  20.499  1.00  0.00     0.012 A 
ENDROOT
BRANCH   1   7
ATOM      7  C   UNL     1      44.090 131.062  22.786  1.00  0.00     0.159 C 
ATOM      8  C   UNL     1      43.487 132.188  23.573  1.00  0.00     0.093 C 
ATOM      9  O   UNL     1      44.483 130.040  23.410  1.00  0.00    -0.295 OA
ENDBRANCH   1   7
BRANCH   4  10
ATOM     10  C   UNL     1      44.692 131.283  17.017  1.00  0.00    -0.018 A 
ATOM     11  C   UNL     1      43.585 131.549  16.190  1.00  0.00     0.009 A 
ATOM     12  C   UNL     1      45.950 131.070  16.424  1.00  0.00     0.015 A 
ATOM     13  C   UNL     1      43.735 131.605  14.802  1.00  0.00     0.001 A 
ATOM     14  C   UNL     1      46.098 131.109  15.029  1.00  0.00    -0.016 A 
ATOM     15  C   UNL     1      44.988 131.392  14.223  1.00  0.00     0.006 A 
BRANCH  14  16
ATOM     16  C   UNL     1      47.452 130.916  14.412  1.00  0.00     0.174 C 
ATOM     17  C   UNL     1      47.697 129.601  13.778  1.00  0.00     0.198 C 
ATOM     18  O   UNL     1      47.368 130.738  13.017  1.00  0.00    -0.368 OA
ENDBRANCH  14  16
ENDBRANCH   4  10
TORSDOF 3
ENDMDL
MODEL 6
REMARK VINA RESULT:      -8.5      1.365      1.568
REMARK SMILES CC(=O)c1ccc(-c2cccc([C@H]3CO3)c2)cc1
REMARK SMILES IDX 4 1 5 2 6 3 7 4 17 5 18 6 2 7 1 8 3 9 8 10 9 11 16 12 10 13
REMARK SMILES IDX 12 14 11 15 13 16 14 17 15 18
REMARK H PARENT
ROOT
ATOM      1  C   UNL     1      46.109 130.527  15.490  1.00  0.00     0.017 A 
ATOM      2  C   UNL     1      44.944 131.307  15.367  1.00  0.00     0.012 A 
ATOM      3  C   UNL     1      44.199 131.658  16.497  1.00  0.00     0.009 A 
ATOM      4  C   UNL     1      44.598 131.237  17.775  1.00  0.00    -0.018 A 
ATOM      5  C   UNL     1      45.759 130.457  17.901  1.00  0.00     0.009 A 
ATOM      6  C   UNL     1      46.506 130.106  16.773  1.00  0.00     0.012 A 
ENDROOT
BRANCH   1   7
ATOM      7  C   UNL     1      46.892 130.163  14.278  1.00  0.00     0.159 C 
ATOM      8  C   UNL     1      47.247 131.176  13.230  1.00  0.00     0.093 C 
ATOM      9  O   UNL     1      47.274 128.972  14.113  1.00  0.00    -0.295 OA
ENDBRANCH   1   7
BRANCH   4  10
ATOM     10  C   UNL     1      43.804 131.609  18.976  1.00  0.00    -0.018 A 
ATOM     11  C   UNL     1      42.612 132.343  18.844  1.00  0.00     0.009 A 
ATOM     12  C   UNL     1      44.233 131.230  20.261  1.00  0.00     0.015 A 
ATOM     13  C   UNL     1      41.863 132.688  19.973  1.00  0.00     0.001 A 
ATOM     14  C   UNL     1      43.491 131.591  21.397  1.00  0.00    -0.016 A 
ATOM     15  C   UNL     1      42.297 132.308  21.245  1.00  0.00     0.006 A 
BRANCH  14  16
ATOM     16  C   UNL     1      43.940 131.149  22.759  1.00  0.00     0.174 C 
ATOM     17  C   UNL     1      43.517 132.003  23.892  1.00  0.00     0.198 C 
ATOM     18  O   UNL     1      42.849 130.804  23.581  1.00  0.00    -0.368 OA
ENDBRANCH  14  16
ENDBRANCH   4  10
TORSDOF 3
ENDMDL
MODEL 7
REMARK VINA RESULT:      -8.5      1.272      6.976
REMARK SMILES CC(=O)c1ccc(-c2cccc([C@H]3CO3)c2)cc1
REMARK SMILES IDX 4 1 5 2 6 3 7 4 17 5 18 6 2 7 1 8 3 9 8 10 9 11 16 12 10 13
REMARK SMILES IDX 12 14 11 15 13 16 14 17 15 18
REMARK H PARENT
ROOT
ATOM      1  C   UNL     1      44.183 131.255  21.282  1.00  0.00     0.017 A 
ATOM      2  C   UNL     1      43.224 131.803  20.409  1.00  0.00     0.012 A 
ATOM      3  C   UNL     1      43.427 131.788  19.026  1.00  0.00     0.009 A 
ATOM      4  C   UNL     1      44.594 131.228  18.481  1.00  0.00    -0.018 A 
ATOM      5  C   UNL     1      45.554 130.682  19.349  1.00  0.00     0.009 A 
ATOM      6  C   UNL     1      45.352 130.695  20.732  1.00  0.00     0.012 A 
ENDROOT
BRANCH   1   7
ATOM      7  C   UNL     1      43.951 131.278  22.751  1.00  0.00     0.159 C 
ATOM      8  C   UNL     1      42.990 130.338  23.417  1.00  0.00     0.093 C 
ATOM      9  O   UNL     1      44.573 132.106  23.471  1.00  0.00    -0.295 OA
ENDBRANCH   1   7
BRANCH   4  10
ATOM     10  C   UNL     1      44.810 131.214  17.011  1.00  0.00    -0.018 A 
ATOM     11  C   UNL     1      43.752 131.505  16.131  1.00  0.00     0.009 A 
ATOM     12  C   UNL     1      46.077 130.912  16.478  1.00  0.00     0.015 A 
ATOM     13  C   UNL     1      43.958 131.497  14.748  1.00  0.00     0.001 A 
ATOM     14  C   UNL     1      46.280 130.886  15.089  1.00  0.00    -0.016 A 
ATOM     15  C   UNL     1      45.219 131.195  14.229  1.00  0.00     0.006 A 
BRANCH  14  16
ATOM     16  C   UNL     1      47.645 130.598  14.535  1.00  0.00     0.174 C 
ATOM     17  C   UNL     1      47.759 129.397  13.677  1.00  0.00     0.198 C 
ATOM     18  O   UNL     1      47.666 130.690  13.129  1.00  0.00    -0.368 OA
ENDBRANCH  14  16
ENDBRANCH   4  10
TORSDOF 3
ENDMDL
MODEL 8
REMARK VINA RESULT:      -8.0      1.534      2.601
REMARK SMILES CC(=O)c1ccc(-c2cccc([C@H]3CO3)c2)cc1
REMARK SMILES IDX 4 1 5 2 6 3 7 4 17 5 18 6 2 7 1 8 3 9 8 10 9 11 16 12 10 13
REMARK SMILES IDX 12 14 11 15 13 16 14 17 15 18
REMARK H PARENT
ROOT
ATOM      1  C   UNL     1      46.817 130.693  14.801  1.00  0.00     0.017 A 
ATOM      2  C   UNL     1      46.895 129.643  15.734  1.00  0.00     0.012 A 
ATOM      3  C   UNL     1      46.335 129.777  17.008  1.00  0.00     0.009 A 
ATOM      4  C   UNL     1      45.685 130.965  17.381  1.00  0.00    -0.018 A 
ATOM      5  C   UNL     1      45.606 132.016  16.452  1.00  0.00     0.009 A 
ATOM      6  C   UNL     1      46.165 131.883  15.178  1.00  0.00     0.012 A 
ENDROOT
BRANCH   1   7
ATOM      7  C   UNL     1      47.417 130.534  13.449  1.00  0.00     0.159 C 
ATOM      8  C   UNL     1      48.505 129.537  13.177  1.00  0.00     0.093 C 
ATOM      9  O   UNL     1      47.011 131.250  12.494  1.00  0.00    -0.295 OA
ENDBRANCH   1   7
BRANCH   4  10
ATOM     10  C   UNL     1      45.091 131.108  18.735  1.00  0.00    -0.018 A 
ATOM     11  C   UNL     1      45.848 130.808  19.882  1.00  0.00     0.009 A 
ATOM     12  C   UNL     1      43.763 131.548  18.891  1.00  0.00     0.015 A 
ATOM     13  C   UNL     1      45.290 130.949  21.156  1.00  0.00     0.001 A 
ATOM     14  C   UNL     1      43.197 131.672  20.169  1.00  0.00    -0.016 A 
ATOM     15  C   UNL     1      43.971 131.385  21.300  1.00  0.00     0.006 A 
BRANCH  14  16
ATOM     16  C   UNL     1      41.792 132.177  20.322  1.00  0.00     0.174 C 
ATOM     17  C   UNL     1      41.634 133.647  20.397  1.00  0.00     0.198 C 
ATOM     18  O   UNL     1      41.388 132.937  19.207  1.00  0.00    -0.368 OA
ENDBRANCH  14  16
ENDBRANCH   4  10
TORSDOF 3
ENDMDL
MODEL 9
REMARK VINA RESULT:      -7.8      1.487      7.093
REMARK SMILES CC(=O)c1ccc(-c2cccc([C@H]3CO3)c2)cc1
REMARK SMILES IDX 4 1 5 2 6 3 7 4 17 5 18 6 2 7 1 8 3 9 8 10 9 11 16 12 10 13
REMARK SMILES IDX 12 14 11 15 13 16 14 17 15 18
REMARK H PARENT
ROOT
ATOM      1  C   UNL     1      43.715 131.540  21.832  1.00  0.00     0.017 A 
ATOM      2  C   UNL     1      44.920 130.991  21.356  1.00  0.00     0.012 A 
ATOM      3  C   UNL     1      45.176 130.916  19.983  1.00  0.00     0.009 A 
ATOM      4  C   UNL     1      44.235 131.386  19.054  1.00  0.00    -0.018 A 
ATOM      5  C   UNL     1      43.030 131.934  19.525  1.00  0.00     0.009 A 
ATOM      6  C   UNL     1      42.773 132.011  20.897  1.00  0.00     0.012 A 
ENDROOT
BRANCH   1   7
ATOM      7  C   UNL     1      43.458 131.614  23.295  1.00  0.00     0.159 C 
ATOM      8  C   UNL     1      44.542 131.373  24.304  1.00  0.00     0.093 C 
ATOM      9  O   UNL     1      42.300 131.884  23.715  1.00  0.00    -0.295 OA
ENDBRANCH   1   7
BRANCH   4  10
ATOM     10  C   UNL     1      44.507 131.305  17.595  1.00  0.00    -0.018 A 
ATOM     11  C   UNL     1      43.541 131.729  16.664  1.00  0.00     0.009 A 
ATOM     12  C   UNL     1      45.735 130.805  17.124  1.00  0.00     0.015 A 
ATOM     13  C   UNL     1      43.800 131.658  15.292  1.00  0.00     0.001 A 
ATOM     14  C   UNL     1      45.988 130.716  15.746  1.00  0.00    -0.016 A 
ATOM     15  C   UNL     1      45.021 131.159  14.834  1.00  0.00     0.006 A 
BRANCH  14  16
ATOM     16  C   UNL     1      47.316 130.216  15.257  1.00  0.00     0.174 C 
ATOM     17  C   UNL     1      47.278 129.301  14.094  1.00  0.00     0.198 C 
ATOM     18  O   UNL     1      47.594 130.665  13.951  1.00  0.00    -0.368 OA
ENDBRANCH  14  16
ENDBRANCH   4  10
TORSDOF 3
ENDMDL


