REMARK SMILES CCCOCOc1ccc(-c2ccc(C(C)=O)c3[nH]ncc23)cc1
REMARK SMILES IDX 5 1 4 2 3 3 2 4 1 5 6 6 7 7 8 8 24 9 9 10 23 11 10 12 11 13
REMARK SMILES IDX 12 14 22 15 13 16 21 17 18 18 14 19 20 20 19 21 15 23 16 24
REMARK SMILES IDX 17 25
REMARK H PARENT 19 22
ROOT
ATOM      1  C   UNL     1      -2.506   2.404   3.430  1.00  0.00     0.395 C 
ENDROOT
BRANCH   1   2
ATOM      2  O   UNL     1      -2.852   1.062   3.699  1.00  0.00    -0.345 OA
BRANCH   2   3
ATOM      3  C   UNL     1      -2.747   0.814   5.085  1.00  0.00     0.164 C 
BRANCH   3   4
ATOM      4  C   UNL     1      -3.059  -0.657   5.366  1.00  0.00     0.025 C 
ATOM      5  C   UNL     1      -2.032  -1.587   4.722  1.00  0.00     0.006 C 
ENDBRANCH   3   4
ENDBRANCH   2   3
ENDBRANCH   1   2
BRANCH   1   6
ATOM      6  O   UNL     1      -2.529   2.623   2.023  1.00  0.00    -0.468 OA
BRANCH   6   7
ATOM      7  C   UNL     1      -1.667   2.002   1.104  1.00  0.00     0.122 A 
ATOM      8  C   UNL     1      -1.833   2.285  -0.256  1.00  0.00     0.047 A 
ATOM      9  C   UNL     1      -0.648   1.114   1.500  1.00  0.00     0.047 A 
ATOM     10  C   UNL     1      -1.005   1.690  -1.213  1.00  0.00     0.012 A 
ATOM     11  C   UNL     1       0.180   0.519   0.544  1.00  0.00     0.012 A 
ATOM     12  C   UNL     1       0.003   0.795  -0.822  1.00  0.00    -0.017 A 
BRANCH  12  13
ATOM     13  C   UNL     1       0.889   0.169  -1.830  1.00  0.00    -0.007 A 
ATOM     14  C   UNL     1       2.289   0.165  -1.658  1.00  0.00     0.010 A 
ATOM     15  C   UNL     1       0.392  -0.450  -2.984  1.00  0.00     0.028 A 
ATOM     16  C   UNL     1       3.137  -0.424  -2.619  1.00  0.00     0.015 A 
ATOM     17  C   UNL     1      -0.895  -0.696  -3.421  1.00  0.00     0.144 A 
ATOM     18  C   UNL     1       1.211  -1.026  -3.921  1.00  0.00     0.076 A 
ATOM     19  C   UNL     1       2.611  -1.033  -3.784  1.00  0.00     0.043 A 
ATOM     20  N   UNL     1      -0.828  -1.395  -4.577  1.00  0.00    -0.183 NA
ATOM     21  N   UNL     1       0.450  -1.593  -4.876  1.00  0.00    -0.277 N 
ATOM     22  H   UNL     1       0.768  -2.137  -5.707  1.00  0.00     0.190 HD
BRANCH  19  23
ATOM     23  C   UNL     1       3.511  -1.631  -4.803  1.00  0.00     0.161 C 
ATOM     24  C   UNL     1       4.887  -2.105  -4.445  1.00  0.00     0.093 C 
ATOM     25  O   UNL     1       3.147  -1.697  -6.007  1.00  0.00    -0.294 OA
ENDBRANCH  19  23
ENDBRANCH  12  13
ENDBRANCH   6   7
ENDBRANCH   1   6
TORSDOF 7


