REMARK SMILES Cc1ccc(NC(=O)[N-]c2c(F)cc(F)cc2F)c(-c2ccc3c(c2)[N-]C(=O)C3)c1
REMARK SMILES IDX 6 1 7 2 8 3 5 5 2 6 3 7 30 8 4 9 19 10 1 11 20 12 21 13
REMARK SMILES IDX 25 14 22 15 24 16 23 17 26 18 29 19 27 20 28 21 9 22 10 23
REMARK SMILES IDX 11 24 17 25 13 26 16 27 14 28 12 29 18 30 15 31
REMARK H PARENT 6 4
ROOT
ATOM      1  N   UNL     1       0.114   0.489  -1.693  1.00  0.00    -0.423 N 
ATOM      2  C   UNL     1       0.932  -0.375  -0.894  1.00  0.00     0.160 C 
ATOM      3  O   UNL     1       0.446  -1.421  -0.386  1.00  0.00    -0.298 OA
ATOM      4  H   UNL     1       0.592   1.167  -2.328  1.00  0.00     0.029 HD
ENDROOT
BRANCH   1   5
ATOM      5  C   UNL     1      -1.307   0.323  -1.817  1.00  0.00    -0.033 A 
ATOM      6  C   UNL     1      -4.074  -0.073  -2.157  1.00  0.00    -0.051 A 
ATOM      7  C   UNL     1      -3.225  -0.020  -3.269  1.00  0.00     0.004 A 
ATOM      8  C   UNL     1      -3.537   0.071  -0.870  1.00  0.00     0.012 A 
ATOM      9  C   UNL     1      -1.856   0.189  -3.099  1.00  0.00     0.004 A 
ATOM     10  C   UNL     1      -2.160   0.292  -0.685  1.00  0.00    -0.015 A 
ATOM     11  C   UNL     1      -5.540  -0.339  -2.337  1.00  0.00     0.044 C 
BRANCH  10  12
ATOM     12  C   UNL     1      -1.653   0.538   0.687  1.00  0.00    -0.019 A 
ATOM     13  C   UNL     1      -1.981  -0.352   1.738  1.00  0.00     0.009 A 
ATOM     14  C   UNL     1      -0.853   1.669   0.960  1.00  0.00    -0.007 A 
ATOM     15  C   UNL     1      -1.504  -0.130   3.040  1.00  0.00     0.003 A 
ATOM     16  C   UNL     1      -0.390   1.864   2.260  1.00  0.00    -0.130 A 
ATOM     17  C   UNL     1      -0.705   0.988   3.274  1.00  0.00    -0.057 A 
ATOM     18  N   UNL     1       0.441   2.929   2.691  1.00  0.00    -0.626 NA
ATOM     19  C   UNL     1      -0.070   1.414   4.551  1.00  0.00     0.089 C 
ATOM     20  C   UNL     1       0.631   2.651   4.077  1.00  0.00     0.059 C 
ATOM     21  O   UNL     1       1.329   3.386   4.823  1.00  0.00    -0.320 OA
ENDBRANCH  10  12
ENDBRANCH   1   5
BRANCH   2  22
ATOM     22  N   UNL     1       2.324  -0.075  -0.742  1.00  0.00    -0.396 NA
BRANCH  22  23
ATOM     23  C   UNL     1       3.215  -0.665   0.216  1.00  0.00     0.034 A 
ATOM     24  C   UNL     1       4.561  -0.844  -0.137  1.00  0.00     0.132 A 
ATOM     25  C   UNL     1       2.794  -1.004   1.519  1.00  0.00     0.132 A 
ATOM     26  C   UNL     1       5.464  -1.397   0.775  1.00  0.00     0.079 A 
ATOM     27  C   UNL     1       3.704  -1.556   2.428  1.00  0.00     0.079 A 
ATOM     28  C   UNL     1       5.035  -1.758   2.055  1.00  0.00     0.129 A 
ATOM     29  F   UNL     1       4.992  -0.494  -1.375  1.00  0.00    -0.207 F 
ATOM     30  F   UNL     1       1.530  -0.753   1.936  1.00  0.00    -0.207 F 
ATOM     31  F   UNL     1       5.914  -2.291   2.940  1.00  0.00    -0.207 F 
ENDBRANCH  22  23
ENDBRANCH   2  22
TORSDOF 4


