REMARK SMILES Cc1ccc(-c2ccc(O)cc2)c2c[n-]nc12
REMARK SMILES IDX 6 1 7 2 8 3 9 4 11 5 12 6 5 7 2 8 3 9 17 10 4 11 16 12 13 13
REMARK SMILES IDX 15 14 14 15 1 16 10 17
REMARK H PARENT 10 18
ROOT
ATOM      1  C   UNL     1      -0.452  -0.167  -0.579  1.00  0.00    -0.018 A 
ATOM      2  C   UNL     1      -1.192  -1.345  -0.784  1.00  0.00     0.012 A 
ATOM      3  C   UNL     1      -2.587  -1.327  -0.694  1.00  0.00     0.047 A 
ATOM      4  C   UNL     1      -3.259  -0.132  -0.404  1.00  0.00     0.115 A 
ATOM      5  C   UNL     1      -2.529   1.044  -0.208  1.00  0.00     0.047 A 
ATOM      6  C   UNL     1      -1.134   1.029  -0.298  1.00  0.00     0.012 A 
ENDROOT
BRANCH   1   7
ATOM      7  C   UNL     1       1.025  -0.187  -0.685  1.00  0.00    -0.011 A 
ATOM      8  C   UNL     1       3.874  -0.207  -0.903  1.00  0.00    -0.027 A 
ATOM      9  C   UNL     1       3.073  -0.827  -1.885  1.00  0.00     0.006 A 
ATOM     10  C   UNL     1       3.218   0.386   0.179  1.00  0.00     0.050 A 
ATOM     11  C   UNL     1       1.665  -0.814  -1.779  1.00  0.00     0.010 A 
ATOM     12  N   UNL     1       3.771   0.980   1.251  1.00  0.00    -0.367 NA
ATOM     13  C   UNL     1       1.855   0.400   0.281  1.00  0.00    -0.014 A 
ATOM     14  N   UNL     1       2.777   1.371   2.043  1.00  0.00    -0.581 NA
ATOM     15  C   UNL     1       1.596   1.027   1.480  1.00  0.00    -0.113 A 
ATOM     16  C   UNL     1       5.372  -0.254  -0.979  1.00  0.00     0.046 C 
ENDBRANCH   1   7
BRANCH   4  17
ATOM     17  O   UNL     1      -4.649  -0.103  -0.311  1.00  0.00    -0.508 OA
ATOM     18  H   UNL     1      -5.206  -0.938  -0.448  1.00  0.00     0.293 HD
ENDBRANCH   4  17
TORSDOF 2


