MODEL 1
REMARK VINA RESULT:     -10.2      0.000      0.000
REMARK SMILES Fc1ccc2cc(-c3ncncc3F)[nH]c2c1
REMARK SMILES IDX 1 1 2 2 3 3 4 4 5 5 6 6 7 7 15 8 16 9 17 10 8 12 9 13 13 14
REMARK SMILES IDX 10 15 12 16 11 17 14 18
REMARK H PARENT 15 11
ROOT
ATOM      1  F   UNL     1      48.007 131.352  12.167  1.00  0.00    -0.207 F 
ATOM      2  C   UNL     1      47.486 130.923  13.343  1.00  0.00     0.125 A 
ATOM      3  C   UNL     1      47.716 129.596  13.773  1.00  0.00     0.040 A 
ATOM      4  C   UNL     1      47.182 129.138  14.991  1.00  0.00     0.013 A 
ATOM      5  C   UNL     1      46.428 130.033  15.747  1.00  0.00     0.000 A 
ATOM      6  C   UNL     1      45.793 129.870  16.959  1.00  0.00     0.038 A 
ATOM      7  C   UNL     1      45.194 131.107  17.229  1.00  0.00     0.068 A 
ATOM      8  N   UNL     1      45.454 131.983  16.226  1.00  0.00    -0.353 N 
ATOM      9  C   UNL     1      46.205 131.319  15.333  1.00  0.00     0.049 A 
ATOM     10  C   UNL     1      46.720 131.803  14.131  1.00  0.00     0.066 A 
ATOM     11  H   UNL     1      45.140 132.977  16.154  1.00  0.00     0.167 HD
ENDROOT
BRANCH   7  12
ATOM     12  C   UNL     1      44.382 131.476  18.418  1.00  0.00     0.126 A 
ATOM     13  N   UNL     1      43.101 131.891  18.213  1.00  0.00    -0.232 NA
ATOM     14  C   UNL     1      44.868 131.417  19.739  1.00  0.00     0.169 A 
ATOM     15  C   UNL     1      42.291 132.246  19.243  1.00  0.00     0.222 A 
ATOM     16  C   UNL     1      44.018 131.787  20.782  1.00  0.00     0.154 A 
ATOM     17  N   UNL     1      42.751 132.193  20.518  1.00  0.00    -0.242 NA
ATOM     18  F   UNL     1      46.127 131.017  20.036  1.00  0.00    -0.203 F 
ENDBRANCH   7  12
TORSDOF 1
ENDMDL
MODEL 2
REMARK VINA RESULT:     -10.2      1.678      2.269
REMARK SMILES Fc1ccc2cc(-c3ncncc3F)[nH]c2c1
REMARK SMILES IDX 1 1 2 2 3 3 4 4 5 5 6 6 7 7 15 8 16 9 17 10 8 12 9 13 13 14
REMARK SMILES IDX 10 15 12 16 11 17 14 18
REMARK H PARENT 15 11
ROOT
ATOM      1  F   UNL     1      48.742 128.918  12.859  1.00  0.00    -0.207 F 
ATOM      2  C   UNL     1      47.955 129.714  13.625  1.00  0.00     0.125 A 
ATOM      3  C   UNL     1      47.485 130.943  13.111  1.00  0.00     0.040 A 
ATOM      4  C   UNL     1      46.667 131.778  13.896  1.00  0.00     0.013 A 
ATOM      5  C   UNL     1      46.346 131.350  15.182  1.00  0.00     0.000 A 
ATOM      6  C   UNL     1      45.580 131.946  16.159  1.00  0.00     0.038 A 
ATOM      7  C   UNL     1      45.608 131.057  17.241  1.00  0.00     0.068 A 
ATOM      8  N   UNL     1      46.359 129.969  16.935  1.00  0.00    -0.353 N 
ATOM      9  C   UNL     1      46.801 130.159  15.681  1.00  0.00     0.049 A 
ATOM     10  C   UNL     1      47.612 129.310  14.929  1.00  0.00     0.066 A 
ATOM     11  H   UNL     1      46.559 129.143  17.543  1.00  0.00     0.167 HD
ENDROOT
BRANCH   7  12
ATOM     12  C   UNL     1      44.939 131.216  18.559  1.00  0.00     0.126 A 
ATOM     13  N   UNL     1      45.643 130.887  19.678  1.00  0.00    -0.232 NA
ATOM     14  C   UNL     1      43.620 131.690  18.707  1.00  0.00     0.169 A 
ATOM     15  C   UNL     1      45.107 131.002  20.919  1.00  0.00     0.222 A 
ATOM     16  C   UNL     1      43.090 131.801  19.994  1.00  0.00     0.154 A 
ATOM     17  N   UNL     1      43.838 131.458  21.072  1.00  0.00    -0.242 NA
ATOM     18  F   UNL     1      42.848 132.040  17.652  1.00  0.00    -0.203 F 
ENDBRANCH   7  12
TORSDOF 1
ENDMDL
MODEL 3
REMARK VINA RESULT:     -10.1      0.985      1.604
REMARK SMILES Fc1ccc2cc(-c3ncncc3F)[nH]c2c1
REMARK SMILES IDX 1 1 2 2 3 3 4 4 5 5 6 6 7 7 15 8 16 9 17 10 8 12 9 13 13 14
REMARK SMILES IDX 10 15 12 16 11 17 14 18
REMARK H PARENT 15 11
ROOT
ATOM      1  F   UNL     1      48.701 128.823  13.047  1.00  0.00    -0.207 F 
ATOM      2  C   UNL     1      47.911 129.662  13.761  1.00  0.00     0.125 A 
ATOM      3  C   UNL     1      47.542 130.914  13.218  1.00  0.00     0.040 A 
ATOM      4  C   UNL     1      46.723 131.795  13.949  1.00  0.00     0.013 A 
ATOM      5  C   UNL     1      46.297 131.389  15.211  1.00  0.00     0.000 A 
ATOM      6  C   UNL     1      45.502 132.029  16.137  1.00  0.00     0.038 A 
ATOM      7  C   UNL     1      45.412 131.143  17.218  1.00  0.00     0.068 A 
ATOM      8  N   UNL     1      46.121 130.014  16.960  1.00  0.00    -0.353 N 
ATOM      9  C   UNL     1      46.652 130.177  15.738  1.00  0.00     0.049 A 
ATOM     10  C   UNL     1      47.462 129.282  15.040  1.00  0.00     0.066 A 
ATOM     11  H   UNL     1      46.236 129.181  17.580  1.00  0.00     0.167 HD
ENDROOT
BRANCH   7  12
ATOM     12  C   UNL     1      44.669 131.342  18.490  1.00  0.00     0.126 A 
ATOM     13  N   UNL     1      43.380 131.776  18.416  1.00  0.00    -0.232 NA
ATOM     14  C   UNL     1      45.229 131.106  19.762  1.00  0.00     0.169 A 
ATOM     15  C   UNL     1      42.631 131.984  19.529  1.00  0.00     0.222 A 
ATOM     16  C   UNL     1      44.440 131.326  20.891  1.00  0.00     0.154 A 
ATOM     17  N   UNL     1      43.161 131.758  20.757  1.00  0.00    -0.242 NA
ATOM     18  F   UNL     1      46.501 130.674  19.930  1.00  0.00    -0.203 F 
ENDBRANCH   7  12
TORSDOF 1
ENDMDL
MODEL 4
REMARK VINA RESULT:      -9.9      1.361      1.626
REMARK SMILES Fc1ccc2cc(-c3ncncc3F)[nH]c2c1
REMARK SMILES IDX 1 1 2 2 3 3 4 4 5 5 6 6 7 7 15 8 16 9 17 10 8 12 9 13 13 14
REMARK SMILES IDX 10 15 12 16 11 17 14 18
REMARK H PARENT 15 11
ROOT
ATOM      1  F   UNL     1      47.678 131.411  12.160  1.00  0.00    -0.207 F 
ATOM      2  C   UNL     1      47.281 130.965  13.377  1.00  0.00     0.125 A 
ATOM      3  C   UNL     1      47.612 129.653  13.788  1.00  0.00     0.040 A 
ATOM      4  C   UNL     1      47.207 129.177  15.048  1.00  0.00     0.013 A 
ATOM      5  C   UNL     1      46.476 130.038  15.863  1.00  0.00     0.000 A 
ATOM      6  C   UNL     1      45.954 129.851  17.125  1.00  0.00     0.038 A 
ATOM      7  C   UNL     1      45.320 131.058  17.443  1.00  0.00     0.068 A 
ATOM      8  N   UNL     1      45.450 131.940  16.420  1.00  0.00    -0.353 N 
ATOM      9  C   UNL     1      46.154 131.308  15.468  1.00  0.00     0.049 A 
ATOM     10  C   UNL     1      46.541 131.810  14.225  1.00  0.00     0.066 A 
ATOM     11  H   UNL     1      45.081 132.917  16.373  1.00  0.00     0.167 HD
ENDROOT
BRANCH   7  12
ATOM     12  C   UNL     1      44.593 131.394  18.695  1.00  0.00     0.126 A 
ATOM     13  N   UNL     1      45.252 131.240  19.878  1.00  0.00    -0.232 NA
ATOM     14  C   UNL     1      43.264 131.863  18.720  1.00  0.00     0.169 A 
ATOM     15  C   UNL     1      44.662 131.523  21.067  1.00  0.00     0.222 A 
ATOM     16  C   UNL     1      42.678 132.148  19.954  1.00  0.00     0.154 A 
ATOM     17  N   UNL     1      43.383 131.975  21.100  1.00  0.00    -0.242 NA
ATOM     18  F   UNL     1      42.534 132.047  17.595  1.00  0.00    -0.203 F 
ENDBRANCH   7  12
TORSDOF 1
ENDMDL
MODEL 5
REMARK VINA RESULT:      -9.0      1.854      2.547
REMARK SMILES Fc1ccc2cc(-c3ncncc3F)[nH]c2c1
REMARK SMILES IDX 1 1 2 2 3 3 4 4 5 5 6 6 7 7 15 8 16 9 17 10 8 12 9 13 13 14
REMARK SMILES IDX 10 15 12 16 11 17 14 18
REMARK H PARENT 15 11
ROOT
ATOM      1  F   UNL     1      47.801 129.315  13.861  1.00  0.00    -0.207 F 
ATOM      2  C   UNL     1      46.896 129.972  14.626  1.00  0.00     0.125 A 
ATOM      3  C   UNL     1      45.999 130.886  14.028  1.00  0.00     0.040 A 
ATOM      4  C   UNL     1      45.054 131.575  14.810  1.00  0.00     0.013 A 
ATOM      5  C   UNL     1      45.038 131.324  16.180  1.00  0.00     0.000 A 
ATOM      6  C   UNL     1      44.240 131.841  17.177  1.00  0.00     0.038 A 
ATOM      7  C   UNL     1      44.677 131.223  18.355  1.00  0.00     0.068 A 
ATOM      8  N   UNL     1      45.697 130.369  18.086  1.00  0.00    -0.353 N 
ATOM      9  C   UNL     1      45.905 130.439  16.762  1.00  0.00     0.049 A 
ATOM     10  C   UNL     1      46.853 129.741  16.015  1.00  0.00     0.066 A 
ATOM     11  H   UNL     1      46.220 129.771  18.765  1.00  0.00     0.167 HD
ENDROOT
BRANCH   7  12
ATOM     12  C   UNL     1      44.150 131.425  19.730  1.00  0.00     0.126 A 
ATOM     13  N   UNL     1      44.884 130.947  20.773  1.00  0.00    -0.232 NA
ATOM     14  C   UNL     1      42.935 132.085  20.007  1.00  0.00     0.169 A 
ATOM     15  C   UNL     1      44.475 131.089  22.060  1.00  0.00     0.222 A 
ATOM     16  C   UNL     1      42.535 132.219  21.337  1.00  0.00     0.154 A 
ATOM     17  N   UNL     1      43.307 131.723  22.335  1.00  0.00    -0.242 NA
ATOM     18  F   UNL     1      42.143 132.592  19.033  1.00  0.00    -0.203 F 
ENDBRANCH   7  12
TORSDOF 1
ENDMDL
MODEL 6
REMARK VINA RESULT:      -8.8      2.158      6.355
REMARK SMILES Fc1ccc2cc(-c3ncncc3F)[nH]c2c1
REMARK SMILES IDX 1 1 2 2 3 3 4 4 5 5 6 6 7 7 15 8 16 9 17 10 8 12 9 13 13 14
REMARK SMILES IDX 10 15 12 16 11 17 14 18
REMARK H PARENT 15 11
ROOT
ATOM      1  F   UNL     1      40.892 133.194  20.999  1.00  0.00    -0.207 F 
ATOM      2  C   UNL     1      42.016 132.624  20.500  1.00  0.00     0.125 A 
ATOM      3  C   UNL     1      42.995 132.109  21.380  1.00  0.00     0.040 A 
ATOM      4  C   UNL     1      44.166 131.514  20.876  1.00  0.00     0.013 A 
ATOM      5  C   UNL     1      44.320 131.454  19.493  1.00  0.00     0.000 A 
ATOM      6  C   UNL     1      45.342 130.939  18.726  1.00  0.00     0.038 A 
ATOM      7  C   UNL     1      44.952 131.157  17.399  1.00  0.00     0.068 A 
ATOM      8  N   UNL     1      43.746 131.777  17.360  1.00  0.00    -0.353 N 
ATOM      9  C   UNL     1      43.373 131.951  18.638  1.00  0.00     0.049 A 
ATOM     10  C   UNL     1      42.202 132.546  19.106  1.00  0.00     0.066 A 
ATOM     11  H   UNL     1      43.207 132.065  16.513  1.00  0.00     0.167 HD
ENDROOT
BRANCH   7  12
ATOM     12  C   UNL     1      45.698 130.790  16.167  1.00  0.00     0.126 A 
ATOM     13  N   UNL     1      45.828 129.467  15.868  1.00  0.00    -0.232 NA
ATOM     14  C   UNL     1      46.273 131.737  15.296  1.00  0.00     0.169 A 
ATOM     15  C   UNL     1      46.493 129.046  14.762  1.00  0.00     0.222 A 
ATOM     16  C   UNL     1      46.952 131.281  14.165  1.00  0.00     0.154 A 
ATOM     17  N   UNL     1      47.050 129.951  13.918  1.00  0.00    -0.242 NA
ATOM     18  F   UNL     1      46.193 133.071  15.514  1.00  0.00    -0.203 F 
ENDBRANCH   7  12
TORSDOF 1
ENDMDL
MODEL 7
REMARK VINA RESULT:      -8.8      1.629      2.067
REMARK SMILES Fc1ccc2cc(-c3ncncc3F)[nH]c2c1
REMARK SMILES IDX 1 1 2 2 3 3 4 4 5 5 6 6 7 7 15 8 16 9 17 10 8 12 9 13 13 14
REMARK SMILES IDX 10 15 12 16 11 17 14 18
REMARK H PARENT 15 11
ROOT
ATOM      1  F   UNL     1      46.338 131.253  12.664  1.00  0.00    -0.207 F 
ATOM      2  C   UNL     1      46.216 131.002  13.991  1.00  0.00     0.125 A 
ATOM      3  C   UNL     1      47.061 130.053  14.609  1.00  0.00     0.040 A 
ATOM      4  C   UNL     1      46.945 129.783  15.985  1.00  0.00     0.013 A 
ATOM      5  C   UNL     1      45.977 130.480  16.704  1.00  0.00     0.000 A 
ATOM      6  C   UNL     1      45.640 130.426  18.039  1.00  0.00     0.038 A 
ATOM      7  C   UNL     1      44.596 131.348  18.192  1.00  0.00     0.068 A 
ATOM      8  N   UNL     1      44.312 131.936  17.002  1.00  0.00    -0.353 N 
ATOM      9  C   UNL     1      45.157 131.401  16.108  1.00  0.00     0.049 A 
ATOM     10  C   UNL     1      45.247 131.690  14.747  1.00  0.00     0.066 A 
ATOM     11  H   UNL     1      43.584 132.661  16.810  1.00  0.00     0.167 HD
ENDROOT
BRANCH   7  12
ATOM     12  C   UNL     1      43.864 131.683  19.441  1.00  0.00     0.126 A 
ATOM     13  N   UNL     1      44.469 131.411  20.630  1.00  0.00    -0.232 NA
ATOM     14  C   UNL     1      42.581 132.268  19.455  1.00  0.00     0.169 A 
ATOM     15  C   UNL     1      43.870 131.686  21.817  1.00  0.00     0.222 A 
ATOM     16  C   UNL     1      41.984 132.541  20.687  1.00  0.00     0.154 A 
ATOM     17  N   UNL     1      42.635 132.248  21.840  1.00  0.00    -0.242 NA
ATOM     18  F   UNL     1      41.905 132.572  18.322  1.00  0.00    -0.203 F 
ENDBRANCH   7  12
TORSDOF 1
ENDMDL
MODEL 8
REMARK VINA RESULT:      -8.7      2.009      6.424
REMARK SMILES Fc1ccc2cc(-c3ncncc3F)[nH]c2c1
REMARK SMILES IDX 1 1 2 2 3 3 4 4 5 5 6 6 7 7 15 8 16 9 17 10 8 12 9 13 13 14
REMARK SMILES IDX 10 15 12 16 11 17 14 18
REMARK H PARENT 15 11
ROOT
ATOM      1  F   UNL     1      44.197 131.064  22.811  1.00  0.00    -0.207 F 
ATOM      2  C   UNL     1      44.155 131.216  21.465  1.00  0.00     0.125 A 
ATOM      3  C   UNL     1      43.042 131.845  20.862  1.00  0.00     0.040 A 
ATOM      4  C   UNL     1      42.985 132.009  19.465  1.00  0.00     0.013 A 
ATOM      5  C   UNL     1      44.055 131.532  18.712  1.00  0.00     0.000 A 
ATOM      6  C   UNL     1      44.272 131.553  17.351  1.00  0.00     0.038 A 
ATOM      7  C   UNL     1      45.515 130.933  17.168  1.00  0.00     0.068 A 
ATOM      8  N   UNL     1      46.030 130.553  18.365  1.00  0.00    -0.353 N 
ATOM      9  C   UNL     1      45.134 130.923  19.293  1.00  0.00     0.049 A 
ATOM     10  C   UNL     1      45.220 130.745  20.673  1.00  0.00     0.066 A 
ATOM     11  H   UNL     1      46.940 130.070  18.539  1.00  0.00     0.167 HD
ENDROOT
BRANCH   7  12
ATOM     12  C   UNL     1      46.224 130.694  15.884  1.00  0.00     0.126 A 
ATOM     13  N   UNL     1      46.569 129.413  15.573  1.00  0.00    -0.232 NA
ATOM     14  C   UNL     1      46.555 131.721  14.977  1.00  0.00     0.169 A 
ATOM     15  C   UNL     1      47.218 129.108  14.421  1.00  0.00     0.222 A 
ATOM     16  C   UNL     1      47.222 131.383  13.799  1.00  0.00     0.154 A 
ATOM     17  N   UNL     1      47.540 130.089  13.541  1.00  0.00    -0.242 NA
ATOM     18  F   UNL     1      46.252 133.020  15.204  1.00  0.00    -0.203 F 
ENDBRANCH   7  12
TORSDOF 1
ENDMDL
MODEL 9
REMARK VINA RESULT:      -8.4      2.157      6.326
REMARK SMILES Fc1ccc2cc(-c3ncncc3F)[nH]c2c1
REMARK SMILES IDX 1 1 2 2 3 3 4 4 5 5 6 6 7 7 15 8 16 9 17 10 8 12 9 13 13 14
REMARK SMILES IDX 10 15 12 16 11 17 14 18
REMARK H PARENT 15 11
ROOT
ATOM      1  F   UNL     1      40.741 133.223  20.860  1.00  0.00    -0.207 F 
ATOM      2  C   UNL     1      41.879 132.669  20.375  1.00  0.00     0.125 A 
ATOM      3  C   UNL     1      42.850 132.160  21.268  1.00  0.00     0.040 A 
ATOM      4  C   UNL     1      44.036 131.582  20.778  1.00  0.00     0.013 A 
ATOM      5  C   UNL     1      44.211 131.532  19.397  1.00  0.00     0.000 A 
ATOM      6  C   UNL     1      45.252 131.033  18.644  1.00  0.00     0.038 A 
ATOM      7  C   UNL     1      44.879 131.254  17.312  1.00  0.00     0.068 A 
ATOM      8  N   UNL     1      43.667 131.861  17.258  1.00  0.00    -0.353 N 
ATOM      9  C   UNL     1      43.272 132.023  18.531  1.00  0.00     0.049 A 
ATOM     10  C   UNL     1      42.088 132.602  18.984  1.00  0.00     0.066 A 
ATOM     11  H   UNL     1      43.137 132.148  16.404  1.00  0.00     0.167 HD
ENDROOT
BRANCH   7  12
ATOM     12  C   UNL     1      45.648 130.903  16.089  1.00  0.00     0.126 A 
ATOM     13  N   UNL     1      46.251 131.912  15.400  1.00  0.00    -0.232 NA
ATOM     14  C   UNL     1      45.785 129.584  15.610  1.00  0.00     0.169 A 
ATOM     15  C   UNL     1      46.971 131.678  14.274  1.00  0.00     0.222 A 
ATOM     16  C   UNL     1      46.531 129.368  14.451  1.00  0.00     0.154 A 
ATOM     17  N   UNL     1      47.109 130.412  13.806  1.00  0.00    -0.242 NA
ATOM     18  F   UNL     1      45.221 128.521  16.230  1.00  0.00    -0.203 F 
ENDBRANCH   7  12
TORSDOF 1
ENDMDL


