MODEL 1
REMARK VINA RESULT:      -7.2      0.000      0.000
REMARK SMILES O=C(OCc1cc[nH]c1)c1cc(F)ccc1Nc1cc2ccccc2[nH]1
REMARK SMILES IDX 1 1 2 2 3 3 4 4 5 5 6 6 9 7 7 8 8 9 10 11 11 12 16 13 12 14
REMARK SMILES IDX 15 15 14 16 13 17 17 18 18 20 19 21 26 22 20 23 25 24 21 25
REMARK SMILES IDX 24 26 22 27 23 28
REMARK H PARENT 8 10 17 19 26 29
ROOT
ATOM      1  O   UNL     1      46.955 131.296  20.601  1.00  0.00    -0.246 OA
ATOM      2  C   UNL     1      46.069 132.190  20.704  1.00  0.00     0.340 C 
ENDROOT
BRANCH   2   3
ATOM      3  O   UNL     1      46.325 133.324  21.478  1.00  0.00    -0.457 OA
BRANCH   3   4
ATOM      4  C   UNL     1      47.287 133.350  22.526  1.00  0.00     0.270 C 
BRANCH   4   5
ATOM      5  C   UNL     1      48.238 134.476  22.288  1.00  0.00     0.007 A 
ATOM      6  C   UNL     1      49.482 134.637  22.866  1.00  0.00     0.026 A 
ATOM      7  C   UNL     1      48.083 135.496  21.371  1.00  0.00     0.089 A 
ATOM      8  C   UNL     1      50.030 135.762  22.285  1.00  0.00     0.082 A 
ATOM      9  N   UNL     1      49.178 136.278  21.380  1.00  0.00    -0.367 N 
ATOM     10  H   UNL     1      49.342 137.119  20.784  1.00  0.00     0.165 HD
ENDBRANCH   4   5
ENDBRANCH   3   4
ENDBRANCH   2   3
BRANCH   2  11
ATOM     11  C   UNL     1      44.765 132.025  20.006  1.00  0.00     0.086 A 
ATOM     12  C   UNL     1      43.667 132.803  20.426  1.00  0.00     0.057 A 
ATOM     13  C   UNL     1      44.587 131.136  18.909  1.00  0.00     0.054 A 
ATOM     14  C   UNL     1      42.437 132.725  19.769  1.00  0.00     0.124 A 
ATOM     15  C   UNL     1      43.351 131.089  18.246  1.00  0.00     0.030 A 
ATOM     16  C   UNL     1      42.282 131.875  18.676  1.00  0.00     0.041 A 
ATOM     17  F   UNL     1      41.396 133.487  20.185  1.00  0.00    -0.207 F 
BRANCH  13  18
ATOM     18  N   UNL     1      45.638 130.288  18.428  1.00  0.00    -0.341 N 
ATOM     19  H   UNL     1      46.223 129.786  19.134  1.00  0.00     0.168 HD
BRANCH  18  20
ATOM     20  C   UNL     1      46.103 130.326  17.072  1.00  0.00     0.108 A 
ATOM     21  C   UNL     1      45.798 131.341  16.171  1.00  0.00     0.055 A 
ATOM     22  N   UNL     1      46.939 129.410  16.527  1.00  0.00    -0.341 N 
ATOM     23  C   UNL     1      46.497 131.013  15.031  1.00  0.00     0.002 A 
ATOM     24  C   UNL     1      47.174 129.847  15.279  1.00  0.00     0.047 A 
ATOM     25  C   UNL     1      46.600 131.678  13.811  1.00  0.00     0.010 A 
ATOM     26  C   UNL     1      48.005 129.265  14.322  1.00  0.00     0.027 A 
ATOM     27  C   UNL     1      47.429 131.114  12.825  1.00  0.00     0.001 A 
ATOM     28  C   UNL     1      48.128 129.914  13.079  1.00  0.00     0.002 A 
ATOM     29  H   UNL     1      47.336 128.556  16.979  1.00  0.00     0.168 HD
ENDBRANCH  18  20
ENDBRANCH  13  18
ENDBRANCH   2  11
TORSDOF 6
ENDMDL
MODEL 2
REMARK VINA RESULT:      -6.0      4.536      6.483
REMARK SMILES O=C(OCc1cc[nH]c1)c1cc(F)ccc1Nc1cc2ccccc2[nH]1
REMARK SMILES IDX 1 1 2 2 3 3 4 4 5 5 6 6 9 7 7 8 8 9 10 11 11 12 16 13 12 14
REMARK SMILES IDX 15 15 14 16 13 17 17 18 18 20 19 21 26 22 20 23 25 24 21 25
REMARK SMILES IDX 24 26 22 27 23 28
REMARK H PARENT 8 10 17 19 26 29
ROOT
ATOM      1  O   UNL     1      46.023 128.746  21.131  1.00  0.00    -0.246 OA
ATOM      2  C   UNL     1      45.200 128.574  22.073  1.00  0.00     0.340 C 
ENDROOT
BRANCH   2   3
ATOM      3  O   UNL     1      45.203 127.367  22.776  1.00  0.00    -0.457 OA
BRANCH   3   4
ATOM      4  C   UNL     1      44.404 127.137  23.931  1.00  0.00     0.270 C 
BRANCH   4   5
ATOM      5  C   UNL     1      43.597 125.898  23.728  1.00  0.00     0.007 A 
ATOM      6  C   UNL     1      44.069 124.671  23.302  1.00  0.00     0.026 A 
ATOM      7  C   UNL     1      42.261 125.735  24.029  1.00  0.00     0.089 A 
ATOM      8  C   UNL     1      42.990 123.811  23.348  1.00  0.00     0.082 A 
ATOM      9  N   UNL     1      41.897 124.462  23.790  1.00  0.00    -0.367 N 
ATOM     10  H   UNL     1      40.949 124.051  23.935  1.00  0.00     0.165 HD
ENDBRANCH   4   5
ENDBRANCH   3   4
ENDBRANCH   2   3
BRANCH   2  11
ATOM     11  C   UNL     1      44.237 129.654  22.422  1.00  0.00     0.086 A 
ATOM     12  C   UNL     1      43.198 129.369  23.331  1.00  0.00     0.057 A 
ATOM     13  C   UNL     1      44.339 130.974  21.900  1.00  0.00     0.054 A 
ATOM     14  C   UNL     1      42.301 130.361  23.732  1.00  0.00     0.124 A 
ATOM     15  C   UNL     1      43.443 131.963  22.333  1.00  0.00     0.030 A 
ATOM     16  C   UNL     1      42.428 131.658  23.240  1.00  0.00     0.041 A 
ATOM     17  F   UNL     1      41.313 130.067  24.612  1.00  0.00    -0.207 F 
BRANCH  13  18
ATOM     18  N   UNL     1      45.346 131.350  20.952  1.00  0.00    -0.341 N 
ATOM     19  H   UNL     1      46.108 131.989  21.274  1.00  0.00     0.168 HD
BRANCH  18  20
ATOM     20  C   UNL     1      45.199 131.135  19.542  1.00  0.00     0.108 A 
ATOM     21  C   UNL     1      44.324 131.850  18.731  1.00  0.00     0.055 A 
ATOM     22  N   UNL     1      45.936 130.253  18.824  1.00  0.00    -0.341 N 
ATOM     23  C   UNL     1      44.558 131.372  17.462  1.00  0.00     0.002 A 
ATOM     24  C   UNL     1      45.535 130.413  17.552  1.00  0.00     0.047 A 
ATOM     25  C   UNL     1      43.998 131.737  16.240  1.00  0.00     0.010 A 
ATOM     26  C   UNL     1      46.019 129.752  16.423  1.00  0.00     0.027 A 
ATOM     27  C   UNL     1      44.466 131.087  15.083  1.00  0.00     0.001 A 
ATOM     28  C   UNL     1      45.471 130.100  15.175  1.00  0.00     0.002 A 
ATOM     29  H   UNL     1      46.672 129.599  19.173  1.00  0.00     0.168 HD
ENDBRANCH  18  20
ENDBRANCH  13  18
ENDBRANCH   2  11
TORSDOF 6
ENDMDL
MODEL 3
REMARK VINA RESULT:      -5.8      4.399      6.179
REMARK SMILES O=C(OCc1cc[nH]c1)c1cc(F)ccc1Nc1cc2ccccc2[nH]1
REMARK SMILES IDX 1 1 2 2 3 3 4 4 5 5 6 6 9 7 7 8 8 9 10 11 11 12 16 13 12 14
REMARK SMILES IDX 15 15 14 16 13 17 17 18 18 20 19 21 26 22 20 23 25 24 21 25
REMARK SMILES IDX 24 26 22 27 23 28
REMARK H PARENT 8 10 17 19 26 29
ROOT
ATOM      1  O   UNL     1      44.002 127.063  22.668  1.00  0.00    -0.246 OA
ATOM      2  C   UNL     1      44.880 127.865  22.246  1.00  0.00     0.340 C 
ENDROOT
BRANCH   2   3
ATOM      3  O   UNL     1      46.085 127.363  21.746  1.00  0.00    -0.457 OA
BRANCH   3   4
ATOM      4  C   UNL     1      46.992 126.596  22.529  1.00  0.00     0.270 C 
BRANCH   4   5
ATOM      5  C   UNL     1      46.856 125.155  22.161  1.00  0.00     0.007 A 
ATOM      6  C   UNL     1      45.808 124.319  22.493  1.00  0.00     0.026 A 
ATOM      7  C   UNL     1      47.702 124.438  21.340  1.00  0.00     0.089 A 
ATOM      8  C   UNL     1      46.068 123.116  21.869  1.00  0.00     0.082 A 
ATOM      9  N   UNL     1      47.217 123.194  21.171  1.00  0.00    -0.367 N 
ATOM     10  H   UNL     1      47.644 122.437  20.594  1.00  0.00     0.165 HD
ENDBRANCH   4   5
ENDBRANCH   3   4
ENDBRANCH   2   3
BRANCH   2  11
ATOM     11  C   UNL     1      44.628 129.331  22.288  1.00  0.00     0.086 A 
ATOM     12  C   UNL     1      43.811 129.850  23.314  1.00  0.00     0.057 A 
ATOM     13  C   UNL     1      45.202 130.238  21.354  1.00  0.00     0.054 A 
ATOM     14  C   UNL     1      43.587 131.223  23.429  1.00  0.00     0.124 A 
ATOM     15  C   UNL     1      44.985 131.616  21.501  1.00  0.00     0.030 A 
ATOM     16  C   UNL     1      44.180 132.106  22.528  1.00  0.00     0.041 A 
ATOM     17  F   UNL     1      42.803 131.701  24.427  1.00  0.00    -0.207 F 
BRANCH  13  18
ATOM     18  N   UNL     1      46.025 129.801  20.265  1.00  0.00    -0.341 N 
ATOM     19  H   UNL     1      46.966 129.406  20.489  1.00  0.00     0.168 HD
BRANCH  18  20
ATOM     20  C   UNL     1      45.746 130.142  18.900  1.00  0.00     0.108 A 
ATOM     21  C   UNL     1      44.675 130.932  18.497  1.00  0.00     0.055 A 
ATOM     22  N   UNL     1      46.525 129.786  17.851  1.00  0.00    -0.341 N 
ATOM     23  C   UNL     1      44.829 131.056  17.135  1.00  0.00     0.002 A 
ATOM     24  C   UNL     1      45.953 130.356  16.778  1.00  0.00     0.047 A 
ATOM     25  C   UNL     1      44.073 131.759  16.199  1.00  0.00     0.010 A 
ATOM     26  C   UNL     1      46.400 130.312  15.458  1.00  0.00     0.027 A 
ATOM     27  C   UNL     1      44.499 131.732  14.859  1.00  0.00     0.001 A 
ATOM     28  C   UNL     1      45.656 131.012  14.490  1.00  0.00     0.002 A 
ATOM     29  H   UNL     1      47.396 129.208  17.866  1.00  0.00     0.168 HD
ENDBRANCH  18  20
ENDBRANCH  13  18
ENDBRANCH   2  11
TORSDOF 6
ENDMDL
MODEL 4
REMARK VINA RESULT:      -5.7      1.988      2.525
REMARK SMILES O=C(OCc1cc[nH]c1)c1cc(F)ccc1Nc1cc2ccccc2[nH]1
REMARK SMILES IDX 1 1 2 2 3 3 4 4 5 5 6 6 9 7 7 8 8 9 10 11 11 12 16 13 12 14
REMARK SMILES IDX 15 15 14 16 13 17 17 18 18 20 19 21 26 22 20 23 25 24 21 25
REMARK SMILES IDX 24 26 22 27 23 28
REMARK H PARENT 8 10 17 19 26 29
ROOT
ATOM      1  O   UNL     1      47.057 131.498  20.334  1.00  0.00    -0.246 OA
ATOM      2  C   UNL     1      46.291 132.114  21.126  1.00  0.00     0.340 C 
ENDROOT
BRANCH   2   3
ATOM      3  O   UNL     1      46.679 133.359  21.628  1.00  0.00    -0.457 OA
BRANCH   3   4
ATOM      4  C   UNL     1      47.866 133.557  22.385  1.00  0.00     0.270 C 
BRANCH   4   5
ATOM      5  C   UNL     1      48.483 134.859  21.995  1.00  0.00     0.007 A 
ATOM      6  C   UNL     1      49.732 135.320  22.364  1.00  0.00     0.026 A 
ATOM      7  C   UNL     1      47.956 135.781  21.114  1.00  0.00     0.089 A 
ATOM      8  C   UNL     1      49.908 136.518  21.701  1.00  0.00     0.082 A 
ATOM      9  N   UNL     1      48.828 136.791  20.945  1.00  0.00    -0.367 N 
ATOM     10  H   UNL     1      48.699 137.624  20.329  1.00  0.00     0.165 HD
ENDBRANCH   4   5
ENDBRANCH   3   4
ENDBRANCH   2   3
BRANCH   2  11
ATOM     11  C   UNL     1      44.990 131.508  21.520  1.00  0.00     0.086 A 
ATOM     12  C   UNL     1      44.910 130.805  22.740  1.00  0.00     0.057 A 
ATOM     13  C   UNL     1      43.812 131.636  20.732  1.00  0.00     0.054 A 
ATOM     14  C   UNL     1      43.700 130.265  23.180  1.00  0.00     0.124 A 
ATOM     15  C   UNL     1      42.600 131.107  21.202  1.00  0.00     0.030 A 
ATOM     16  C   UNL     1      42.545 130.423  22.416  1.00  0.00     0.041 A 
ATOM     17  F   UNL     1      43.644 129.597  24.359  1.00  0.00    -0.207 F 
BRANCH  13  18
ATOM     18  N   UNL     1      43.803 132.311  19.468  1.00  0.00    -0.341 N 
ATOM     19  H   UNL     1      43.224 133.177  19.378  1.00  0.00     0.168 HD
BRANCH  18  20
ATOM     20  C   UNL     1      44.302 131.708  18.266  1.00  0.00     0.108 A 
ATOM     21  C   UNL     1      43.806 131.978  16.995  1.00  0.00     0.055 A 
ATOM     22  N   UNL     1      45.350 130.851  18.220  1.00  0.00    -0.341 N 
ATOM     23  C   UNL     1      44.607 131.247  16.147  1.00  0.00     0.002 A 
ATOM     24  C   UNL     1      45.528 130.582  16.917  1.00  0.00     0.047 A 
ATOM     25  C   UNL     1      44.603 131.149  14.758  1.00  0.00     0.010 A 
ATOM     26  C   UNL     1      46.509 129.771  16.347  1.00  0.00     0.027 A 
ATOM     27  C   UNL     1      45.581 130.338  14.154  1.00  0.00     0.001 A 
ATOM     28  C   UNL     1      46.529 129.652  14.945  1.00  0.00     0.002 A 
ATOM     29  H   UNL     1      45.916 130.488  19.020  1.00  0.00     0.168 HD
ENDBRANCH  18  20
ENDBRANCH  13  18
ENDBRANCH   2  11
TORSDOF 6
ENDMDL
MODEL 5
REMARK VINA RESULT:      -5.4      4.373      6.636
REMARK SMILES O=C(OCc1cc[nH]c1)c1cc(F)ccc1Nc1cc2ccccc2[nH]1
REMARK SMILES IDX 1 1 2 2 3 3 4 4 5 5 6 6 9 7 7 8 8 9 10 11 11 12 16 13 12 14
REMARK SMILES IDX 15 15 14 16 13 17 17 18 18 20 19 21 26 22 20 23 25 24 21 25
REMARK SMILES IDX 24 26 22 27 23 28
REMARK H PARENT 8 10 17 19 26 29
ROOT
ATOM      1  O   UNL     1      45.327 128.633  24.186  1.00  0.00    -0.246 OA
ATOM      2  C   UNL     1      44.559 128.638  23.184  1.00  0.00     0.340 C 
ENDROOT
BRANCH   2   3
ATOM      3  O   UNL     1      44.367 127.457  22.461  1.00  0.00    -0.457 OA
BRANCH   3   4
ATOM      4  C   UNL     1      44.575 126.164  23.015  1.00  0.00     0.270 C 
BRANCH   4   5
ATOM      5  C   UNL     1      43.407 125.296  22.680  1.00  0.00     0.007 A 
ATOM      6  C   UNL     1      42.357 124.972  23.517  1.00  0.00     0.026 A 
ATOM      7  C   UNL     1      43.122 124.751  21.444  1.00  0.00     0.089 A 
ATOM      8  C   UNL     1      41.479 124.227  22.756  1.00  0.00     0.082 A 
ATOM      9  N   UNL     1      41.948 124.097  21.501  1.00  0.00    -0.367 N 
ATOM     10  H   UNL     1      41.480 123.596  20.714  1.00  0.00     0.165 HD
ENDBRANCH   4   5
ENDBRANCH   3   4
ENDBRANCH   2   3
BRANCH   2  11
ATOM     11  C   UNL     1      43.872 129.895  22.782  1.00  0.00     0.086 A 
ATOM     12  C   UNL     1      42.794 130.359  23.562  1.00  0.00     0.057 A 
ATOM     13  C   UNL     1      44.280 130.669  21.659  1.00  0.00     0.054 A 
ATOM     14  C   UNL     1      42.151 131.561  23.258  1.00  0.00     0.124 A 
ATOM     15  C   UNL     1      43.638 131.885  21.384  1.00  0.00     0.030 A 
ATOM     16  C   UNL     1      42.578 132.327  22.175  1.00  0.00     0.041 A 
ATOM     17  F   UNL     1      41.119 131.992  24.025  1.00  0.00    -0.207 F 
BRANCH  13  18
ATOM     18  N   UNL     1      45.349 130.264  20.795  1.00  0.00    -0.341 N 
ATOM     19  H   UNL     1      46.251 129.971  21.235  1.00  0.00     0.168 HD
BRANCH  18  20
ATOM     20  C   UNL     1      45.341 130.518  19.383  1.00  0.00     0.108 A 
ATOM     21  C   UNL     1      46.273 129.997  18.492  1.00  0.00     0.055 A 
ATOM     22  N   UNL     1      44.393 131.245  18.745  1.00  0.00    -0.341 N 
ATOM     23  C   UNL     1      45.852 130.434  17.256  1.00  0.00     0.002 A 
ATOM     24  C   UNL     1      44.717 131.180  17.443  1.00  0.00     0.047 A 
ATOM     25  C   UNL     1      46.377 130.198  15.987  1.00  0.00     0.010 A 
ATOM     26  C   UNL     1      44.027 131.744  16.370  1.00  0.00     0.027 A 
ATOM     27  C   UNL     1      45.702 130.755  14.885  1.00  0.00     0.001 A 
ATOM     28  C   UNL     1      44.533 131.524  15.076  1.00  0.00     0.002 A 
ATOM     29  H   UNL     1      43.572 131.737  19.164  1.00  0.00     0.168 HD
ENDBRANCH  18  20
ENDBRANCH  13  18
ENDBRANCH   2  11
TORSDOF 6
ENDMDL
MODEL 6
REMARK VINA RESULT:      -5.2      2.142      2.859
REMARK SMILES O=C(OCc1cc[nH]c1)c1cc(F)ccc1Nc1cc2ccccc2[nH]1
REMARK SMILES IDX 1 1 2 2 3 3 4 4 5 5 6 6 9 7 7 8 8 9 10 11 11 12 16 13 12 14
REMARK SMILES IDX 15 15 14 16 13 17 17 18 18 20 19 21 26 22 20 23 25 24 21 25
REMARK SMILES IDX 24 26 22 27 23 28
REMARK H PARENT 8 10 17 19 26 29
ROOT
ATOM      1  O   UNL     1      45.955 133.584  20.347  1.00  0.00    -0.246 OA
ATOM      2  C   UNL     1      46.211 132.986  21.428  1.00  0.00     0.340 C 
ENDROOT
BRANCH   2   3
ATOM      3  O   UNL     1      47.309 133.389  22.193  1.00  0.00    -0.457 OA
BRANCH   3   4
ATOM      4  C   UNL     1      47.953 134.646  22.027  1.00  0.00     0.270 C 
BRANCH   4   5
ATOM      5  C   UNL     1      49.211 134.660  22.831  1.00  0.00     0.007 A 
ATOM      6  C   UNL     1      50.271 135.533  22.682  1.00  0.00     0.026 A 
ATOM      7  C   UNL     1      49.489 133.870  23.928  1.00  0.00     0.089 A 
ATOM      8  C   UNL     1      51.161 135.227  23.692  1.00  0.00     0.082 A 
ATOM      9  N   UNL     1      50.681 134.218  24.443  1.00  0.00    -0.367 N 
ATOM     10  H   UNL     1      51.141 133.796  25.279  1.00  0.00     0.165 HD
ENDBRANCH   4   5
ENDBRANCH   3   4
ENDBRANCH   2   3
BRANCH   2  11
ATOM     11  C   UNL     1      45.347 131.859  21.874  1.00  0.00     0.086 A 
ATOM     12  C   UNL     1      44.491 132.056  22.978  1.00  0.00     0.057 A 
ATOM     13  C   UNL     1      45.324 130.599  21.213  1.00  0.00     0.054 A 
ATOM     14  C   UNL     1      43.622 131.048  23.402  1.00  0.00     0.124 A 
ATOM     15  C   UNL     1      44.427 129.608  21.639  1.00  0.00     0.030 A 
ATOM     16  C   UNL     1      43.585 129.829  22.728  1.00  0.00     0.041 A 
ATOM     17  F   UNL     1      42.803 131.260  24.461  1.00  0.00    -0.207 F 
BRANCH  13  18
ATOM     18  N   UNL     1      46.175 130.300  20.100  1.00  0.00    -0.341 N 
ATOM     19  H   UNL     1      47.190 130.138  20.288  1.00  0.00     0.168 HD
BRANCH  18  20
ATOM     20  C   UNL     1      45.767 130.500  18.739  1.00  0.00     0.108 A 
ATOM     21  C   UNL     1      44.601 131.159  18.364  1.00  0.00     0.055 A 
ATOM     22  N   UNL     1      46.496 130.124  17.661  1.00  0.00    -0.341 N 
ATOM     23  C   UNL     1      44.643 131.180  16.988  1.00  0.00     0.002 A 
ATOM     24  C   UNL     1      45.797 130.551  16.597  1.00  0.00     0.047 A 
ATOM     25  C   UNL     1      43.759 131.735  16.064  1.00  0.00     0.010 A 
ATOM     26  C   UNL     1      46.148 130.434  15.252  1.00  0.00     0.027 A 
ATOM     27  C   UNL     1      44.086 131.631  14.700  1.00  0.00     0.001 A 
ATOM     28  C   UNL     1      45.274 130.983  14.296  1.00  0.00     0.002 A 
ATOM     29  H   UNL     1      47.414 129.626  17.651  1.00  0.00     0.168 HD
ENDBRANCH  18  20
ENDBRANCH  13  18
ENDBRANCH   2  11
TORSDOF 6
ENDMDL
MODEL 7
REMARK VINA RESULT:      -5.1      3.677      5.141
REMARK SMILES O=C(OCc1cc[nH]c1)c1cc(F)ccc1Nc1cc2ccccc2[nH]1
REMARK SMILES IDX 1 1 2 2 3 3 4 4 5 5 6 6 9 7 7 8 8 9 10 11 11 12 16 13 12 14
REMARK SMILES IDX 15 15 14 16 13 17 17 18 18 20 19 21 26 22 20 23 25 24 21 25
REMARK SMILES IDX 24 26 22 27 23 28
REMARK H PARENT 8 10 17 19 26 29
ROOT
ATOM      1  O   UNL     1      44.877 132.137  22.479  1.00  0.00    -0.246 OA
ATOM      2  C   UNL     1      44.080 131.164  22.583  1.00  0.00     0.340 C 
ENDROOT
BRANCH   2   3
ATOM      3  O   UNL     1      42.737 131.405  22.883  1.00  0.00    -0.457 OA
BRANCH   3   4
ATOM      4  C   UNL     1      42.012 132.515  22.366  1.00  0.00     0.270 C 
BRANCH   4   5
ATOM      5  C   UNL     1      41.983 132.429  20.876  1.00  0.00     0.007 A 
ATOM      6  C   UNL     1      42.182 131.295  20.115  1.00  0.00     0.026 A 
ATOM      7  C   UNL     1      41.651 133.448  20.006  1.00  0.00     0.089 A 
ATOM      8  C   UNL     1      41.977 131.674  18.804  1.00  0.00     0.082 A 
ATOM      9  N   UNL     1      41.655 132.980  18.745  1.00  0.00    -0.367 N 
ATOM     10  H   UNL     1      41.433 133.524  17.882  1.00  0.00     0.165 HD
ENDBRANCH   4   5
ENDBRANCH   3   4
ENDBRANCH   2   3
BRANCH   2  11
ATOM     11  C   UNL     1      44.577 129.774  22.390  1.00  0.00     0.086 A 
ATOM     12  C   UNL     1      44.059 128.749  23.208  1.00  0.00     0.057 A 
ATOM     13  C   UNL     1      45.532 129.430  21.393  1.00  0.00     0.054 A 
ATOM     14  C   UNL     1      44.453 127.421  23.031  1.00  0.00     0.124 A 
ATOM     15  C   UNL     1      45.897 128.087  21.214  1.00  0.00     0.030 A 
ATOM     16  C   UNL     1      45.365 127.090  22.030  1.00  0.00     0.041 A 
ATOM     17  F   UNL     1      43.938 126.449  23.824  1.00  0.00    -0.207 F 
BRANCH  13  18
ATOM     18  N   UNL     1      46.130 130.408  20.533  1.00  0.00    -0.341 N 
ATOM     19  H   UNL     1      46.623 131.216  20.977  1.00  0.00     0.168 HD
BRANCH  18  20
ATOM     20  C   UNL     1      45.840 130.486  19.130  1.00  0.00     0.108 A 
ATOM     21  C   UNL     1      45.204 131.565  18.525  1.00  0.00     0.055 A 
ATOM     22  N   UNL     1      46.201 129.547  18.223  1.00  0.00    -0.341 N 
ATOM     23  C   UNL     1      45.193 131.253  17.184  1.00  0.00     0.002 A 
ATOM     24  C   UNL     1      45.803 130.033  17.036  1.00  0.00     0.047 A 
ATOM     25  C   UNL     1      44.715 131.973  16.092  1.00  0.00     0.010 A 
ATOM     26  C   UNL     1      45.976 129.449  15.782  1.00  0.00     0.027 A 
ATOM     27  C   UNL     1      44.875 131.408  14.813  1.00  0.00     0.001 A 
ATOM     28  C   UNL     1      45.502 130.152  14.659  1.00  0.00     0.002 A 
ATOM     29  H   UNL     1      46.700 128.646  18.397  1.00  0.00     0.168 HD
ENDBRANCH  18  20
ENDBRANCH  13  18
ENDBRANCH   2  11
TORSDOF 6
ENDMDL
MODEL 8
REMARK VINA RESULT:      -5.1      4.614      6.691
REMARK SMILES O=C(OCc1cc[nH]c1)c1cc(F)ccc1Nc1cc2ccccc2[nH]1
REMARK SMILES IDX 1 1 2 2 3 3 4 4 5 5 6 6 9 7 7 8 8 9 10 11 11 12 16 13 12 14
REMARK SMILES IDX 15 15 14 16 13 17 17 18 18 20 19 21 26 22 20 23 25 24 21 25
REMARK SMILES IDX 24 26 22 27 23 28
REMARK H PARENT 8 10 17 19 26 29
ROOT
ATOM      1  O   UNL     1      45.379 128.749  23.840  1.00  0.00    -0.246 OA
ATOM      2  C   UNL     1      44.215 128.752  23.351  1.00  0.00     0.340 C 
ENDROOT
BRANCH   2   3
ATOM      3  O   UNL     1      43.502 127.553  23.267  1.00  0.00    -0.457 OA
BRANCH   3   4
ATOM      4  C   UNL     1      44.116 126.302  22.979  1.00  0.00     0.270 C 
BRANCH   4   5
ATOM      5  C   UNL     1      43.119 125.210  23.188  1.00  0.00     0.007 A 
ATOM      6  C   UNL     1      42.223 125.104  24.233  1.00  0.00     0.026 A 
ATOM      7  C   UNL     1      42.851 124.172  22.318  1.00  0.00     0.089 A 
ATOM      8  C   UNL     1      41.452 123.992  23.963  1.00  0.00     0.082 A 
ATOM      9  N   UNL     1      41.837 123.432  22.801  1.00  0.00    -0.367 N 
ATOM     10  H   UNL     1      41.416 122.590  22.351  1.00  0.00     0.165 HD
ENDBRANCH   4   5
ENDBRANCH   3   4
ENDBRANCH   2   3
BRANCH   2  11
ATOM     11  C   UNL     1      43.617 130.026  22.867  1.00  0.00     0.086 A 
ATOM     12  C   UNL     1      42.514 130.565  23.560  1.00  0.00     0.057 A 
ATOM     13  C   UNL     1      44.133 130.742  21.750  1.00  0.00     0.054 A 
ATOM     14  C   UNL     1      41.951 131.785  23.178  1.00  0.00     0.124 A 
ATOM     15  C   UNL     1      43.570 131.978  21.397  1.00  0.00     0.030 A 
ATOM     16  C   UNL     1      42.484 132.493  22.103  1.00  0.00     0.041 A 
ATOM     17  F   UNL     1      40.894 132.288  23.863  1.00  0.00    -0.207 F 
BRANCH  13  18
ATOM     18  N   UNL     1      45.235 130.260  20.971  1.00  0.00    -0.341 N 
ATOM     19  H   UNL     1      46.098 129.957  21.477  1.00  0.00     0.168 HD
BRANCH  18  20
ATOM     20  C   UNL     1      45.319 130.447  19.552  1.00  0.00     0.108 A 
ATOM     21  C   UNL     1      44.641 131.442  18.855  1.00  0.00     0.055 A 
ATOM     22  N   UNL     1      46.111 129.716  18.731  1.00  0.00    -0.341 N 
ATOM     23  C   UNL     1      45.058 131.298  17.551  1.00  0.00     0.002 A 
ATOM     24  C   UNL     1      45.944 130.251  17.511  1.00  0.00     0.047 A 
ATOM     25  C   UNL     1      44.738 132.035  16.412  1.00  0.00     0.010 A 
ATOM     26  C   UNL     1      46.572 129.869  16.326  1.00  0.00     0.027 A 
ATOM     27  C   UNL     1      45.356 131.671  15.202  1.00  0.00     0.001 A 
ATOM     28  C   UNL     1      46.268 130.594  15.159  1.00  0.00     0.002 A 
ATOM     29  H   UNL     1      46.735 128.918  18.987  1.00  0.00     0.168 HD
ENDBRANCH  18  20
ENDBRANCH  13  18
ENDBRANCH   2  11
TORSDOF 6
ENDMDL
MODEL 9
REMARK VINA RESULT:      -4.9      3.258      4.331
REMARK SMILES O=C(OCc1cc[nH]c1)c1cc(F)ccc1Nc1cc2ccccc2[nH]1
REMARK SMILES IDX 1 1 2 2 3 3 4 4 5 5 6 6 9 7 7 8 8 9 10 11 11 12 16 13 12 14
REMARK SMILES IDX 15 15 14 16 13 17 17 18 18 20 19 21 26 22 20 23 25 24 21 25
REMARK SMILES IDX 24 26 22 27 23 28
REMARK H PARENT 8 10 17 19 26 29
ROOT
ATOM      1  O   UNL     1      45.265 131.565  22.079  1.00  0.00    -0.246 OA
ATOM      2  C   UNL     1      44.032 131.296  22.117  1.00  0.00     0.340 C 
ENDROOT
BRANCH   2   3
ATOM      3  O   UNL     1      43.515 130.591  23.207  1.00  0.00    -0.457 OA
BRANCH   3   4
ATOM      4  C   UNL     1      44.332 130.029  24.228  1.00  0.00     0.270 C 
BRANCH   4   5
ATOM      5  C   UNL     1      44.781 128.671  23.801  1.00  0.00     0.007 A 
ATOM      6  C   UNL     1      44.932 127.563  24.612  1.00  0.00     0.026 A 
ATOM      7  C   UNL     1      45.023 128.260  22.506  1.00  0.00     0.089 A 
ATOM      8  C   UNL     1      45.276 126.522  23.775  1.00  0.00     0.082 A 
ATOM      9  N   UNL     1      45.330 126.950  22.500  1.00  0.00    -0.367 N 
ATOM     10  H   UNL     1      45.551 126.370  21.661  1.00  0.00     0.165 HD
ENDBRANCH   4   5
ENDBRANCH   3   4
ENDBRANCH   2   3
BRANCH   2  11
ATOM     11  C   UNL     1      43.146 131.726  21.002  1.00  0.00     0.086 A 
ATOM     12  C   UNL     1      42.030 132.537  21.296  1.00  0.00     0.057 A 
ATOM     13  C   UNL     1      43.394 131.380  19.644  1.00  0.00     0.054 A 
ATOM     14  C   UNL     1      41.199 133.012  20.279  1.00  0.00     0.124 A 
ATOM     15  C   UNL     1      42.561 131.886  18.634  1.00  0.00     0.030 A 
ATOM     16  C   UNL     1      41.469 132.693  18.950  1.00  0.00     0.041 A 
ATOM     17  F   UNL     1      40.135 133.796  20.583  1.00  0.00    -0.207 F 
BRANCH  13  18
ATOM     18  N   UNL     1      44.488 130.540  19.253  1.00  0.00    -0.341 N 
ATOM     19  H   UNL     1      45.033 130.063  20.006  1.00  0.00     0.168 HD
BRANCH  18  20
ATOM     20  C   UNL     1      45.041 130.557  17.930  1.00  0.00     0.108 A 
ATOM     21  C   UNL     1      45.459 131.711  17.275  1.00  0.00     0.055 A 
ATOM     22  N   UNL     1      45.276 129.449  17.187  1.00  0.00    -0.341 N 
ATOM     23  C   UNL     1      45.976 131.263  16.080  1.00  0.00     0.002 A 
ATOM     24  C   UNL     1      45.853 129.897  16.060  1.00  0.00     0.047 A 
ATOM     25  C   UNL     1      46.568 131.963  15.031  1.00  0.00     0.010 A 
ATOM     26  C   UNL     1      46.315 129.136  14.986  1.00  0.00     0.027 A 
ATOM     27  C   UNL     1      47.043 131.222  13.934  1.00  0.00     0.001 A 
ATOM     28  C   UNL     1      46.917 129.816  13.912  1.00  0.00     0.002 A 
ATOM     29  H   UNL     1      45.074 128.455  17.437  1.00  0.00     0.168 HD
ENDBRANCH  18  20
ENDBRANCH  13  18
ENDBRANCH   2  11
TORSDOF 6
ENDMDL


