MODEL 1
REMARK VINA RESULT:      -9.5      0.000      0.000
REMARK SMILES CC(=O)c1ccc(-c2nccc(C)c2F)c2c[n-]nc12
REMARK SMILES IDX 4 1 5 2 6 3 7 4 16 5 17 6 18 7 19 8 20 9 2 10 1 11 3 12 8 13
REMARK SMILES IDX 9 14 14 15 10 16 12 17 11 18 15 19 13 20
REMARK H PARENT
ROOT
ATOM      1  C   UNL     1      44.360 131.233  21.118  1.00  0.00     0.042 A 
ATOM      2  C   UNL     1      45.550 130.678  20.586  1.00  0.00     0.015 A 
ATOM      3  C   UNL     1      45.770 130.626  19.192  1.00  0.00     0.012 A 
ATOM      4  C   UNL     1      44.811 131.127  18.286  1.00  0.00     0.011 A 
ATOM      5  C   UNL     1      43.641 131.660  18.839  1.00  0.00    -0.012 A 
ATOM      6  C   UNL     1      42.527 132.241  18.272  1.00  0.00    -0.113 A 
ATOM      7  N   UNL     1      41.690 132.612  19.267  1.00  0.00    -0.581 NA
ATOM      8  N   UNL     1      42.234 132.293  20.437  1.00  0.00    -0.367 NA
ATOM      9  C   UNL     1      43.424 131.715  20.189  1.00  0.00     0.058 A 
ENDROOT
BRANCH   1  10
ATOM     10  C   UNL     1      44.114 131.297  22.585  1.00  0.00     0.161 C 
ATOM     11  C   UNL     1      43.109 130.410  23.256  1.00  0.00     0.093 C 
ATOM     12  O   UNL     1      44.759 132.115  23.296  1.00  0.00    -0.294 OA
ENDBRANCH   1  10
BRANCH   4  13
ATOM     13  C   UNL     1      45.021 131.053  16.822  1.00  0.00     0.107 A 
ATOM     14  N   UNL     1      44.144 131.685  15.994  1.00  0.00    -0.253 NA
ATOM     15  C   UNL     1      46.104 130.346  16.270  1.00  0.00     0.152 A 
ATOM     16  C   UNL     1      44.275 131.654  14.642  1.00  0.00     0.112 A 
ATOM     17  C   UNL     1      46.252 130.288  14.874  1.00  0.00    -0.012 A 
ATOM     18  C   UNL     1      45.331 130.956  14.058  1.00  0.00     0.026 A 
ATOM     19  F   UNL     1      47.028 129.757  17.073  1.00  0.00    -0.204 F 
ATOM     20  C   UNL     1      47.420 129.566  14.265  1.00  0.00     0.047 C 
ENDBRANCH   4  13
TORSDOF 2
ENDMDL
MODEL 2
REMARK VINA RESULT:      -8.6      2.712      6.153
REMARK SMILES CC(=O)c1ccc(-c2nccc(C)c2F)c2c[n-]nc12
REMARK SMILES IDX 4 1 5 2 6 3 7 4 16 5 17 6 18 7 19 8 20 9 2 10 1 11 3 12 8 13
REMARK SMILES IDX 9 14 14 15 10 16 12 17 11 18 15 19 13 20
REMARK H PARENT
ROOT
ATOM      1  C   UNL     1      46.446 130.333  15.233  1.00  0.00     0.042 A 
ATOM      2  C   UNL     1      46.894 130.126  16.561  1.00  0.00     0.015 A 
ATOM      3  C   UNL     1      46.096 130.499  17.665  1.00  0.00     0.012 A 
ATOM      4  C   UNL     1      44.827 131.087  17.479  1.00  0.00     0.011 A 
ATOM      5  C   UNL     1      44.414 131.289  16.156  1.00  0.00    -0.012 A 
ATOM      6  C   UNL     1      43.259 131.806  15.613  1.00  0.00    -0.113 A 
ATOM      7  N   UNL     1      43.363 131.750  14.266  1.00  0.00    -0.581 NA
ATOM      8  N   UNL     1      44.534 131.214  13.940  1.00  0.00    -0.367 NA
ATOM      9  C   UNL     1      45.183 130.927  15.083  1.00  0.00     0.058 A 
ENDROOT
BRANCH   1  10
ATOM     10  C   UNL     1      47.274 129.943  14.059  1.00  0.00     0.161 C 
ATOM     11  C   UNL     1      47.626 130.924  12.982  1.00  0.00     0.093 C 
ATOM     12  O   UNL     1      47.698 128.760  13.952  1.00  0.00    -0.294 OA
ENDBRANCH   1  10
BRANCH   4  13
ATOM     13  C   UNL     1      43.994 131.505  18.629  1.00  0.00     0.107 A 
ATOM     14  N   UNL     1      42.786 132.088  18.396  1.00  0.00    -0.253 NA
ATOM     15  C   UNL     1      44.423 131.315  19.955  1.00  0.00     0.152 A 
ATOM     16  C   UNL     1      41.974 132.499  19.405  1.00  0.00     0.112 A 
ATOM     17  C   UNL     1      43.608 131.745  21.015  1.00  0.00    -0.012 A 
ATOM     18  C   UNL     1      42.369 132.334  20.732  1.00  0.00     0.026 A 
ATOM     19  F   UNL     1      45.597 130.682  20.219  1.00  0.00    -0.204 F 
ATOM     20  C   UNL     1      44.033 131.521  22.438  1.00  0.00     0.047 C 
ENDBRANCH   4  13
TORSDOF 2
ENDMDL
MODEL 3
REMARK VINA RESULT:      -8.4      2.114      2.890
REMARK SMILES CC(=O)c1ccc(-c2nccc(C)c2F)c2c[n-]nc12
REMARK SMILES IDX 4 1 5 2 6 3 7 4 16 5 17 6 18 7 19 8 20 9 2 10 1 11 3 12 8 13
REMARK SMILES IDX 9 14 14 15 10 16 12 17 11 18 15 19 13 20
REMARK H PARENT
ROOT
ATOM      1  C   UNL     1      43.044 132.076  19.636  1.00  0.00     0.042 A 
ATOM      2  C   UNL     1      42.542 132.110  18.312  1.00  0.00     0.015 A 
ATOM      3  C   UNL     1      43.300 131.603  17.233  1.00  0.00     0.012 A 
ATOM      4  C   UNL     1      44.579 131.045  17.441  1.00  0.00     0.011 A 
ATOM      5  C   UNL     1      45.053 131.034  18.759  1.00  0.00    -0.012 A 
ATOM      6  C   UNL     1      46.220 130.562  19.321  1.00  0.00    -0.113 A 
ATOM      7  N   UNL     1      46.164 130.779  20.655  1.00  0.00    -0.581 NA
ATOM      8  N   UNL     1      45.008 131.363  20.954  1.00  0.00    -0.367 NA
ATOM      9  C   UNL     1      44.322 131.521  19.808  1.00  0.00     0.058 A 
ENDROOT
BRANCH   1  10
ATOM     10  C   UNL     1      42.256 132.603  20.784  1.00  0.00     0.161 C 
ATOM     11  C   UNL     1      42.481 132.116  22.184  1.00  0.00     0.093 C 
ATOM     12  O   UNL     1      41.372 133.481  20.592  1.00  0.00    -0.294 OA
ENDBRANCH   1  10
BRANCH   4  13
ATOM     13  C   UNL     1      45.392 130.536  16.314  1.00  0.00     0.107 A 
ATOM     14  N   UNL     1      45.428 129.196  16.074  1.00  0.00    -0.253 NA
ATOM     15  C   UNL     1      46.126 131.404  15.486  1.00  0.00     0.152 A 
ATOM     16  C   UNL     1      46.156 128.662  15.059  1.00  0.00     0.112 A 
ATOM     17  C   UNL     1      46.898 130.874  14.439  1.00  0.00    -0.012 A 
ATOM     18  C   UNL     1      46.903 129.491  14.223  1.00  0.00     0.026 A 
ATOM     19  F   UNL     1      46.061 132.750  15.664  1.00  0.00    -0.204 F 
ATOM     20  C   UNL     1      47.663 131.787  13.524  1.00  0.00     0.047 C 
ENDBRANCH   4  13
TORSDOF 2
ENDMDL
MODEL 4
REMARK VINA RESULT:      -8.0      2.594      6.144
REMARK SMILES CC(=O)c1ccc(-c2nccc(C)c2F)c2c[n-]nc12
REMARK SMILES IDX 4 1 5 2 6 3 7 4 16 5 17 6 18 7 19 8 20 9 2 10 1 11 3 12 8 13
REMARK SMILES IDX 9 14 14 15 10 16 12 17 11 18 15 19 13 20
REMARK H PARENT
ROOT
ATOM      1  C   UNL     1      44.755 131.391  17.561  1.00  0.00     0.042 A 
ATOM      2  C   UNL     1      45.818 130.795  18.284  1.00  0.00     0.015 A 
ATOM      3  C   UNL     1      45.725 130.589  19.678  1.00  0.00     0.012 A 
ATOM      4  C   UNL     1      44.569 130.968  20.394  1.00  0.00     0.011 A 
ATOM      5  C   UNL     1      43.539 131.564  19.656  1.00  0.00    -0.012 A 
ATOM      6  C   UNL     1      42.292 132.030  20.011  1.00  0.00    -0.113 A 
ATOM      7  N   UNL     1      41.679 132.491  18.898  1.00  0.00    -0.581 NA
ATOM      8  N   UNL     1      42.488 132.330  17.856  1.00  0.00    -0.367 NA
ATOM      9  C   UNL     1      43.623 131.764  18.304  1.00  0.00     0.058 A 
ENDROOT
BRANCH   1  10
ATOM     10  C   UNL     1      44.836 131.612  16.091  1.00  0.00     0.161 C 
ATOM     11  C   UNL     1      46.138 131.906  15.410  1.00  0.00     0.093 C 
ATOM     12  O   UNL     1      43.792 131.556  15.386  1.00  0.00    -0.294 OA
ENDBRANCH   1  10
BRANCH   4  13
ATOM     13  C   UNL     1      44.473 130.781  21.859  1.00  0.00     0.107 A 
ATOM     14  N   UNL     1      44.216 131.859  22.650  1.00  0.00    -0.253 NA
ATOM     15  C   UNL     1      44.641 129.516  22.451  1.00  0.00     0.152 A 
ATOM     16  C   UNL     1      44.119 131.758  24.001  1.00  0.00     0.112 A 
ATOM     17  C   UNL     1      44.560 129.389  23.848  1.00  0.00    -0.012 A 
ATOM     18  C   UNL     1      44.287 130.522  24.624  1.00  0.00     0.026 A 
ATOM     19  F   UNL     1      44.839 128.412  21.683  1.00  0.00    -0.204 F 
ATOM     20  C   UNL     1      44.703 128.042  24.496  1.00  0.00     0.047 C 
ENDBRANCH   4  13
TORSDOF 2
ENDMDL
MODEL 5
REMARK VINA RESULT:      -7.9      1.436      1.655
REMARK SMILES CC(=O)c1ccc(-c2nccc(C)c2F)c2c[n-]nc12
REMARK SMILES IDX 4 1 5 2 6 3 7 4 16 5 17 6 18 7 19 8 20 9 2 10 1 11 3 12 8 13
REMARK SMILES IDX 9 14 14 15 10 16 12 17 11 18 15 19 13 20
REMARK H PARENT
ROOT
ATOM      1  C   UNL     1      44.037 131.523  21.126  1.00  0.00     0.042 A 
ATOM      2  C   UNL     1      45.284 130.878  20.937  1.00  0.00     0.015 A 
ATOM      3  C   UNL     1      45.745 130.548  19.643  1.00  0.00     0.012 A 
ATOM      4  C   UNL     1      44.978 130.854  18.499  1.00  0.00     0.011 A 
ATOM      5  C   UNL     1      43.745 131.482  18.717  1.00  0.00    -0.012 A 
ATOM      6  C   UNL     1      42.768 131.933  17.856  1.00  0.00    -0.113 A 
ATOM      7  N   UNL     1      41.782 132.493  18.592  1.00  0.00    -0.581 NA
ATOM      8  N   UNL     1      42.100 132.417  19.879  1.00  0.00    -0.367 NA
ATOM      9  C   UNL     1      43.296 131.806  19.968  1.00  0.00     0.058 A 
ENDROOT
BRANCH   1  10
ATOM     10  C   UNL     1      43.540 131.880  22.483  1.00  0.00     0.161 C 
ATOM     11  C   UNL     1      44.435 131.846  23.685  1.00  0.00     0.093 C 
ATOM     12  O   UNL     1      42.336 132.220  22.644  1.00  0.00    -0.294 OA
ENDBRANCH   1  10
BRANCH   4  13
ATOM     13  C   UNL     1      45.439 130.489  17.141  1.00  0.00     0.107 A 
ATOM     14  N   UNL     1      45.363 129.189  16.741  1.00  0.00    -0.253 NA
ATOM     15  C   UNL     1      45.953 131.453  16.254  1.00  0.00     0.152 A 
ATOM     16  C   UNL     1      45.772 128.785  15.510  1.00  0.00     0.112 A 
ATOM     17  C   UNL     1      46.396 131.057  14.981  1.00  0.00    -0.012 A 
ATOM     18  C   UNL     1      46.294 129.711  14.608  1.00  0.00     0.026 A 
ATOM     19  F   UNL     1      45.985 132.766  16.603  1.00  0.00    -0.204 F 
ATOM     20  C   UNL     1      46.917 132.076  14.009  1.00  0.00     0.047 C 
ENDBRANCH   4  13
TORSDOF 2
ENDMDL
MODEL 6
REMARK VINA RESULT:      -7.6      1.327      1.869
REMARK SMILES CC(=O)c1ccc(-c2nccc(C)c2F)c2c[n-]nc12
REMARK SMILES IDX 4 1 5 2 6 3 7 4 16 5 17 6 18 7 19 8 20 9 2 10 1 11 3 12 8 13
REMARK SMILES IDX 9 14 14 15 10 16 12 17 11 18 15 19 13 20
REMARK H PARENT
ROOT
ATOM      1  C   UNL     1      44.421 131.156  21.405  1.00  0.00     0.042 A 
ATOM      2  C   UNL     1      45.586 130.577  20.844  1.00  0.00     0.015 A 
ATOM      3  C   UNL     1      45.803 130.583  19.448  1.00  0.00     0.012 A 
ATOM      4  C   UNL     1      44.866 131.170  18.570  1.00  0.00     0.011 A 
ATOM      5  C   UNL     1      43.720 131.725  19.151  1.00  0.00    -0.012 A 
ATOM      6  C   UNL     1      42.632 132.380  18.616  1.00  0.00    -0.113 A 
ATOM      7  N   UNL     1      41.813 132.739  19.631  1.00  0.00    -0.581 NA
ATOM      8  N   UNL     1      42.344 132.340  20.782  1.00  0.00    -0.367 NA
ATOM      9  C   UNL     1      43.507 131.723  20.503  1.00  0.00     0.058 A 
ENDROOT
BRANCH   1  10
ATOM     10  C   UNL     1      44.180 131.160  22.874  1.00  0.00     0.161 C 
ATOM     11  C   UNL     1      43.574 129.983  23.576  1.00  0.00     0.093 C 
ATOM     12  O   UNL     1      44.486 132.173  23.561  1.00  0.00    -0.294 OA
ENDBRANCH   1  10
BRANCH   4  13
ATOM     13  C   UNL     1      45.071 131.158  17.104  1.00  0.00     0.107 A 
ATOM     14  N   UNL     1      46.304 130.859  16.609  1.00  0.00    -0.253 NA
ATOM     15  C   UNL     1      44.022 131.447  16.213  1.00  0.00     0.152 A 
ATOM     16  C   UNL     1      46.561 130.835  15.275  1.00  0.00     0.112 A 
ATOM     17  C   UNL     1      44.267 131.442  14.829  1.00  0.00    -0.012 A 
ATOM     18  C   UNL     1      45.548 131.123  14.361  1.00  0.00     0.026 A 
ATOM     19  F   UNL     1      42.767 131.689  16.675  1.00  0.00    -0.204 F 
ATOM     20  C   UNL     1      43.153 131.715  13.861  1.00  0.00     0.047 C 
ENDBRANCH   4  13
TORSDOF 2
ENDMDL
MODEL 7
REMARK VINA RESULT:      -7.0      2.695      6.356
REMARK SMILES CC(=O)c1ccc(-c2nccc(C)c2F)c2c[n-]nc12
REMARK SMILES IDX 4 1 5 2 6 3 7 4 16 5 17 6 18 7 19 8 20 9 2 10 1 11 3 12 8 13
REMARK SMILES IDX 9 14 14 15 10 16 12 17 11 18 15 19 13 20
REMARK H PARENT
ROOT
ATOM      1  C   UNL     1      45.053 131.030  17.600  1.00  0.00     0.042 A 
ATOM      2  C   UNL     1      46.007 130.599  18.555  1.00  0.00     0.015 A 
ATOM      3  C   UNL     1      45.750 130.706  19.940  1.00  0.00     0.012 A 
ATOM      4  C   UNL     1      44.534 131.243  20.414  1.00  0.00     0.011 A 
ATOM      5  C   UNL     1      43.615 131.669  19.448  1.00  0.00    -0.012 A 
ATOM      6  C   UNL     1      42.352 132.212  19.544  1.00  0.00    -0.113 A 
ATOM      7  N   UNL     1      41.885 132.421  18.292  1.00  0.00    -0.581 NA
ATOM      8  N   UNL     1      42.801 132.028  17.413  1.00  0.00    -0.367 NA
ATOM      9  C   UNL     1      43.858 131.566  18.105  1.00  0.00     0.058 A 
ENDROOT
BRANCH   1  10
ATOM     10  C   UNL     1      45.308 130.921  16.138  1.00  0.00     0.161 C 
ATOM     11  C   UNL     1      46.084 131.965  15.393  1.00  0.00     0.093 C 
ATOM     12  O   UNL     1      44.866 129.932  15.492  1.00  0.00    -0.294 OA
ENDBRANCH   1  10
BRANCH   4  13
ATOM     13  C   UNL     1      44.266 131.384  21.863  1.00  0.00     0.107 A 
ATOM     14  N   UNL     1      44.927 132.341  22.570  1.00  0.00    -0.253 NA
ATOM     15  C   UNL     1      43.344 130.552  22.525  1.00  0.00     0.152 A 
ATOM     16  C   UNL     1      44.732 132.522  23.902  1.00  0.00     0.112 A 
ATOM     17  C   UNL     1      43.136 130.710  23.905  1.00  0.00    -0.012 A 
ATOM     18  C   UNL     1      43.832 131.711  24.594  1.00  0.00     0.026 A 
ATOM     19  F   UNL     1      42.626 129.627  21.835  1.00  0.00    -0.204 F 
ATOM     20  C   UNL     1      42.133 129.854  24.623  1.00  0.00     0.047 C 
ENDBRANCH   4  13
TORSDOF 2
ENDMDL
MODEL 8
REMARK VINA RESULT:      -6.8      3.118      6.465
REMARK SMILES CC(=O)c1ccc(-c2nccc(C)c2F)c2c[n-]nc12
REMARK SMILES IDX 4 1 5 2 6 3 7 4 16 5 17 6 18 7 19 8 20 9 2 10 1 11 3 12 8 13
REMARK SMILES IDX 9 14 14 15 10 16 12 17 11 18 15 19 13 20
REMARK H PARENT
ROOT
ATOM      1  C   UNL     1      46.745 130.984  14.454  1.00  0.00     0.042 A 
ATOM      2  C   UNL     1      46.611 132.277  15.017  1.00  0.00     0.015 A 
ATOM      3  C   UNL     1      45.779 132.501  16.136  1.00  0.00     0.012 A 
ATOM      4  C   UNL     1      45.057 131.443  16.729  1.00  0.00     0.011 A 
ATOM      5  C   UNL     1      45.200 130.179  16.145  1.00  0.00    -0.012 A 
ATOM      6  C   UNL     1      44.675 128.945  16.462  1.00  0.00    -0.113 A 
ATOM      7  N   UNL     1      45.160 128.040  15.582  1.00  0.00    -0.581 NA
ATOM      8  N   UNL     1      45.972 128.653  14.728  1.00  0.00    -0.367 NA
ATOM      9  C   UNL     1      46.007 129.956  15.062  1.00  0.00     0.058 A 
ENDROOT
BRANCH   1  10
ATOM     10  C   UNL     1      47.620 130.731  13.276  1.00  0.00     0.161 C 
ATOM     11  C   UNL     1      48.654 129.645  13.282  1.00  0.00     0.093 C 
ATOM     12  O   UNL     1      47.503 131.439  12.240  1.00  0.00    -0.294 OA
ENDBRANCH   1  10
BRANCH   4  13
ATOM     13  C   UNL     1      44.162 131.673  17.885  1.00  0.00     0.107 A 
ATOM     14  N   UNL     1      42.870 132.040  17.661  1.00  0.00    -0.253 NA
ATOM     15  C   UNL     1      44.615 131.520  19.208  1.00  0.00     0.152 A 
ATOM     16  C   UNL     1      41.996 132.270  18.675  1.00  0.00     0.112 A 
ATOM     17  C   UNL     1      43.735 131.767  20.274  1.00  0.00    -0.012 A 
ATOM     18  C   UNL     1      42.412 132.136  20.000  1.00  0.00     0.026 A 
ATOM     19  F   UNL     1      45.882 131.097  19.461  1.00  0.00    -0.204 F 
ATOM     20  C   UNL     1      44.190 131.578  21.693  1.00  0.00     0.047 C 
ENDBRANCH   4  13
TORSDOF 2
ENDMDL
MODEL 9
REMARK VINA RESULT:      -6.5      1.854      2.488
REMARK SMILES CC(=O)c1ccc(-c2nccc(C)c2F)c2c[n-]nc12
REMARK SMILES IDX 4 1 5 2 6 3 7 4 16 5 17 6 18 7 19 8 20 9 2 10 1 11 3 12 8 13
REMARK SMILES IDX 9 14 14 15 10 16 12 17 11 18 15 19 13 20
REMARK H PARENT
ROOT
ATOM      1  C   UNL     1      42.991 131.925  20.190  1.00  0.00     0.042 A 
ATOM      2  C   UNL     1      42.407 132.049  18.904  1.00  0.00     0.015 A 
ATOM      3  C   UNL     1      43.176 131.863  17.735  1.00  0.00     0.012 A 
ATOM      4  C   UNL     1      44.549 131.544  17.810  1.00  0.00     0.011 A 
ATOM      5  C   UNL     1      45.101 131.438  19.093  1.00  0.00    -0.012 A 
ATOM      6  C   UNL     1      46.369 131.130  19.535  1.00  0.00    -0.113 A 
ATOM      7  N   UNL     1      46.359 131.138  20.887  1.00  0.00    -0.581 NA
ATOM      8  N   UNL     1      45.135 131.433  21.313  1.00  0.00    -0.367 NA
ATOM      9  C   UNL     1      44.359 131.616  20.229  1.00  0.00     0.058 A 
ENDROOT
BRANCH   1  10
ATOM     10  C   UNL     1      42.193 132.116  21.432  1.00  0.00     0.161 C 
ATOM     11  C   UNL     1      42.420 131.275  22.651  1.00  0.00     0.093 C 
ATOM     12  O   UNL     1      41.297 133.003  21.476  1.00  0.00    -0.294 OA
ENDBRANCH   1  10
BRANCH   4  13
ATOM     13  C   UNL     1      45.370 131.373  16.590  1.00  0.00     0.107 A 
ATOM     14  N   UNL     1      45.652 132.461  15.823  1.00  0.00    -0.253 NA
ATOM     15  C   UNL     1      45.864 130.113  16.207  1.00  0.00     0.152 A 
ATOM     16  C   UNL     1      46.396 132.374  14.689  1.00  0.00     0.112 A 
ATOM     17  C   UNL     1      46.623 129.995  15.032  1.00  0.00    -0.012 A 
ATOM     18  C   UNL     1      46.896 131.141  14.274  1.00  0.00     0.026 A 
ATOM     19  F   UNL     1      45.649 129.019  16.985  1.00  0.00    -0.204 F 
ATOM     20  C   UNL     1      47.187 128.664  14.623  1.00  0.00     0.047 C 
ENDBRANCH   4  13
TORSDOF 2
ENDMDL


