MODEL 1
REMARK VINA RESULT:      -9.0      0.000      0.000
REMARK SMILES Cc1cc[nH+]c(-c2ccc3[n-]c([NH2+]c4cn5ccccc5[nH+]4)cc3c2)c1F
REMARK SMILES IDX 7 1 8 2 9 3 10 4 11 5 12 6 23 7 24 8 25 9 6 10 2 11 3 12
REMARK SMILES IDX 26 13 4 14 5 15 1 16 27 17 13 19 14 22 15 23 22 24 16 25
REMARK SMILES IDX 21 26 17 27 20 28 18 29 19 30
REMARK H PARENT 5 18 13 20 13 21 22 31
ROOT
ATOM      1  C   UNL     1      44.869 131.523  17.459  1.00  0.00     0.050 A 
ATOM      2  C   UNL     1      43.511 131.917  17.332  1.00  0.00     0.014 A 
ATOM      3  C   UNL     1      42.678 132.006  18.461  1.00  0.00    -0.014 A 
ATOM      4  C   UNL     1      43.224 131.699  19.704  1.00  0.00    -0.125 A 
ATOM      5  N   UNL     1      42.593 131.741  20.891  1.00  0.00    -0.610 NA
ATOM      6  C   UNL     1      43.546 131.367  21.781  1.00  0.00     0.039 A 
ATOM      7  C   UNL     1      44.769 131.109  21.171  1.00  0.00     0.050 A 
ATOM      8  C   UNL     1      44.535 131.323  19.836  1.00  0.00    -0.035 A 
ATOM      9  C   UNL     1      45.390 131.228  18.742  1.00  0.00     0.022 A 
ENDROOT
BRANCH   1  10
ATOM     10  C   UNL     1      45.735 131.448  16.258  1.00  0.00     0.247 A 
ATOM     11  C   UNL     1      47.105 130.182  14.702  1.00  0.00    -0.002 A 
ATOM     12  C   UNL     1      47.350 131.364  13.991  1.00  0.00     0.077 A 
ATOM     13  C   UNL     1      46.289 130.222  15.841  1.00  0.00     0.198 A 
ATOM     14  C   UNL     1      46.780 132.559  14.428  1.00  0.00     0.307 A 
ATOM     15  N   UNL     1      45.992 132.581  15.536  1.00  0.00    -0.209 N 
ATOM     16  C   UNL     1      47.694 128.880  14.241  1.00  0.00     0.048 C 
ATOM     17  F   UNL     1      46.008 129.073  16.510  1.00  0.00    -0.199 F 
ATOM     18  H   UNL     1      45.594 133.498  15.841  1.00  0.00     0.453 HD
ENDBRANCH   1  10
BRANCH   6  19
ATOM     19  N   UNL     1      43.321 131.335  23.197  1.00  0.00    -0.262 N 
ATOM     20  H   UNL     1      42.469 131.894  23.435  1.00  0.00     0.360 HD
ATOM     21  H   UNL     1      44.144 131.748  23.693  1.00  0.00     0.360 HD
BRANCH  19  22
ATOM     22  C   UNL     1      43.135 129.975  23.610  1.00  0.00     0.330 A 
ATOM     23  C   UNL     1      44.139 129.026  23.745  1.00  0.00     0.322 A 
ATOM     24  N   UNL     1      41.925 129.407  23.820  1.00  0.00    -0.191 N 
ATOM     25  N   UNL     1      43.533 127.867  24.056  1.00  0.00    -0.196 N 
ATOM     26  C   UNL     1      42.213 128.121  24.094  1.00  0.00     0.288 A 
ATOM     27  C   UNL     1      44.067 126.640  24.283  1.00  0.00     0.206 A 
ATOM     28  C   UNL     1      41.296 127.109  24.377  1.00  0.00     0.099 A 
ATOM     29  C   UNL     1      43.192 125.584  24.579  1.00  0.00     0.044 A 
ATOM     30  C   UNL     1      41.804 125.822  24.624  1.00  0.00     0.012 A 
ATOM     31  H   UNL     1      40.985 129.859  23.762  1.00  0.00     0.318 HD
ENDBRANCH  19  22
ENDBRANCH   6  19
TORSDOF 3
ENDMDL
MODEL 2
REMARK VINA RESULT:      -7.4      1.496      2.026
REMARK SMILES Cc1cc[nH+]c(-c2ccc3[n-]c([NH2+]c4cn5ccccc5[nH+]4)cc3c2)c1F
REMARK SMILES IDX 7 1 8 2 9 3 10 4 11 5 12 6 23 7 24 8 25 9 6 10 2 11 3 12
REMARK SMILES IDX 26 13 4 14 5 15 1 16 27 17 13 19 14 22 15 23 22 24 16 25
REMARK SMILES IDX 21 26 17 27 20 28 18 29 19 30
REMARK H PARENT 5 18 13 20 13 21 22 31
ROOT
ATOM      1  C   UNL     1      45.667 130.787  16.325  1.00  0.00     0.050 A 
ATOM      2  C   UNL     1      44.406 131.330  15.963  1.00  0.00     0.014 A 
ATOM      3  C   UNL     1      43.489 131.742  16.945  1.00  0.00    -0.014 A 
ATOM      4  C   UNL     1      43.855 131.604  18.281  1.00  0.00    -0.125 A 
ATOM      5  N   UNL     1      43.123 131.954  19.355  1.00  0.00    -0.610 NA
ATOM      6  C   UNL     1      43.914 131.629  20.408  1.00  0.00     0.039 A 
ATOM      7  C   UNL     1      45.136 131.098  20.011  1.00  0.00     0.050 A 
ATOM      8  C   UNL     1      45.072 131.086  18.640  1.00  0.00    -0.035 A 
ATOM      9  C   UNL     1      46.006 130.671  17.695  1.00  0.00     0.022 A 
ENDROOT
BRANCH   1  10
ATOM     10  C   UNL     1      46.625 130.371  15.273  1.00  0.00     0.247 A 
ATOM     11  C   UNL     1      47.728 130.733  13.139  1.00  0.00    -0.002 A 
ATOM     12  C   UNL     1      48.443 129.545  13.333  1.00  0.00     0.077 A 
ATOM     13  C   UNL     1      46.815 131.152  14.117  1.00  0.00     0.198 A 
ATOM     14  C   UNL     1      48.236 128.799  14.493  1.00  0.00     0.307 A 
ATOM     15  N   UNL     1      47.346 129.220  15.431  1.00  0.00    -0.209 N 
ATOM     16  C   UNL     1      47.946 131.561  11.906  1.00  0.00     0.048 C 
ATOM     17  F   UNL     1      46.150 132.327  13.959  1.00  0.00    -0.199 F 
ATOM     18  H   UNL     1      47.207 128.626  16.281  1.00  0.00     0.453 HD
ENDBRANCH   1  10
BRANCH   6  19
ATOM     19  N   UNL     1      43.547 131.896  21.769  1.00  0.00    -0.262 N 
ATOM     20  H   UNL     1      42.622 132.385  21.799  1.00  0.00     0.360 HD
ATOM     21  H   UNL     1      44.268 132.510  22.213  1.00  0.00     0.360 HD
BRANCH  19  22
ATOM     22  C   UNL     1      43.459 130.655  22.480  1.00  0.00     0.330 A 
ATOM     23  C   UNL     1      44.445 129.679  22.530  1.00  0.00     0.322 A 
ATOM     24  N   UNL     1      42.344 130.225  23.115  1.00  0.00    -0.191 N 
ATOM     25  N   UNL     1      43.929 128.646  23.218  1.00  0.00    -0.196 N 
ATOM     26  C   UNL     1      42.674 128.996  23.555  1.00  0.00     0.288 A 
ATOM     27  C   UNL     1      44.483 127.448  23.536  1.00  0.00     0.206 A 
ATOM     28  C   UNL     1      41.854 128.123  24.269  1.00  0.00     0.099 A 
ATOM     29  C   UNL     1      43.705 126.532  24.260  1.00  0.00     0.044 A 
ATOM     30  C   UNL     1      42.388 126.873  24.625  1.00  0.00     0.012 A 
ATOM     31  H   UNL     1      41.432 130.724  23.221  1.00  0.00     0.318 HD
ENDBRANCH  19  22
ENDBRANCH   6  19
TORSDOF 3
ENDMDL
MODEL 3
REMARK VINA RESULT:      -7.0      1.429      2.118
REMARK SMILES Cc1cc[nH+]c(-c2ccc3[n-]c([NH2+]c4cn5ccccc5[nH+]4)cc3c2)c1F
REMARK SMILES IDX 7 1 8 2 9 3 10 4 11 5 12 6 23 7 24 8 25 9 6 10 2 11 3 12
REMARK SMILES IDX 26 13 4 14 5 15 1 16 27 17 13 19 14 22 15 23 22 24 16 25
REMARK SMILES IDX 21 26 17 27 20 28 18 29 19 30
REMARK H PARENT 5 18 13 20 13 21 22 31
ROOT
ATOM      1  C   UNL     1      45.745 130.759  16.634  1.00  0.00     0.050 A 
ATOM      2  C   UNL     1      44.564 131.508  16.387  1.00  0.00     0.014 A 
ATOM      3  C   UNL     1      43.720 131.892  17.443  1.00  0.00    -0.014 A 
ATOM      4  C   UNL     1      44.077 131.517  18.736  1.00  0.00    -0.125 A 
ATOM      5  N   UNL     1      43.410 131.803  19.869  1.00  0.00    -0.610 NA
ATOM      6  C   UNL     1      44.160 131.231  20.843  1.00  0.00     0.039 A 
ATOM      7  C   UNL     1      45.297 130.607  20.340  1.00  0.00     0.050 A 
ATOM      8  C   UNL     1      45.218 130.800  18.983  1.00  0.00    -0.035 A 
ATOM      9  C   UNL     1      46.079 130.405  17.963  1.00  0.00     0.022 A 
ENDROOT
BRANCH   1  10
ATOM     10  C   UNL     1      46.629 130.376  15.506  1.00  0.00     0.247 A 
ATOM     11  C   UNL     1      47.403 130.660  13.222  1.00  0.00    -0.002 A 
ATOM     12  C   UNL     1      48.317 129.619  13.426  1.00  0.00     0.077 A 
ATOM     13  C   UNL     1      46.555 131.045  14.269  1.00  0.00     0.198 A 
ATOM     14  C   UNL     1      48.368 128.982  14.666  1.00  0.00     0.307 A 
ATOM     15  N   UNL     1      47.537 129.368  15.671  1.00  0.00    -0.209 N 
ATOM     16  C   UNL     1      47.341 131.371  11.900  1.00  0.00     0.048 C 
ATOM     17  F   UNL     1      45.697 132.085  14.095  1.00  0.00    -0.199 F 
ATOM     18  H   UNL     1      47.595 128.857  16.582  1.00  0.00     0.453 HD
ENDBRANCH   1  10
BRANCH   6  19
ATOM     19  N   UNL     1      43.846 131.346  22.237  1.00  0.00    -0.262 N 
ATOM     20  H   UNL     1      43.029 131.987  22.367  1.00  0.00     0.360 HD
ATOM     21  H   UNL     1      44.668 131.738  22.752  1.00  0.00     0.360 HD
BRANCH  19  22
ATOM     22  C   UNL     1      43.524 130.047  22.752  1.00  0.00     0.330 A 
ATOM     23  C   UNL     1      42.254 129.607  23.100  1.00  0.00     0.322 A 
ATOM     24  N   UNL     1      44.447 129.110  23.069  1.00  0.00    -0.191 N 
ATOM     25  N   UNL     1      42.404 128.378  23.623  1.00  0.00    -0.196 N 
ATOM     26  C   UNL     1      43.721 128.104  23.594  1.00  0.00     0.288 A 
ATOM     27  C   UNL     1      41.473 127.524  24.120  1.00  0.00     0.206 A 
ATOM     28  C   UNL     1      44.214 126.897  24.088  1.00  0.00     0.099 A 
ATOM     29  C   UNL     1      41.911 126.290  24.625  1.00  0.00     0.044 A 
ATOM     30  C   UNL     1      43.285 125.980  24.608  1.00  0.00     0.012 A 
ATOM     31  H   UNL     1      45.483 129.164  22.953  1.00  0.00     0.318 HD
ENDBRANCH  19  22
ENDBRANCH   6  19
TORSDOF 3
ENDMDL
MODEL 4
REMARK VINA RESULT:      -6.7      1.632      2.533
REMARK SMILES Cc1cc[nH+]c(-c2ccc3[n-]c([NH2+]c4cn5ccccc5[nH+]4)cc3c2)c1F
REMARK SMILES IDX 7 1 8 2 9 3 10 4 11 5 12 6 23 7 24 8 25 9 6 10 2 11 3 12
REMARK SMILES IDX 26 13 4 14 5 15 1 16 27 17 13 19 14 22 15 23 22 24 16 25
REMARK SMILES IDX 21 26 17 27 20 28 18 29 19 30
REMARK H PARENT 5 18 13 20 13 21 22 31
ROOT
ATOM      1  C   UNL     1      45.046 130.982  18.592  1.00  0.00     0.050 A 
ATOM      2  C   UNL     1      44.506 132.190  19.105  1.00  0.00     0.014 A 
ATOM      3  C   UNL     1      44.177 132.312  20.466  1.00  0.00    -0.014 A 
ATOM      4  C   UNL     1      44.398 131.214  21.294  1.00  0.00    -0.125 A 
ATOM      5  N   UNL     1      44.163 131.145  22.617  1.00  0.00    -0.610 NA
ATOM      6  C   UNL     1      44.547 129.888  22.951  1.00  0.00     0.039 A 
ATOM      7  C   UNL     1      45.036 129.175  21.862  1.00  0.00     0.050 A 
ATOM      8  C   UNL     1      44.924 130.047  20.808  1.00  0.00    -0.035 A 
ATOM      9  C   UNL     1      45.265 129.891  19.467  1.00  0.00     0.022 A 
ENDROOT
BRANCH   1  10
ATOM     10  C   UNL     1      45.399 130.879  17.155  1.00  0.00     0.247 A 
ATOM     11  C   UNL     1      44.850 131.167  14.806  1.00  0.00    -0.002 A 
ATOM     12  C   UNL     1      46.115 130.669  14.473  1.00  0.00     0.077 A 
ATOM     13  C   UNL     1      44.489 131.277  16.157  1.00  0.00     0.198 A 
ATOM     14  C   UNL     1      46.994 130.290  15.487  1.00  0.00     0.307 A 
ATOM     15  N   UNL     1      46.628 130.402  16.792  1.00  0.00    -0.209 N 
ATOM     16  C   UNL     1      43.893 131.597  13.732  1.00  0.00     0.048 C 
ATOM     17  F   UNL     1      43.281 131.803  16.491  1.00  0.00    -0.199 F 
ATOM     18  H   UNL     1      47.308 130.095  17.524  1.00  0.00     0.453 HD
ENDBRANCH   1  10
BRANCH   6  19
ATOM     19  N   UNL     1      44.527 129.400  24.299  1.00  0.00    -0.262 N 
ATOM     20  H   UNL     1      43.925 130.017  24.893  1.00  0.00     0.360 HD
ATOM     21  H   UNL     1      45.498 129.401  24.688  1.00  0.00     0.360 HD
BRANCH  19  22
ATOM     22  C   UNL     1      44.001 128.066  24.305  1.00  0.00     0.330 A 
ATOM     23  C   UNL     1      42.657 127.726  24.372  1.00  0.00     0.322 A 
ATOM     24  N   UNL     1      44.768 126.952  24.355  1.00  0.00    -0.191 N 
ATOM     25  N   UNL     1      42.603 126.385  24.449  1.00  0.00    -0.196 N 
ATOM     26  C   UNL     1      43.875 125.947  24.438  1.00  0.00     0.288 A 
ATOM     27  C   UNL     1      41.529 125.562  24.542  1.00  0.00     0.206 A 
ATOM     28  C   UNL     1      44.165 124.586  24.524  1.00  0.00     0.099 A 
ATOM     29  C   UNL     1      41.760 124.180  24.624  1.00  0.00     0.044 A 
ATOM     30  C   UNL     1      43.083 123.695  24.616  1.00  0.00     0.012 A 
ATOM     31  H   UNL     1      45.810 126.889  24.352  1.00  0.00     0.318 HD
ENDBRANCH  19  22
ENDBRANCH   6  19
TORSDOF 3
ENDMDL


