REMARK SMILES C=C[C@H]1CN[C@H](c2c[nH+]c3ocnc3c2)N(C(=S)[NH2+]c2cc(F)c(Cl)cc2F)C1
REMARK SMILES IDX 17 1 18 2 16 3 3 4 4 5 29 6 5 7 6 8 2 10 1 11 7 12 8 13
REMARK SMILES IDX 15 14 9 15 14 16 10 17 13 18 11 19 12 20 19 22 20 25 21 26
REMARK SMILES IDX 27 27 22 28 26 29 24 30 28 31 23 32 25 33
REMARK H PARENT 5 9 9 21 19 23 19 24
ROOT
ATOM      1  C   UNL     1      -0.315  -1.421   0.283  1.00  0.00     0.275 C 
ATOM      2  S   UNL     1       0.368  -2.708  -0.480  1.00  0.00     0.004 S 
ENDROOT
BRANCH   1   3
ATOM      3  N   UNL     1       0.213  -0.999   1.557  1.00  0.00    -0.297 N 
ATOM      4  C   UNL     1      -0.127  -0.761   3.989  1.00  0.00     0.045 C 
ATOM      5  C   UNL     1       1.384  -0.554   4.094  1.00  0.00     0.092 C 
ATOM      6  C   UNL     1      -0.431  -1.588   2.738  1.00  0.00     0.133 C 
ATOM      7  N   UNL     1       1.866   0.169   2.914  1.00  0.00    -0.292 NA
ATOM      8  C   UNL     1       1.632  -0.588   1.668  1.00  0.00     0.193 C 
ATOM      9  H   UNL     1       2.899   0.307   3.027  1.00  0.00     0.125 HD
BRANCH   4  10
ATOM     10  C   UNL     1      -0.647  -1.466   5.220  1.00  0.00    -0.028 C 
ATOM     11  C   UNL     1      -1.558  -0.910   6.024  1.00  0.00     0.004 C 
ENDBRANCH   4  10
BRANCH   8  12
ATOM     12  C   UNL     1       2.039   0.283   0.495  1.00  0.00     0.056 A 
ATOM     13  C   UNL     1       2.820  -0.252  -0.569  1.00  0.00     0.317 A 
ATOM     14  C   UNL     1       1.637   1.639   0.436  1.00  0.00     0.053 A 
ATOM     15  N   UNL     1       3.178   0.530  -1.635  1.00  0.00    -0.177 N 
ATOM     16  C   UNL     1       2.052   2.384  -0.660  1.00  0.00     0.179 A 
ATOM     17  C   UNL     1       2.788   1.828  -1.651  1.00  0.00     0.399 A 
ATOM     18  N   UNL     1       1.824   3.680  -0.930  1.00  0.00    -0.209 NA
ATOM     19  O   UNL     1       3.042   2.727  -2.561  1.00  0.00    -0.391 OA
ATOM     20  C   UNL     1       2.463   3.837  -2.124  1.00  0.00     0.316 A 
ATOM     21  H   UNL     1       3.750   0.135  -2.416  1.00  0.00     0.457 HD
ENDBRANCH   8  12
ENDBRANCH   1   3
BRANCH   1  22
ATOM     22  N   UNL     1      -1.584  -0.914  -0.172  1.00  0.00    -0.254 N 
ATOM     23  H   UNL     1      -2.218  -1.709  -0.425  1.00  0.00     0.360 HD
ATOM     24  H   UNL     1      -2.049  -0.383   0.600  1.00  0.00     0.360 HD
BRANCH  22  25
ATOM     25  C   UNL     1      -1.389  -0.045  -1.308  1.00  0.00     0.175 A 
ATOM     26  C   UNL     1      -1.254   1.345  -1.121  1.00  0.00     0.112 A 
ATOM     27  C   UNL     1      -1.336  -0.569  -2.619  1.00  0.00     0.185 A 
ATOM     28  C   UNL     1      -1.062   2.192  -2.218  1.00  0.00     0.147 A 
ATOM     29  C   UNL     1      -1.127   0.280  -3.710  1.00  0.00     0.069 A 
ATOM     30  C   UNL     1      -0.986   1.658  -3.512  1.00  0.00     0.080 A 
ATOM     31  F   UNL     1      -1.503  -1.898  -2.846  1.00  0.00    -0.200 F 
ATOM     32  F   UNL     1      -0.962   3.534  -2.024  1.00  0.00    -0.205 F 
ATOM     33  Cl  UNL     1      -0.722   2.710  -4.892  1.00  0.00    -0.081 Cl
ENDBRANCH  22  25
ENDBRANCH   1  22
TORSDOF 5


