REMARK SMILES CC(=O)c1ccc(-c2ccc([O-])c(C(=O)[O-])c2)c2cn[nH]c12
REMARK SMILES IDX 4 1 5 2 6 3 7 4 18 5 19 6 20 7 21 8 22 9 2 11 1 12 3 13 8 14
REMARK SMILES IDX 9 15 17 16 10 17 13 18 11 19 12 20 14 21 15 22 16 23
REMARK H PARENT 21 10
ROOT
ATOM      1  C   UNL     1       0.798  -1.791  -1.389  1.00  0.00     0.043 A 
ATOM      2  C   UNL     1       1.621  -1.290  -0.352  1.00  0.00     0.015 A 
ATOM      3  C   UNL     1       1.327  -0.067   0.286  1.00  0.00     0.010 A 
ATOM      4  C   UNL     1       0.194   0.689  -0.082  1.00  0.00    -0.007 A 
ATOM      5  C   UNL     1      -0.605   0.173  -1.110  1.00  0.00     0.028 A 
ATOM      6  C   UNL     1      -1.748   0.648  -1.724  1.00  0.00     0.144 A 
ATOM      7  N   UNL     1      -2.131  -0.244  -2.665  1.00  0.00    -0.183 NA
ATOM      8  N   UNL     1      -1.266  -1.251  -2.667  1.00  0.00    -0.277 N 
ATOM      9  C   UNL     1      -0.321  -1.012  -1.738  1.00  0.00     0.076 A 
ATOM     10  H   UNL     1      -1.350  -2.079  -3.296  1.00  0.00     0.190 HD
ENDROOT
BRANCH   1  11
ATOM     11  C   UNL     1       1.134  -3.064  -2.077  1.00  0.00     0.161 C 
ATOM     12  C   UNL     1       1.959  -4.118  -1.404  1.00  0.00     0.093 C 
ATOM     13  O   UNL     1       0.774  -3.254  -3.269  1.00  0.00    -0.294 OA
ENDBRANCH   1  11
BRANCH   4  14
ATOM     14  C   UNL     1      -0.120   1.964   0.603  1.00  0.00    -0.017 A 
ATOM     15  C   UNL     1       0.877   2.936   0.771  1.00  0.00     0.008 A 
ATOM     16  C   UNL     1      -1.406   2.204   1.114  1.00  0.00     0.018 A 
ATOM     17  C   UNL     1       0.588   4.135   1.423  1.00  0.00    -0.007 A 
ATOM     18  C   UNL     1      -1.711   3.410   1.773  1.00  0.00    -0.010 A 
ATOM     19  C   UNL     1      -0.695   4.380   1.921  1.00  0.00    -0.100 A 
ATOM     20  O   UNL     1      -0.941   5.591   2.561  1.00  0.00    -0.872 OA
BRANCH  18  21
ATOM     21  C   UNL     1      -3.085   3.627   2.294  1.00  0.00     0.071 C 
ATOM     22  O   UNL     1      -3.389   4.687   2.902  1.00  0.00    -0.545 OA
ATOM     23  O   UNL     1      -4.064   2.655   2.118  1.00  0.00    -0.545 OA
ENDBRANCH  18  21
ENDBRANCH   4  14
TORSDOF 3


