REMARK SMILES C[C@@H]1CC[C@@H](c2ccc3ncccc3c2)[C@H](F)N1c1[nH+]cnc2c1CCC2
REMARK SMILES IDX 19 1 20 2 21 3 22 4 23 5 24 6 25 7 26 8 27 9 18 11 2 12 3 13
REMARK SMILES IDX 4 14 16 15 5 16 1 17 17 18 6 19 7 20 15 21 8 22 14 23 9 24
REMARK SMILES IDX 13 25 10 26 12 27 11 28
REMARK H PARENT 20 10
ROOT
ATOM      1  C   UNL     1      -1.242  -2.311   1.121  1.00  0.00     0.230 A 
ATOM      2  N   UNL     1      -2.603  -2.325   1.013  1.00  0.00    -0.250 N 
ATOM      3  C   UNL     1      -3.371  -2.990   1.927  1.00  0.00     0.367 A 
ATOM      4  N   UNL     1      -2.786  -3.653   2.966  1.00  0.00    -0.116 NA
ATOM      5  C   UNL     1      -1.435  -3.643   3.084  1.00  0.00     0.125 A 
ATOM      6  C   UNL     1      -0.648  -2.986   2.186  1.00  0.00     0.063 A 
ATOM      7  C   UNL     1       0.793  -3.121   2.503  1.00  0.00     0.046 C 
ATOM      8  C   UNL     1       0.810  -3.989   3.779  1.00  0.00     0.013 C 
ATOM      9  C   UNL     1      -0.654  -4.316   4.142  1.00  0.00     0.076 C 
ATOM     10  H   UNL     1      -3.068  -1.824   0.223  1.00  0.00     0.266 HD
ENDROOT
BRANCH   1  11
ATOM     11  N   UNL     1      -0.438  -1.616   0.155  1.00  0.00    -0.259 N 
ATOM     12  C   UNL     1      -0.362  -2.112  -1.237  1.00  0.00     0.145 C 
ATOM     13  C   UNL     1       0.958  -1.661  -1.889  1.00  0.00     0.042 C 
ATOM     14  C   UNL     1       1.162  -0.152  -1.741  1.00  0.00     0.018 C 
ATOM     15  C   UNL     1      -0.192  -0.185   0.393  1.00  0.00     0.331 C 
ATOM     16  C   UNL     1       1.135   0.245  -0.256  1.00  0.00     0.090 C 
ATOM     17  C   UNL     1      -0.468  -3.646  -1.317  1.00  0.00     0.049 C 
ATOM     18  F   UNL     1      -0.133   0.078   1.754  1.00  0.00    -0.205 F 
BRANCH  16  19
ATOM     19  C   UNL     1       1.385   1.733  -0.080  1.00  0.00    -0.038 A 
ATOM     20  C   UNL     1       2.503   2.173   0.652  1.00  0.00     0.006 A 
ATOM     21  C   UNL     1       0.512   2.689  -0.636  1.00  0.00     0.014 A 
ATOM     22  C   UNL     1       2.749   3.537   0.828  1.00  0.00     0.029 A 
ATOM     23  C   UNL     1       0.755   4.059  -0.462  1.00  0.00     0.000 A 
ATOM     24  C   UNL     1       1.882   4.483   0.275  1.00  0.00     0.070 A 
ATOM     25  C   UNL     1      -0.101   5.025  -1.006  1.00  0.00     0.012 A 
ATOM     26  N   UNL     1       2.121   5.812   0.447  1.00  0.00    -0.256 NA
ATOM     27  C   UNL     1       0.171   6.381  -0.813  1.00  0.00     0.021 A 
ATOM     28  C   UNL     1       1.297   6.759  -0.077  1.00  0.00     0.112 A 
ENDBRANCH  16  19
ENDBRANCH   1  11
TORSDOF 2


