MODEL 1
REMARK VINA RESULT:      -8.6      0.000      0.000
REMARK SMILES O=C([N-][C@H]1CC12CCC2)c1ccc(C(=O)N[C@@H]2C=CCC2)c(F)c1[O-]
REMARK SMILES IDX 10 1 11 2 12 3 13 4 22 5 23 6 24 7 25 8 2 9 1 10 3 11 4 12
REMARK SMILES IDX 5 13 6 14 7 15 9 16 8 17 14 18 16 19 15 20 17 22 18 23 21 24
REMARK SMILES IDX 19 25 20 26
REMARK H PARENT 16 21
ROOT
ATOM      1  C   UNL     1      43.488 131.721  20.343  1.00  0.00    -0.006 A 
ATOM      2  C   UNL     1      44.785 131.177  20.374  1.00  0.00     0.010 A 
ATOM      3  C   UNL     1      45.441 130.826  19.194  1.00  0.00     0.017 A 
ATOM      4  C   UNL     1      44.818 130.998  17.950  1.00  0.00     0.074 A 
ATOM      5  C   UNL     1      43.527 131.557  17.906  1.00  0.00     0.128 A 
ATOM      6  F   UNL     1      42.921 131.806  16.716  1.00  0.00    -0.207 F 
ATOM      7  C   UNL     1      42.865 131.913  19.088  1.00  0.00    -0.062 A 
ATOM      8  O   UNL     1      41.591 132.463  18.997  1.00  0.00    -0.870 OA
ENDROOT
BRANCH   1   9
ATOM      9  C   UNL     1      42.813 132.085  21.617  1.00  0.00     0.082 C 
ATOM     10  O   UNL     1      41.853 132.903  21.625  1.00  0.00    -0.315 OA
BRANCH   9  11
ATOM     11  N   UNL     1      43.256 131.513  22.852  1.00  0.00    -0.646 NA
BRANCH  11  12
ATOM     12  C   UNL     1      43.966 130.243  22.914  1.00  0.00    -0.100 C 
ATOM     13  C   UNL     1      44.300 129.807  24.346  1.00  0.00    -0.010 C 
ATOM     14  C   UNL     1      43.167 129.146  23.572  1.00  0.00    -0.044 C 
ATOM     15  C   UNL     1      43.231 127.660  23.382  1.00  0.00     0.006 C 
ATOM     16  C   UNL     1      41.802 129.148  24.198  1.00  0.00     0.006 C 
ATOM     17  C   UNL     1      41.826 127.614  24.021  1.00  0.00     0.001 C 
ENDBRANCH  11  12
ENDBRANCH   9  11
ENDBRANCH   1   9
BRANCH   4  18
ATOM     18  C   UNL     1      45.535 130.610  16.714  1.00  0.00     0.254 C 
ATOM     19  N   UNL     1      44.816 130.213  15.535  1.00  0.00    -0.346 N 
ATOM     20  O   UNL     1      46.798 130.600  16.708  1.00  0.00    -0.269 OA
ATOM     21  H   UNL     1      43.806 129.961  15.627  1.00  0.00     0.164 HD
BRANCH  19  22
ATOM     22  C   UNL     1      45.502 129.912  14.277  1.00  0.00     0.105 C 
ATOM     23  C   UNL     1      46.778 129.192  14.542  1.00  0.00    -0.007 C 
ATOM     24  C   UNL     1      45.932 131.200  13.558  1.00  0.00     0.033 C 
ATOM     25  C   UNL     1      47.832 129.868  14.121  1.00  0.00    -0.029 C 
ATOM     26  C   UNL     1      47.463 131.167  13.501  1.00  0.00     0.029 C 
ENDBRANCH  19  22
ENDBRANCH   4  18
TORSDOF 5
ENDMDL
MODEL 2
REMARK VINA RESULT:      -8.5      1.165      1.501
REMARK SMILES O=C([N-][C@H]1CC12CCC2)c1ccc(C(=O)N[C@@H]2C=CCC2)c(F)c1[O-]
REMARK SMILES IDX 10 1 11 2 12 3 13 4 22 5 23 6 24 7 25 8 2 9 1 10 3 11 4 12
REMARK SMILES IDX 5 13 6 14 7 15 9 16 8 17 14 18 16 19 15 20 17 22 18 23 21 24
REMARK SMILES IDX 19 25 20 26
REMARK H PARENT 16 21
ROOT
ATOM      1  C   UNL     1      44.015 131.476  19.939  1.00  0.00    -0.006 A 
ATOM      2  C   UNL     1      45.192 130.730  19.747  1.00  0.00     0.010 A 
ATOM      3  C   UNL     1      45.565 130.298  18.474  1.00  0.00     0.017 A 
ATOM      4  C   UNL     1      44.769 130.590  17.357  1.00  0.00     0.074 A 
ATOM      5  C   UNL     1      43.598 131.351  17.535  1.00  0.00     0.128 A 
ATOM      6  F   UNL     1      42.841 131.715  16.468  1.00  0.00    -0.207 F 
ATOM      7  C   UNL     1      43.221 131.788  18.811  1.00  0.00    -0.062 A 
ATOM      8  O   UNL     1      42.056 132.537  18.940  1.00  0.00    -0.870 OA
ENDROOT
BRANCH   1   9
ATOM      9  C   UNL     1      43.643 131.922  21.308  1.00  0.00     0.082 C 
ATOM     10  O   UNL     1      42.646 132.673  21.490  1.00  0.00    -0.315 OA
BRANCH   9  11
ATOM     11  N   UNL     1      44.422 131.506  22.434  1.00  0.00    -0.646 NA
BRANCH  11  12
ATOM     12  C   UNL     1      43.853 130.750  23.542  1.00  0.00    -0.100 C 
ATOM     13  C   UNL     1      42.801 129.727  23.096  1.00  0.00    -0.010 C 
ATOM     14  C   UNL     1      44.201 129.283  23.501  1.00  0.00    -0.044 C 
ATOM     15  C   UNL     1      44.318 128.289  24.618  1.00  0.00     0.006 C 
ATOM     16  C   UNL     1      44.989 128.474  22.511  1.00  0.00     0.006 C 
ATOM     17  C   UNL     1      45.134 127.424  23.633  1.00  0.00     0.001 C 
ENDBRANCH  11  12
ENDBRANCH   9  11
ENDBRANCH   1   9
BRANCH   4  18
ATOM     18  C   UNL     1      45.186 130.114  16.018  1.00  0.00     0.254 C 
ATOM     19  N   UNL     1      45.871 130.985  15.104  1.00  0.00    -0.346 N 
ATOM     20  O   UNL     1      44.907 128.934  15.667  1.00  0.00    -0.269 OA
ATOM     21  H   UNL     1      45.853 132.015  15.285  1.00  0.00     0.164 HD
BRANCH  19  22
ATOM     22  C   UNL     1      46.369 130.510  13.812  1.00  0.00     0.105 C 
ATOM     23  C   UNL     1      47.239 129.317  13.998  1.00  0.00    -0.007 C 
ATOM     24  C   UNL     1      47.288 131.553  13.154  1.00  0.00     0.033 C 
ATOM     25  C   UNL     1      48.477 129.528  13.587  1.00  0.00    -0.029 C 
ATOM     26  C   UNL     1      48.670 130.900  13.052  1.00  0.00     0.029 C 
ENDBRANCH  19  22
ENDBRANCH   4  18
TORSDOF 5
ENDMDL
MODEL 3
REMARK VINA RESULT:      -8.0      1.644      8.060
REMARK SMILES O=C([N-][C@H]1CC12CCC2)c1ccc(C(=O)N[C@@H]2C=CCC2)c(F)c1[O-]
REMARK SMILES IDX 10 1 11 2 12 3 13 4 22 5 23 6 24 7 25 8 2 9 1 10 3 11 4 12
REMARK SMILES IDX 5 13 6 14 7 15 9 16 8 17 14 18 16 19 15 20 17 22 18 23 21 24
REMARK SMILES IDX 19 25 20 26
REMARK H PARENT 16 21
ROOT
ATOM      1  C   UNL     1      44.103 131.625  17.436  1.00  0.00    -0.006 A 
ATOM      2  C   UNL     1      45.249 131.192  18.127  1.00  0.00     0.010 A 
ATOM      3  C   UNL     1      45.210 130.960  19.502  1.00  0.00     0.017 A 
ATOM      4  C   UNL     1      44.028 131.164  20.229  1.00  0.00     0.074 A 
ATOM      5  C   UNL     1      42.871 131.581  19.545  1.00  0.00     0.128 A 
ATOM      6  F   UNL     1      41.690 131.718  20.202  1.00  0.00    -0.207 F 
ATOM      7  C   UNL     1      42.906 131.812  18.164  1.00  0.00    -0.062 A 
ATOM      8  O   UNL     1      41.738 132.223  17.529  1.00  0.00    -0.870 OA
ENDROOT
BRANCH   1   9
ATOM      9  C   UNL     1      44.176 131.864  15.970  1.00  0.00     0.082 C 
ATOM     10  O   UNL     1      43.148 132.204  15.323  1.00  0.00    -0.315 OA
BRANCH   9  11
ATOM     11  N   UNL     1      45.418 131.702  15.277  1.00  0.00    -0.646 NA
BRANCH  11  12
ATOM     12  C   UNL     1      46.293 130.559  15.501  1.00  0.00    -0.100 C 
ATOM     13  C   UNL     1      45.934 129.345  14.635  1.00  0.00    -0.010 C 
ATOM     14  C   UNL     1      47.140 130.215  14.300  1.00  0.00    -0.044 C 
ATOM     15  C   UNL     1      48.479 129.545  14.226  1.00  0.00     0.006 C 
ATOM     16  C   UNL     1      47.206 130.813  12.925  1.00  0.00     0.006 C 
ATOM     17  C   UNL     1      48.590 130.141  12.806  1.00  0.00     0.001 C 
ENDBRANCH  11  12
ENDBRANCH   9  11
ENDBRANCH   1   9
BRANCH   4  18
ATOM     18  C   UNL     1      44.016 130.917  21.689  1.00  0.00     0.254 C 
ATOM     19  N   UNL     1      43.114 129.961  22.270  1.00  0.00    -0.346 N 
ATOM     20  O   UNL     1      44.791 131.579  22.434  1.00  0.00    -0.269 OA
ATOM     21  H   UNL     1      42.304 129.627  21.700  1.00  0.00     0.164 HD
BRANCH  19  22
ATOM     22  C   UNL     1      43.147 129.638  23.697  1.00  0.00     0.105 C 
ATOM     23  C   UNL     1      44.136 128.558  23.962  1.00  0.00    -0.007 C 
ATOM     24  C   UNL     1      41.805 129.048  24.163  1.00  0.00     0.033 C 
ATOM     25  C   UNL     1      43.574 127.472  24.463  1.00  0.00    -0.029 C 
ATOM     26  C   UNL     1      42.104 127.618  24.624  1.00  0.00     0.029 C 
ENDBRANCH  19  22
ENDBRANCH   4  18
TORSDOF 5
ENDMDL
MODEL 4
REMARK VINA RESULT:      -7.8      1.984      8.110
REMARK SMILES O=C([N-][C@H]1CC12CCC2)c1ccc(C(=O)N[C@@H]2C=CCC2)c(F)c1[O-]
REMARK SMILES IDX 10 1 11 2 12 3 13 4 22 5 23 6 24 7 25 8 2 9 1 10 3 11 4 12
REMARK SMILES IDX 5 13 6 14 7 15 9 16 8 17 14 18 16 19 15 20 17 22 18 23 21 24
REMARK SMILES IDX 19 25 20 26
REMARK H PARENT 16 21
ROOT
ATOM      1  C   UNL     1      44.028 131.352  16.472  1.00  0.00    -0.006 A 
ATOM      2  C   UNL     1      45.228 130.908  17.057  1.00  0.00     0.010 A 
ATOM      3  C   UNL     1      45.404 130.945  18.441  1.00  0.00     0.017 A 
ATOM      4  C   UNL     1      44.392 131.436  19.279  1.00  0.00     0.074 A 
ATOM      5  C   UNL     1      43.181 131.867  18.704  1.00  0.00     0.128 A 
ATOM      6  F   UNL     1      42.151 132.280  19.487  1.00  0.00    -0.207 F 
ATOM      7  C   UNL     1      43.000 131.829  17.316  1.00  0.00    -0.062 A 
ATOM      8  O   UNL     1      41.787 132.265  16.791  1.00  0.00    -0.870 OA
ENDROOT
BRANCH   1   9
ATOM      9  C   UNL     1      43.870 131.301  14.994  1.00  0.00     0.082 C 
ATOM     10  O   UNL     1      42.898 131.875  14.431  1.00  0.00    -0.315 OA
BRANCH   9  11
ATOM     11  N   UNL     1      44.821 130.588  14.195  1.00  0.00    -0.646 NA
BRANCH  11  12
ATOM     12  C   UNL     1      45.904 131.258  13.488  1.00  0.00    -0.100 C 
ATOM     13  C   UNL     1      46.989 131.804  14.424  1.00  0.00    -0.010 C 
ATOM     14  C   UNL     1      47.225 130.539  13.607  1.00  0.00    -0.044 C 
ATOM     15  C   UNL     1      48.402 130.524  12.677  1.00  0.00     0.006 C 
ATOM     16  C   UNL     1      47.618 129.295  14.349  1.00  0.00     0.006 C 
ATOM     17  C   UNL     1      48.843 129.240  13.412  1.00  0.00     0.001 C 
ENDBRANCH  11  12
ENDBRANCH   9  11
ENDBRANCH   1   9
BRANCH   4  18
ATOM     18  C   UNL     1      44.608 131.470  20.743  1.00  0.00     0.254 C 
ATOM     19  N   UNL     1      43.656 130.883  21.645  1.00  0.00    -0.346 N 
ATOM     20  O   UNL     1      45.629 132.051  21.204  1.00  0.00    -0.269 OA
ATOM     21  H   UNL     1      42.700 130.656  21.286  1.00  0.00     0.164 HD
BRANCH  19  22
ATOM     22  C   UNL     1      43.892 130.828  23.089  1.00  0.00     0.105 C 
ATOM     23  C   UNL     1      42.599 130.799  23.825  1.00  0.00    -0.007 C 
ATOM     24  C   UNL     1      44.586 132.107  23.586  1.00  0.00     0.033 C 
ATOM     25  C   UNL     1      42.448 131.847  24.616  1.00  0.00    -0.029 C 
ATOM     26  C   UNL     1      43.606 132.775  24.556  1.00  0.00     0.029 C 
ENDBRANCH  19  22
ENDBRANCH   4  18
TORSDOF 5
ENDMDL
MODEL 5
REMARK VINA RESULT:      -7.6      2.967      3.993
REMARK SMILES O=C([N-][C@H]1CC12CCC2)c1ccc(C(=O)N[C@@H]2C=CCC2)c(F)c1[O-]
REMARK SMILES IDX 10 1 11 2 12 3 13 4 22 5 23 6 24 7 25 8 2 9 1 10 3 11 4 12
REMARK SMILES IDX 5 13 6 14 7 15 9 16 8 17 14 18 16 19 15 20 17 22 18 23 21 24
REMARK SMILES IDX 19 25 20 26
REMARK H PARENT 16 21
ROOT
ATOM      1  C   UNL     1      45.024 131.564  20.647  1.00  0.00    -0.006 A 
ATOM      2  C   UNL     1      46.060 130.696  20.256  1.00  0.00     0.010 A 
ATOM      3  C   UNL     1      46.145 130.230  18.943  1.00  0.00     0.017 A 
ATOM      4  C   UNL     1      45.193 130.610  17.985  1.00  0.00     0.074 A 
ATOM      5  C   UNL     1      44.162 131.492  18.362  1.00  0.00     0.128 A 
ATOM      6  F   UNL     1      43.265 131.939  17.446  1.00  0.00    -0.207 F 
ATOM      7  C   UNL     1      44.074 131.963  19.678  1.00  0.00    -0.062 A 
ATOM      8  O   UNL     1      43.039 132.833  20.006  1.00  0.00    -0.870 OA
ENDROOT
BRANCH   1   9
ATOM      9  C   UNL     1      44.959 132.042  22.053  1.00  0.00     0.082 C 
ATOM     10  O   UNL     1      44.165 131.512  22.877  1.00  0.00    -0.315 OA
BRANCH   9  11
ATOM     11  N   UNL     1      45.797 133.121  22.483  1.00  0.00    -0.646 NA
BRANCH  11  12
ATOM     12  C   UNL     1      47.156 133.298  21.990  1.00  0.00    -0.100 C 
ATOM     13  C   UNL     1      47.576 134.770  21.896  1.00  0.00    -0.010 C 
ATOM     14  C   UNL     1      48.091 133.879  23.021  1.00  0.00    -0.044 C 
ATOM     15  C   UNL     1      49.577 133.734  23.165  1.00  0.00     0.006 C 
ATOM     16  C   UNL     1      47.858 134.336  24.432  1.00  0.00     0.006 C 
ATOM     17  C   UNL     1      49.383 134.198  24.625  1.00  0.00     0.001 C 
ENDBRANCH  11  12
ENDBRANCH   9  11
ENDBRANCH   1   9
BRANCH   4  18
ATOM     18  C   UNL     1      45.304 130.096  16.601  1.00  0.00     0.254 C 
ATOM     19  N   UNL     1      46.148 130.745  15.637  1.00  0.00    -0.346 N 
ATOM     20  O   UNL     1      44.621 129.091  16.258  1.00  0.00    -0.269 OA
ATOM     21  H   UNL     1      46.486 131.713  15.839  1.00  0.00     0.164 HD
BRANCH  19  22
ATOM     22  C   UNL     1      46.340 130.203  14.291  1.00  0.00     0.105 C 
ATOM     23  C   UNL     1      47.493 129.261  14.270  1.00  0.00    -0.007 C 
ATOM     24  C   UNL     1      46.734 131.310  13.298  1.00  0.00     0.033 C 
ATOM     25  C   UNL     1      48.460 129.668  13.466  1.00  0.00    -0.029 C 
ATOM     26  C   UNL     1      48.139 130.957  12.801  1.00  0.00     0.029 C 
ENDBRANCH  19  22
ENDBRANCH   4  18
TORSDOF 5
ENDMDL
MODEL 6
REMARK VINA RESULT:      -7.1      1.847      8.280
REMARK SMILES O=C([N-][C@H]1CC12CCC2)c1ccc(C(=O)N[C@@H]2C=CCC2)c(F)c1[O-]
REMARK SMILES IDX 10 1 11 2 12 3 13 4 22 5 23 6 24 7 25 8 2 9 1 10 3 11 4 12
REMARK SMILES IDX 5 13 6 14 7 15 9 16 8 17 14 18 16 19 15 20 17 22 18 23 21 24
REMARK SMILES IDX 19 25 20 26
REMARK H PARENT 16 21
ROOT
ATOM      1  C   UNL     1      44.087 131.198  16.572  1.00  0.00    -0.006 A 
ATOM      2  C   UNL     1      43.208 132.002  17.321  1.00  0.00     0.010 A 
ATOM      3  C   UNL     1      43.325 132.087  18.709  1.00  0.00     0.017 A 
ATOM      4  C   UNL     1      44.316 131.366  19.390  1.00  0.00     0.074 A 
ATOM      5  C   UNL     1      45.211 130.571  18.649  1.00  0.00     0.128 A 
ATOM      6  F   UNL     1      46.228 129.916  19.265  1.00  0.00    -0.207 F 
ATOM      7  C   UNL     1      45.098 130.485  17.255  1.00  0.00    -0.062 A 
ATOM      8  O   UNL     1      46.005 129.689  16.563  1.00  0.00    -0.870 OA
ENDROOT
BRANCH   1   9
ATOM      9  C   UNL     1      43.938 131.127  15.094  1.00  0.00     0.082 C 
ATOM     10  O   UNL     1      42.948 131.659  14.522  1.00  0.00    -0.315 OA
BRANCH   9  11
ATOM     11  N   UNL     1      44.919 130.444  14.306  1.00  0.00    -0.646 NA
BRANCH  11  12
ATOM     12  C   UNL     1      45.938 131.151  13.544  1.00  0.00    -0.100 C 
ATOM     13  C   UNL     1      47.060 131.721  14.420  1.00  0.00    -0.010 C 
ATOM     14  C   UNL     1      47.284 130.471  13.578  1.00  0.00    -0.044 C 
ATOM     15  C   UNL     1      48.404 130.498  12.580  1.00  0.00     0.006 C 
ATOM     16  C   UNL     1      47.756 129.232  14.283  1.00  0.00     0.006 C 
ATOM     17  C   UNL     1      48.925 129.221  13.274  1.00  0.00     0.001 C 
ENDBRANCH  11  12
ENDBRANCH   9  11
ENDBRANCH   1   9
BRANCH   4  18
ATOM     18  C   UNL     1      44.413 131.469  20.864  1.00  0.00     0.254 C 
ATOM     19  N   UNL     1      44.099 130.349  21.706  1.00  0.00    -0.346 N 
ATOM     20  O   UNL     1      44.747 132.569  21.386  1.00  0.00    -0.269 OA
ATOM     21  H   UNL     1      43.568 129.547  21.295  1.00  0.00     0.164 HD
BRANCH  19  22
ATOM     22  C   UNL     1      44.272 130.402  23.159  1.00  0.00     0.105 C 
ATOM     23  C   UNL     1      43.252 129.555  23.835  1.00  0.00    -0.007 C 
ATOM     24  C   UNL     1      44.010 131.819  23.697  1.00  0.00     0.033 C 
ATOM     25  C   UNL     1      42.459 130.258  24.625  1.00  0.00    -0.029 C 
ATOM     26  C   UNL     1      42.796 131.705  24.625  1.00  0.00     0.029 C 
ENDBRANCH  19  22
ENDBRANCH   4  18
TORSDOF 5
ENDMDL
MODEL 7
REMARK VINA RESULT:      -7.0      1.582      8.300
REMARK SMILES O=C([N-][C@H]1CC12CCC2)c1ccc(C(=O)N[C@@H]2C=CCC2)c(F)c1[O-]
REMARK SMILES IDX 10 1 11 2 12 3 13 4 22 5 23 6 24 7 25 8 2 9 1 10 3 11 4 12
REMARK SMILES IDX 5 13 6 14 7 15 9 16 8 17 14 18 16 19 15 20 17 22 18 23 21 24
REMARK SMILES IDX 19 25 20 26
REMARK H PARENT 16 21
ROOT
ATOM      1  C   UNL     1      44.497 131.170  17.080  1.00  0.00    -0.006 A 
ATOM      2  C   UNL     1      45.519 130.603  17.864  1.00  0.00     0.010 A 
ATOM      3  C   UNL     1      45.413 130.564  19.255  1.00  0.00     0.017 A 
ATOM      4  C   UNL     1      44.290 131.096  19.903  1.00  0.00     0.074 A 
ATOM      5  C   UNL     1      43.254 131.650  19.127  1.00  0.00     0.128 A 
ATOM      6  F   UNL     1      42.119 132.109  19.714  1.00  0.00    -0.207 F 
ATOM      7  C   UNL     1      43.355 131.690  17.730  1.00  0.00    -0.062 A 
ATOM      8  O   UNL     1      42.307 132.246  17.003  1.00  0.00    -0.870 OA
ENDROOT
BRANCH   1   9
ATOM      9  C   UNL     1      44.639 131.198  15.600  1.00  0.00     0.082 C 
ATOM     10  O   UNL     1      43.891 131.932  14.897  1.00  0.00    -0.315 OA
BRANCH   9  11
ATOM     11  N   UNL     1      45.625 130.384  14.957  1.00  0.00    -0.646 NA
BRANCH  11  12
ATOM     12  C   UNL     1      46.161 130.699  13.640  1.00  0.00    -0.100 C 
ATOM     13  C   UNL     1      47.324 131.697  13.684  1.00  0.00    -0.010 C 
ATOM     14  C   UNL     1      47.575 130.214  13.442  1.00  0.00    -0.044 C 
ATOM     15  C   UNL     1      48.295 129.828  12.184  1.00  0.00     0.006 C 
ATOM     16  C   UNL     1      48.525 129.509  14.367  1.00  0.00     0.006 C 
ATOM     17  C   UNL     1      49.296 129.089  13.098  1.00  0.00     0.001 C 
ENDBRANCH  11  12
ENDBRANCH   9  11
ENDBRANCH   1   9
BRANCH   4  18
ATOM     18  C   UNL     1      44.206 131.046  21.380  1.00  0.00     0.254 C 
ATOM     19  N   UNL     1      43.230 130.223  22.038  1.00  0.00    -0.346 N 
ATOM     20  O   UNL     1      44.986 131.762  22.068  1.00  0.00    -0.269 OA
ATOM     21  H   UNL     1      42.426 129.857  21.480  1.00  0.00     0.164 HD
BRANCH  19  22
ATOM     22  C   UNL     1      43.188 130.091  23.496  1.00  0.00     0.105 C 
ATOM     23  C   UNL     1      44.217 129.120  23.959  1.00  0.00    -0.007 C 
ATOM     24  C   UNL     1      41.854 129.484  23.960  1.00  0.00     0.033 C 
ATOM     25  C   UNL     1      43.683 128.075  24.568  1.00  0.00    -0.029 C 
ATOM     26  C   UNL     1      42.201 128.148  24.625  1.00  0.00     0.029 C 
ENDBRANCH  19  22
ENDBRANCH   4  18
TORSDOF 5
ENDMDL
MODEL 8
REMARK VINA RESULT:      -7.0      1.488      2.351
REMARK SMILES O=C([N-][C@H]1CC12CCC2)c1ccc(C(=O)N[C@@H]2C=CCC2)c(F)c1[O-]
REMARK SMILES IDX 10 1 11 2 12 3 13 4 22 5 23 6 24 7 25 8 2 9 1 10 3 11 4 12
REMARK SMILES IDX 5 13 6 14 7 15 9 16 8 17 14 18 16 19 15 20 17 22 18 23 21 24
REMARK SMILES IDX 19 25 20 26
REMARK H PARENT 16 21
ROOT
ATOM      1  C   UNL     1      43.351 131.600  19.514  1.00  0.00    -0.006 A 
ATOM      2  C   UNL     1      44.676 131.134  19.425  1.00  0.00     0.010 A 
ATOM      3  C   UNL     1      45.294 130.975  18.184  1.00  0.00     0.017 A 
ATOM      4  C   UNL     1      44.606 131.267  16.998  1.00  0.00     0.074 A 
ATOM      5  C   UNL     1      43.286 131.750  17.077  1.00  0.00     0.128 A 
ATOM      6  F   UNL     1      42.613 132.112  15.955  1.00  0.00    -0.207 F 
ATOM      7  C   UNL     1      42.662 131.913  18.321  1.00  0.00    -0.062 A 
ATOM      8  O   UNL     1      41.357 132.394  18.352  1.00  0.00    -0.870 OA
ENDROOT
BRANCH   1   9
ATOM      9  C   UNL     1      42.718 131.759  20.851  1.00  0.00     0.082 C 
ATOM     10  O   UNL     1      42.047 132.791  21.125  1.00  0.00    -0.315 OA
BRANCH   9  11
ATOM     11  N   UNL     1      42.873 130.739  21.844  1.00  0.00    -0.646 NA
BRANCH  11  12
ATOM     12  C   UNL     1      43.075 131.046  23.253  1.00  0.00    -0.100 C 
ATOM     13  C   UNL     1      44.295 130.340  23.856  1.00  0.00    -0.010 C 
ATOM     14  C   UNL     1      44.340 131.825  23.517  1.00  0.00    -0.044 C 
ATOM     15  C   UNL     1      44.671 132.780  24.624  1.00  0.00     0.006 C 
ATOM     16  C   UNL     1      45.429 132.296  22.596  1.00  0.00     0.006 C 
ATOM     17  C   UNL     1      45.803 133.296  23.711  1.00  0.00     0.001 C 
ENDBRANCH  11  12
ENDBRANCH   9  11
ENDBRANCH   1   9
BRANCH   4  18
ATOM     18  C   UNL     1      45.285 131.083  15.695  1.00  0.00     0.254 C 
ATOM     19  N   UNL     1      45.862 129.818  15.334  1.00  0.00    -0.346 N 
ATOM     20  O   UNL     1      45.382 132.062  14.904  1.00  0.00    -0.269 OA
ATOM     21  H   UNL     1      46.021 129.108  16.085  1.00  0.00     0.164 HD
BRANCH  19  22
ATOM     22  C   UNL     1      46.459 129.589  14.017  1.00  0.00     0.105 C 
ATOM     23  C   UNL     1      47.856 129.095  14.159  1.00  0.00    -0.007 C 
ATOM     24  C   UNL     1      46.597 130.905  13.235  1.00  0.00     0.033 C 
ATOM     25  C   UNL     1      48.737 129.919  13.620  1.00  0.00    -0.029 C 
ATOM     26  C   UNL     1      48.099 131.118  13.019  1.00  0.00     0.029 C 
ENDBRANCH  19  22
ENDBRANCH   4  18
TORSDOF 5
ENDMDL
MODEL 9
REMARK VINA RESULT:      -6.6      1.512      1.865
REMARK SMILES O=C([N-][C@H]1CC12CCC2)c1ccc(C(=O)N[C@@H]2C=CCC2)c(F)c1[O-]
REMARK SMILES IDX 10 1 11 2 12 3 13 4 22 5 23 6 24 7 25 8 2 9 1 10 3 11 4 12
REMARK SMILES IDX 5 13 6 14 7 15 9 16 8 17 14 18 16 19 15 20 17 22 18 23 21 24
REMARK SMILES IDX 19 25 20 26
REMARK H PARENT 16 21
ROOT
ATOM      1  C   UNL     1      43.512 131.693  19.991  1.00  0.00    -0.006 A 
ATOM      2  C   UNL     1      42.868 132.107  18.811  1.00  0.00     0.010 A 
ATOM      3  C   UNL     1      43.474 131.932  17.566  1.00  0.00     0.017 A 
ATOM      4  C   UNL     1      44.745 131.348  17.465  1.00  0.00     0.074 A 
ATOM      5  C   UNL     1      45.391 130.915  18.638  1.00  0.00     0.128 A 
ATOM      6  F   UNL     1      46.589 130.279  18.573  1.00  0.00    -0.207 F 
ATOM      7  C   UNL     1      44.785 131.087  19.889  1.00  0.00    -0.062 A 
ATOM      8  O   UNL     1      45.460 130.643  21.022  1.00  0.00    -0.870 OA
ENDROOT
BRANCH   1   9
ATOM      9  C   UNL     1      42.841 131.893  21.303  1.00  0.00     0.082 C 
ATOM     10  O   UNL     1      41.591 131.763  21.412  1.00  0.00    -0.315 OA
BRANCH   9  11
ATOM     11  N   UNL     1      43.612 132.245  22.457  1.00  0.00    -0.646 NA
BRANCH  11  12
ATOM     12  C   UNL     1      44.523 131.310  23.102  1.00  0.00    -0.100 C 
ATOM     13  C   UNL     1      44.342 131.244  24.624  1.00  0.00    -0.010 C 
ATOM     14  C   UNL     1      43.820 130.130  23.725  1.00  0.00    -0.044 C 
ATOM     15  C   UNL     1      44.317 128.739  23.984  1.00  0.00     0.006 C 
ATOM     16  C   UNL     1      42.363 129.779  23.826  1.00  0.00     0.006 C 
ATOM     17  C   UNL     1      42.831 128.333  24.096  1.00  0.00     0.001 C 
ENDBRANCH  11  12
ENDBRANCH   9  11
ENDBRANCH   1   9
BRANCH   4  18
ATOM     18  C   UNL     1      45.368 131.180  16.132  1.00  0.00     0.254 C 
ATOM     19  N   UNL     1      45.558 129.874  15.564  1.00  0.00    -0.346 N 
ATOM     20  O   UNL     1      45.764 132.199  15.502  1.00  0.00    -0.269 OA
ATOM     21  H   UNL     1      45.486 129.040  16.190  1.00  0.00     0.164 HD
BRANCH  19  22
ATOM     22  C   UNL     1      46.090 129.690  14.212  1.00  0.00     0.105 C 
ATOM     23  C   UNL     1      47.453 129.096  14.268  1.00  0.00    -0.007 C 
ATOM     24  C   UNL     1      46.291 131.042  13.507  1.00  0.00     0.033 C 
ATOM     25  C   UNL     1      48.370 129.891  13.746  1.00  0.00    -0.029 C 
ATOM     26  C   UNL     1      47.796 131.167  13.245  1.00  0.00     0.029 C 
ENDBRANCH  19  22
ENDBRANCH   4  18
TORSDOF 5
ENDMDL


