REMARK SMILES C[C@@]1(C(=O)N(c2ccc3[nH]ccc3c2)c2cccc3c2CCC3)CC[C@H]([NH3+])C1
REMARK SMILES IDX 3 1 4 2 2 3 24 4 28 5 25 6 26 7 1 8 27 9 5 13 6 14 7 15
REMARK SMILES IDX 14 16 8 17 13 18 9 19 12 20 10 21 11 22 15 24 16 25 20 26
REMARK SMILES IDX 17 27 19 28 21 29 18 30 23 31 22 32
REMARK H PARENT 27 10 27 11 27 12 10 23
ROOT
ATOM      1  C   UNL     1      -0.858  -0.088   1.571  1.00  0.00     0.237 C 
ATOM      2  O   UNL     1      -1.222  -0.282   2.764  1.00  0.00    -0.273 OA
ENDROOT
BRANCH   1   3
ATOM      3  C   UNL     1      -1.868   0.436   0.560  1.00  0.00     0.053 C 
ATOM      4  C   UNL     1      -3.243  -0.223   0.766  1.00  0.00     0.023 C 
ATOM      5  C   UNL     1      -1.512   0.045  -0.881  1.00  0.00     0.081 C 
ATOM      6  C   UNL     1      -3.932  -0.231  -0.597  1.00  0.00     0.066 C 
ATOM      7  C   UNL     1      -2.838   0.013  -1.646  1.00  0.00     0.181 C 
ATOM      8  C   UNL     1      -1.988   1.970   0.696  1.00  0.00     0.022 C 
BRANCH   7   9
ATOM      9  N   UNL     1      -2.838  -1.020  -2.688  1.00  0.00    -0.355 N 
ATOM     10  H   UNL     1      -2.712  -1.971  -2.270  1.00  0.00     0.344 HD
ATOM     11  H   UNL     1      -3.745  -0.991  -3.208  1.00  0.00     0.344 HD
ATOM     12  H   UNL     1      -2.062  -0.835  -3.364  1.00  0.00     0.344 HD
ENDBRANCH   7   9
ENDBRANCH   1   3
BRANCH   1  13
ATOM     13  N   UNL     1       0.509  -0.362   1.209  1.00  0.00    -0.280 N 
BRANCH  13  14
ATOM     14  C   UNL     1       1.085  -1.639   1.556  1.00  0.00     0.050 A 
ATOM     15  C   UNL     1       0.323  -2.829   1.404  1.00  0.00     0.029 A 
ATOM     16  C   UNL     1       2.412  -1.721   2.043  1.00  0.00     0.037 A 
ATOM     17  C   UNL     1       0.872  -4.083   1.724  1.00  0.00     0.029 A 
ATOM     18  C   UNL     1       2.923  -2.980   2.348  1.00  0.00     0.001 A 
ATOM     19  C   UNL     1       2.182  -4.119   2.195  1.00  0.00     0.045 A 
ATOM     20  C   UNL     1       4.160  -3.353   2.825  1.00  0.00     0.028 A 
ATOM     21  N   UNL     1       2.891  -5.202   2.553  1.00  0.00    -0.361 N 
ATOM     22  C   UNL     1       4.102  -4.739   2.939  1.00  0.00     0.083 A 
ATOM     23  H   UNL     1       2.577  -6.198   2.537  1.00  0.00     0.166 HD
ENDBRANCH  13  14
BRANCH  13  24
ATOM     24  C   UNL     1       1.336   0.694   0.684  1.00  0.00     0.052 A 
ATOM     25  C   UNL     1       1.419   1.931   1.353  1.00  0.00     0.027 A 
ATOM     26  C   UNL     1       2.103   0.517  -0.483  1.00  0.00    -0.021 A 
ATOM     27  C   UNL     1       2.230   2.961   0.850  1.00  0.00     0.002 A 
ATOM     28  C   UNL     1       2.889   1.532  -0.973  1.00  0.00    -0.043 A 
ATOM     29  C   UNL     1       2.189  -0.695  -1.340  1.00  0.00     0.038 C 
ATOM     30  C   UNL     1       2.971   2.765  -0.323  1.00  0.00     0.004 A 
ATOM     31  C   UNL     1       3.599   1.148  -2.214  1.00  0.00     0.036 C 
ATOM     32  C   UNL     1       3.052  -0.253  -2.535  1.00  0.00     0.010 C 
ENDBRANCH  13  24
ENDBRANCH   1  13
TORSDOF 5


