REMARK SMILES Cc1ccc(-c2cc(F)c3ncccc3c2[O-])c(F)[nH+]1
REMARK SMILES IDX 6 1 7 2 8 3 9 4 10 5 11 6 12 7 13 8 14 9 15 10 16 11 17 12
REMARK SMILES IDX 5 13 2 14 3 15 20 16 4 17 18 18 1 19 19 21
REMARK H PARENT 20 20
ROOT
ATOM      1  C   UNL     1      -1.037  -0.472   0.373  1.00  0.00    -0.013 A 
ATOM      2  C   UNL     1      -2.398  -0.805   0.468  1.00  0.00     0.050 A 
ATOM      3  C   UNL     1      -2.818  -1.863   1.276  1.00  0.00     0.149 A 
ATOM      4  F   UNL     1      -4.138  -2.171   1.345  1.00  0.00    -0.205 F 
ATOM      5  C   UNL     1      -1.883  -2.602   2.006  1.00  0.00     0.105 A 
ATOM      6  N   UNL     1      -2.294  -3.634   2.792  1.00  0.00    -0.253 NA
ATOM      7  C   UNL     1      -1.417  -4.373   3.521  1.00  0.00     0.112 A 
ATOM      8  C   UNL     1      -0.052  -4.084   3.480  1.00  0.00     0.021 A 
ATOM      9  C   UNL     1       0.404  -3.031   2.685  1.00  0.00     0.011 A 
ATOM     10  C   UNL     1      -0.509  -2.273   1.933  1.00  0.00    -0.004 A 
ATOM     11  C   UNL     1      -0.090  -1.202   1.120  1.00  0.00    -0.091 A 
ATOM     12  O   UNL     1       1.257  -0.850   1.069  1.00  0.00    -0.872 OA
ENDROOT
BRANCH   1  13
ATOM     13  C   UNL     1      -0.622   0.652  -0.498  1.00  0.00     0.085 A 
ATOM     14  C   UNL     1       0.162   2.764  -2.142  1.00  0.00     0.179 A 
ATOM     15  C   UNL     1      -0.813   2.975  -1.159  1.00  0.00     0.075 A 
ATOM     16  N   UNL     1       0.695   1.519  -2.307  1.00  0.00    -0.183 N 
ATOM     17  C   UNL     1      -1.201   1.918  -0.337  1.00  0.00     0.025 A 
ATOM     18  C   UNL     1       0.332   0.473  -1.515  1.00  0.00     0.365 A 
ATOM     19  C   UNL     1       0.560   3.883  -3.058  1.00  0.00     0.123 C 
ATOM     20  H   UNL     1       1.398   1.353  -3.062  1.00  0.00     0.456 HD
ATOM     21  F   UNL     1       0.873  -0.752  -1.742  1.00  0.00    -0.136 F 
ENDBRANCH   1  13
TORSDOF 1


