MODEL 1
REMARK VINA RESULT:      -9.7      0.000      0.000
REMARK SMILES Cc1ccc([NH2+]c2cc(F)c(C)cc2N)c(F)n1
REMARK SMILES IDX 7 1 8 2 9 3 10 4 11 5 12 6 13 7 14 8 6 9 5 12 2 13 3 14
REMARK SMILES IDX 18 15 4 16 16 17 1 18 17 19 15 20
REMARK H PARENT 6 10 6 11 15 21 15 22
ROOT
ATOM      1  C   UNL     1      43.974 131.600  17.782  1.00  0.00     0.160 A 
ATOM      2  C   UNL     1      45.172 131.079  18.308  1.00  0.00     0.110 A 
ATOM      3  C   UNL     1      45.378 130.995  19.686  1.00  0.00     0.132 A 
ATOM      4  F   UNL     1      46.554 130.504  20.154  1.00  0.00    -0.206 F 
ATOM      5  C   UNL     1      44.382 131.418  20.575  1.00  0.00    -0.013 A 
ATOM      6  C   UNL     1      44.615 131.351  22.056  1.00  0.00     0.047 C 
ATOM      7  C   UNL     1      43.181 131.932  20.067  1.00  0.00     0.038 A 
ATOM      8  C   UNL     1      42.957 132.014  18.683  1.00  0.00     0.094 A 
ENDROOT
BRANCH   1   9
ATOM      9  N   UNL     1      43.822 131.713  16.346  1.00  0.00    -0.276 N 
ATOM     10  H   UNL     1      43.647 132.713  16.093  1.00  0.00     0.358 HD
ATOM     11  H   UNL     1      42.978 131.186  16.020  1.00  0.00     0.358 HD
BRANCH   9  12
ATOM     12  C   UNL     1      44.976 131.183  15.654  1.00  0.00     0.190 A 
ATOM     13  C   UNL     1      47.177 130.142  14.283  1.00  0.00     0.041 A 
ATOM     14  C   UNL     1      47.014 131.528  14.374  1.00  0.00     0.030 A 
ATOM     15  N   UNL     1      46.245 129.317  14.829  1.00  0.00    -0.220 NA
ATOM     16  C   UNL     1      45.910 132.045  15.053  1.00  0.00     0.075 A 
ATOM     17  C   UNL     1      45.162 129.793  15.499  1.00  0.00     0.274 A 
ATOM     18  C   UNL     1      48.340 129.565  13.539  1.00  0.00     0.067 C 
ATOM     19  F   UNL     1      44.259 128.913  15.994  1.00  0.00    -0.178 F 
ENDBRANCH   9  12
ENDBRANCH   1   9
BRANCH   8  20
ATOM     20  N   UNL     1      41.691 132.507  18.225  1.00  0.00    -0.394 N 
ATOM     21  H   UNL     1      41.046 131.936  17.642  1.00  0.00     0.156 HD
ATOM     22  H   UNL     1      41.340 133.438  18.542  1.00  0.00     0.156 HD
ENDBRANCH   8  20
TORSDOF 3
ENDMDL
MODEL 2
REMARK VINA RESULT:      -9.7      1.302      1.609
REMARK SMILES Cc1ccc([NH2+]c2cc(F)c(C)cc2N)c(F)n1
REMARK SMILES IDX 7 1 8 2 9 3 10 4 11 5 12 6 13 7 14 8 6 9 5 12 2 13 3 14
REMARK SMILES IDX 18 15 4 16 16 17 1 18 17 19 15 20
REMARK H PARENT 6 10 6 11 15 21 15 22
ROOT
ATOM      1  C   UNL     1      43.880 131.672  18.024  1.00  0.00     0.160 A 
ATOM      2  C   UNL     1      45.079 131.139  18.534  1.00  0.00     0.110 A 
ATOM      3  C   UNL     1      45.281 131.001  19.908  1.00  0.00     0.132 A 
ATOM      4  F   UNL     1      46.458 130.498  20.360  1.00  0.00    -0.206 F 
ATOM      5  C   UNL     1      44.279 131.382  20.809  1.00  0.00    -0.013 A 
ATOM      6  C   UNL     1      44.508 131.258  22.288  1.00  0.00     0.047 C 
ATOM      7  C   UNL     1      43.077 131.909  20.317  1.00  0.00     0.038 A 
ATOM      8  C   UNL     1      42.857 132.045  18.937  1.00  0.00     0.094 A 
ENDROOT
BRANCH   1   9
ATOM      9  N   UNL     1      43.732 131.842  16.593  1.00  0.00    -0.276 N 
ATOM     10  H   UNL     1      43.674 132.862  16.368  1.00  0.00     0.358 HD
ATOM     11  H   UNL     1      42.831 131.426  16.262  1.00  0.00     0.358 HD
BRANCH   9  12
ATOM     12  C   UNL     1      44.812 131.200  15.876  1.00  0.00     0.190 A 
ATOM     13  C   UNL     1      46.926 129.968  14.526  1.00  0.00     0.041 A 
ATOM     14  C   UNL     1      45.843 129.198  14.962  1.00  0.00     0.030 A 
ATOM     15  N   UNL     1      46.956 131.300  14.796  1.00  0.00    -0.220 NA
ATOM     16  C   UNL     1      44.793 129.814  15.642  1.00  0.00     0.075 A 
ATOM     17  C   UNL     1      45.944 131.928  15.454  1.00  0.00     0.274 A 
ATOM     18  C   UNL     1      48.076 129.326  13.817  1.00  0.00     0.067 C 
ATOM     19  F   UNL     1      46.054 133.253  15.713  1.00  0.00    -0.178 F 
ENDBRANCH   9  12
ENDBRANCH   1   9
BRANCH   8  20
ATOM     20  N   UNL     1      41.590 132.548  18.494  1.00  0.00    -0.394 N 
ATOM     21  H   UNL     1      40.912 131.966  17.962  1.00  0.00     0.156 HD
ATOM     22  H   UNL     1      41.274 133.503  18.773  1.00  0.00     0.156 HD
ENDBRANCH   8  20
TORSDOF 3
ENDMDL
MODEL 3
REMARK VINA RESULT:      -8.5      1.910      5.789
REMARK SMILES Cc1ccc([NH2+]c2cc(F)c(C)cc2N)c(F)n1
REMARK SMILES IDX 7 1 8 2 9 3 10 4 11 5 12 6 13 7 14 8 6 9 5 12 2 13 3 14
REMARK SMILES IDX 18 15 4 16 16 17 1 18 17 19 15 20
REMARK H PARENT 6 10 6 11 15 21 15 22
ROOT
ATOM      1  C   UNL     1      45.159 130.942  15.343  1.00  0.00     0.160 A 
ATOM      2  C   UNL     1      46.043 131.796  14.656  1.00  0.00     0.110 A 
ATOM      3  C   UNL     1      47.172 131.295  14.007  1.00  0.00     0.132 A 
ATOM      4  F   UNL     1      48.010 132.153  13.371  1.00  0.00    -0.206 F 
ATOM      5  C   UNL     1      47.438 129.920  14.016  1.00  0.00    -0.013 A 
ATOM      6  C   UNL     1      48.667 129.385  13.340  1.00  0.00     0.047 C 
ATOM      7  C   UNL     1      46.564 129.056  14.690  1.00  0.00     0.038 A 
ATOM      8  C   UNL     1      45.420 129.546  15.340  1.00  0.00     0.094 A 
ENDROOT
BRANCH   1   9
ATOM      9  N   UNL     1      44.026 131.511  16.043  1.00  0.00    -0.276 N 
ATOM     10  H   UNL     1      43.154 131.009  15.759  1.00  0.00     0.358 HD
ATOM     11  H   UNL     1      43.882 132.510  15.764  1.00  0.00     0.358 HD
BRANCH   9  12
ATOM     12  C   UNL     1      44.221 131.470  17.476  1.00  0.00     0.190 A 
ATOM     13  C   UNL     1      44.567 131.357  20.246  1.00  0.00     0.041 A 
ATOM     14  C   UNL     1      45.602 130.940  19.404  1.00  0.00     0.030 A 
ATOM     15  N   UNL     1      43.390 131.777  19.709  1.00  0.00    -0.220 NA
ATOM     16  C   UNL     1      45.425 130.991  18.022  1.00  0.00     0.075 A 
ATOM     17  C   UNL     1      43.191 131.840  18.366  1.00  0.00     0.274 A 
ATOM     18  C   UNL     1      44.725 131.288  21.732  1.00  0.00     0.067 C 
ATOM     19  F   UNL     1      41.983 132.242  17.901  1.00  0.00    -0.178 F 
ENDBRANCH   9  12
ENDBRANCH   1   9
BRANCH   8  20
ATOM     20  N   UNL     1      44.540 128.608  15.973  1.00  0.00    -0.394 N 
ATOM     21  H   UNL     1      44.860 127.673  16.301  1.00  0.00     0.156 HD
ATOM     22  H   UNL     1      43.558 128.877  16.203  1.00  0.00     0.156 HD
ENDBRANCH   8  20
TORSDOF 3
ENDMDL
MODEL 4
REMARK VINA RESULT:      -8.4      1.220      1.336
REMARK SMILES Cc1ccc([NH2+]c2cc(F)c(C)cc2N)c(F)n1
REMARK SMILES IDX 7 1 8 2 9 3 10 4 11 5 12 6 13 7 14 8 6 9 5 12 2 13 3 14
REMARK SMILES IDX 18 15 4 16 16 17 1 18 17 19 15 20
REMARK H PARENT 6 10 6 11 15 21 15 22
ROOT
ATOM      1  C   UNL     1      43.786 131.757  18.238  1.00  0.00     0.160 A 
ATOM      2  C   UNL     1      44.991 131.230  18.741  1.00  0.00     0.110 A 
ATOM      3  C   UNL     1      45.190 131.066  20.112  1.00  0.00     0.132 A 
ATOM      4  F   UNL     1      46.374 130.571  20.558  1.00  0.00    -0.206 F 
ATOM      5  C   UNL     1      44.180 131.413  21.018  1.00  0.00    -0.013 A 
ATOM      6  C   UNL     1      44.405 131.261  22.494  1.00  0.00     0.047 C 
ATOM      7  C   UNL     1      42.972 131.933  20.533  1.00  0.00     0.038 A 
ATOM      8  C   UNL     1      42.755 132.095  19.155  1.00  0.00     0.094 A 
ENDROOT
BRANCH   1   9
ATOM      9  N   UNL     1      43.641 131.955  16.811  1.00  0.00    -0.276 N 
ATOM     10  H   UNL     1      43.616 132.980  16.602  1.00  0.00     0.358 HD
ATOM     11  H   UNL     1      42.725 131.575  16.476  1.00  0.00     0.358 HD
BRANCH   9  12
ATOM     12  C   UNL     1      44.696 131.288  16.079  1.00  0.00     0.190 A 
ATOM     13  C   UNL     1      46.749 130.043  14.651  1.00  0.00     0.041 A 
ATOM     14  C   UNL     1      46.803 130.078  16.048  1.00  0.00     0.030 A 
ATOM     15  N   UNL     1      45.718 130.647  14.002  1.00  0.00    -0.220 NA
ATOM     16  C   UNL     1      45.782 130.707  16.758  1.00  0.00     0.075 A 
ATOM     17  C   UNL     1      44.706 131.264  14.669  1.00  0.00     0.274 A 
ATOM     18  C   UNL     1      47.846 129.396  13.866  1.00  0.00     0.067 C 
ATOM     19  F   UNL     1      43.725 131.869  13.957  1.00  0.00    -0.178 F 
ENDBRANCH   9  12
ENDBRANCH   1   9
BRANCH   8  20
ATOM     20  N   UNL     1      41.482 132.589  18.718  1.00  0.00    -0.394 N 
ATOM     21  H   UNL     1      40.617 132.012  18.749  1.00  0.00     0.156 HD
ATOM     22  H   UNL     1      41.372 133.588  18.433  1.00  0.00     0.156 HD
ENDBRANCH   8  20
TORSDOF 3
ENDMDL
MODEL 5
REMARK VINA RESULT:      -7.9      1.870      5.729
REMARK SMILES Cc1ccc([NH2+]c2cc(F)c(C)cc2N)c(F)n1
REMARK SMILES IDX 7 1 8 2 9 3 10 4 11 5 12 6 13 7 14 8 6 9 5 12 2 13 3 14
REMARK SMILES IDX 18 15 4 16 16 17 1 18 17 19 15 20
REMARK H PARENT 6 10 6 11 15 21 15 22
ROOT
ATOM      1  C   UNL     1      44.753 131.219  16.075  1.00  0.00     0.160 A 
ATOM      2  C   UNL     1      44.791 129.820  15.922  1.00  0.00     0.110 A 
ATOM      3  C   UNL     1      45.815 129.200  15.205  1.00  0.00     0.132 A 
ATOM      4  F   UNL     1      45.806 127.849  15.066  1.00  0.00    -0.206 F 
ATOM      5  C   UNL     1      46.837 129.966  14.631  1.00  0.00    -0.013 A 
ATOM      6  C   UNL     1      47.923 129.300  13.837  1.00  0.00     0.047 C 
ATOM      7  C   UNL     1      46.817 131.360  14.779  1.00  0.00     0.038 A 
ATOM      8  C   UNL     1      45.798 131.995  15.506  1.00  0.00     0.094 A 
ENDROOT
BRANCH   1   9
ATOM      9  N   UNL     1      43.646 131.824  16.787  1.00  0.00    -0.276 N 
ATOM     10  H   UNL     1      42.749 131.395  16.463  1.00  0.00     0.358 HD
ATOM     11  H   UNL     1      43.571 132.843  16.559  1.00  0.00     0.358 HD
BRANCH   9  12
ATOM     12  C   UNL     1      43.811 131.696  18.218  1.00  0.00     0.190 A 
ATOM     13  C   UNL     1      44.103 131.410  20.982  1.00  0.00     0.041 A 
ATOM     14  C   UNL     1      45.203 131.193  20.146  1.00  0.00     0.030 A 
ATOM     15  N   UNL     1      42.896 131.721  20.439  1.00  0.00    -0.220 NA
ATOM     16  C   UNL     1      45.053 131.329  18.767  1.00  0.00     0.075 A 
ATOM     17  C   UNL     1      42.722 131.863  19.098  1.00  0.00     0.274 A 
ATOM     18  C   UNL     1      44.234 131.246  22.463  1.00  0.00     0.067 C 
ATOM     19  F   UNL     1      41.484 132.146  18.625  1.00  0.00    -0.178 F 
ENDBRANCH   9  12
ENDBRANCH   1   9
BRANCH   8  20
ATOM     20  N   UNL     1      45.856 133.420  15.660  1.00  0.00    -0.394 N 
ATOM     21  H   UNL     1      45.359 134.073  15.021  1.00  0.00     0.156 HD
ATOM     22  H   UNL     1      46.337 133.843  16.485  1.00  0.00     0.156 HD
ENDBRANCH   8  20
TORSDOF 3
ENDMDL
MODEL 6
REMARK VINA RESULT:      -7.5      1.923      5.587
REMARK SMILES Cc1ccc([NH2+]c2cc(F)c(C)cc2N)c(F)n1
REMARK SMILES IDX 7 1 8 2 9 3 10 4 11 5 12 6 13 7 14 8 6 9 5 12 2 13 3 14
REMARK SMILES IDX 18 15 4 16 16 17 1 18 17 19 15 20
REMARK H PARENT 6 10 6 11 15 21 15 22
ROOT
ATOM      1  C   UNL     1      44.338 131.330  16.142  1.00  0.00     0.160 A 
ATOM      2  C   UNL     1      45.437 130.738  16.794  1.00  0.00     0.110 A 
ATOM      3  C   UNL     1      46.488 130.175  16.069  1.00  0.00     0.132 A 
ATOM      4  F   UNL     1      47.521 129.597  16.735  1.00  0.00    -0.206 F 
ATOM      5  C   UNL     1      46.472 130.200  14.669  1.00  0.00    -0.013 A 
ATOM      6  C   UNL     1      47.590 129.569  13.890  1.00  0.00     0.047 C 
ATOM      7  C   UNL     1      45.388 130.791  14.005  1.00  0.00     0.038 A 
ATOM      8  C   UNL     1      44.329 131.370  14.722  1.00  0.00     0.094 A 
ENDROOT
BRANCH   1   9
ATOM      9  N   UNL     1      43.247 131.861  16.934  1.00  0.00    -0.276 N 
ATOM     10  H   UNL     1      42.359 131.373  16.673  1.00  0.00     0.358 HD
ATOM     11  H   UNL     1      43.090 132.872  16.716  1.00  0.00     0.358 HD
BRANCH   9  12
ATOM     12  C   UNL     1      43.522 131.744  18.349  1.00  0.00     0.190 A 
ATOM     13  C   UNL     1      44.030 131.480  21.084  1.00  0.00     0.041 A 
ATOM     14  C   UNL     1      45.080 131.342  20.171  1.00  0.00     0.030 A 
ATOM     15  N   UNL     1      42.768 131.704  20.629  1.00  0.00    -0.220 NA
ATOM     16  C   UNL     1      44.823 131.467  18.806  1.00  0.00     0.075 A 
ATOM     17  C   UNL     1      42.489 131.834  19.305  1.00  0.00     0.274 A 
ATOM     18  C   UNL     1      44.276 131.325  22.551  1.00  0.00     0.067 C 
ATOM     19  F   UNL     1      41.204 132.028  18.922  1.00  0.00    -0.178 F 
ENDBRANCH   9  12
ENDBRANCH   1   9
BRANCH   8  20
ATOM     20  N   UNL     1      43.271 131.999  13.987  1.00  0.00    -0.394 N 
ATOM     21  H   UNL     1      42.570 132.623  14.438  1.00  0.00     0.156 HD
ATOM     22  H   UNL     1      43.226 131.915  12.947  1.00  0.00     0.156 HD
ENDBRANCH   8  20
TORSDOF 3
ENDMDL
MODEL 7
REMARK VINA RESULT:      -7.4      1.358      2.027
REMARK SMILES Cc1ccc([NH2+]c2cc(F)c(C)cc2N)c(F)n1
REMARK SMILES IDX 7 1 8 2 9 3 10 4 11 5 12 6 13 7 14 8 6 9 5 12 2 13 3 14
REMARK SMILES IDX 18 15 4 16 16 17 1 18 17 19 15 20
REMARK H PARENT 6 10 6 11 15 21 15 22
ROOT
ATOM      1  C   UNL     1      44.125 131.366  17.668  1.00  0.00     0.160 A 
ATOM      2  C   UNL     1      43.156 131.930  18.520  1.00  0.00     0.110 A 
ATOM      3  C   UNL     1      43.338 131.954  19.903  1.00  0.00     0.132 A 
ATOM      4  F   UNL     1      42.372 132.491  20.692  1.00  0.00    -0.206 F 
ATOM      5  C   UNL     1      44.503 131.423  20.470  1.00  0.00    -0.013 A 
ATOM      6  C   UNL     1      44.685 131.424  21.960  1.00  0.00     0.047 C 
ATOM      7  C   UNL     1      45.479 130.862  19.635  1.00  0.00     0.038 A 
ATOM      8  C   UNL     1      45.313 130.841  18.241  1.00  0.00     0.094 A 
ENDROOT
BRANCH   1   9
ATOM      9  N   UNL     1      43.873 131.320  16.242  1.00  0.00    -0.276 N 
ATOM     10  H   UNL     1      43.520 132.251  15.921  1.00  0.00     0.358 HD
ATOM     11  H   UNL     1      43.111 130.637  16.022  1.00  0.00     0.358 HD
BRANCH   9  12
ATOM     12  C   UNL     1      45.057 130.921  15.513  1.00  0.00     0.190 A 
ATOM     13  C   UNL     1      47.316 130.133  14.071  1.00  0.00     0.041 A 
ATOM     14  C   UNL     1      47.057 131.495  14.258  1.00  0.00     0.030 A 
ATOM     15  N   UNL     1      46.447 129.209  14.560  1.00  0.00    -0.220 NA
ATOM     16  C   UNL     1      45.925 131.885  14.971  1.00  0.00     0.075 A 
ATOM     17  C   UNL     1      45.337 129.561  15.262  1.00  0.00     0.274 A 
ATOM     18  C   UNL     1      48.511 129.690  13.287  1.00  0.00     0.067 C 
ATOM     19  F   UNL     1      44.501 128.588  15.696  1.00  0.00    -0.178 F 
ENDBRANCH   9  12
ENDBRANCH   1   9
BRANCH   8  20
ATOM     20  N   UNL     1      46.367 130.296  17.436  1.00  0.00    -0.394 N 
ATOM     21  H   UNL     1      47.239 130.822  17.222  1.00  0.00     0.156 HD
ATOM     22  H   UNL     1      46.324 129.305  17.109  1.00  0.00     0.156 HD
ENDBRANCH   8  20
TORSDOF 3
ENDMDL
MODEL 8
REMARK VINA RESULT:      -7.2      3.527      5.404
REMARK SMILES Cc1ccc([NH2+]c2cc(F)c(C)cc2N)c(F)n1
REMARK SMILES IDX 7 1 8 2 9 3 10 4 11 5 12 6 13 7 14 8 6 9 5 12 2 13 3 14
REMARK SMILES IDX 18 15 4 16 16 17 1 18 17 19 15 20
REMARK H PARENT 6 10 6 11 15 21 15 22
ROOT
ATOM      1  C   UNL     1      44.045 129.910  22.850  1.00  0.00     0.160 A 
ATOM      2  C   UNL     1      44.718 128.684  22.683  1.00  0.00     0.110 A 
ATOM      3  C   UNL     1      44.178 127.493  23.168  1.00  0.00     0.132 A 
ATOM      4  F   UNL     1      44.866 126.334  23.003  1.00  0.00    -0.206 F 
ATOM      5  C   UNL     1      42.941 127.496  23.825  1.00  0.00    -0.013 A 
ATOM      6  C   UNL     1      42.374 126.217  24.371  1.00  0.00     0.047 C 
ATOM      7  C   UNL     1      42.256 128.707  23.994  1.00  0.00     0.038 A 
ATOM      8  C   UNL     1      42.783 129.911  23.501  1.00  0.00     0.094 A 
ENDROOT
BRANCH   1   9
ATOM      9  N   UNL     1      44.665 131.129  22.372  1.00  0.00    -0.276 N 
ATOM     10  H   UNL     1      45.649 131.180  22.724  1.00  0.00     0.358 HD
ATOM     11  H   UNL     1      44.179 131.969  22.763  1.00  0.00     0.358 HD
BRANCH   9  12
ATOM     12  C   UNL     1      44.613 131.212  20.928  1.00  0.00     0.190 A 
ATOM     13  C   UNL     1      44.515 131.419  18.144  1.00  0.00     0.041 A 
ATOM     14  C   UNL     1      45.636 130.849  18.754  1.00  0.00     0.030 A 
ATOM     15  N   UNL     1      43.502 131.899  18.913  1.00  0.00    -0.220 NA
ATOM     16  C   UNL     1      45.686 130.754  20.144  1.00  0.00     0.075 A 
ATOM     17  C   UNL     1      43.522 131.816  20.270  1.00  0.00     0.274 A 
ATOM     18  C   UNL     1      44.450 131.555  16.655  1.00  0.00     0.067 C 
ATOM     19  F   UNL     1      42.490 132.342  20.974  1.00  0.00    -0.178 F 
ENDBRANCH   9  12
ENDBRANCH   1   9
BRANCH   8  20
ATOM     20  N   UNL     1      42.015 131.111  23.665  1.00  0.00    -0.394 N 
ATOM     21  H   UNL     1      41.614 131.633  22.860  1.00  0.00     0.156 HD
ATOM     22  H   UNL     1      41.760 131.449  24.620  1.00  0.00     0.156 HD
ENDBRANCH   8  20
TORSDOF 3
ENDMDL
MODEL 9
REMARK VINA RESULT:      -7.2      3.233      5.307
REMARK SMILES Cc1ccc([NH2+]c2cc(F)c(C)cc2N)c(F)n1
REMARK SMILES IDX 7 1 8 2 9 3 10 4 11 5 12 6 13 7 14 8 6 9 5 12 2 13 3 14
REMARK SMILES IDX 18 15 4 16 16 17 1 18 17 19 15 20
REMARK H PARENT 6 10 6 11 15 21 15 22
ROOT
ATOM      1  C   UNL     1      43.955 130.241  22.818  1.00  0.00     0.160 A 
ATOM      2  C   UNL     1      44.635 129.016  22.678  1.00  0.00     0.110 A 
ATOM      3  C   UNL     1      44.129 127.842  23.236  1.00  0.00     0.132 A 
ATOM      4  F   UNL     1      44.824 126.684  23.093  1.00  0.00    -0.206 F 
ATOM      5  C   UNL     1      42.919 127.861  23.940  1.00  0.00    -0.013 A 
ATOM      6  C   UNL     1      42.389 126.602  24.563  1.00  0.00     0.047 C 
ATOM      7  C   UNL     1      42.227 129.071  24.084  1.00  0.00     0.038 A 
ATOM      8  C   UNL     1      42.720 130.258  23.519  1.00  0.00     0.094 A 
ENDROOT
BRANCH   1   9
ATOM      9  N   UNL     1      44.542 131.444  22.264  1.00  0.00    -0.276 N 
ATOM     10  H   UNL     1      45.553 131.491  22.527  1.00  0.00     0.358 HD
ATOM     11  H   UNL     1      44.100 132.297  22.679  1.00  0.00     0.358 HD
BRANCH   9  12
ATOM     12  C   UNL     1      44.363 131.501  20.829  1.00  0.00     0.190 A 
ATOM     13  C   UNL     1      44.020 131.563  18.057  1.00  0.00     0.041 A 
ATOM     14  C   UNL     1      42.948 131.892  18.892  1.00  0.00     0.030 A 
ATOM     15  N   UNL     1      45.206 131.182  18.603  1.00  0.00    -0.220 NA
ATOM     16  C   UNL     1      43.119 131.852  20.275  1.00  0.00     0.075 A 
ATOM     17  C   UNL     1      45.402 131.138  19.947  1.00  0.00     0.274 A 
ATOM     18  C   UNL     1      43.854 131.574  16.570  1.00  0.00     0.067 C 
ATOM     19  F   UNL     1      46.601 130.721  20.421  1.00  0.00    -0.178 F 
ENDBRANCH   9  12
ENDBRANCH   1   9
BRANCH   8  20
ATOM     20  N   UNL     1      41.945 131.456  23.662  1.00  0.00    -0.394 N 
ATOM     21  H   UNL     1      40.971 131.538  23.305  1.00  0.00     0.156 HD
ATOM     22  H   UNL     1      42.313 132.262  24.214  1.00  0.00     0.156 HD
ENDBRANCH   8  20
TORSDOF 3
ENDMDL


