REMARK SMILES O=C(C(=O)c1cc2cc(-c3ncncc3F)[nH]c2cc1F)c1ccccc1
REMARK SMILES IDX 5 1 6 2 7 3 8 4 9 5 17 6 18 7 19 8 20 9 21 10 3 12 4 13 2 14
REMARK SMILES IDX 1 15 22 16 23 17 27 18 24 19 26 20 25 21 10 22 11 23 15 24
REMARK SMILES IDX 12 25 14 26 13 27 16 28
REMARK H PARENT 17 11
ROOT
ATOM      1  C   UNL     1       0.884  -0.301  -0.023  1.00  0.00     0.063 A 
ATOM      2  C   UNL     1      -0.175   0.484   0.482  1.00  0.00     0.025 A 
ATOM      3  C   UNL     1      -1.447  -0.081   0.531  1.00  0.00     0.001 A 
ATOM      4  C   UNL     1      -2.647   0.451   0.946  1.00  0.00     0.038 A 
ATOM      5  C   UNL     1      -3.579  -0.571   0.769  1.00  0.00     0.068 A 
ATOM      6  N   UNL     1      -2.985  -1.678   0.256  1.00  0.00    -0.353 N 
ATOM      7  C   UNL     1      -1.686  -1.363   0.119  1.00  0.00     0.049 A 
ATOM      8  C   UNL     1      -0.666  -2.175  -0.371  1.00  0.00     0.066 A 
ATOM      9  C   UNL     1       0.634  -1.640  -0.434  1.00  0.00     0.136 A 
ATOM     10  F   UNL     1       1.649  -2.438  -0.852  1.00  0.00    -0.206 F 
ATOM     11  H   UNL     1      -3.430  -2.579  -0.025  1.00  0.00     0.167 HD
ENDROOT
BRANCH   1  12
ATOM     12  C   UNL     1       2.244   0.275  -0.076  1.00  0.00     0.236 C 
ATOM     13  O   UNL     1       2.698   0.837   0.958  1.00  0.00    -0.285 OA
BRANCH  12  14
ATOM     14  C   UNL     1       3.068   0.213  -1.309  1.00  0.00     0.233 C 
ATOM     15  O   UNL     1       2.603  -0.351  -2.336  1.00  0.00    -0.285 OA
BRANCH  14  16
ATOM     16  C   UNL     1       4.430   0.791  -1.378  1.00  0.00     0.026 A 
ATOM     17  C   UNL     1       4.725   2.040  -0.800  1.00  0.00     0.012 A 
ATOM     18  C   UNL     1       5.442   0.107  -2.075  1.00  0.00     0.012 A 
ATOM     19  C   UNL     1       6.014   2.575  -0.893  1.00  0.00     0.001 A 
ATOM     20  C   UNL     1       6.729   0.645  -2.164  1.00  0.00     0.001 A 
ATOM     21  C   UNL     1       7.016   1.877  -1.571  1.00  0.00     0.000 A 
ENDBRANCH  14  16
ENDBRANCH  12  14
ENDBRANCH   1  12
BRANCH   5  22
ATOM     22  C   UNL     1      -5.025  -0.439   1.054  1.00  0.00     0.126 A 
ATOM     23  N   UNL     1      -5.572   0.807   1.094  1.00  0.00    -0.232 NA
ATOM     24  C   UNL     1      -5.849  -1.551   1.304  1.00  0.00     0.169 A 
ATOM     25  C   UNL     1      -6.893   0.996   1.349  1.00  0.00     0.222 A 
ATOM     26  C   UNL     1      -7.203  -1.334   1.563  1.00  0.00     0.154 A 
ATOM     27  N   UNL     1      -7.699  -0.071   1.580  1.00  0.00    -0.242 NA
ATOM     28  F   UNL     1      -5.359  -2.814   1.349  1.00  0.00    -0.203 F 
ENDBRANCH   5  22
TORSDOF 4


