REMARK SMILES C/C=C(C)/C(O)=[N+]1\C[C@H](c2ccc3c(C)n[nH]c3c2)[C@@H](C)C[C@H]1F
REMARK SMILES IDX 5 1 6 2 3 4 4 5 2 6 1 7 7 8 8 9 23 10 9 11 22 12 20 13 24 14
REMARK SMILES IDX 21 15 10 16 11 17 19 18 12 19 18 20 13 21 17 22 14 23 16 24
REMARK SMILES IDX 15 26
REMARK H PARENT 6 3 17 25
ROOT
ATOM      1  C   UNL     1      -1.987  -2.753   0.222  1.00  0.00     0.365 C 
ENDROOT
BRANCH   1   2
ATOM      2  O   UNL     1      -2.955  -3.591  -0.332  1.00  0.00    -0.460 OA
ATOM      3  H   UNL     1      -3.173  -4.492   0.077  1.00  0.00     0.300 HD
ENDBRANCH   1   2
BRANCH   1   4
ATOM      4  C   UNL     1      -1.306  -3.239   1.446  1.00  0.00     0.056 C 
ATOM      5  C   UNL     1      -2.133  -3.484   2.679  1.00  0.00     0.055 C 
BRANCH   4   6
ATOM      6  C   UNL     1      -0.000  -3.554   1.393  1.00  0.00    -0.017 C 
ATOM      7  C   UNL     1       0.765  -4.093   2.563  1.00  0.00     0.036 C 
ENDBRANCH   4   6
ENDBRANCH   1   4
BRANCH   1   8
ATOM      8  N   UNL     1      -1.706  -1.586  -0.330  1.00  0.00    -0.166 N 
ATOM      9  C   UNL     1      -0.807  -0.599   0.304  1.00  0.00     0.366 C 
ATOM     10  C   UNL     1      -2.267  -1.137  -1.625  1.00  0.00     0.445 C 
ATOM     11  C   UNL     1       0.383  -0.308  -0.626  1.00  0.00     0.088 C 
ATOM     12  C   UNL     1      -1.122  -0.847  -2.604  1.00  0.00     0.119 C 
ATOM     13  C   UNL     1      -0.121   0.171  -2.016  1.00  0.00     0.009 C 
ATOM     14  F   UNL     1      -3.118  -2.060  -2.210  1.00  0.00    -0.175 F 
ATOM     15  C   UNL     1       1.043   0.378  -2.997  1.00  0.00     0.009 C 
BRANCH  11  16
ATOM     16  C   UNL     1       1.330   0.687   0.023  1.00  0.00    -0.036 A 
ATOM     17  C   UNL     1       2.652   0.283   0.362  1.00  0.00     0.005 A 
ATOM     18  C   UNL     1       0.913   2.012   0.304  1.00  0.00     0.032 A 
ATOM     19  C   UNL     1       3.549   1.183   0.966  1.00  0.00     0.012 A 
ATOM     20  C   UNL     1       1.831   2.872   0.900  1.00  0.00     0.066 A 
ATOM     21  C   UNL     1       3.096   2.474   1.216  1.00  0.00     0.023 A 
ATOM     22  N   UNL     1       1.658   4.154   1.262  1.00  0.00    -0.278 N 
ATOM     23  C   UNL     1       3.689   3.582   1.784  1.00  0.00     0.067 A 
ATOM     24  N   UNL     1       2.788   4.594   1.808  1.00  0.00    -0.180 NA
ATOM     25  H   UNL     1       0.792   4.725   1.151  1.00  0.00     0.190 HD
ATOM     26  C   UNL     1       5.071   3.670   2.342  1.00  0.00     0.069 C 
ENDBRANCH  11  16
ENDBRANCH   1   8
TORSDOF 5


