REMARK SMILES Cc1ccc(C(=O)C(=O)c2cc(O)c(C)cc2Nc2ccc3cc[nH]c3c2)cc1
REMARK SMILES IDX 10 1 11 2 12 3 14 4 15 5 16 6 17 7 8 8 9 9 6 10 7 11 5 12
REMARK SMILES IDX 2 13 3 14 29 15 4 16 28 17 1 18 18 19 19 21 20 22 27 23
REMARK SMILES IDX 21 24 26 25 22 26 25 27 23 28 24 29 13 31
REMARK H PARENT 18 20 25 30 13 32
ROOT
ATOM      1  C   UNL     1       1.050   2.359  -0.326  1.00  0.00     0.053 A 
ATOM      2  C   UNL     1       1.989   3.192   0.302  1.00  0.00     0.061 A 
ATOM      3  C   UNL     1       3.056   3.742  -0.413  1.00  0.00     0.119 A 
ATOM      4  C   UNL     1       3.191   3.469  -1.791  1.00  0.00    -0.007 A 
ATOM      5  C   UNL     1       4.322   4.052  -2.593  1.00  0.00     0.048 C 
ATOM      6  C   UNL     1       2.252   2.638  -2.422  1.00  0.00     0.034 A 
ATOM      7  C   UNL     1       1.196   2.064  -1.701  1.00  0.00     0.050 A 
ENDROOT
BRANCH   1   8
ATOM      8  C   UNL     1      -0.108   1.864   0.448  1.00  0.00     0.235 C 
ATOM      9  O   UNL     1      -1.269   2.156   0.053  1.00  0.00    -0.285 OA
BRANCH   8  10
ATOM     10  C   UNL     1       0.081   1.033   1.663  1.00  0.00     0.233 C 
ATOM     11  O   UNL     1       1.216   1.009   2.212  1.00  0.00    -0.285 OA
BRANCH  10  12
ATOM     12  C   UNL     1      -1.007   0.204   2.243  1.00  0.00     0.026 A 
ATOM     13  C   UNL     1      -2.993  -1.458   3.365  1.00  0.00    -0.051 A 
ATOM     14  C   UNL     1      -1.971  -0.934   4.169  1.00  0.00     0.004 A 
ATOM     15  C   UNL     1      -3.002  -1.172   1.994  1.00  0.00     0.004 A 
ATOM     16  C   UNL     1      -0.987  -0.111   3.614  1.00  0.00     0.012 A 
ATOM     17  C   UNL     1      -2.023  -0.344   1.438  1.00  0.00     0.012 A 
ATOM     18  C   UNL     1      -4.018  -2.382   3.951  1.00  0.00     0.044 C 
ENDBRANCH  10  12
ENDBRANCH   8  10
ENDBRANCH   1   8
BRANCH   7  19
ATOM     19  N   UNL     1       0.276   1.205  -2.396  1.00  0.00    -0.355 N 
ATOM     20  H   UNL     1      -0.081   1.528  -3.324  1.00  0.00     0.167 HD
BRANCH  19  21
ATOM     21  C   UNL     1      -0.090  -0.114  -1.951  1.00  0.00     0.041 A 
ATOM     22  C   UNL     1      -1.283  -0.703  -2.442  1.00  0.00     0.027 A 
ATOM     23  C   UNL     1       0.718  -0.832  -1.038  1.00  0.00     0.052 A 
ATOM     24  C   UNL     1      -1.697  -1.971  -1.996  1.00  0.00     0.012 A 
ATOM     25  C   UNL     1       0.274  -2.081  -0.608  1.00  0.00     0.047 A 
ATOM     26  C   UNL     1      -0.893  -2.627  -1.068  1.00  0.00    -0.001 A 
ATOM     27  N   UNL     1       0.858  -2.889   0.291  1.00  0.00    -0.361 N 
ATOM     28  C   UNL     1      -1.060  -3.838  -0.432  1.00  0.00     0.028 A 
ATOM     29  C   UNL     1       0.045  -3.965   0.403  1.00  0.00     0.083 A 
ATOM     30  H   UNL     1       1.748  -2.719   0.809  1.00  0.00     0.166 HD
ENDBRANCH  19  21
ENDBRANCH   7  19
BRANCH   3  31
ATOM     31  O   UNL     1       3.958   4.561   0.270  1.00  0.00    -0.508 OA
ATOM     32  H   UNL     1       4.754   4.998  -0.176  1.00  0.00     0.293 HD
ENDBRANCH   3  31
TORSDOF 6


