MODEL 1
REMARK VINA RESULT:      -7.3      0.000      0.000
REMARK SMILES CCC(=O)[C@H](O)[N@@H+]1C[C@H](c2ccc3cc[nH]c3c2)[C@H](C)C[C@H]1F
REMARK SMILES IDX 5 1 3 2 4 3 2 4 1 5 6 6 7 8 8 9 22 10 9 11 21 12 19 13 23 15
REMARK SMILES IDX 20 16 10 17 11 18 18 19 12 20 17 21 13 22 16 23 14 24 15 25
REMARK H PARENT 6 7 7 14 16 26
ROOT
ATOM      1  C   UNL     1      46.393 129.547  15.890  1.00  0.00     0.391 C 
ENDROOT
BRANCH   1   2
ATOM      2  C   UNL     1      47.095 129.909  14.593  1.00  0.00     0.218 C 
ATOM      3  O   UNL     1      47.710 129.047  13.984  1.00  0.00    -0.290 OA
BRANCH   2   4
ATOM      4  C   UNL     1      47.077 131.318  14.061  1.00  0.00     0.082 C 
ATOM      5  C   UNL     1      47.857 131.417  12.753  1.00  0.00     0.012 C 
ENDBRANCH   2   4
ENDBRANCH   1   2
BRANCH   1   6
ATOM      6  O   UNL     1      45.580 128.426  15.644  1.00  0.00    -0.339 OA
ATOM      7  H   UNL     1      45.877 128.036  14.780  1.00  0.00     0.217 HD
ENDBRANCH   1   6
BRANCH   1   8
ATOM      8  N   UNL     1      45.574 130.677  16.422  1.00  0.00    -0.274 N 
ATOM      9  C   UNL     1      45.348 130.513  17.884  1.00  0.00     0.275 C 
ATOM     10  C   UNL     1      44.266 130.758  15.713  1.00  0.00     0.369 C 
ATOM     11  C   UNL     1      44.530 131.687  18.469  1.00  0.00     0.078 C 
ATOM     12  C   UNL     1      43.401 131.920  16.237  1.00  0.00     0.107 C 
ATOM     13  C   UNL     1      43.167 131.840  17.755  1.00  0.00     0.008 C 
ATOM     14  H   UNL     1      46.094 131.572  16.259  1.00  0.00     0.353 HD
ATOM     15  F   UNL     1      44.455 130.976  14.357  1.00  0.00    -0.186 F 
ATOM     16  C   UNL     1      42.144 130.744  18.110  1.00  0.00     0.009 C 
BRANCH  11  17
ATOM     17  C   UNL     1      44.394 131.642  19.985  1.00  0.00    -0.037 A 
ATOM     18  C   UNL     1      45.565 131.495  20.776  1.00  0.00     0.005 A 
ATOM     19  C   UNL     1      43.140 131.801  20.631  1.00  0.00     0.031 A 
ATOM     20  C   UNL     1      45.494 131.478  22.180  1.00  0.00     0.010 A 
ATOM     21  C   UNL     1      43.107 131.781  22.023  1.00  0.00     0.046 A 
ATOM     22  C   UNL     1      44.242 131.622  22.770  1.00  0.00    -0.001 A 
ATOM     23  N   UNL     1      42.031 131.913  22.816  1.00  0.00    -0.361 N 
ATOM     24  C   UNL     1      43.874 131.654  24.096  1.00  0.00     0.028 A 
ATOM     25  C   UNL     1      42.494 131.836  24.085  1.00  0.00     0.083 A 
ATOM     26  H   UNL     1      41.040 132.050  22.518  1.00  0.00     0.166 HD
ENDBRANCH  11  17
ENDBRANCH   1   8
TORSDOF 5
ENDMDL
MODEL 2
REMARK VINA RESULT:      -7.0      1.253      1.530
REMARK SMILES CCC(=O)[C@H](O)[N@@H+]1C[C@H](c2ccc3cc[nH]c3c2)[C@H](C)C[C@H]1F
REMARK SMILES IDX 5 1 3 2 4 3 2 4 1 5 6 6 7 8 8 9 22 10 9 11 21 12 19 13 23 15
REMARK SMILES IDX 20 16 10 17 11 18 18 19 12 20 17 21 13 22 16 23 14 24 15 25
REMARK H PARENT 6 7 7 14 16 26
ROOT
ATOM      1  C   UNL     1      46.265 129.296  15.895  1.00  0.00     0.391 C 
ENDROOT
BRANCH   1   2
ATOM      2  C   UNL     1      47.135 129.691  14.715  1.00  0.00     0.218 C 
ATOM      3  O   UNL     1      47.880 128.862  14.215  1.00  0.00    -0.290 OA
BRANCH   2   4
ATOM      4  C   UNL     1      47.124 131.097  14.170  1.00  0.00     0.082 C 
ATOM      5  C   UNL     1      47.673 131.134  12.747  1.00  0.00     0.012 C 
ENDBRANCH   2   4
ENDBRANCH   1   2
BRANCH   1   6
ATOM      6  O   UNL     1      45.271 128.419  15.425  1.00  0.00    -0.339 OA
ATOM      7  H   UNL     1      44.817 128.873  14.668  1.00  0.00     0.217 HD
ENDBRANCH   1   6
BRANCH   1   8
ATOM      8  N   UNL     1      45.643 130.480  16.559  1.00  0.00    -0.274 N 
ATOM      9  C   UNL     1      45.342 130.178  17.985  1.00  0.00     0.275 C 
ATOM     10  C   UNL     1      44.396 130.886  15.852  1.00  0.00     0.369 C 
ATOM     11  C   UNL     1      44.727 131.399  18.707  1.00  0.00     0.078 C 
ATOM     12  C   UNL     1      43.735 132.110  16.512  1.00  0.00     0.107 C 
ATOM     13  C   UNL     1      43.439 131.886  18.004  1.00  0.00     0.008 C 
ATOM     14  H   UNL     1      46.321 131.279  16.519  1.00  0.00     0.353 HD
ATOM     15  F   UNL     1      44.668 131.234  14.538  1.00  0.00    -0.186 F 
ATOM     16  C   UNL     1      42.225 130.957  18.203  1.00  0.00     0.009 C 
BRANCH  11  17
ATOM     17  C   UNL     1      44.532 131.191  20.203  1.00  0.00    -0.037 A 
ATOM     18  C   UNL     1      43.863 132.195  20.956  1.00  0.00     0.005 A 
ATOM     19  C   UNL     1      44.948 130.001  20.856  1.00  0.00     0.031 A 
ATOM     20  C   UNL     1      43.633 132.035  22.333  1.00  0.00     0.010 A 
ATOM     21  C   UNL     1      44.703 129.877  22.221  1.00  0.00     0.046 A 
ATOM     22  C   UNL     1      44.071 130.859  22.934  1.00  0.00    -0.001 A 
ATOM     23  N   UNL     1      45.015 128.839  23.015  1.00  0.00    -0.361 N 
ATOM     24  C   UNL     1      43.977 130.429  24.238  1.00  0.00     0.028 A 
ATOM     25  C   UNL     1      44.574 129.172  24.250  1.00  0.00     0.083 A 
ATOM     26  H   UNL     1      45.496 127.955  22.739  1.00  0.00     0.166 HD
ENDBRANCH  11  17
ENDBRANCH   1   8
TORSDOF 5
ENDMDL
MODEL 3
REMARK VINA RESULT:      -6.4      2.461      2.801
REMARK SMILES CCC(=O)[C@H](O)[N@@H+]1C[C@H](c2ccc3cc[nH]c3c2)[C@H](C)C[C@H]1F
REMARK SMILES IDX 5 1 3 2 4 3 2 4 1 5 6 6 7 8 8 9 22 10 9 11 21 12 19 13 23 15
REMARK SMILES IDX 20 16 10 17 11 18 18 19 12 20 17 21 13 22 16 23 14 24 15 25
REMARK H PARENT 6 7 7 14 16 26
ROOT
ATOM      1  C   UNL     1      46.331 129.678  15.796  1.00  0.00     0.391 C 
ENDROOT
BRANCH   1   2
ATOM      2  C   UNL     1      45.952 130.367  14.497  1.00  0.00     0.218 C 
ATOM      3  O   UNL     1      44.780 130.636  14.280  1.00  0.00    -0.290 OA
BRANCH   2   4
ATOM      4  C   UNL     1      46.990 130.696  13.454  1.00  0.00     0.082 C 
ATOM      5  C   UNL     1      48.182 129.749  13.554  1.00  0.00     0.012 C 
ENDBRANCH   2   4
ENDBRANCH   1   2
BRANCH   1   6
ATOM      6  O   UNL     1      45.468 128.583  15.973  1.00  0.00    -0.339 OA
ATOM      7  H   UNL     1      46.039 127.778  16.090  1.00  0.00     0.217 HD
ENDBRANCH   1   6
BRANCH   1   8
ATOM      8  N   UNL     1      46.249 130.601  16.968  1.00  0.00    -0.274 N 
ATOM      9  C   UNL     1      45.753 129.874  18.168  1.00  0.00     0.275 C 
ATOM     10  C   UNL     1      45.355 131.754  16.668  1.00  0.00     0.369 C 
ATOM     11  C   UNL     1      45.690 130.798  19.406  1.00  0.00     0.078 C 
ATOM     12  C   UNL     1      45.256 132.727  17.857  1.00  0.00     0.107 C 
ATOM     13  C   UNL     1      44.794 132.032  19.148  1.00  0.00     0.008 C 
ATOM     14  H   UNL     1      47.209 130.970  17.169  1.00  0.00     0.353 HD
ATOM     15  F   UNL     1      45.837 132.482  15.591  1.00  0.00    -0.186 F 
ATOM     16  C   UNL     1      43.286 131.717  19.110  1.00  0.00     0.009 C 
BRANCH  11  17
ATOM     17  C   UNL     1      45.326 130.071  20.694  1.00  0.00    -0.037 A 
ATOM     18  C   UNL     1      44.624 130.778  21.708  1.00  0.00     0.005 A 
ATOM     19  C   UNL     1      45.617 128.695  20.887  1.00  0.00     0.031 A 
ATOM     20  C   UNL     1      44.240 130.142  22.901  1.00  0.00     0.010 A 
ATOM     21  C   UNL     1      45.221 128.098  22.082  1.00  0.00     0.046 A 
ATOM     22  C   UNL     1      44.559 128.797  23.053  1.00  0.00    -0.001 A 
ATOM     23  N   UNL     1      45.400 126.820  22.453  1.00  0.00    -0.361 N 
ATOM     24  C   UNL     1      44.306 127.926  24.090  1.00  0.00     0.028 A 
ATOM     25  C   UNL     1      44.844 126.709  23.681  1.00  0.00     0.083 A 
ATOM     26  H   UNL     1      45.869 126.063  21.908  1.00  0.00     0.166 HD
ENDBRANCH  11  17
ENDBRANCH   1   8
TORSDOF 5
ENDMDL
MODEL 4
REMARK VINA RESULT:      -6.3      1.141      1.218
REMARK SMILES CCC(=O)[C@H](O)[N@@H+]1C[C@H](c2ccc3cc[nH]c3c2)[C@H](C)C[C@H]1F
REMARK SMILES IDX 5 1 3 2 4 3 2 4 1 5 6 6 7 8 8 9 22 10 9 11 21 12 19 13 23 15
REMARK SMILES IDX 20 16 10 17 11 18 18 19 12 20 17 21 13 22 16 23 14 24 15 25
REMARK H PARENT 6 7 7 14 16 26
ROOT
ATOM      1  C   UNL     1      45.845 130.329  15.704  1.00  0.00     0.391 C 
ENDROOT
BRANCH   1   2
ATOM      2  C   UNL     1      46.636 131.043  14.622  1.00  0.00     0.218 C 
ATOM      3  O   UNL     1      46.834 132.245  14.720  1.00  0.00    -0.290 OA
BRANCH   2   4
ATOM      4  C   UNL     1      47.154 130.305  13.415  1.00  0.00     0.082 C 
ATOM      5  C   UNL     1      48.342 129.422  13.783  1.00  0.00     0.012 C 
ENDBRANCH   2   4
ENDBRANCH   1   2
BRANCH   1   6
ATOM      6  O   UNL     1      45.024 129.373  15.079  1.00  0.00    -0.339 OA
ATOM      7  H   UNL     1      44.777 128.705  15.772  1.00  0.00     0.217 HD
ENDBRANCH   1   6
BRANCH   1   8
ATOM      8  N   UNL     1      45.020 131.273  16.516  1.00  0.00    -0.274 N 
ATOM      9  C   UNL     1      44.914 130.795  17.921  1.00  0.00     0.275 C 
ATOM     10  C   UNL     1      43.659 131.422  15.927  1.00  0.00     0.369 C 
ATOM     11  C   UNL     1      44.093 131.772  18.794  1.00  0.00     0.078 C 
ATOM     12  C   UNL     1      42.786 132.396  16.741  1.00  0.00     0.107 C 
ATOM     13  C   UNL     1      42.673 131.989  18.219  1.00  0.00     0.008 C 
ATOM     14  H   UNL     1      45.486 132.211  16.512  1.00  0.00     0.353 HD
ATOM     15  F   UNL     1      43.733 131.928  14.639  1.00  0.00    -0.186 F 
ATOM     16  C   UNL     1      41.731 130.783  18.401  1.00  0.00     0.009 C 
BRANCH  11  17
ATOM     17  C   UNL     1      44.075 131.405  20.271  1.00  0.00    -0.037 A 
ATOM     18  C   UNL     1      45.114 130.582  20.788  1.00  0.00     0.005 A 
ATOM     19  C   UNL     1      43.087 131.906  21.158  1.00  0.00     0.031 A 
ATOM     20  C   UNL     1      45.157 130.241  22.151  1.00  0.00     0.010 A 
ATOM     21  C   UNL     1      43.162 131.548  22.502  1.00  0.00     0.046 A 
ATOM     22  C   UNL     1      44.159 130.742  22.979  1.00  0.00    -0.001 A 
ATOM     23  N   UNL     1      42.331 131.914  23.491  1.00  0.00    -0.361 N 
ATOM     24  C   UNL     1      43.955 130.589  24.332  1.00  0.00     0.028 A 
ATOM     25  C   UNL     1      42.810 131.329  24.613  1.00  0.00     0.083 A 
ATOM     26  H   UNL     1      41.488 132.526  23.415  1.00  0.00     0.166 HD
ENDBRANCH  11  17
ENDBRANCH   1   8
TORSDOF 5
ENDMDL
MODEL 5
REMARK VINA RESULT:      -6.1      1.837      2.029
REMARK SMILES CCC(=O)[C@H](O)[N@@H+]1C[C@H](c2ccc3cc[nH]c3c2)[C@H](C)C[C@H]1F
REMARK SMILES IDX 5 1 3 2 4 3 2 4 1 5 6 6 7 8 8 9 22 10 9 11 21 12 19 13 23 15
REMARK SMILES IDX 20 16 10 17 11 18 18 19 12 20 17 21 13 22 16 23 14 24 15 25
REMARK H PARENT 6 7 7 14 16 26
ROOT
ATOM      1  C   UNL     1      46.447 129.786  16.090  1.00  0.00     0.391 C 
ENDROOT
BRANCH   1   2
ATOM      2  C   UNL     1      46.136 130.426  14.749  1.00  0.00     0.218 C 
ATOM      3  O   UNL     1      44.977 130.489  14.369  1.00  0.00    -0.290 OA
BRANCH   2   4
ATOM      4  C   UNL     1      47.234 130.954  13.861  1.00  0.00     0.082 C 
ATOM      5  C   UNL     1      48.175 129.832  13.432  1.00  0.00     0.012 C 
ENDBRANCH   2   4
ENDBRANCH   1   2
BRANCH   1   6
ATOM      6  O   UNL     1      45.633 128.648  16.226  1.00  0.00    -0.339 OA
ATOM      7  H   UNL     1      44.694 128.967  16.291  1.00  0.00     0.217 HD
ENDBRANCH   1   6
BRANCH   1   8
ATOM      8  N   UNL     1      46.222 130.727  17.229  1.00  0.00    -0.274 N 
ATOM      9  C   UNL     1      45.593 130.015  18.375  1.00  0.00     0.275 C 
ATOM     10  C   UNL     1      45.360 131.867  16.806  1.00  0.00     0.369 C 
ATOM     11  C   UNL     1      45.378 130.958  19.581  1.00  0.00     0.078 C 
ATOM     12  C   UNL     1      45.115 132.858  17.960  1.00  0.00     0.107 C 
ATOM     13  C   UNL     1      44.510 132.179  19.199  1.00  0.00     0.008 C 
ATOM     14  H   UNL     1      47.148 131.108  17.535  1.00  0.00     0.353 HD
ATOM     15  F   UNL     1      45.960 132.582  15.781  1.00  0.00    -0.186 F 
ATOM     16  C   UNL     1      43.019 131.850  18.990  1.00  0.00     0.009 C 
BRANCH  11  17
ATOM     17  C   UNL     1      44.871 130.248  20.829  1.00  0.00    -0.037 A 
ATOM     18  C   UNL     1      45.489 129.030  21.227  1.00  0.00     0.005 A 
ATOM     19  C   UNL     1      43.842 130.795  21.638  1.00  0.00     0.031 A 
ATOM     20  C   UNL     1      45.076 128.354  22.388  1.00  0.00     0.010 A 
ATOM     21  C   UNL     1      43.459 130.098  22.782  1.00  0.00     0.046 A 
ATOM     22  C   UNL     1      44.053 128.919  23.141  1.00  0.00    -0.001 A 
ATOM     23  N   UNL     1      42.514 130.445  23.671  1.00  0.00    -0.361 N 
ATOM     24  C   UNL     1      43.460 128.496  24.310  1.00  0.00     0.028 A 
ATOM     25  C   UNL     1      42.509 129.468  24.607  1.00  0.00     0.083 A 
ATOM     26  H   UNL     1      41.907 131.294  23.649  1.00  0.00     0.166 HD
ENDBRANCH  11  17
ENDBRANCH   1   8
TORSDOF 5
ENDMDL
MODEL 6
REMARK VINA RESULT:      -6.0      4.133      7.684
REMARK SMILES CCC(=O)[C@H](O)[N@@H+]1C[C@H](c2ccc3cc[nH]c3c2)[C@H](C)C[C@H]1F
REMARK SMILES IDX 5 1 3 2 4 3 2 4 1 5 6 6 7 8 8 9 22 10 9 11 21 12 19 13 23 15
REMARK SMILES IDX 20 16 10 17 11 18 18 19 12 20 17 21 13 22 16 23 14 24 15 25
REMARK H PARENT 6 7 7 14 16 26
ROOT
ATOM      1  C   UNL     1      44.578 128.388  23.271  1.00  0.00     0.391 C 
ENDROOT
BRANCH   1   2
ATOM      2  C   UNL     1      43.399 127.562  23.754  1.00  0.00     0.218 C 
ATOM      3  O   UNL     1      42.469 128.118  24.319  1.00  0.00    -0.290 OA
BRANCH   2   4
ATOM      4  C   UNL     1      43.369 126.065  23.582  1.00  0.00     0.082 C 
ATOM      5  C   UNL     1      44.732 125.540  23.140  1.00  0.00     0.012 C 
ENDBRANCH   2   4
ENDBRANCH   1   2
BRANCH   1   6
ATOM      6  O   UNL     1      45.375 128.700  24.386  1.00  0.00    -0.339 OA
ATOM      7  H   UNL     1      44.783 128.670  25.184  1.00  0.00     0.217 HD
ENDBRANCH   1   6
BRANCH   1   8
ATOM      8  N   UNL     1      44.144 129.636  22.575  1.00  0.00    -0.274 N 
ATOM      9  C   UNL     1      44.651 129.655  21.176  1.00  0.00     0.275 C 
ATOM     10  C   UNL     1      44.628 130.841  23.305  1.00  0.00     0.369 C 
ATOM     11  C   UNL     1      44.189 130.922  20.420  1.00  0.00     0.078 C 
ATOM     12  C   UNL     1      44.190 132.146  22.613  1.00  0.00     0.107 C 
ATOM     13  C   UNL     1      44.640 132.211  21.145  1.00  0.00     0.008 C 
ATOM     14  H   UNL     1      43.097 129.660  22.555  1.00  0.00     0.353 HD
ATOM     15  F   UNL     1      44.113 130.875  24.592  1.00  0.00    -0.186 F 
ATOM     16  C   UNL     1      46.149 132.501  21.031  1.00  0.00     0.009 C 
BRANCH  11  17
ATOM     17  C   UNL     1      44.560 130.922  18.943  1.00  0.00    -0.037 A 
ATOM     18  C   UNL     1      43.755 131.661  18.032  1.00  0.00     0.005 A 
ATOM     19  C   UNL     1      45.715 130.255  18.458  1.00  0.00     0.031 A 
ATOM     20  C   UNL     1      44.074 131.716  16.664  1.00  0.00     0.010 A 
ATOM     21  C   UNL     1      46.000 130.332  17.097  1.00  0.00     0.046 A 
ATOM     22  C   UNL     1      45.206 131.034  16.232  1.00  0.00    -0.001 A 
ATOM     23  N   UNL     1      47.036 129.776  16.448  1.00  0.00    -0.361 N 
ATOM     24  C   UNL     1      45.761 130.921  14.977  1.00  0.00     0.028 A 
ATOM     25  C   UNL     1      46.894 130.132  15.150  1.00  0.00     0.083 A 
ATOM     26  H   UNL     1      47.798 129.191  16.857  1.00  0.00     0.166 HD
ENDBRANCH  11  17
ENDBRANCH   1   8
TORSDOF 5
ENDMDL
MODEL 7
REMARK VINA RESULT:      -5.9      3.912      7.752
REMARK SMILES CCC(=O)[C@H](O)[N@@H+]1C[C@H](c2ccc3cc[nH]c3c2)[C@H](C)C[C@H]1F
REMARK SMILES IDX 5 1 3 2 4 3 2 4 1 5 6 6 7 8 8 9 22 10 9 11 21 12 19 13 23 15
REMARK SMILES IDX 20 16 10 17 11 18 18 19 12 20 17 21 13 22 16 23 14 24 15 25
REMARK H PARENT 6 7 7 14 16 26
ROOT
ATOM      1  C   UNL     1      44.447 128.212  23.192  1.00  0.00     0.391 C 
ENDROOT
BRANCH   1   2
ATOM      2  C   UNL     1      43.246 127.450  23.725  1.00  0.00     0.218 C 
ATOM      3  O   UNL     1      43.423 126.427  24.369  1.00  0.00    -0.290 OA
BRANCH   2   4
ATOM      4  C   UNL     1      41.839 127.912  23.446  1.00  0.00     0.082 C 
ATOM      5  C   UNL     1      41.377 128.916  24.498  1.00  0.00     0.012 C 
ENDBRANCH   2   4
ENDBRANCH   1   2
BRANCH   1   6
ATOM      6  O   UNL     1      45.323 128.445  24.267  1.00  0.00    -0.339 OA
ATOM      7  H   UNL     1      45.483 129.425  24.305  1.00  0.00     0.217 HD
ENDBRANCH   1   6
BRANCH   1   8
ATOM      8  N   UNL     1      44.057 129.501  22.549  1.00  0.00    -0.274 N 
ATOM      9  C   UNL     1      44.582 129.569  21.158  1.00  0.00     0.275 C 
ATOM     10  C   UNL     1      44.564 130.658  23.339  1.00  0.00     0.369 C 
ATOM     11  C   UNL     1      44.165 130.881  20.455  1.00  0.00     0.078 C 
ATOM     12  C   UNL     1      44.171 132.004  22.702  1.00  0.00     0.107 C 
ATOM     13  C   UNL     1      44.641 132.123  21.243  1.00  0.00     0.008 C 
ATOM     14  H   UNL     1      43.011 129.555  22.518  1.00  0.00     0.353 HD
ATOM     15  F   UNL     1      44.033 130.649  24.620  1.00  0.00    -0.186 F 
ATOM     16  C   UNL     1      46.159 132.376  21.159  1.00  0.00     0.009 C 
BRANCH  11  17
ATOM     17  C   UNL     1      44.554 130.937  18.984  1.00  0.00    -0.037 A 
ATOM     18  C   UNL     1      43.787 131.747  18.101  1.00  0.00     0.005 A 
ATOM     19  C   UNL     1      45.690 130.253  18.481  1.00  0.00     0.031 A 
ATOM     20  C   UNL     1      44.125 131.854  16.740  1.00  0.00     0.010 A 
ATOM     21  C   UNL     1      45.995 130.384  17.128  1.00  0.00     0.046 A 
ATOM     22  C   UNL     1      45.238 131.154  16.289  1.00  0.00    -0.001 A 
ATOM     23  N   UNL     1      47.019 129.822  16.465  1.00  0.00    -0.361 N 
ATOM     24  C   UNL     1      45.804 131.080  15.036  1.00  0.00     0.028 A 
ATOM     25  C   UNL     1      46.907 130.243  15.184  1.00  0.00     0.083 A 
ATOM     26  H   UNL     1      47.755 129.191  16.854  1.00  0.00     0.166 HD
ENDBRANCH  11  17
ENDBRANCH   1   8
TORSDOF 5
ENDMDL
MODEL 8
REMARK VINA RESULT:      -5.9      2.687      3.120
REMARK SMILES CCC(=O)[C@H](O)[N@@H+]1C[C@H](c2ccc3cc[nH]c3c2)[C@H](C)C[C@H]1F
REMARK SMILES IDX 5 1 3 2 4 3 2 4 1 5 6 6 7 8 8 9 22 10 9 11 21 12 19 13 23 15
REMARK SMILES IDX 20 16 10 17 11 18 18 19 12 20 17 21 13 22 16 23 14 24 15 25
REMARK H PARENT 6 7 7 14 16 26
ROOT
ATOM      1  C   UNL     1      45.709 129.846  16.230  1.00  0.00     0.391 C 
ENDROOT
BRANCH   1   2
ATOM      2  C   UNL     1      46.785 130.252  15.237  1.00  0.00     0.218 C 
ATOM      3  O   UNL     1      46.934 131.433  14.965  1.00  0.00    -0.290 OA
BRANCH   2   4
ATOM      4  C   UNL     1      47.649 129.222  14.556  1.00  0.00     0.082 C 
ATOM      5  C   UNL     1      48.221 129.767  13.251  1.00  0.00     0.012 C 
ENDBRANCH   2   4
ENDBRANCH   1   2
BRANCH   1   6
ATOM      6  O   UNL     1      44.461 129.989  15.599  1.00  0.00    -0.339 OA
ATOM      7  H   UNL     1      44.194 130.942  15.694  1.00  0.00     0.217 HD
ENDBRANCH   1   6
BRANCH   1   8
ATOM      8  N   UNL     1      45.758 130.663  17.479  1.00  0.00    -0.274 N 
ATOM      9  C   UNL     1      45.373 129.838  18.656  1.00  0.00     0.275 C 
ATOM     10  C   UNL     1      44.856 131.844  17.371  1.00  0.00     0.369 C 
ATOM     11  C   UNL     1      45.447 130.650  19.970  1.00  0.00     0.078 C 
ATOM     12  C   UNL     1      44.889 132.710  18.644  1.00  0.00     0.107 C 
ATOM     13  C   UNL     1      44.548 131.907  19.910  1.00  0.00     0.008 C 
ATOM     14  H   UNL     1      46.738 131.007  17.615  1.00  0.00     0.353 HD
ATOM     15  F   UNL     1      45.239 132.660  16.318  1.00  0.00    -0.186 F 
ATOM     16  C   UNL     1      43.039 131.605  19.996  1.00  0.00     0.009 C 
BRANCH  11  17
ATOM     17  C   UNL     1      45.202 129.815  21.219  1.00  0.00    -0.037 A 
ATOM     18  C   UNL     1      44.562 130.420  22.336  1.00  0.00     0.005 A 
ATOM     19  C   UNL     1      45.541 128.438  21.282  1.00  0.00     0.031 A 
ATOM     20  C   UNL     1      44.288 129.683  23.501  1.00  0.00     0.010 A 
ATOM     21  C   UNL     1      45.254 127.739  22.451  1.00  0.00     0.046 A 
ATOM     22  C   UNL     1      44.652 128.341  23.522  1.00  0.00    -0.001 A 
ATOM     23  N   UNL     1      45.494 126.442  22.706  1.00  0.00    -0.361 N 
ATOM     24  C   UNL     1      44.502 127.386  24.503  1.00  0.00     0.028 A 
ATOM     25  C   UNL     1      45.037 126.221  23.961  1.00  0.00     0.083 A 
ATOM     26  H   UNL     1      45.939 125.745  22.070  1.00  0.00     0.166 HD
ENDBRANCH  11  17
ENDBRANCH   1   8
TORSDOF 5
ENDMDL
MODEL 9
REMARK VINA RESULT:      -5.7      2.772      3.344
REMARK SMILES CCC(=O)[C@H](O)[N@@H+]1C[C@H](c2ccc3cc[nH]c3c2)[C@H](C)C[C@H]1F
REMARK SMILES IDX 5 1 3 2 4 3 2 4 1 5 6 6 7 8 8 9 22 10 9 11 21 12 19 13 23 15
REMARK SMILES IDX 20 16 10 17 11 18 18 19 12 20 17 21 13 22 16 23 14 24 15 25
REMARK H PARENT 6 7 7 14 16 26
ROOT
ATOM      1  C   UNL     1      46.129 130.102  16.541  1.00  0.00     0.391 C 
ENDROOT
BRANCH   1   2
ATOM      2  C   UNL     1      45.114 130.575  15.516  1.00  0.00     0.218 C 
ATOM      3  O   UNL     1      43.928 130.585  15.808  1.00  0.00    -0.290 OA
BRANCH   2   4
ATOM      4  C   UNL     1      45.538 131.001  14.134  1.00  0.00     0.082 C 
ATOM      5  C   UNL     1      47.036 131.286  14.087  1.00  0.00     0.012 C 
ENDBRANCH   2   4
ENDBRANCH   1   2
BRANCH   1   6
ATOM      6  O   UNL     1      45.928 128.725  16.746  1.00  0.00    -0.339 OA
ATOM      7  H   UNL     1      45.922 128.575  17.728  1.00  0.00     0.217 HD
ENDBRANCH   1   6
BRANCH   1   8
ATOM      8  N   UNL     1      46.014 130.843  17.833  1.00  0.00    -0.274 N 
ATOM      9  C   UNL     1      45.554 129.933  18.916  1.00  0.00     0.275 C 
ATOM     10  C   UNL     1      45.071 131.989  17.699  1.00  0.00     0.369 C 
ATOM     11  C   UNL     1      45.457 130.666  20.273  1.00  0.00     0.078 C 
ATOM     12  C   UNL     1      44.936 132.777  19.015  1.00  0.00     0.107 C 
ATOM     13  C   UNL     1      44.510 131.886  20.193  1.00  0.00     0.008 C 
ATOM     14  H   UNL     1      46.958 131.220  18.086  1.00  0.00     0.353 HD
ATOM     15  F   UNL     1      45.518 132.883  16.738  1.00  0.00    -0.186 F 
ATOM     16  C   UNL     1      43.016 131.517  20.107  1.00  0.00     0.009 C 
BRANCH  11  17
ATOM     17  C   UNL     1      45.130 129.748  21.443  1.00  0.00    -0.037 A 
ATOM     18  C   UNL     1      44.452 130.287  22.571  1.00  0.00     0.005 A 
ATOM     19  C   UNL     1      45.428 128.361  21.416  1.00  0.00     0.031 A 
ATOM     20  C   UNL     1      44.102 129.473  23.663  1.00  0.00     0.010 A 
ATOM     21  C   UNL     1      45.066 127.585  22.514  1.00  0.00     0.046 A 
ATOM     22  C   UNL     1      44.428 128.123  23.599  1.00  0.00    -0.001 A 
ATOM     23  N   UNL     1      45.258 126.266  22.681  1.00  0.00    -0.361 N 
ATOM     24  C   UNL     1      44.205 127.102  24.496  1.00  0.00     0.028 A 
ATOM     25  C   UNL     1      44.734 125.966  23.892  1.00  0.00     0.083 A 
ATOM     26  H   UNL     1      45.714 125.605  22.014  1.00  0.00     0.166 HD
ENDBRANCH  11  17
ENDBRANCH   1   8
TORSDOF 5
ENDMDL


