REMARK SMILES C=Cc1cccc(-c2ccc3cc[nH]c3c2)c1
REMARK SMILES IDX 3 1 4 2 5 3 6 4 7 5 17 6 2 7 1 8 8 9 9 10 16 11 10 12 15 13
REMARK SMILES IDX 11 14 14 15 12 16 13 17
REMARK H PARENT 14 18
ROOT
ATOM      1  C   UNL     1      -0.710  -3.068   0.958  1.00  0.00    -0.026 A 
ATOM      2  C   UNL     1      -1.111  -3.719  -0.225  1.00  0.00     0.008 A 
ATOM      3  C   UNL     1      -1.273  -2.995  -1.408  1.00  0.00     0.001 A 
ATOM      4  C   UNL     1      -1.033  -1.621  -1.432  1.00  0.00     0.009 A 
ATOM      5  C   UNL     1      -0.620  -0.951  -0.268  1.00  0.00    -0.018 A 
ATOM      6  C   UNL     1      -0.458  -1.686   0.921  1.00  0.00     0.016 A 
ENDROOT
BRANCH   1   7
ATOM      7  C   UNL     1      -0.510  -3.791   2.239  1.00  0.00     0.000 C 
ATOM      8  C   UNL     1      -1.005  -5.001   2.504  1.00  0.00     0.009 C 
ENDBRANCH   1   7
BRANCH   5   9
ATOM      9  C   UNL     1      -0.359   0.511  -0.293  1.00  0.00    -0.016 A 
ATOM     10  C   UNL     1      -0.777   1.335   0.788  1.00  0.00     0.009 A 
ATOM     11  C   UNL     1       0.309   1.098  -1.395  1.00  0.00     0.035 A 
ATOM     12  C   UNL     1      -0.534   2.720   0.774  1.00  0.00     0.011 A 
ATOM     13  C   UNL     1       0.533   2.473  -1.374  1.00  0.00     0.046 A 
ATOM     14  C   UNL     1       0.126   3.254  -0.328  1.00  0.00    -0.001 A 
ATOM     15  N   UNL     1       1.147   3.213  -2.311  1.00  0.00    -0.361 N 
ATOM     16  C   UNL     1       0.496   4.550  -0.611  1.00  0.00     0.028 A 
ATOM     17  C   UNL     1       1.127   4.485  -1.850  1.00  0.00     0.083 A 
ATOM     18  H   UNL     1       1.557   2.881  -3.212  1.00  0.00     0.166 HD
ENDBRANCH   5   9
TORSDOF 2


