REMARK SMILES CC[C@@H](/[NH+]=C(/S)N(c1ccc2cc[nH]c2c1)c1cccc2c[nH+]oc12)c1ccccc1
REMARK SMILES IDX 5 1 6 2 7 4 8 5 9 6 16 7 10 8 15 9 11 10 14 11 12 12 13 13
REMARK SMILES IDX 17 15 18 16 25 17 19 18 24 19 21 20 20 21 23 22 22 23 4 25
REMARK SMILES IDX 3 27 26 28 27 29 31 30 28 31 30 32 29 33 2 34 1 35
REMARK H PARENT 6 3 14 14 23 24 4 26
ROOT
ATOM      1  C   UNL     1      -0.476  -1.218   0.382  1.00  0.00     0.314 C 
ENDROOT
BRANCH   1   2
ATOM      2  S   UNL     1      -0.342  -3.008   0.365  1.00  0.00    -0.055 SA
ATOM      3  H   UNL     1      -1.738  -3.178   0.376  1.00  0.00     0.116 HD
ENDBRANCH   1   2
BRANCH   1   4
ATOM      4  N   UNL     1      -0.472  -0.512  -0.873  1.00  0.00    -0.183 N 
BRANCH   4   5
ATOM      5  C   UNL     1       0.674  -0.650  -1.737  1.00  0.00     0.136 A 
ATOM      6  C   UNL     1       0.503  -0.852  -3.132  1.00  0.00     0.053 A 
ATOM      7  C   UNL     1       1.980  -0.598  -1.195  1.00  0.00     0.079 A 
ATOM      8  C   UNL     1       1.615  -0.992  -3.981  1.00  0.00     0.015 A 
ATOM      9  C   UNL     1       3.059  -0.740  -2.065  1.00  0.00     0.050 A 
ATOM     10  C   UNL     1       2.882  -0.929  -3.408  1.00  0.00    -0.000 A 
ATOM     11  N   UNL     1       4.365  -0.715  -1.754  1.00  0.00    -0.361 N 
ATOM     12  C   UNL     1       4.132  -1.030  -3.979  1.00  0.00     0.028 A 
ATOM     13  C   UNL     1       5.026  -0.893  -2.921  1.00  0.00     0.083 A 
ATOM     14  H   UNL     1       4.788  -0.586  -0.808  1.00  0.00     0.166 HD
ENDBRANCH   4   5
BRANCH   4  15
ATOM     15  C   UNL     1      -1.621   0.263  -1.285  1.00  0.00     0.184 A 
ATOM     16  C   UNL     1      -1.471   1.454  -2.037  1.00  0.00     0.057 A 
ATOM     17  C   UNL     1      -2.928  -0.103  -0.937  1.00  0.00     0.263 A 
ATOM     18  C   UNL     1      -2.598   2.222  -2.410  1.00  0.00     0.006 A 
ATOM     19  O   UNL     1      -3.341  -1.138  -0.246  1.00  0.00    -0.234 OA
ATOM     20  C   UNL     1      -4.013   0.647  -1.301  1.00  0.00     0.097 A 
ATOM     21  C   UNL     1      -3.893   1.819  -2.039  1.00  0.00     0.019 A 
ATOM     22  N   UNL     1      -4.641  -1.100  -0.136  1.00  0.00    -0.035 N 
ATOM     23  C   UNL     1      -5.105  -0.004  -0.777  1.00  0.00     0.369 A 
ATOM     24  H   UNL     1      -5.216  -1.808   0.373  1.00  0.00     0.516 HD
ENDBRANCH   4  15
ENDBRANCH   1   4
BRANCH   1  25
ATOM     25  N   UNL     1      -0.497  -0.591   1.527  1.00  0.00    -0.261 N 
ATOM     26  H   UNL     1      -0.507  -1.169   2.399  1.00  0.00     0.306 HD
BRANCH  25  27
ATOM     27  C   UNL     1      -0.479   0.874   1.678  1.00  0.00     0.204 C 
BRANCH  27  28
ATOM     28  C   UNL     1      -1.888   1.419   1.784  1.00  0.00    -0.004 A 
ATOM     29  C   UNL     1      -2.875   0.751   2.535  1.00  0.00     0.008 A 
ATOM     30  C   UNL     1      -2.214   2.640   1.165  1.00  0.00     0.008 A 
ATOM     31  C   UNL     1      -4.170   1.270   2.619  1.00  0.00     0.000 A 
ATOM     32  C   UNL     1      -3.510   3.155   1.254  1.00  0.00     0.000 A 
ATOM     33  C   UNL     1      -4.489   2.468   1.975  1.00  0.00     0.000 A 
ENDBRANCH  27  28
BRANCH  27  34
ATOM     34  C   UNL     1       0.328   1.277   2.926  1.00  0.00     0.051 C 
ATOM     35  C   UNL     1       1.801   0.889   2.803  1.00  0.00     0.009 C 
ENDBRANCH  27  34
ENDBRANCH  25  27
ENDBRANCH   1  25
TORSDOF 8


