MODEL 1
REMARK VINA RESULT:      -7.3      0.000      0.000
REMARK SMILES CO/C(O)=C\[C](C)Oc1ccc([C@H]2O[C@@H]2C(=O)c2ccc(F)cc2)cc1F
REMARK SMILES IDX 8 1 6 2 7 3 5 4 3 5 4 6 2 8 1 9 9 10 10 11 26 12 11 13 25 14
REMARK SMILES IDX 12 15 27 16 13 17 14 18 15 19 16 20 17 21 18 22 19 23 24 24
REMARK SMILES IDX 20 25 23 26 21 27 22 28
REMARK H PARENT 4 7
ROOT
ATOM      1  O   UNL     1      44.067 131.967  15.948  1.00  0.00    -0.476 OA
ENDROOT
BRANCH   1   2
ATOM      2  C   UNL     1      45.165 131.768  15.062  1.00  0.00     0.174 C 
ATOM      3  C   UNL     1      44.689 131.046  13.809  1.00  0.00     0.066 C 
BRANCH   2   4
ATOM      4  C   UNL     1      46.241 130.981  15.746  1.00  0.00     0.113 C 
BRANCH   4   5
ATOM      5  C   UNL     1      47.026 130.141  15.067  1.00  0.00     0.276 C 
BRANCH   5   6
ATOM      6  O   UNL     1      47.827 129.222  15.748  1.00  0.00    -0.481 OA
ATOM      7  H   UNL     1      47.737 129.068  16.746  1.00  0.00     0.296 HD
ENDBRANCH   5   6
BRANCH   5   8
ATOM      8  O   UNL     1      47.046 130.181  13.669  1.00  0.00    -0.469 OA
ATOM      9  C   UNL     1      48.054 130.872  12.944  1.00  0.00     0.282 C 
ENDBRANCH   5   8
ENDBRANCH   4   5
ENDBRANCH   2   4
ENDBRANCH   1   2
BRANCH   1  10
ATOM     10  C   UNL     1      44.139 131.789  17.337  1.00  0.00     0.156 A 
ATOM     11  C   UNL     1      45.331 131.409  17.982  1.00  0.00     0.050 A 
ATOM     12  C   UNL     1      42.986 132.008  18.103  1.00  0.00     0.165 A 
ATOM     13  C   UNL     1      45.359 131.237  19.369  1.00  0.00     0.010 A 
ATOM     14  C   UNL     1      43.016 131.838  19.491  1.00  0.00     0.049 A 
ATOM     15  C   UNL     1      44.197 131.431  20.129  1.00  0.00    -0.013 A 
ATOM     16  F   UNL     1      41.833 132.389  17.499  1.00  0.00    -0.203 F 
BRANCH  15  17
ATOM     17  C   UNL     1      44.245 131.272  21.620  1.00  0.00     0.186 C 
ATOM     18  O   UNL     1      43.166 131.928  22.249  1.00  0.00    -0.356 OA
ATOM     19  C   UNL     1      43.117 130.520  22.224  1.00  0.00     0.224 C 
BRANCH  19  20
ATOM     20  C   UNL     1      43.388 129.933  23.577  1.00  0.00     0.194 C 
ATOM     21  O   UNL     1      43.272 130.671  24.594  1.00  0.00    -0.291 OA
BRANCH  20  22
ATOM     22  C   UNL     1      43.764 128.506  23.740  1.00  0.00     0.021 A 
ATOM     23  C   UNL     1      42.947 127.617  24.464  1.00  0.00     0.015 A 
ATOM     24  C   UNL     1      44.957 128.020  23.171  1.00  0.00     0.015 A 
ATOM     25  C   UNL     1      43.311 126.274  24.608  1.00  0.00     0.040 A 
ATOM     26  C   UNL     1      45.317 126.676  23.317  1.00  0.00     0.040 A 
ATOM     27  C   UNL     1      44.495 125.804  24.034  1.00  0.00     0.123 A 
ATOM     28  F   UNL     1      44.846 124.502  24.174  1.00  0.00    -0.207 F 
ENDBRANCH  20  22
ENDBRANCH  19  20
ENDBRANCH  15  17
ENDBRANCH   1  10
TORSDOF 9
ENDMDL
MODEL 2
REMARK VINA RESULT:      -6.4      2.544      8.558
REMARK SMILES CO/C(O)=C\[C](C)Oc1ccc([C@H]2O[C@@H]2C(=O)c2ccc(F)cc2)cc1F
REMARK SMILES IDX 8 1 6 2 7 3 5 4 3 5 4 6 2 8 1 9 9 10 10 11 26 12 11 13 25 14
REMARK SMILES IDX 12 15 27 16 13 17 14 18 15 19 16 20 17 21 18 22 19 23 24 24
REMARK SMILES IDX 20 25 23 26 21 27 22 28
REMARK H PARENT 4 7
ROOT
ATOM      1  O   UNL     1      42.563 132.383  23.109  1.00  0.00    -0.476 OA
ENDROOT
BRANCH   1   2
ATOM      2  C   UNL     1      42.506 131.335  24.072  1.00  0.00     0.174 C 
ATOM      3  C   UNL     1      43.901 131.064  24.621  1.00  0.00     0.066 C 
BRANCH   2   4
ATOM      4  C   UNL     1      41.936 130.096  23.450  1.00  0.00     0.113 C 
BRANCH   4   5
ATOM      5  C   UNL     1      42.654 128.975  23.348  1.00  0.00     0.276 C 
BRANCH   5   6
ATOM      6  O   UNL     1      43.258 128.634  22.136  1.00  0.00    -0.481 OA
ATOM      7  H   UNL     1      44.104 128.076  22.097  1.00  0.00     0.296 HD
ENDBRANCH   5   6
BRANCH   5   8
ATOM      8  O   UNL     1      42.803 128.139  24.460  1.00  0.00    -0.469 OA
ATOM      9  C   UNL     1      43.740 127.071  24.487  1.00  0.00     0.282 C 
ENDBRANCH   5   8
ENDBRANCH   4   5
ENDBRANCH   2   4
ENDBRANCH   1   2
BRANCH   1  10
ATOM     10  C   UNL     1      43.074 132.229  21.814  1.00  0.00     0.156 A 
ATOM     11  C   UNL     1      42.285 132.441  20.667  1.00  0.00     0.050 A 
ATOM     12  C   UNL     1      44.418 131.863  21.660  1.00  0.00     0.165 A 
ATOM     13  C   UNL     1      42.832 132.271  19.392  1.00  0.00     0.010 A 
ATOM     14  C   UNL     1      44.965 131.695  20.384  1.00  0.00     0.049 A 
ATOM     15  C   UNL     1      44.170 131.878  19.243  1.00  0.00    -0.013 A 
ATOM     16  F   UNL     1      45.197 131.669  22.754  1.00  0.00    -0.203 F 
BRANCH  15  17
ATOM     17  C   UNL     1      44.756 131.728  17.871  1.00  0.00     0.186 C 
ATOM     18  O   UNL     1      45.151 130.398  17.615  1.00  0.00    -0.356 OA
ATOM     19  C   UNL     1      44.000 130.852  16.941  1.00  0.00     0.224 C 
BRANCH  19  20
ATOM     20  C   UNL     1      44.268 131.080  15.483  1.00  0.00     0.194 C 
ATOM     21  O   UNL     1      43.373 131.624  14.779  1.00  0.00    -0.291 OA
BRANCH  20  22
ATOM     22  C   UNL     1      45.565 130.702  14.866  1.00  0.00     0.021 A 
ATOM     23  C   UNL     1      46.265 129.556  15.291  1.00  0.00     0.015 A 
ATOM     24  C   UNL     1      46.119 131.495  13.843  1.00  0.00     0.015 A 
ATOM     25  C   UNL     1      47.484 129.210  14.699  1.00  0.00     0.040 A 
ATOM     26  C   UNL     1      47.339 131.145  13.255  1.00  0.00     0.040 A 
ATOM     27  C   UNL     1      48.021 130.002  13.682  1.00  0.00     0.123 A 
ATOM     28  F   UNL     1      49.202 129.664  13.110  1.00  0.00    -0.207 F 
ENDBRANCH  20  22
ENDBRANCH  19  20
ENDBRANCH  15  17
ENDBRANCH   1  10
TORSDOF 9
ENDMDL
MODEL 3
REMARK VINA RESULT:      -5.6      2.645      8.576
REMARK SMILES CO/C(O)=C\[C](C)Oc1ccc([C@H]2O[C@@H]2C(=O)c2ccc(F)cc2)cc1F
REMARK SMILES IDX 8 1 6 2 7 3 5 4 3 5 4 6 2 8 1 9 9 10 10 11 26 12 11 13 25 14
REMARK SMILES IDX 12 15 27 16 13 17 14 18 15 19 16 20 17 21 18 22 19 23 24 24
REMARK SMILES IDX 20 25 23 26 21 27 22 28
REMARK H PARENT 4 7
ROOT
ATOM      1  O   UNL     1      43.103 132.448  21.524  1.00  0.00    -0.476 OA
ENDROOT
BRANCH   1   2
ATOM      2  C   UNL     1      42.817 131.515  22.562  1.00  0.00     0.174 C 
ATOM      3  C   UNL     1      42.137 132.230  23.723  1.00  0.00     0.066 C 
BRANCH   2   4
ATOM      4  C   UNL     1      44.081 130.852  23.021  1.00  0.00     0.113 C 
BRANCH   4   5
ATOM      5  C   UNL     1      44.419 129.631  22.598  1.00  0.00     0.276 C 
BRANCH   5   6
ATOM      6  O   UNL     1      45.131 129.473  21.408  1.00  0.00    -0.481 OA
ATOM      7  H   UNL     1      45.161 130.198  20.700  1.00  0.00     0.296 HD
ENDBRANCH   5   6
BRANCH   5   8
ATOM      8  O   UNL     1      44.058 128.508  23.349  1.00  0.00    -0.469 OA
ATOM      9  C   UNL     1      43.428 128.614  24.619  1.00  0.00     0.282 C 
ENDBRANCH   5   8
ENDBRANCH   4   5
ENDBRANCH   2   4
ENDBRANCH   1   2
BRANCH   1  10
ATOM     10  C   UNL     1      43.164 132.112  20.165  1.00  0.00     0.156 A 
ATOM     11  C   UNL     1      42.006 131.936  19.385  1.00  0.00     0.050 A 
ATOM     12  C   UNL     1      44.422 131.959  19.566  1.00  0.00     0.165 A 
ATOM     13  C   UNL     1      42.110 131.595  18.033  1.00  0.00     0.010 A 
ATOM     14  C   UNL     1      44.526 131.621  18.213  1.00  0.00     0.049 A 
ATOM     15  C   UNL     1      43.370 131.417  17.444  1.00  0.00    -0.013 A 
ATOM     16  F   UNL     1      45.548 132.140  20.300  1.00  0.00    -0.203 F 
BRANCH  15  17
ATOM     17  C   UNL     1      43.472 131.081  15.986  1.00  0.00     0.186 C 
ATOM     18  O   UNL     1      42.830 132.046  15.182  1.00  0.00    -0.356 OA
ATOM     19  C   UNL     1      44.239 132.043  15.156  1.00  0.00     0.224 C 
BRANCH  19  20
ATOM     20  C   UNL     1      44.766 131.498  13.862  1.00  0.00     0.194 C 
ATOM     21  O   UNL     1      44.065 131.620  12.821  1.00  0.00    -0.291 OA
BRANCH  20  22
ATOM     22  C   UNL     1      46.097 130.845  13.784  1.00  0.00     0.021 A 
ATOM     23  C   UNL     1      46.493 129.884  14.734  1.00  0.00     0.015 A 
ATOM     24  C   UNL     1      46.992 131.185  12.750  1.00  0.00     0.015 A 
ATOM     25  C   UNL     1      47.749 129.275  14.647  1.00  0.00     0.040 A 
ATOM     26  C   UNL     1      48.247 130.572  12.667  1.00  0.00     0.040 A 
ATOM     27  C   UNL     1      48.625 129.617  13.614  1.00  0.00     0.123 A 
ATOM     28  F   UNL     1      49.842 129.025  13.532  1.00  0.00    -0.207 F 
ENDBRANCH  20  22
ENDBRANCH  19  20
ENDBRANCH  15  17
ENDBRANCH   1  10
TORSDOF 9
ENDMDL
MODEL 4
REMARK VINA RESULT:      -5.4      4.336      6.000
REMARK SMILES CO/C(O)=C\[C](C)Oc1ccc([C@H]2O[C@@H]2C(=O)c2ccc(F)cc2)cc1F
REMARK SMILES IDX 8 1 6 2 7 3 5 4 3 5 4 6 2 8 1 9 9 10 10 11 26 12 11 13 25 14
REMARK SMILES IDX 12 15 27 16 13 17 14 18 15 19 16 20 17 21 18 22 19 23 24 24
REMARK SMILES IDX 20 25 23 26 21 27 22 28
REMARK H PARENT 4 7
ROOT
ATOM      1  O   UNL     1      43.445 131.225  16.097  1.00  0.00    -0.476 OA
ENDROOT
BRANCH   1   2
ATOM      2  C   UNL     1      44.147 131.391  14.869  1.00  0.00     0.174 C 
ATOM      3  C   UNL     1      43.157 131.653  13.742  1.00  0.00     0.066 C 
BRANCH   2   4
ATOM      4  C   UNL     1      44.967 130.171  14.576  1.00  0.00     0.113 C 
BRANCH   4   5
ATOM      5  C   UNL     1      46.203 130.267  14.080  1.00  0.00     0.276 C 
BRANCH   5   6
ATOM      6  O   UNL     1      46.577 131.387  13.335  1.00  0.00    -0.481 OA
ATOM      7  H   UNL     1      47.023 132.191  13.763  1.00  0.00     0.296 HD
ENDBRANCH   5   6
BRANCH   5   8
ATOM      8  O   UNL     1      47.127 129.241  14.306  1.00  0.00    -0.469 OA
ATOM      9  C   UNL     1      48.469 129.313  13.847  1.00  0.00     0.282 C 
ENDBRANCH   5   8
ENDBRANCH   4   5
ENDBRANCH   2   4
ENDBRANCH   1   2
BRANCH   1  10
ATOM     10  C   UNL     1      43.983 131.530  17.355  1.00  0.00     0.156 A 
ATOM     11  C   UNL     1      45.325 131.256  17.681  1.00  0.00     0.050 A 
ATOM     12  C   UNL     1      43.158 132.137  18.310  1.00  0.00     0.165 A 
ATOM     13  C   UNL     1      45.822 131.571  18.949  1.00  0.00     0.010 A 
ATOM     14  C   UNL     1      43.656 132.454  19.578  1.00  0.00     0.049 A 
ATOM     15  C   UNL     1      44.985 132.154  19.911  1.00  0.00    -0.013 A 
ATOM     16  F   UNL     1      41.866 132.421  18.008  1.00  0.00    -0.203 F 
BRANCH  15  17
ATOM     17  C   UNL     1      45.536 132.515  21.259  1.00  0.00     0.186 C 
ATOM     18  O   UNL     1      46.571 131.641  21.652  1.00  0.00    -0.356 OA
ATOM     19  C   UNL     1      46.957 132.944  21.280  1.00  0.00     0.224 C 
BRANCH  19  20
ATOM     20  C   UNL     1      47.364 133.760  22.471  1.00  0.00     0.194 C 
ATOM     21  O   UNL     1      46.671 133.687  23.523  1.00  0.00    -0.291 OA
BRANCH  20  22
ATOM     22  C   UNL     1      48.570 134.625  22.439  1.00  0.00     0.021 A 
ATOM     23  C   UNL     1      49.620 134.443  23.359  1.00  0.00     0.015 A 
ATOM     24  C   UNL     1      48.678 135.653  21.482  1.00  0.00     0.015 A 
ATOM     25  C   UNL     1      50.752 135.263  23.317  1.00  0.00     0.040 A 
ATOM     26  C   UNL     1      49.812 136.471  21.444  1.00  0.00     0.040 A 
ATOM     27  C   UNL     1      50.849 136.276  22.359  1.00  0.00     0.123 A 
ATOM     28  F   UNL     1      51.947 137.070  22.320  1.00  0.00    -0.207 F 
ENDBRANCH  20  22
ENDBRANCH  19  20
ENDBRANCH  15  17
ENDBRANCH   1  10
TORSDOF 9
ENDMDL
MODEL 5
REMARK VINA RESULT:      -5.1      4.154      5.865
REMARK SMILES CO/C(O)=C\[C](C)Oc1ccc([C@H]2O[C@@H]2C(=O)c2ccc(F)cc2)cc1F
REMARK SMILES IDX 8 1 6 2 7 3 5 4 3 5 4 6 2 8 1 9 9 10 10 11 26 12 11 13 25 14
REMARK SMILES IDX 12 15 27 16 13 17 14 18 15 19 16 20 17 21 18 22 19 23 24 24
REMARK SMILES IDX 20 25 23 26 21 27 22 28
REMARK H PARENT 4 7
ROOT
ATOM      1  O   UNL     1      44.392 130.418  15.851  1.00  0.00    -0.476 OA
ENDROOT
BRANCH   1   2
ATOM      2  C   UNL     1      44.656 131.126  14.642  1.00  0.00     0.174 C 
ATOM      3  C   UNL     1      43.343 131.461  13.946  1.00  0.00     0.066 C 
BRANCH   2   4
ATOM      4  C   UNL     1      45.531 130.304  13.746  1.00  0.00     0.113 C 
BRANCH   4   5
ATOM      5  C   UNL     1      46.751 129.918  14.129  1.00  0.00     0.276 C 
BRANCH   5   6
ATOM      6  O   UNL     1      46.941 129.331  15.381  1.00  0.00    -0.481 OA
ATOM      7  H   UNL     1      47.635 129.677  16.035  1.00  0.00     0.296 HD
ENDBRANCH   5   6
BRANCH   5   8
ATOM      8  O   UNL     1      47.841 130.102  13.272  1.00  0.00    -0.469 OA
ATOM      9  C   UNL     1      48.024 131.294  12.521  1.00  0.00     0.282 C 
ENDBRANCH   5   8
ENDBRANCH   4   5
ENDBRANCH   2   4
ENDBRANCH   1   2
BRANCH   1  10
ATOM     10  C   UNL     1      44.665 130.923  17.129  1.00  0.00     0.156 A 
ATOM     11  C   UNL     1      45.818 130.556  17.849  1.00  0.00     0.050 A 
ATOM     12  C   UNL     1      43.763 131.831  17.700  1.00  0.00     0.165 A 
ATOM     13  C   UNL     1      46.050 131.079  19.125  1.00  0.00     0.010 A 
ATOM     14  C   UNL     1      43.997 132.354  18.976  1.00  0.00     0.049 A 
ATOM     15  C   UNL     1      45.132 131.966  19.703  1.00  0.00    -0.013 A 
ATOM     16  F   UNL     1      42.654 132.206  17.015  1.00  0.00    -0.203 F 
BRANCH  15  17
ATOM     17  C   UNL     1      45.405 132.544  21.060  1.00  0.00     0.186 C 
ATOM     18  O   UNL     1      45.976 131.590  21.928  1.00  0.00    -0.356 OA
ATOM     19  C   UNL     1      46.833 132.604  21.458  1.00  0.00     0.224 C 
BRANCH  19  20
ATOM     20  C   UNL     1      47.159 133.596  22.535  1.00  0.00     0.194 C 
ATOM     21  O   UNL     1      46.445 133.619  23.575  1.00  0.00    -0.291 OA
BRANCH  20  22
ATOM     22  C   UNL     1      48.310 134.525  22.409  1.00  0.00     0.021 A 
ATOM     23  C   UNL     1      48.322 135.539  21.433  1.00  0.00     0.015 A 
ATOM     24  C   UNL     1      49.419 134.398  23.269  1.00  0.00     0.015 A 
ATOM     25  C   UNL     1      49.411 136.410  21.326  1.00  0.00     0.040 A 
ATOM     26  C   UNL     1      50.506 135.270  23.158  1.00  0.00     0.040 A 
ATOM     27  C   UNL     1      50.503 136.276  22.188  1.00  0.00     0.123 A 
ATOM     28  F   UNL     1      51.558 137.121  22.083  1.00  0.00    -0.207 F 
ENDBRANCH  20  22
ENDBRANCH  19  20
ENDBRANCH  15  17
ENDBRANCH   1  10
TORSDOF 9
ENDMDL
MODEL 6
REMARK VINA RESULT:      -4.9      4.509      6.249
REMARK SMILES CO/C(O)=C\[C](C)Oc1ccc([C@H]2O[C@@H]2C(=O)c2ccc(F)cc2)cc1F
REMARK SMILES IDX 8 1 6 2 7 3 5 4 3 5 4 6 2 8 1 9 9 10 10 11 26 12 11 13 25 14
REMARK SMILES IDX 12 15 27 16 13 17 14 18 15 19 16 20 17 21 18 22 19 23 24 24
REMARK SMILES IDX 20 25 23 26 21 27 22 28
REMARK H PARENT 4 7
ROOT
ATOM      1  O   UNL     1      43.766 130.569  16.171  1.00  0.00    -0.476 OA
ENDROOT
BRANCH   1   2
ATOM      2  C   UNL     1      44.500 129.985  15.098  1.00  0.00     0.174 C 
ATOM      3  C   UNL     1      45.610 129.103  15.656  1.00  0.00     0.066 C 
BRANCH   2   4
ATOM      4  C   UNL     1      45.071 131.058  14.221  1.00  0.00     0.113 C 
BRANCH   4   5
ATOM      5  C   UNL     1      46.119 131.789  14.609  1.00  0.00     0.276 C 
BRANCH   5   6
ATOM      6  O   UNL     1      45.977 132.738  15.624  1.00  0.00    -0.481 OA
ATOM      7  H   UNL     1      45.289 132.634  16.362  1.00  0.00     0.296 HD
ENDBRANCH   5   6
BRANCH   5   8
ATOM      8  O   UNL     1      47.363 131.603  13.998  1.00  0.00    -0.469 OA
ATOM      9  C   UNL     1      47.631 130.502  13.141  1.00  0.00     0.282 C 
ENDBRANCH   5   8
ENDBRANCH   4   5
ENDBRANCH   2   4
ENDBRANCH   1   2
BRANCH   1  10
ATOM     10  C   UNL     1      44.340 130.974  17.383  1.00  0.00     0.156 A 
ATOM     11  C   UNL     1      45.580 130.476  17.828  1.00  0.00     0.050 A 
ATOM     12  C   UNL     1      43.659 131.914  18.169  1.00  0.00     0.165 A 
ATOM     13  C   UNL     1      46.115 130.902  19.047  1.00  0.00     0.010 A 
ATOM     14  C   UNL     1      44.196 132.341  19.387  1.00  0.00     0.049 A 
ATOM     15  C   UNL     1      45.418 131.822  19.843  1.00  0.00    -0.013 A 
ATOM     16  F   UNL     1      42.470 132.414  17.748  1.00  0.00    -0.203 F 
BRANCH  15  17
ATOM     17  C   UNL     1      46.015 132.296  21.135  1.00  0.00     0.186 C 
ATOM     18  O   UNL     1      47.322 131.798  21.318  1.00  0.00    -0.356 OA
ATOM     19  C   UNL     1      47.209 133.168  21.010  1.00  0.00     0.224 C 
BRANCH  19  20
ATOM     20  C   UNL     1      47.503 134.029  22.203  1.00  0.00     0.194 C 
ATOM     21  O   UNL     1      46.708 134.002  23.182  1.00  0.00    -0.291 OA
BRANCH  20  22
ATOM     22  C   UNL     1      48.715 134.885  22.259  1.00  0.00     0.021 A 
ATOM     23  C   UNL     1      48.907 135.934  21.340  1.00  0.00     0.015 A 
ATOM     24  C   UNL     1      49.699 134.653  23.239  1.00  0.00     0.015 A 
ATOM     25  C   UNL     1      50.052 136.735  21.405  1.00  0.00     0.040 A 
ATOM     26  C   UNL     1      50.843 135.457  23.300  1.00  0.00     0.040 A 
ATOM     27  C   UNL     1      51.019 136.497  22.385  1.00  0.00     0.123 A 
ATOM     28  F   UNL     1      52.127 137.275  22.447  1.00  0.00    -0.207 F 
ENDBRANCH  20  22
ENDBRANCH  19  20
ENDBRANCH  15  17
ENDBRANCH   1  10
TORSDOF 9
ENDMDL
MODEL 7
REMARK VINA RESULT:      -4.8      1.227      1.883
REMARK SMILES CO/C(O)=C\[C](C)Oc1ccc([C@H]2O[C@@H]2C(=O)c2ccc(F)cc2)cc1F
REMARK SMILES IDX 8 1 6 2 7 3 5 4 3 5 4 6 2 8 1 9 9 10 10 11 26 12 11 13 25 14
REMARK SMILES IDX 12 15 27 16 13 17 14 18 15 19 16 20 17 21 18 22 19 23 24 24
REMARK SMILES IDX 20 25 23 26 21 27 22 28
REMARK H PARENT 4 7
ROOT
ATOM      1  O   UNL     1      43.987 131.416  15.899  1.00  0.00    -0.476 OA
ENDROOT
BRANCH   1   2
ATOM      2  C   UNL     1      44.978 132.027  15.077  1.00  0.00     0.174 C 
ATOM      3  C   UNL     1      44.508 132.039  13.628  1.00  0.00     0.066 C 
BRANCH   2   4
ATOM      4  C   UNL     1      46.277 131.289  15.203  1.00  0.00     0.113 C 
BRANCH   4   5
ATOM      5  C   UNL     1      46.890 130.773  14.134  1.00  0.00     0.276 C 
BRANCH   5   6
ATOM      6  O   UNL     1      46.531 131.188  12.850  1.00  0.00    -0.481 OA
ATOM      7  H   UNL     1      46.205 132.130  12.662  1.00  0.00     0.296 HD
ENDBRANCH   5   6
BRANCH   5   8
ATOM      8  O   UNL     1      47.894 129.814  14.302  1.00  0.00    -0.469 OA
ATOM      9  C   UNL     1      48.685 129.346  13.218  1.00  0.00     0.282 C 
ENDBRANCH   5   8
ENDBRANCH   4   5
ENDBRANCH   2   4
ENDBRANCH   1   2
BRANCH   1  10
ATOM     10  C   UNL     1      44.051 131.370  17.298  1.00  0.00     0.156 A 
ATOM     11  C   UNL     1      43.204 132.146  18.113  1.00  0.00     0.050 A 
ATOM     12  C   UNL     1      44.982 130.514  17.901  1.00  0.00     0.165 A 
ATOM     13  C   UNL     1      43.304 132.075  19.505  1.00  0.00     0.010 A 
ATOM     14  C   UNL     1      45.080 130.442  19.294  1.00  0.00     0.049 A 
ATOM     15  C   UNL     1      44.255 131.237  20.104  1.00  0.00    -0.013 A 
ATOM     16  F   UNL     1      45.797 129.749  17.132  1.00  0.00    -0.203 F 
BRANCH  15  17
ATOM     17  C   UNL     1      44.334 131.146  21.599  1.00  0.00     0.186 C 
ATOM     18  O   UNL     1      43.436 132.037  22.224  1.00  0.00    -0.356 OA
ATOM     19  C   UNL     1      43.104 130.669  22.280  1.00  0.00     0.224 C 
BRANCH  19  20
ATOM     20  C   UNL     1      43.309 130.106  23.655  1.00  0.00     0.194 C 
ATOM     21  O   UNL     1      43.435 130.903  24.625  1.00  0.00    -0.291 OA
BRANCH  20  22
ATOM     22  C   UNL     1      43.342 128.641  23.894  1.00  0.00     0.021 A 
ATOM     23  C   UNL     1      44.553 127.924  23.849  1.00  0.00     0.015 A 
ATOM     24  C   UNL     1      42.150 127.942  24.167  1.00  0.00     0.015 A 
ATOM     25  C   UNL     1      44.570 126.544  24.079  1.00  0.00     0.040 A 
ATOM     26  C   UNL     1      42.172 126.563  24.396  1.00  0.00     0.040 A 
ATOM     27  C   UNL     1      43.381 125.864  24.353  1.00  0.00     0.123 A 
ATOM     28  F   UNL     1      43.400 124.527  24.576  1.00  0.00    -0.207 F 
ENDBRANCH  20  22
ENDBRANCH  19  20
ENDBRANCH  15  17
ENDBRANCH   1  10
TORSDOF 9
ENDMDL
MODEL 8
REMARK VINA RESULT:      -4.5      4.097      7.978
REMARK SMILES CO/C(O)=C\[C](C)Oc1ccc([C@H]2O[C@@H]2C(=O)c2ccc(F)cc2)cc1F
REMARK SMILES IDX 8 1 6 2 7 3 5 4 3 5 4 6 2 8 1 9 9 10 10 11 26 12 11 13 25 14
REMARK SMILES IDX 12 15 27 16 13 17 14 18 15 19 16 20 17 21 18 22 19 23 24 24
REMARK SMILES IDX 20 25 23 26 21 27 22 28
REMARK H PARENT 4 7
ROOT
ATOM      1  O   UNL     1      47.567 124.565  21.997  1.00  0.00    -0.476 OA
ENDROOT
BRANCH   1   2
ATOM      2  C   UNL     1      47.833 123.442  22.834  1.00  0.00     0.174 C 
ATOM      3  C   UNL     1      48.074 123.912  24.263  1.00  0.00     0.066 C 
BRANCH   2   4
ATOM      4  C   UNL     1      49.024 122.689  22.321  1.00  0.00     0.113 C 
BRANCH   4   5
ATOM      5  C   UNL     1      49.955 123.287  21.574  1.00  0.00     0.276 C 
BRANCH   5   6
ATOM      6  O   UNL     1      51.100 123.819  22.171  1.00  0.00    -0.481 OA
ATOM      7  H   UNL     1      52.032 123.576  21.855  1.00  0.00     0.296 HD
ENDBRANCH   5   6
BRANCH   5   8
ATOM      8  O   UNL     1      49.784 123.380  20.189  1.00  0.00    -0.469 OA
ATOM      9  C   UNL     1      50.250 122.376  19.298  1.00  0.00     0.282 C 
ENDBRANCH   5   8
ENDBRANCH   4   5
ENDBRANCH   2   4
ENDBRANCH   1   2
BRANCH   1  10
ATOM     10  C   UNL     1      46.633 125.564  22.303  1.00  0.00     0.156 A 
ATOM     11  C   UNL     1      46.946 126.934  22.211  1.00  0.00     0.050 A 
ATOM     12  C   UNL     1      45.345 125.183  22.701  1.00  0.00     0.165 A 
ATOM     13  C   UNL     1      45.987 127.900  22.530  1.00  0.00     0.010 A 
ATOM     14  C   UNL     1      44.386 126.149  23.018  1.00  0.00     0.049 A 
ATOM     15  C   UNL     1      44.708 127.513  22.954  1.00  0.00    -0.013 A 
ATOM     16  F   UNL     1      45.023 123.867  22.780  1.00  0.00    -0.203 F 
BRANCH  15  17
ATOM     17  C   UNL     1      43.677 128.558  23.265  1.00  0.00     0.186 C 
ATOM     18  O   UNL     1      43.897 129.147  24.528  1.00  0.00    -0.356 OA
ATOM     19  C   UNL     1      44.187 129.944  23.403  1.00  0.00     0.224 C 
BRANCH  19  20
ATOM     20  C   UNL     1      43.166 131.026  23.213  1.00  0.00     0.194 C 
ATOM     21  O   UNL     1      42.624 131.535  24.233  1.00  0.00    -0.291 OA
BRANCH  20  22
ATOM     22  C   UNL     1      42.803 131.519  21.861  1.00  0.00     0.021 A 
ATOM     23  C   UNL     1      43.444 131.022  20.710  1.00  0.00     0.015 A 
ATOM     24  C   UNL     1      41.807 132.504  21.710  1.00  0.00     0.015 A 
ATOM     25  C   UNL     1      43.090 131.492  19.441  1.00  0.00     0.040 A 
ATOM     26  C   UNL     1      41.457 132.971  20.439  1.00  0.00     0.040 A 
ATOM     27  C   UNL     1      42.097 132.466  19.305  1.00  0.00     0.123 A 
ATOM     28  F   UNL     1      41.756 132.920  18.074  1.00  0.00    -0.207 F 
ENDBRANCH  20  22
ENDBRANCH  19  20
ENDBRANCH  15  17
ENDBRANCH   1  10
TORSDOF 9
ENDMDL
MODEL 9
REMARK VINA RESULT:      -4.4      4.687      5.986
REMARK SMILES CO/C(O)=C\[C](C)Oc1ccc([C@H]2O[C@@H]2C(=O)c2ccc(F)cc2)cc1F
REMARK SMILES IDX 8 1 6 2 7 3 5 4 3 5 4 6 2 8 1 9 9 10 10 11 26 12 11 13 25 14
REMARK SMILES IDX 12 15 27 16 13 17 14 18 15 19 16 20 17 21 18 22 19 23 24 24
REMARK SMILES IDX 20 25 23 26 21 27 22 28
REMARK H PARENT 4 7
ROOT
ATOM      1  O   UNL     1      43.837 130.958  16.337  1.00  0.00    -0.476 OA
ENDROOT
BRANCH   1   2
ATOM      2  C   UNL     1      44.039 131.726  15.154  1.00  0.00     0.174 C 
ATOM      3  C   UNL     1      43.210 131.144  14.016  1.00  0.00     0.066 C 
BRANCH   2   4
ATOM      4  C   UNL     1      45.494 131.739  14.791  1.00  0.00     0.113 C 
BRANCH   4   5
ATOM      5  C   UNL     1      46.051 130.731  14.115  1.00  0.00     0.276 C 
BRANCH   5   6
ATOM      6  O   UNL     1      46.001 129.432  14.623  1.00  0.00    -0.481 OA
ATOM      7  H   UNL     1      45.795 129.245  15.598  1.00  0.00     0.296 HD
ENDBRANCH   5   6
BRANCH   5   8
ATOM      8  O   UNL     1      46.686 130.978  12.894  1.00  0.00    -0.469 OA
ATOM      9  C   UNL     1      48.099 131.072  12.778  1.00  0.00     0.282 C 
ENDBRANCH   5   8
ENDBRANCH   4   5
ENDBRANCH   2   4
ENDBRANCH   1   2
BRANCH   1  10
ATOM     10  C   UNL     1      44.360 131.301  17.592  1.00  0.00     0.156 A 
ATOM     11  C   UNL     1      43.729 132.236  18.435  1.00  0.00     0.050 A 
ATOM     12  C   UNL     1      45.542 130.683  18.020  1.00  0.00     0.165 A 
ATOM     13  C   UNL     1      44.287 132.555  19.677  1.00  0.00     0.010 A 
ATOM     14  C   UNL     1      46.098 131.001  19.263  1.00  0.00     0.049 A 
ATOM     15  C   UNL     1      45.484 131.953  20.090  1.00  0.00    -0.013 A 
ATOM     16  F   UNL     1      46.155 129.769  17.226  1.00  0.00    -0.203 F 
BRANCH  15  17
ATOM     17  C   UNL     1      46.057 132.280  21.437  1.00  0.00     0.186 C 
ATOM     18  O   UNL     1      47.402 131.867  21.546  1.00  0.00    -0.356 OA
ATOM     19  C   UNL     1      47.177 133.254  21.440  1.00  0.00     0.224 C 
BRANCH  19  20
ATOM     20  C   UNL     1      47.416 133.952  22.746  1.00  0.00     0.194 C 
ATOM     21  O   UNL     1      46.455 134.077  23.553  1.00  0.00    -0.291 OA
BRANCH  20  22
ATOM     22  C   UNL     1      48.758 134.472  23.110  1.00  0.00     0.021 A 
ATOM     23  C   UNL     1      49.405 135.437  22.314  1.00  0.00     0.015 A 
ATOM     24  C   UNL     1      49.411 133.999  24.265  1.00  0.00     0.015 A 
ATOM     25  C   UNL     1      50.668 135.921  22.670  1.00  0.00     0.040 A 
ATOM     26  C   UNL     1      50.674 134.485  24.617  1.00  0.00     0.040 A 
ATOM     27  C   UNL     1      51.302 135.446  23.821  1.00  0.00     0.123 A 
ATOM     28  F   UNL     1      52.526 135.917  24.164  1.00  0.00    -0.207 F 
ENDBRANCH  20  22
ENDBRANCH  19  20
ENDBRANCH  15  17
ENDBRANCH   1  10
TORSDOF 9
ENDMDL


