MODEL 1
REMARK VINA RESULT:      -9.6      0.000      0.000
REMARK SMILES Cc1ccc(CCC([O-])=C2CCC2)c(C)c1
REMARK SMILES IDX 6 1 5 2 2 3 3 4 16 5 4 6 14 7 1 8 15 9 7 10 8 11 9 12 10 13
REMARK SMILES IDX 11 14 13 15 12 16
REMARK H PARENT
ROOT
ATOM      1  C   UNL     1      44.864 131.453  17.456  1.00  0.00     0.039 C 
ENDROOT
BRANCH   1   2
ATOM      2  C   UNL     1      44.494 131.489  18.925  1.00  0.00    -0.045 A 
ATOM      3  C   UNL     1      43.906 131.419  21.684  1.00  0.00    -0.051 A 
ATOM      4  C   UNL     1      45.198 131.138  21.230  1.00  0.00     0.004 A 
ATOM      5  C   UNL     1      42.912 131.768  20.760  1.00  0.00     0.007 A 
ATOM      6  C   UNL     1      45.488 131.167  19.865  1.00  0.00     0.004 A 
ATOM      7  C   UNL     1      43.185 131.800  19.381  1.00  0.00    -0.048 A 
ATOM      8  C   UNL     1      43.605 131.420  23.153  1.00  0.00     0.044 C 
ATOM      9  C   UNL     1      42.084 132.196  18.432  1.00  0.00     0.044 C 
ENDBRANCH   1   2
BRANCH   1  10
ATOM     10  C   UNL     1      45.958 130.414  17.165  1.00  0.00     0.023 C 
BRANCH  10  11
ATOM     11  C   UNL     1      45.813 129.821  15.792  1.00  0.00    -0.133 C 
ATOM     12  O   UNL     1      44.861 128.832  15.576  1.00  0.00    -0.875 OA
BRANCH  11  13
ATOM     13  C   UNL     1      46.594 130.205  14.784  1.00  0.00    -0.082 C 
ATOM     14  C   UNL     1      46.835 131.452  13.953  1.00  0.00     0.030 C 
ATOM     15  C   UNL     1      47.674 129.577  13.926  1.00  0.00     0.030 C 
ATOM     16  C   UNL     1      47.897 130.814  13.117  1.00  0.00     0.009 C 
ENDBRANCH  11  13
ENDBRANCH  10  11
ENDBRANCH   1  10
TORSDOF 4
ENDMDL
MODEL 2
REMARK VINA RESULT:      -9.2      1.033      1.218
REMARK SMILES Cc1ccc(CCC([O-])=C2CCC2)c(C)c1
REMARK SMILES IDX 6 1 5 2 2 3 3 4 16 5 4 6 14 7 1 8 15 9 7 10 8 11 9 12 10 13
REMARK SMILES IDX 11 14 13 15 12 16
REMARK H PARENT
ROOT
ATOM      1  C   UNL     1      44.882 131.784  17.227  1.00  0.00     0.039 C 
ENDROOT
BRANCH   1   2
ATOM      2  C   UNL     1      44.622 131.529  18.698  1.00  0.00    -0.045 A 
ATOM      3  C   UNL     1      44.240 130.916  21.425  1.00  0.00    -0.051 A 
ATOM      4  C   UNL     1      45.495 130.743  20.832  1.00  0.00     0.004 A 
ATOM      5  C   UNL     1      43.182 131.427  20.663  1.00  0.00     0.007 A 
ATOM      6  C   UNL     1      45.682 131.041  19.481  1.00  0.00     0.004 A 
ATOM      7  C   UNL     1      43.353 131.731  19.300  1.00  0.00    -0.048 A 
ATOM      8  C   UNL     1      44.050 130.627  22.884  1.00  0.00     0.044 C 
ATOM      9  C   UNL     1      42.186 132.293  18.531  1.00  0.00     0.044 C 
ENDBRANCH   1   2
BRANCH   1  10
ATOM     10  C   UNL     1      44.866 130.485  16.407  1.00  0.00     0.023 C 
BRANCH  10  11
ATOM     11  C   UNL     1      45.077 130.747  14.943  1.00  0.00    -0.133 C 
ATOM     12  O   UNL     1      44.034 131.273  14.190  1.00  0.00    -0.875 OA
BRANCH  11  13
ATOM     13  C   UNL     1      46.232 130.462  14.346  1.00  0.00    -0.082 C 
ATOM     14  C   UNL     1      47.311 129.397  14.422  1.00  0.00     0.030 C 
ATOM     15  C   UNL     1      47.088 131.071  13.253  1.00  0.00     0.030 C 
ATOM     16  C   UNL     1      48.140 130.014  13.343  1.00  0.00     0.009 C 
ENDBRANCH  11  13
ENDBRANCH  10  11
ENDBRANCH   1  10
TORSDOF 4
ENDMDL
MODEL 3
REMARK VINA RESULT:      -9.1      1.271      2.413
REMARK SMILES Cc1ccc(CCC([O-])=C2CCC2)c(C)c1
REMARK SMILES IDX 6 1 5 2 2 3 3 4 16 5 4 6 14 7 1 8 15 9 7 10 8 11 9 12 10 13
REMARK SMILES IDX 11 14 13 15 12 16
REMARK H PARENT
ROOT
ATOM      1  C   UNL     1      45.696 130.644  17.311  1.00  0.00     0.039 C 
ENDROOT
BRANCH   1   2
ATOM      2  C   UNL     1      44.635 131.225  18.223  1.00  0.00    -0.045 A 
ATOM      3  C   UNL     1      42.618 132.415  19.797  1.00  0.00    -0.051 A 
ATOM      4  C   UNL     1      42.414 132.205  18.429  1.00  0.00     0.004 A 
ATOM      5  C   UNL     1      43.818 131.999  20.387  1.00  0.00     0.007 A 
ATOM      6  C   UNL     1      43.414 131.621  17.650  1.00  0.00     0.004 A 
ATOM      7  C   UNL     1      44.838 131.411  19.616  1.00  0.00    -0.048 A 
ATOM      8  C   UNL     1      41.529 133.011  20.639  1.00  0.00     0.044 C 
ATOM      9  C   UNL     1      46.103 130.969  20.304  1.00  0.00     0.044 C 
ENDBRANCH   1   2
BRANCH   1  10
ATOM     10  C   UNL     1      45.082 129.806  16.178  1.00  0.00     0.023 C 
BRANCH  10  11
ATOM     11  C   UNL     1      45.321 130.430  14.832  1.00  0.00    -0.133 C 
ATOM     12  O   UNL     1      44.298 131.149  14.226  1.00  0.00    -0.875 OA
BRANCH  11  13
ATOM     13  C   UNL     1      46.482 130.286  14.196  1.00  0.00    -0.082 C 
ATOM     14  C   UNL     1      47.641 129.306  14.168  1.00  0.00     0.030 C 
ATOM     15  C   UNL     1      47.264 131.047  13.144  1.00  0.00     0.030 C 
ATOM     16  C   UNL     1      48.396 130.071  13.131  1.00  0.00     0.009 C 
ENDBRANCH  11  13
ENDBRANCH  10  11
ENDBRANCH   1  10
TORSDOF 4
ENDMDL
MODEL 4
REMARK VINA RESULT:      -8.7      1.922      6.678
REMARK SMILES Cc1ccc(CCC([O-])=C2CCC2)c(C)c1
REMARK SMILES IDX 6 1 5 2 2 3 3 4 16 5 4 6 14 7 1 8 15 9 7 10 8 11 9 12 10 13
REMARK SMILES IDX 11 14 13 15 12 16
REMARK H PARENT
ROOT
ATOM      1  C   UNL     1      43.785 131.493  17.130  1.00  0.00     0.039 C 
ENDROOT
BRANCH   1   2
ATOM      2  C   UNL     1      44.839 131.020  16.149  1.00  0.00    -0.045 A 
ATOM      3  C   UNL     1      46.920 130.190  14.434  1.00  0.00    -0.051 A 
ATOM      4  C   UNL     1      47.029 130.006  15.816  1.00  0.00     0.004 A 
ATOM      5  C   UNL     1      45.756 130.761  13.904  1.00  0.00     0.007 A 
ATOM      6  C   UNL     1      46.001 130.421  16.665  1.00  0.00     0.004 A 
ATOM      7  C   UNL     1      44.712 131.187  14.745  1.00  0.00    -0.048 A 
ATOM      8  C   UNL     1      48.010 129.713  13.522  1.00  0.00     0.044 C 
ATOM      9  C   UNL     1      43.475 131.780  14.122  1.00  0.00     0.044 C 
ENDBRANCH   1   2
BRANCH   1  10
ATOM     10  C   UNL     1      44.368 131.717  18.534  1.00  0.00     0.023 C 
BRANCH  10  11
ATOM     11  C   UNL     1      43.288 131.863  19.568  1.00  0.00    -0.133 C 
ATOM     12  O   UNL     1      42.049 132.365  19.191  1.00  0.00    -0.875 OA
BRANCH  11  13
ATOM     13  C   UNL     1      43.502 131.547  20.844  1.00  0.00    -0.082 C 
ATOM     14  C   UNL     1      42.811 131.727  22.184  1.00  0.00     0.030 C 
ATOM     15  C   UNL     1      44.573 130.824  21.636  1.00  0.00     0.030 C 
ATOM     16  C   UNL     1      43.879 131.011  22.946  1.00  0.00     0.009 C 
ENDBRANCH  11  13
ENDBRANCH  10  11
ENDBRANCH   1  10
TORSDOF 4
ENDMDL
MODEL 5
REMARK VINA RESULT:      -8.6      0.999      2.151
REMARK SMILES Cc1ccc(CCC([O-])=C2CCC2)c(C)c1
REMARK SMILES IDX 6 1 5 2 2 3 3 4 16 5 4 6 14 7 1 8 15 9 7 10 8 11 9 12 10 13
REMARK SMILES IDX 11 14 13 15 12 16
REMARK H PARENT
ROOT
ATOM      1  C   UNL     1      45.298 131.060  17.372  1.00  0.00     0.039 C 
ENDROOT
BRANCH   1   2
ATOM      2  C   UNL     1      44.268 131.531  18.379  1.00  0.00    -0.045 A 
ATOM      3  C   UNL     1      42.297 132.522  20.137  1.00  0.00    -0.051 A 
ATOM      4  C   UNL     1      42.021 132.384  18.773  1.00  0.00     0.004 A 
ATOM      5  C   UNL     1      43.549 132.133  20.631  1.00  0.00     0.007 A 
ATOM      6  C   UNL     1      42.998 131.899  17.903  1.00  0.00     0.004 A 
ATOM      7  C   UNL     1      44.546 131.644  19.767  1.00  0.00    -0.048 A 
ATOM      8  C   UNL     1      41.234 133.011  21.076  1.00  0.00     0.044 C 
ATOM      9  C   UNL     1      45.870 131.225  20.352  1.00  0.00     0.044 C 
ENDBRANCH   1   2
BRANCH   1  10
ATOM     10  C   UNL     1      44.684 130.847  15.980  1.00  0.00     0.023 C 
BRANCH  10  11
ATOM     11  C   UNL     1      45.391 129.762  15.219  1.00  0.00    -0.133 C 
ATOM     12  O   UNL     1      44.997 128.441  15.395  1.00  0.00    -0.875 OA
BRANCH  11  13
ATOM     13  C   UNL     1      46.405 130.036  14.400  1.00  0.00    -0.082 C 
ATOM     14  C   UNL     1      46.771 131.086  13.368  1.00  0.00     0.030 C 
ATOM     15  C   UNL     1      47.751 129.422  14.069  1.00  0.00     0.030 C 
ATOM     16  C   UNL     1      48.094 130.466  13.055  1.00  0.00     0.009 C 
ENDBRANCH  11  13
ENDBRANCH  10  11
ENDBRANCH   1  10
TORSDOF 4
ENDMDL
MODEL 6
REMARK VINA RESULT:      -8.4      1.352      2.379
REMARK SMILES Cc1ccc(CCC([O-])=C2CCC2)c(C)c1
REMARK SMILES IDX 6 1 5 2 2 3 3 4 16 5 4 6 14 7 1 8 15 9 7 10 8 11 9 12 10 13
REMARK SMILES IDX 11 14 13 15 12 16
REMARK H PARENT
ROOT
ATOM      1  C   UNL     1      44.747 131.665  17.640  1.00  0.00     0.039 C 
ENDROOT
BRANCH   1   2
ATOM      2  C   UNL     1      44.229 131.640  19.064  1.00  0.00    -0.045 A 
ATOM      3  C   UNL     1      43.193 131.747  21.686  1.00  0.00    -0.051 A 
ATOM      4  C   UNL     1      42.445 132.237  20.611  1.00  0.00     0.004 A 
ATOM      5  C   UNL     1      44.448 131.173  21.448  1.00  0.00     0.007 A 
ATOM      6  C   UNL     1      42.959 132.189  19.315  1.00  0.00     0.004 A 
ATOM      7  C   UNL     1      44.983 131.118  20.148  1.00  0.00    -0.048 A 
ATOM      8  C   UNL     1      42.624 131.769  23.074  1.00  0.00     0.044 C 
ATOM      9  C   UNL     1      46.331 130.476  19.944  1.00  0.00     0.044 C 
ENDBRANCH   1   2
BRANCH   1  10
ATOM     10  C   UNL     1      43.621 131.462  16.615  1.00  0.00     0.023 C 
BRANCH  10  11
ATOM     11  C   UNL     1      44.152 131.384  15.212  1.00  0.00    -0.133 C 
ATOM     12  O   UNL     1      43.386 131.885  14.167  1.00  0.00    -0.875 OA
BRANCH  11  13
ATOM     13  C   UNL     1      45.329 130.822  14.946  1.00  0.00    -0.082 C 
ATOM     14  C   UNL     1      45.988 129.462  15.084  1.00  0.00     0.030 C 
ATOM     15  C   UNL     1      46.651 131.262  14.350  1.00  0.00     0.030 C 
ATOM     16  C   UNL     1      47.284 129.916  14.495  1.00  0.00     0.009 C 
ENDBRANCH  11  13
ENDBRANCH  10  11
ENDBRANCH   1  10
TORSDOF 4
ENDMDL
MODEL 7
REMARK VINA RESULT:      -8.3      1.183      2.058
REMARK SMILES Cc1ccc(CCC([O-])=C2CCC2)c(C)c1
REMARK SMILES IDX 6 1 5 2 2 3 3 4 16 5 4 6 14 7 1 8 15 9 7 10 8 11 9 12 10 13
REMARK SMILES IDX 11 14 13 15 12 16
REMARK H PARENT
ROOT
ATOM      1  C   UNL     1      43.799 131.626  16.827  1.00  0.00     0.039 C 
ENDROOT
BRANCH   1   2
ATOM      2  C   UNL     1      43.926 131.527  18.334  1.00  0.00    -0.045 A 
ATOM      3  C   UNL     1      44.093 131.497  21.150  1.00  0.00    -0.051 A 
ATOM      4  C   UNL     1      42.979 132.055  20.515  1.00  0.00     0.004 A 
ATOM      5  C   UNL     1      45.111 130.923  20.379  1.00  0.00     0.007 A 
ATOM      6  C   UNL     1      42.899 132.074  19.122  1.00  0.00     0.004 A 
ATOM      7  C   UNL     1      45.048 130.936  18.973  1.00  0.00    -0.048 A 
ATOM      8  C   UNL     1      44.160 131.446  22.648  1.00  0.00     0.044 C 
ATOM      9  C   UNL     1      46.163 130.291  18.191  1.00  0.00     0.044 C 
ENDBRANCH   1   2
BRANCH   1  10
ATOM     10  C   UNL     1      45.157 131.873  16.152  1.00  0.00     0.023 C 
BRANCH  10  11
ATOM     11  C   UNL     1      45.198 131.311  14.760  1.00  0.00    -0.133 C 
ATOM     12  O   UNL     1      44.039 131.307  13.994  1.00  0.00    -0.875 OA
BRANCH  11  13
ATOM     13  C   UNL     1      46.314 130.791  14.253  1.00  0.00    -0.082 C 
ATOM     14  C   UNL     1      47.380 131.172  13.242  1.00  0.00     0.030 C 
ATOM     15  C   UNL     1      47.117 129.518  14.431  1.00  0.00     0.030 C 
ATOM     16  C   UNL     1      48.157 129.909  13.431  1.00  0.00     0.009 C 
ENDBRANCH  11  13
ENDBRANCH  10  11
ENDBRANCH   1  10
TORSDOF 4
ENDMDL
MODEL 8
REMARK VINA RESULT:      -8.2      0.594      1.807
REMARK SMILES Cc1ccc(CCC([O-])=C2CCC2)c(C)c1
REMARK SMILES IDX 6 1 5 2 2 3 3 4 16 5 4 6 14 7 1 8 15 9 7 10 8 11 9 12 10 13
REMARK SMILES IDX 11 14 13 15 12 16
REMARK H PARENT
ROOT
ATOM      1  C   UNL     1      45.136 131.520  17.464  1.00  0.00     0.039 C 
ENDROOT
BRANCH   1   2
ATOM      2  C   UNL     1      44.456 131.563  18.818  1.00  0.00    -0.045 A 
ATOM      3  C   UNL     1      43.102 131.780  21.283  1.00  0.00    -0.051 A 
ATOM      4  C   UNL     1      42.429 132.035  20.084  1.00  0.00     0.004 A 
ATOM      5  C   UNL     1      44.445 131.384  21.250  1.00  0.00     0.007 A 
ATOM      6  C   UNL     1      43.101 131.933  18.865  1.00  0.00     0.004 A 
ATOM      7  C   UNL     1      45.138 131.278  20.030  1.00  0.00    -0.048 A 
ATOM      8  C   UNL     1      42.370 131.858  22.590  1.00  0.00     0.044 C 
ATOM      9  C   UNL     1      46.577 130.833  20.050  1.00  0.00     0.044 C 
ENDBRANCH   1   2
BRANCH   1  10
ATOM     10  C   UNL     1      45.917 130.213  17.256  1.00  0.00     0.023 C 
BRANCH  10  11
ATOM     11  C   UNL     1      45.785 129.704  15.849  1.00  0.00    -0.133 C 
ATOM     12  O   UNL     1      44.867 128.698  15.574  1.00  0.00    -0.875 OA
BRANCH  11  13
ATOM     13  C   UNL     1      46.547 130.177  14.864  1.00  0.00    -0.082 C 
ATOM     14  C   UNL     1      46.777 131.495  14.148  1.00  0.00     0.030 C 
ATOM     15  C   UNL     1      47.605 129.628  13.928  1.00  0.00     0.030 C 
ATOM     16  C   UNL     1      47.818 130.934  13.234  1.00  0.00     0.009 C 
ENDBRANCH  11  13
ENDBRANCH  10  11
ENDBRANCH   1  10
TORSDOF 4
ENDMDL
MODEL 9
REMARK VINA RESULT:      -8.0      1.693      6.623
REMARK SMILES Cc1ccc(CCC([O-])=C2CCC2)c(C)c1
REMARK SMILES IDX 6 1 5 2 2 3 3 4 16 5 4 6 14 7 1 8 15 9 7 10 8 11 9 12 10 13
REMARK SMILES IDX 11 14 13 15 12 16
REMARK H PARENT
ROOT
ATOM      1  C   UNL     1      44.106 131.024  17.253  1.00  0.00     0.039 C 
ENDROOT
BRANCH   1   2
ATOM      2  C   UNL     1      45.092 130.741  16.138  1.00  0.00    -0.045 A 
ATOM      3  C   UNL     1      47.056 130.250  14.172  1.00  0.00    -0.051 A 
ATOM      4  C   UNL     1      47.268 129.854  15.496  1.00  0.00     0.004 A 
ATOM      5  C   UNL     1      45.846 130.863  13.821  1.00  0.00     0.007 A 
ATOM      6  C   UNL     1      46.299 130.102  16.470  1.00  0.00     0.004 A 
ATOM      7  C   UNL     1      44.859 131.123  14.790  1.00  0.00    -0.048 A 
ATOM      8  C   UNL     1      48.084 129.952  13.121  1.00  0.00     0.044 C 
ATOM      9  C   UNL     1      43.571 131.771  14.357  1.00  0.00     0.044 C 
ENDBRANCH   1   2
BRANCH   1  10
ATOM     10  C   UNL     1      44.704 131.944  18.329  1.00  0.00     0.023 C 
BRANCH  10  11
ATOM     11  C   UNL     1      44.894 131.225  19.633  1.00  0.00    -0.133 C 
ATOM     12  O   UNL     1      45.913 130.288  19.751  1.00  0.00    -0.875 OA
BRANCH  11  13
ATOM     13  C   UNL     1      44.090 131.446  20.672  1.00  0.00    -0.082 C 
ATOM     14  C   UNL     1      42.701 132.002  20.927  1.00  0.00     0.030 C 
ATOM     15  C   UNL     1      44.149 131.248  22.174  1.00  0.00     0.030 C 
ATOM     16  C   UNL     1      42.780 131.801  22.405  1.00  0.00     0.009 C 
ENDBRANCH  11  13
ENDBRANCH  10  11
ENDBRANCH   1  10
TORSDOF 4
ENDMDL


