REMARK SMILES N/N=c1\cc(-c2ccc3[nH]ccc3c2)[nH]nc1O
REMARK SMILES IDX 17 1 16 2 15 3 5 5 4 6 3 7 18 8 2 10 1 11 6 14 7 15 14 16
REMARK SMILES IDX 8 17 13 18 9 19 12 20 10 21 11 22
REMARK H PARENT 15 4 18 9 1 12 1 13 10 23
ROOT
ATOM      1  C   UNL     1      -3.166   2.837   0.158  1.00  0.00     0.256 A 
ATOM      2  N   UNL     1      -2.028   3.060   0.865  1.00  0.00    -0.135 NA
ATOM      3  N   UNL     1      -1.002   2.210   0.835  1.00  0.00    -0.274 N 
ATOM      4  H   UNL     1      -0.147   2.448   1.386  1.00  0.00     0.190 HD
ATOM      5  C   UNL     1      -1.045   1.068   0.090  1.00  0.00     0.066 A 
ATOM      6  C   UNL     1      -2.198   0.791  -0.660  1.00  0.00     0.064 A 
ATOM      7  C   UNL     1      -3.280   1.690  -0.636  1.00  0.00     0.148 A 
ENDROOT
BRANCH   1   8
ATOM      8  O   UNL     1      -4.211   3.755   0.226  1.00  0.00    -0.491 OA
ATOM      9  H   UNL     1      -4.136   4.588   0.797  1.00  0.00     0.295 HD
ENDBRANCH   1   8
BRANCH   7  10
ATOM     10  N   UNL     1      -4.385   1.499  -1.304  1.00  0.00    -0.178 NA
BRANCH  10  11
ATOM     11  N   UNL     1      -4.649   0.428  -2.176  1.00  0.00    -0.323 N 
ATOM     12  H   UNL     1      -5.601   0.342  -2.594  1.00  0.00     0.179 HD
ATOM     13  H   UNL     1      -3.914  -0.227  -2.515  1.00  0.00     0.179 HD
ENDBRANCH  10  11
ENDBRANCH   7  10
BRANCH   5  14
ATOM     14  C   UNL     1       0.107   0.131   0.084  1.00  0.00     0.000 A 
ATOM     15  C   UNL     1       0.816  -0.136   1.286  1.00  0.00     0.012 A 
ATOM     16  C   UNL     1       0.511  -0.501  -1.117  1.00  0.00     0.020 A 
ATOM     17  C   UNL     1       1.911  -1.019   1.296  1.00  0.00     0.027 A 
ATOM     18  C   UNL     1       1.599  -1.368  -1.069  1.00  0.00     0.000 A 
ATOM     19  C   UNL     1       2.275  -1.619   0.094  1.00  0.00     0.045 A 
ATOM     20  C   UNL     1       2.204  -2.105  -2.064  1.00  0.00     0.028 A 
ATOM     21  N   UNL     1       3.281  -2.484  -0.116  1.00  0.00    -0.361 N 
ATOM     22  C   UNL     1       3.242  -2.784  -1.434  1.00  0.00     0.083 A 
ATOM     23  H   UNL     1       3.958  -2.850   0.591  1.00  0.00     0.166 HD
ENDBRANCH   5  14
TORSDOF 4


