REMARK SMILES Nc1cc(O)c(F)cc1[NH2+]c1ccc2cc[nH]c2c1
REMARK SMILES IDX 2 1 3 2 4 3 6 4 7 5 8 6 9 7 1 8 10 11 11 14 12 15 19 16
REMARK SMILES IDX 13 17 18 18 14 19 17 20 15 21 16 22 5 24
REMARK H PARENT 1 9 1 10 10 12 10 13 17 23 5 25
ROOT
ATOM      1  C   UNL     1       1.623   1.626  -0.529  1.00  0.00     0.098 A 
ATOM      2  C   UNL     1       2.053   2.293   0.629  1.00  0.00     0.081 A 
ATOM      3  C   UNL     1       3.091   1.780   1.411  1.00  0.00     0.153 A 
ATOM      4  C   UNL     1       3.713   0.584   1.038  1.00  0.00     0.170 A 
ATOM      5  F   UNL     1       4.722   0.071   1.787  1.00  0.00    -0.203 F 
ATOM      6  C   UNL     1       3.296  -0.094  -0.109  1.00  0.00     0.113 A 
ATOM      7  C   UNL     1       2.251   0.408  -0.908  1.00  0.00     0.161 A 
ENDROOT
BRANCH   1   8
ATOM      8  N   UNL     1       0.560   2.205  -1.297  1.00  0.00    -0.394 N 
ATOM      9  H   UNL     1       0.091   3.080  -0.973  1.00  0.00     0.156 HD
ATOM     10  H   UNL     1       0.239   1.810  -2.204  1.00  0.00     0.156 HD
ENDBRANCH   1   8
BRANCH   7  11
ATOM     11  N   UNL     1       1.826  -0.345  -2.070  1.00  0.00    -0.280 N 
ATOM     12  H   UNL     1       2.564  -1.032  -2.351  1.00  0.00     0.358 HD
ATOM     13  H   UNL     1       1.709   0.298  -2.886  1.00  0.00     0.358 HD
BRANCH  11  14
ATOM     14  C   UNL     1       0.615  -1.081  -1.791  1.00  0.00     0.136 A 
ATOM     15  C   UNL     1       0.601  -2.090  -0.787  1.00  0.00     0.069 A 
ATOM     16  C   UNL     1      -0.556  -0.849  -2.553  1.00  0.00     0.094 A 
ATOM     17  C   UNL     1      -0.566  -2.827  -0.519  1.00  0.00     0.016 A 
ATOM     18  C   UNL     1      -1.694  -1.597  -2.261  1.00  0.00     0.051 A 
ATOM     19  C   UNL     1      -1.698  -2.549  -1.278  1.00  0.00    -0.000 A 
ATOM     20  N   UNL     1      -2.895  -1.524  -2.858  1.00  0.00    -0.361 N 
ATOM     21  C   UNL     1      -2.958  -3.105  -1.246  1.00  0.00     0.028 A 
ATOM     22  C   UNL     1      -3.672  -2.443  -2.240  1.00  0.00     0.083 A 
ATOM     23  H   UNL     1      -3.175  -0.889  -3.638  1.00  0.00     0.166 HD
ENDBRANCH  11  14
ENDBRANCH   7  11
BRANCH   3  24
ATOM     24  O   UNL     1       3.490   2.471   2.553  1.00  0.00    -0.505 OA
ATOM     25  H   UNL     1       4.238   2.134   3.148  1.00  0.00     0.293 HD
ENDBRANCH   3  24
TORSDOF 4


