MODEL 1
REMARK VINA RESULT:      -7.6      0.000      0.000
REMARK SMILES N#CC[C@H]1C[C@H]1C(=O)NCCc1ccc(-c2cnc3ccnn3c2)cc1
REMARK SMILES IDX 7 1 8 2 9 3 6 5 4 6 5 7 3 8 2 9 1 10 10 11 11 12 12 13 13 14
REMARK SMILES IDX 26 15 14 16 25 17 15 18 16 19 17 20 24 21 18 22 23 23 19 24
REMARK SMILES IDX 22 25 20 26 21 27
REMARK H PARENT 9 4
ROOT
ATOM      1  C   UNL     1      43.520 128.042  23.440  1.00  0.00     0.223 C 
ATOM      2  O   UNL     1      43.942 128.145  24.625  1.00  0.00    -0.275 OA
ATOM      3  N   UNL     1      42.866 129.146  22.806  1.00  0.00    -0.356 N 
ATOM      4  H   UNL     1      42.490 129.014  21.842  1.00  0.00     0.163 HD
ENDROOT
BRANCH   1   5
ATOM      5  C   UNL     1      43.628 126.726  22.720  1.00  0.00     0.083 C 
ATOM      6  C   UNL     1      44.634 125.704  23.255  1.00  0.00     0.016 C 
ATOM      7  C   UNL     1      43.143 125.508  23.499  1.00  0.00     0.019 C 
BRANCH   6   8
ATOM      8  C   UNL     1      45.453 126.070  24.502  1.00  0.00     0.124 C 
BRANCH   8   9
ATOM      9  C   UNL     1      46.884 125.988  24.201  1.00  0.00     0.062 C 
ATOM     10  N   UNL     1      48.015 125.921  23.962  1.00  0.00    -0.198 NA
ENDBRANCH   8   9
ENDBRANCH   6   8
ENDBRANCH   1   5
BRANCH   3  11
ATOM     11  C   UNL     1      42.554 130.396  23.498  1.00  0.00     0.120 C 
BRANCH  11  12
ATOM     12  C   UNL     1      43.464 131.548  23.044  1.00  0.00     0.056 C 
BRANCH  12  13
ATOM     13  C   UNL     1      43.912 131.414  21.607  1.00  0.00    -0.046 A 
ATOM     14  C   UNL     1      43.053 131.791  20.563  1.00  0.00     0.004 A 
ATOM     15  C   UNL     1      45.179 130.899  21.296  1.00  0.00     0.004 A 
ATOM     16  C   UNL     1      43.473 131.701  19.234  1.00  0.00     0.009 A 
ATOM     17  C   UNL     1      45.598 130.807  19.967  1.00  0.00     0.009 A 
ATOM     18  C   UNL     1      44.755 131.219  18.921  1.00  0.00    -0.015 A 
BRANCH  18  19
ATOM     19  C   UNL     1      45.213 131.148  17.509  1.00  0.00     0.018 A 
ATOM     20  C   UNL     1      44.743 132.065  16.535  1.00  0.00     0.124 A 
ATOM     21  C   UNL     1      46.133 130.162  17.096  1.00  0.00     0.125 A 
ATOM     22  N   UNL     1      45.165 131.986  15.240  1.00  0.00    -0.236 NA
ATOM     23  N   UNL     1      46.509 130.141  15.795  1.00  0.00    -0.222 N 
ATOM     24  C   UNL     1      46.044 131.013  14.898  1.00  0.00     0.154 A 
ATOM     25  N   UNL     1      47.354 129.306  15.221  1.00  0.00    -0.175 NA
ATOM     26  C   UNL     1      46.596 130.757  13.668  1.00  0.00     0.071 A 
ATOM     27  C   UNL     1      47.423 129.664  13.916  1.00  0.00     0.138 A 
ENDBRANCH  18  19
ENDBRANCH  12  13
ENDBRANCH  11  12
ENDBRANCH   3  11
TORSDOF 7
ENDMDL
MODEL 2
REMARK VINA RESULT:      -6.3      1.367      1.887
REMARK SMILES N#CC[C@H]1C[C@H]1C(=O)NCCc1ccc(-c2cnc3ccnn3c2)cc1
REMARK SMILES IDX 7 1 8 2 9 3 6 5 4 6 5 7 3 8 2 9 1 10 10 11 11 12 12 13 13 14
REMARK SMILES IDX 26 15 14 16 25 17 15 18 16 19 17 20 24 21 18 22 23 23 19 24
REMARK SMILES IDX 22 25 20 26 21 27
REMARK H PARENT 9 4
ROOT
ATOM      1  C   UNL     1      42.274 128.914  23.179  1.00  0.00     0.223 C 
ATOM      2  O   UNL     1      43.423 128.756  23.675  1.00  0.00    -0.275 OA
ATOM      3  N   UNL     1      41.867 130.196  22.689  1.00  0.00    -0.356 N 
ATOM      4  H   UNL     1      40.895 130.303  22.325  1.00  0.00     0.163 HD
ENDROOT
BRANCH   1   5
ATOM      5  C   UNL     1      41.297 127.771  23.178  1.00  0.00     0.083 C 
ATOM      6  C   UNL     1      41.760 126.440  23.777  1.00  0.00     0.016 C 
ATOM      7  C   UNL     1      40.796 127.333  24.550  1.00  0.00     0.019 C 
BRANCH   6   8
ATOM      8  C   UNL     1      43.178 126.357  24.361  1.00  0.00     0.124 C 
BRANCH   8   9
ATOM      9  C   UNL     1      44.096 125.800  23.364  1.00  0.00     0.062 C 
ATOM     10  N   UNL     1      44.820 125.361  22.576  1.00  0.00    -0.198 NA
ENDBRANCH   8   9
ENDBRANCH   6   8
ENDBRANCH   1   5
BRANCH   3  11
ATOM     11  C   UNL     1      42.685 131.401  22.823  1.00  0.00     0.120 C 
BRANCH  11  12
ATOM     12  C   UNL     1      44.184 131.100  22.663  1.00  0.00     0.056 C 
BRANCH  12  13
ATOM     13  C   UNL     1      44.641 131.139  21.224  1.00  0.00    -0.046 A 
ATOM     14  C   UNL     1      45.708 130.331  20.801  1.00  0.00     0.004 A 
ATOM     15  C   UNL     1      44.021 131.990  20.297  1.00  0.00     0.004 A 
ATOM     16  C   UNL     1      46.115 130.338  19.464  1.00  0.00     0.009 A 
ATOM     17  C   UNL     1      44.429 131.998  18.961  1.00  0.00     0.009 A 
ATOM     18  C   UNL     1      45.472 131.163  18.526  1.00  0.00    -0.015 A 
BRANCH  18  19
ATOM     19  C   UNL     1      45.885 131.151  17.098  1.00  0.00     0.018 A 
ATOM     20  C   UNL     1      45.611 132.249  16.244  1.00  0.00     0.124 A 
ATOM     21  C   UNL     1      46.564 130.043  16.551  1.00  0.00     0.125 A 
ATOM     22  N   UNL     1      45.989 132.225  14.933  1.00  0.00    -0.236 NA
ATOM     23  N   UNL     1      46.908 130.085  15.242  1.00  0.00    -0.222 N 
ATOM     24  C   UNL     1      46.630 131.131  14.459  1.00  0.00     0.154 A 
ATOM     25  N   UNL     1      47.545 129.158  14.553  1.00  0.00    -0.175 NA
ATOM     26  C   UNL     1      47.097 130.900  13.190  1.00  0.00     0.071 A 
ATOM     27  C   UNL     1      47.671 129.634  13.290  1.00  0.00     0.138 A 
ENDBRANCH  18  19
ENDBRANCH  12  13
ENDBRANCH  11  12
ENDBRANCH   3  11
TORSDOF 7
ENDMDL
MODEL 3
REMARK VINA RESULT:      -5.3      1.568      2.137
REMARK SMILES N#CC[C@H]1C[C@H]1C(=O)NCCc1ccc(-c2cnc3ccnn3c2)cc1
REMARK SMILES IDX 7 1 8 2 9 3 6 5 4 6 5 7 3 8 2 9 1 10 10 11 11 12 12 13 13 14
REMARK SMILES IDX 26 15 14 16 25 17 15 18 16 19 17 20 24 21 18 22 23 23 19 24
REMARK SMILES IDX 22 25 20 26 21 27
REMARK H PARENT 9 4
ROOT
ATOM      1  C   UNL     1      44.064 128.938  23.482  1.00  0.00     0.223 C 
ATOM      2  O   UNL     1      43.566 128.745  24.625  1.00  0.00    -0.275 OA
ATOM      3  N   UNL     1      43.786 130.145  22.764  1.00  0.00    -0.356 N 
ATOM      4  H   UNL     1      44.177 130.254  21.804  1.00  0.00     0.163 HD
ENDROOT
BRANCH   1   5
ATOM      5  C   UNL     1      44.886 127.859  22.833  1.00  0.00     0.083 C 
ATOM      6  C   UNL     1      44.223 126.496  22.613  1.00  0.00     0.016 C 
ATOM      7  C   UNL     1      44.438 127.440  21.436  1.00  0.00     0.019 C 
BRANCH   6   8
ATOM      8  C   UNL     1      42.759 126.319  23.044  1.00  0.00     0.124 C 
BRANCH   8   9
ATOM      9  C   UNL     1      42.636 125.157  23.928  1.00  0.00     0.062 C 
ATOM     10  N   UNL     1      42.539 124.239  24.625  1.00  0.00    -0.198 NA
ENDBRANCH   8   9
ENDBRANCH   6   8
ENDBRANCH   1   5
BRANCH   3  11
ATOM     11  C   UNL     1      42.848 131.161  23.241  1.00  0.00     0.120 C 
BRANCH  11  12
ATOM     12  C   UNL     1      42.030 131.773  22.093  1.00  0.00     0.056 C 
BRANCH  12  13
ATOM     13  C   UNL     1      42.730 131.682  20.758  1.00  0.00    -0.046 A 
ATOM     14  C   UNL     1      44.030 131.160  20.677  1.00  0.00     0.004 A 
ATOM     15  C   UNL     1      42.102 132.131  19.586  1.00  0.00     0.004 A 
ATOM     16  C   UNL     1      44.671 131.042  19.442  1.00  0.00     0.009 A 
ATOM     17  C   UNL     1      42.743 132.015  18.351  1.00  0.00     0.009 A 
ATOM     18  C   UNL     1      44.030 131.458  18.262  1.00  0.00    -0.015 A 
BRANCH  18  19
ATOM     19  C   UNL     1      44.700 131.309  16.944  1.00  0.00     0.018 A 
ATOM     20  C   UNL     1      44.138 131.865  15.766  1.00  0.00     0.124 A 
ATOM     21  C   UNL     1      45.917 130.606  16.826  1.00  0.00     0.125 A 
ATOM     22  N   UNL     1      44.758 131.715  14.560  1.00  0.00    -0.236 NA
ATOM     23  N   UNL     1      46.476 130.496  15.598  1.00  0.00    -0.222 N 
ATOM     24  C   UNL     1      45.921 131.024  14.505  1.00  0.00     0.154 A 
ATOM     25  N   UNL     1      47.604 129.886  15.285  1.00  0.00    -0.175 NA
ATOM     26  C   UNL     1      46.704 130.761  13.409  1.00  0.00     0.071 A 
ATOM     27  C   UNL     1      47.764 130.034  13.947  1.00  0.00     0.138 A 
ENDBRANCH  18  19
ENDBRANCH  12  13
ENDBRANCH  11  12
ENDBRANCH   3  11
TORSDOF 7
ENDMDL
MODEL 4
REMARK VINA RESULT:      -5.2      1.893      2.442
REMARK SMILES N#CC[C@H]1C[C@H]1C(=O)NCCc1ccc(-c2cnc3ccnn3c2)cc1
REMARK SMILES IDX 7 1 8 2 9 3 6 5 4 6 5 7 3 8 2 9 1 10 10 11 11 12 12 13 13 14
REMARK SMILES IDX 26 15 14 16 25 17 15 18 16 19 17 20 24 21 18 22 23 23 19 24
REMARK SMILES IDX 22 25 20 26 21 27
REMARK H PARENT 9 4
ROOT
ATOM      1  C   UNL     1      43.465 129.788  22.646  1.00  0.00     0.223 C 
ATOM      2  O   UNL     1      43.218 129.399  21.472  1.00  0.00    -0.275 OA
ATOM      3  N   UNL     1      42.749 130.891  23.209  1.00  0.00    -0.356 N 
ATOM      4  H   UNL     1      43.009 131.216  24.166  1.00  0.00     0.163 HD
ENDROOT
BRANCH   1   5
ATOM      5  C   UNL     1      44.577 129.143  23.428  1.00  0.00     0.083 C 
ATOM      6  C   UNL     1      44.202 128.025  24.404  1.00  0.00     0.016 C 
ATOM      7  C   UNL     1      44.871 127.689  23.077  1.00  0.00     0.019 C 
BRANCH   6   8
ATOM      8  C   UNL     1      42.726 127.613  24.511  1.00  0.00     0.124 C 
BRANCH   8   9
ATOM      9  C   UNL     1      42.588 126.179  24.244  1.00  0.00     0.062 C 
ATOM     10  N   UNL     1      42.480 125.047  24.033  1.00  0.00    -0.198 NA
ENDBRANCH   8   9
ENDBRANCH   6   8
ENDBRANCH   1   5
BRANCH   3  11
ATOM     11  C   UNL     1      41.787 131.691  22.453  1.00  0.00     0.120 C 
BRANCH  11  12
ATOM     12  C   UNL     1      42.473 132.802  21.641  1.00  0.00     0.056 C 
BRANCH  12  13
ATOM     13  C   UNL     1      43.182 132.281  20.413  1.00  0.00    -0.046 A 
ATOM     14  C   UNL     1      42.514 132.237  19.179  1.00  0.00     0.004 A 
ATOM     15  C   UNL     1      44.505 131.821  20.489  1.00  0.00     0.004 A 
ATOM     16  C   UNL     1      43.173 131.788  18.032  1.00  0.00     0.009 A 
ATOM     17  C   UNL     1      45.164 131.371  19.342  1.00  0.00     0.009 A 
ATOM     18  C   UNL     1      44.510 131.361  18.098  1.00  0.00    -0.015 A 
BRANCH  18  19
ATOM     19  C   UNL     1      45.222 130.908  16.875  1.00  0.00     0.018 A 
ATOM     20  C   UNL     1      45.237 129.542  16.495  1.00  0.00     0.124 A 
ATOM     21  C   UNL     1      45.906 131.829  16.054  1.00  0.00     0.125 A 
ATOM     22  N   UNL     1      45.900 129.137  15.373  1.00  0.00    -0.236 NA
ATOM     23  N   UNL     1      46.544 131.358  14.957  1.00  0.00    -0.222 N 
ATOM     24  C   UNL     1      46.547 130.064  14.627  1.00  0.00     0.154 A 
ATOM     25  N   UNL     1      47.229 132.055  14.070  1.00  0.00    -0.175 NA
ATOM     26  C   UNL     1      47.264 129.879  13.472  1.00  0.00     0.071 A 
ATOM     27  C   UNL     1      47.683 131.168  13.150  1.00  0.00     0.138 A 
ENDBRANCH  18  19
ENDBRANCH  12  13
ENDBRANCH  11  12
ENDBRANCH   3  11
TORSDOF 7
ENDMDL
MODEL 5
REMARK VINA RESULT:      -5.1      1.720      2.167
REMARK SMILES N#CC[C@H]1C[C@H]1C(=O)NCCc1ccc(-c2cnc3ccnn3c2)cc1
REMARK SMILES IDX 7 1 8 2 9 3 6 5 4 6 5 7 3 8 2 9 1 10 10 11 11 12 12 13 13 14
REMARK SMILES IDX 26 15 14 16 25 17 15 18 16 19 17 20 24 21 18 22 23 23 19 24
REMARK SMILES IDX 22 25 20 26 21 27
REMARK H PARENT 9 4
ROOT
ATOM      1  C   UNL     1      44.540 129.264  23.403  1.00  0.00     0.223 C 
ATOM      2  O   UNL     1      44.919 129.551  22.235  1.00  0.00    -0.275 OA
ATOM      3  N   UNL     1      43.589 130.091  24.081  1.00  0.00    -0.356 N 
ATOM      4  H   UNL     1      43.330 129.850  25.062  1.00  0.00     0.163 HD
ENDROOT
BRANCH   1   5
ATOM      5  C   UNL     1      45.154 128.093  24.122  1.00  0.00     0.083 C 
ATOM      6  C   UNL     1      44.329 126.807  24.217  1.00  0.00     0.016 C 
ATOM      7  C   UNL     1      45.501 126.893  23.247  1.00  0.00     0.019 C 
BRANCH   6   8
ATOM      8  C   UNL     1      42.941 126.779  23.559  1.00  0.00     0.124 C 
BRANCH   8   9
ATOM      9  C   UNL     1      42.129 125.715  24.154  1.00  0.00     0.062 C 
ATOM     10  N   UNL     1      41.486 124.876  24.624  1.00  0.00    -0.198 NA
ENDBRANCH   8   9
ENDBRANCH   6   8
ENDBRANCH   1   5
BRANCH   3  11
ATOM     11  C   UNL     1      43.085 131.348  23.528  1.00  0.00     0.120 C 
BRANCH  11  12
ATOM     12  C   UNL     1      44.211 132.206  22.930  1.00  0.00     0.056 C 
BRANCH  12  13
ATOM     13  C   UNL     1      44.407 131.972  21.451  1.00  0.00    -0.046 A 
ATOM     14  C   UNL     1      43.344 132.172  20.558  1.00  0.00     0.004 A 
ATOM     15  C   UNL     1      45.644 131.537  20.952  1.00  0.00     0.004 A 
ATOM     16  C   UNL     1      43.527 131.990  19.185  1.00  0.00     0.009 A 
ATOM     17  C   UNL     1      45.828 131.353  19.579  1.00  0.00     0.009 A 
ATOM     18  C   UNL     1      44.775 131.589  18.678  1.00  0.00    -0.015 A 
BRANCH  18  19
ATOM     19  C   UNL     1      44.980 131.420  17.216  1.00  0.00     0.018 A 
ATOM     20  C   UNL     1      43.882 131.367  16.320  1.00  0.00     0.124 A 
ATOM     21  C   UNL     1      46.278 131.307  16.677  1.00  0.00     0.125 A 
ATOM     22  N   UNL     1      44.083 131.205  14.980  1.00  0.00    -0.236 NA
ATOM     23  N   UNL     1      46.403 131.147  15.338  1.00  0.00    -0.222 N 
ATOM     24  C   UNL     1      45.351 131.093  14.519  1.00  0.00     0.154 A 
ATOM     25  N   UNL     1      47.522 131.027  14.649  1.00  0.00    -0.175 NA
ATOM     26  C   UNL     1      45.775 130.930  13.224  1.00  0.00     0.071 A 
ATOM     27  C   UNL     1      47.162 130.891  13.349  1.00  0.00     0.138 A 
ENDBRANCH  18  19
ENDBRANCH  12  13
ENDBRANCH  11  12
ENDBRANCH   3  11
TORSDOF 7
ENDMDL


