MODEL 1
REMARK VINA RESULT:       1.5      0.000      0.000
REMARK SMILES CC1=CCC=C[C@H]1C(=O)Oc1cc(F)c(Nc2ccc3cc[nH]c3c2)c(-c2ccc(C(N)=O)cc2)c1O
REMARK SMILES IDX 11 1 12 2 13 3 14 4 15 5 26 6 36 7 10 8 8 9 9 10 7 11 2 12
REMARK SMILES IDX 3 13 4 14 6 15 5 16 1 17 37 18 27 20 28 21 35 22 29 23 34 24
REMARK SMILES IDX 30 25 31 26 32 27 33 28 16 31 17 33 18 34 25 35 19 36 24 37
REMARK SMILES IDX 20 38 23 39 21 40 22 41
REMARK H PARENT 37 19 32 29 32 30 16 32 23 42
ROOT
ATOM      1  C   UNL     1      43.584 131.823  17.092  1.00  0.00     0.176 A 
ATOM      2  C   UNL     1      42.389 131.427  17.714  1.00  0.00     0.092 A 
ATOM      3  C   UNL     1      42.275 131.441  19.104  1.00  0.00     0.151 A 
ATOM      4  F   UNL     1      41.103 131.064  19.676  1.00  0.00    -0.205 F 
ATOM      5  C   UNL     1      43.338 131.879  19.901  1.00  0.00     0.087 A 
ATOM      6  C   UNL     1      44.555 132.274  19.289  1.00  0.00     0.054 A 
ATOM      7  C   UNL     1      44.665 132.254  17.882  1.00  0.00     0.168 A 
ENDROOT
BRANCH   1   8
ATOM      8  O   UNL     1      43.717 131.835  15.695  1.00  0.00    -0.422 OA
BRANCH   8   9
ATOM      9  C   UNL     1      44.928 131.762  14.994  1.00  0.00     0.322 C 
ATOM     10  O   UNL     1      45.690 132.766  14.907  1.00  0.00    -0.251 OA
BRANCH   9  11
ATOM     11  C   UNL     1      45.291 130.487  14.293  1.00  0.00     0.147 C 
ATOM     12  C   UNL     1      46.782 130.447  14.000  1.00  0.00    -0.059 C 
ATOM     13  C   UNL     1      47.623 129.770  14.807  1.00  0.00    -0.023 C 
ATOM     14  C   UNL     1      47.132 129.057  16.041  1.00  0.00     0.054 C 
ATOM     15  C   UNL     1      44.840 129.302  15.117  1.00  0.00    -0.012 C 
ATOM     16  C   UNL     1      45.691 128.637  15.913  1.00  0.00    -0.026 C 
ATOM     17  C   UNL     1      47.334 131.209  12.824  1.00  0.00     0.040 C 
ENDBRANCH   9  11
ENDBRANCH   8   9
ENDBRANCH   1   8
BRANCH   7  18
ATOM     18  O   UNL     1      45.864 132.643  17.280  1.00  0.00    -0.504 OA
ATOM     19  H   UNL     1      45.949 133.493  16.737  1.00  0.00     0.293 HD
ENDBRANCH   7  18
BRANCH   6  20
ATOM     20  C   UNL     1      45.724 132.680  20.107  1.00  0.00    -0.012 A 
ATOM     21  C   UNL     1      45.862 134.010  20.531  1.00  0.00     0.010 A 
ATOM     22  C   UNL     1      46.668 131.728  20.519  1.00  0.00     0.010 A 
ATOM     23  C   UNL     1      46.911 134.377  21.376  1.00  0.00     0.014 A 
ATOM     24  C   UNL     1      47.721 132.094  21.362  1.00  0.00     0.014 A 
ATOM     25  C   UNL     1      47.856 133.424  21.800  1.00  0.00     0.039 A 
BRANCH  25  26
ATOM     26  C   UNL     1      48.951 133.826  22.719  1.00  0.00     0.248 C 
ATOM     27  N   UNL     1      49.321 135.197  22.888  1.00  0.00    -0.366 N 
ATOM     28  O   UNL     1      49.565 132.946  23.378  1.00  0.00    -0.270 OA
ATOM     29  H   UNL     1      48.744 135.975  22.501  1.00  0.00     0.159 HD
ATOM     30  H   UNL     1      50.136 135.444  23.491  1.00  0.00     0.159 HD
ENDBRANCH  25  26
ENDBRANCH   6  20
BRANCH   5  31
ATOM     31  N   UNL     1      43.165 131.903  21.330  1.00  0.00    -0.352 N 
ATOM     32  H   UNL     1      42.648 132.712  21.745  1.00  0.00     0.167 HD
BRANCH  31  33
ATOM     33  C   UNL     1      43.694 130.904  22.218  1.00  0.00     0.041 A 
ATOM     34  C   UNL     1      43.675 131.137  23.615  1.00  0.00     0.027 A 
ATOM     35  C   UNL     1      44.221 129.689  21.719  1.00  0.00     0.052 A 
ATOM     36  C   UNL     1      44.133 130.158  24.515  1.00  0.00     0.012 A 
ATOM     37  C   UNL     1      44.661 128.740  22.637  1.00  0.00     0.047 A 
ATOM     38  C   UNL     1      44.615 128.965  23.985  1.00  0.00    -0.001 A 
ATOM     39  N   UNL     1      45.161 127.522  22.373  1.00  0.00    -0.361 N 
ATOM     40  C   UNL     1      45.110 127.841  24.609  1.00  0.00     0.028 A 
ATOM     41  C   UNL     1      45.437 126.967  23.576  1.00  0.00     0.083 A 
ATOM     42  H   UNL     1      45.305 127.087  21.435  1.00  0.00     0.166 HD
ENDBRANCH  31  33
ENDBRANCH   5  31
TORSDOF 8
ENDMDL


