MODEL 1
REMARK VINA RESULT:      -5.3      0.000      0.000
REMARK SMILES C=C[C@@H](Oc1ncnc(C)c1C)c1cc(-c2c[n-]c3nccc-3c2)cc2c1CC(O)=N2
REMARK SMILES IDX 3 1 2 2 1 3 4 4 5 5 6 6 11 7 7 8 9 9 8 10 12 11 10 12 13 13
REMARK SMILES IDX 14 14 27 15 15 16 26 17 28 18 25 19 31 20 29 21 16 22 17 23
REMARK SMILES IDX 24 24 18 25 23 26 19 27 22 28 20 29 21 30 30 31
REMARK H PARENT 30 32
ROOT
ATOM      1  C   UNL     1      45.443 131.440  20.484  1.00  0.00     0.228 C 
ENDROOT
BRANCH   1   2
ATOM      2  C   UNL     1      46.768 131.950  20.983  1.00  0.00     0.014 C 
ATOM      3  C   UNL     1      46.915 133.203  21.425  1.00  0.00     0.008 C 
ENDBRANCH   1   2
BRANCH   1   4
ATOM      4  O   UNL     1      45.640 130.787  19.229  1.00  0.00    -0.465 OA
BRANCH   4   5
ATOM      5  C   UNL     1      44.889 131.071  18.081  1.00  0.00     0.220 A 
ATOM      6  N   UNL     1      43.687 131.701  18.189  1.00  0.00    -0.202 NA
ATOM      7  C   UNL     1      45.372 130.706  16.811  1.00  0.00     0.032 A 
ATOM      8  C   UNL     1      42.941 131.991  17.096  1.00  0.00     0.226 A 
ATOM      9  C   UNL     1      44.588 131.042  15.685  1.00  0.00     0.047 A 
ATOM     10  N   UNL     1      43.393 131.665  15.861  1.00  0.00    -0.241 NA
ATOM     11  C   UNL     1      46.707 130.018  16.660  1.00  0.00     0.052 C 
ATOM     12  C   UNL     1      45.025 130.709  14.288  1.00  0.00     0.067 C 
ENDBRANCH   4   5
ENDBRANCH   1   4
BRANCH   1  13
ATOM     13  C   UNL     1      44.852 130.471  21.482  1.00  0.00     0.003 A 
ATOM     14  C   UNL     1      45.389 129.173  21.630  1.00  0.00     0.017 A 
ATOM     15  C   UNL     1      43.757 130.815  22.287  1.00  0.00    -0.006 A 
ATOM     16  C   UNL     1      44.831 128.250  22.550  1.00  0.00    -0.016 A 
ATOM     17  C   UNL     1      43.219 129.928  23.180  1.00  0.00     0.071 A 
ATOM     18  C   UNL     1      42.965 132.075  22.350  1.00  0.00     0.135 C 
ATOM     19  C   UNL     1      43.727 128.643  23.337  1.00  0.00     0.037 A 
ATOM     20  N   UNL     1      42.109 130.480  23.866  1.00  0.00    -0.218 NA
ATOM     21  C   UNL     1      41.965 131.684  23.405  1.00  0.00     0.190 C 
BRANCH  16  22
ATOM     22  C   UNL     1      45.394 126.882  22.675  1.00  0.00    -0.022 A 
ATOM     23  C   UNL     1      46.730 126.693  23.138  1.00  0.00    -0.014 A 
ATOM     24  C   UNL     1      44.604 125.756  22.338  1.00  0.00     0.016 A 
ATOM     25  N   UNL     1      47.272 125.443  23.267  1.00  0.00    -0.442 NA
ATOM     26  C   UNL     1      45.182 124.506  22.479  1.00  0.00    -0.026 A 
ATOM     27  C   UNL     1      46.518 124.368  22.947  1.00  0.00    -0.052 A 
ATOM     28  C   UNL     1      44.726 123.230  22.263  1.00  0.00     0.003 A 
ATOM     29  N   UNL     1      46.889 123.081  23.021  1.00  0.00    -0.442 NA
ATOM     30  C   UNL     1      45.792 122.393  22.603  1.00  0.00    -0.022 A 
ENDBRANCH  16  22
BRANCH  21  31
ATOM     31  O   UNL     1      40.958 132.527  23.860  1.00  0.00    -0.496 OA
ATOM     32  H   UNL     1      40.343 132.237  24.611  1.00  0.00     0.294 HD
ENDBRANCH  21  31
ENDBRANCH   1  13
TORSDOF 6
ENDMDL
MODEL 2
REMARK VINA RESULT:      -5.3      2.678      7.243
REMARK SMILES C=C[C@@H](Oc1ncnc(C)c1C)c1cc(-c2c[n-]c3nccc-3c2)cc2c1CC(O)=N2
REMARK SMILES IDX 3 1 2 2 1 3 4 4 5 5 6 6 11 7 7 8 9 9 8 10 12 11 10 12 13 13
REMARK SMILES IDX 14 14 27 15 15 16 26 17 28 18 25 19 31 20 29 21 16 22 17 23
REMARK SMILES IDX 24 24 18 25 23 26 19 27 22 28 20 29 21 30 30 31
REMARK H PARENT 30 32
ROOT
ATOM      1  C   UNL     1      45.756 131.716  21.552  1.00  0.00     0.228 C 
ENDROOT
BRANCH   1   2
ATOM      2  C   UNL     1      46.391 133.066  21.749  1.00  0.00     0.014 C 
ATOM      3  C   UNL     1      47.264 133.292  22.735  1.00  0.00     0.008 C 
ENDBRANCH   1   2
BRANCH   1   4
ATOM      4  O   UNL     1      44.865 131.459  22.638  1.00  0.00    -0.465 OA
BRANCH   4   5
ATOM      5  C   UNL     1      44.305 130.202  22.900  1.00  0.00     0.220 A 
ATOM      6  N   UNL     1      44.978 129.070  22.560  1.00  0.00    -0.202 NA
ATOM      7  C   UNL     1      43.043 130.104  23.515  1.00  0.00     0.032 A 
ATOM      8  C   UNL     1      44.462 127.840  22.804  1.00  0.00     0.226 A 
ATOM      9  C   UNL     1      42.538 128.812  23.782  1.00  0.00     0.047 A 
ATOM     10  N   UNL     1      43.257 127.720  23.411  1.00  0.00    -0.241 NA
ATOM     11  C   UNL     1      42.279 131.342  23.915  1.00  0.00     0.052 C 
ATOM     12  C   UNL     1      41.208 128.603  24.448  1.00  0.00     0.067 C 
ENDBRANCH   4   5
ENDBRANCH   1   4
BRANCH   1  13
ATOM     13  C   UNL     1      44.995 131.687  20.245  1.00  0.00     0.003 A 
ATOM     14  C   UNL     1      45.612 131.220  19.064  1.00  0.00     0.017 A 
ATOM     15  C   UNL     1      43.666 132.124  20.154  1.00  0.00    -0.006 A 
ATOM     16  C   UNL     1      44.914 131.206  17.830  1.00  0.00    -0.016 A 
ATOM     17  C   UNL     1      42.988 132.107  18.965  1.00  0.00     0.071 A 
ATOM     18  C   UNL     1      42.762 132.685  21.196  1.00  0.00     0.135 C 
ATOM     19  C   UNL     1      43.577 131.657  17.788  1.00  0.00     0.037 A 
ATOM     20  N   UNL     1      41.672 132.613  19.103  1.00  0.00    -0.218 NA
ATOM     21  C   UNL     1      41.541 132.936  20.352  1.00  0.00     0.190 C 
BRANCH  16  22
ATOM     22  C   UNL     1      45.586 130.733  16.594  1.00  0.00    -0.022 A 
ATOM     23  C   UNL     1      45.528 129.356  16.223  1.00  0.00    -0.014 A 
ATOM     24  C   UNL     1      46.286 131.650  15.771  1.00  0.00     0.016 A 
ATOM     25  N   UNL     1      46.135 128.895  15.087  1.00  0.00    -0.442 NA
ATOM     26  C   UNL     1      46.889 131.151  14.629  1.00  0.00    -0.026 A 
ATOM     27  C   UNL     1      46.801 129.770  14.302  1.00  0.00    -0.052 A 
ATOM     28  C   UNL     1      47.620 131.730  13.624  1.00  0.00     0.003 A 
ATOM     29  N   UNL     1      47.442 129.488  13.157  1.00  0.00    -0.442 NA
ATOM     30  C   UNL     1      47.938 130.688  12.749  1.00  0.00    -0.022 A 
ENDBRANCH  16  22
BRANCH  21  31
ATOM     31  O   UNL     1      40.360 133.474  20.850  1.00  0.00    -0.496 OA
ATOM     32  H   UNL     1      40.296 134.460  21.073  1.00  0.00     0.294 HD
ENDBRANCH  21  31
ENDBRANCH   1  13
TORSDOF 6
ENDMDL
MODEL 3
REMARK VINA RESULT:      -5.1      2.554      7.292
REMARK SMILES C=C[C@@H](Oc1ncnc(C)c1C)c1cc(-c2c[n-]c3nccc-3c2)cc2c1CC(O)=N2
REMARK SMILES IDX 3 1 2 2 1 3 4 4 5 5 6 6 11 7 7 8 9 9 8 10 12 11 10 12 13 13
REMARK SMILES IDX 14 14 27 15 15 16 26 17 28 18 25 19 31 20 29 21 16 22 17 23
REMARK SMILES IDX 24 24 18 25 23 26 19 27 22 28 20 29 21 30 30 31
REMARK H PARENT 30 32
ROOT
ATOM      1  C   UNL     1      45.521 131.528  21.576  1.00  0.00     0.228 C 
ENDROOT
BRANCH   1   2
ATOM      2  C   UNL     1      46.277 132.792  21.881  1.00  0.00     0.014 C 
ATOM      3  C   UNL     1      47.549 132.957  21.505  1.00  0.00     0.008 C 
ENDBRANCH   1   2
BRANCH   1   4
ATOM      4  O   UNL     1      44.654 131.229  22.670  1.00  0.00    -0.465 OA
BRANCH   4   5
ATOM      5  C   UNL     1      44.139 129.951  22.925  1.00  0.00     0.220 A 
ATOM      6  N   UNL     1      44.810 128.847  22.499  1.00  0.00    -0.202 NA
ATOM      7  C   UNL     1      42.925 129.804  23.620  1.00  0.00     0.032 A 
ATOM      8  C   UNL     1      44.338 127.599  22.734  1.00  0.00     0.226 A 
ATOM      9  C   UNL     1      42.465 128.492  23.874  1.00  0.00     0.047 A 
ATOM     10  N   UNL     1      43.180 127.430  23.416  1.00  0.00    -0.241 NA
ATOM     11  C   UNL     1      42.165 131.009  24.115  1.00  0.00     0.052 C 
ATOM     12  C   UNL     1      41.189 128.230  24.621  1.00  0.00     0.067 C 
ENDBRANCH   4   5
ENDBRANCH   1   4
BRANCH   1  13
ATOM     13  C   UNL     1      44.712 131.701  20.310  1.00  0.00     0.003 A 
ATOM     14  C   UNL     1      45.281 131.421  19.049  1.00  0.00     0.017 A 
ATOM     15  C   UNL     1      43.383 132.147  20.339  1.00  0.00    -0.006 A 
ATOM     16  C   UNL     1      44.536 131.597  17.855  1.00  0.00    -0.016 A 
ATOM     17  C   UNL     1      42.660 132.313  19.188  1.00  0.00     0.071 A 
ATOM     18  C   UNL     1      42.522 132.541  21.488  1.00  0.00     0.135 C 
ATOM     19  C   UNL     1      43.202 132.050  17.934  1.00  0.00     0.037 A 
ATOM     20  N   UNL     1      41.353 132.792  19.452  1.00  0.00    -0.218 NA
ATOM     21  C   UNL     1      41.272 132.919  20.740  1.00  0.00     0.190 C 
BRANCH  16  22
ATOM     22  C   UNL     1      45.159 131.320  16.536  1.00  0.00    -0.022 A 
ATOM     23  C   UNL     1      44.621 131.901  15.349  1.00  0.00    -0.014 A 
ATOM     24  C   UNL     1      46.297 130.481  16.450  1.00  0.00     0.016 A 
ATOM     25  N   UNL     1      45.178 131.667  14.122  1.00  0.00    -0.442 NA
ATOM     26  C   UNL     1      46.836 130.263  15.193  1.00  0.00    -0.026 A 
ATOM     27  C   UNL     1      46.264 130.867  14.040  1.00  0.00    -0.052 A 
ATOM     28  C   UNL     1      47.909 129.537  14.744  1.00  0.00     0.003 A 
ATOM     29  N   UNL     1      46.934 130.540  12.924  1.00  0.00    -0.442 NA
ATOM     30  C   UNL     1      47.936 129.730  13.361  1.00  0.00    -0.022 A 
ENDBRANCH  16  22
BRANCH  21  31
ATOM     31  O   UNL     1      40.114 133.374  21.360  1.00  0.00    -0.496 OA
ATOM     32  H   UNL     1      39.708 132.863  22.135  1.00  0.00     0.294 HD
ENDBRANCH  21  31
ENDBRANCH   1  13
TORSDOF 6
ENDMDL
MODEL 4
REMARK VINA RESULT:      -4.8      2.231      7.083
REMARK SMILES C=C[C@@H](Oc1ncnc(C)c1C)c1cc(-c2c[n-]c3nccc-3c2)cc2c1CC(O)=N2
REMARK SMILES IDX 3 1 2 2 1 3 4 4 5 5 6 6 11 7 7 8 9 9 8 10 12 11 10 12 13 13
REMARK SMILES IDX 14 14 27 15 15 16 26 17 28 18 25 19 31 20 29 21 16 22 17 23
REMARK SMILES IDX 24 24 18 25 23 26 19 27 22 28 20 29 21 30 30 31
REMARK H PARENT 30 32
ROOT
ATOM      1  C   UNL     1      45.434 131.239  21.662  1.00  0.00     0.228 C 
ENDROOT
BRANCH   1   2
ATOM      2  C   UNL     1      46.160 132.503  22.031  1.00  0.00     0.014 C 
ATOM      3  C   UNL     1      47.352 132.805  21.506  1.00  0.00     0.008 C 
ENDBRANCH   1   2
BRANCH   1   4
ATOM      4  O   UNL     1      44.442 130.967  22.653  1.00  0.00    -0.465 OA
BRANCH   4   5
ATOM      5  C   UNL     1      44.058 129.673  23.032  1.00  0.00     0.220 A 
ATOM      6  N   UNL     1      43.016 129.493  23.887  1.00  0.00    -0.202 NA
ATOM      7  C   UNL     1      44.750 128.555  22.531  1.00  0.00     0.032 A 
ATOM      8  C   UNL     1      42.620 128.254  24.268  1.00  0.00     0.226 A 
ATOM      9  C   UNL     1      44.304 127.274  22.923  1.00  0.00     0.047 A 
ATOM     10  N   UNL     1      43.259 127.162  23.786  1.00  0.00    -0.241 NA
ATOM     11  C   UNL     1      45.902 128.724  21.571  1.00  0.00     0.052 C 
ATOM     12  C   UNL     1      44.965 126.019  22.431  1.00  0.00     0.067 C 
ENDBRANCH   4   5
ENDBRANCH   1   4
BRANCH   1  13
ATOM     13  C   UNL     1      44.779 131.394  20.308  1.00  0.00     0.003 A 
ATOM     14  C   UNL     1      45.441 130.968  19.136  1.00  0.00     0.017 A 
ATOM     15  C   UNL     1      43.507 131.965  20.164  1.00  0.00    -0.006 A 
ATOM     16  C   UNL     1      44.843 131.125  17.859  1.00  0.00    -0.016 A 
ATOM     17  C   UNL     1      42.925 132.114  18.933  1.00  0.00     0.071 A 
ATOM     18  C   UNL     1      42.579 132.523  21.185  1.00  0.00     0.135 C 
ATOM     19  C   UNL     1      43.562 131.708  17.765  1.00  0.00     0.037 A 
ATOM     20  N   UNL     1      41.655 132.734  19.023  1.00  0.00    -0.218 NA
ATOM     21  C   UNL     1      41.457 132.963  20.284  1.00  0.00     0.190 C 
BRANCH  16  22
ATOM     22  C   UNL     1      45.565 130.693  16.636  1.00  0.00    -0.022 A 
ATOM     23  C   UNL     1      45.687 129.306  16.323  1.00  0.00    -0.014 A 
ATOM     24  C   UNL     1      46.132 131.658  15.768  1.00  0.00     0.016 A 
ATOM     25  N   UNL     1      46.342 128.881  15.200  1.00  0.00    -0.442 NA
ATOM     26  C   UNL     1      46.789 131.195  14.640  1.00  0.00    -0.026 A 
ATOM     27  C   UNL     1      46.882 129.802  14.371  1.00  0.00    -0.052 A 
ATOM     28  C   UNL     1      47.432 131.822  13.604  1.00  0.00     0.003 A 
ATOM     29  N   UNL     1      47.547 129.559  13.232  1.00  0.00    -0.442 NA
ATOM     30  C   UNL     1      47.879 130.795  12.769  1.00  0.00    -0.022 A 
ENDBRANCH  16  22
BRANCH  21  31
ATOM     31  O   UNL     1      40.294 133.571  20.744  1.00  0.00    -0.496 OA
ATOM     32  H   UNL     1      40.124 133.673  21.738  1.00  0.00     0.294 HD
ENDBRANCH  21  31
ENDBRANCH   1  13
TORSDOF 6
ENDMDL
MODEL 5
REMARK VINA RESULT:      -3.7      3.878      6.532
REMARK SMILES C=C[C@@H](Oc1ncnc(C)c1C)c1cc(-c2c[n-]c3nccc-3c2)cc2c1CC(O)=N2
REMARK SMILES IDX 3 1 2 2 1 3 4 4 5 5 6 6 11 7 7 8 9 9 8 10 12 11 10 12 13 13
REMARK SMILES IDX 14 14 27 15 15 16 26 17 28 18 25 19 31 20 29 21 16 22 17 23
REMARK SMILES IDX 24 24 18 25 23 26 19 27 22 28 20 29 21 30 30 31
REMARK H PARENT 30 32
ROOT
ATOM      1  C   UNL     1      43.969 131.337  19.455  1.00  0.00     0.228 C 
ENDROOT
BRANCH   1   2
ATOM      2  C   UNL     1      42.502 131.669  19.413  1.00  0.00     0.014 C 
ATOM      3  C   UNL     1      42.052 132.895  19.699  1.00  0.00     0.008 C 
ENDBRANCH   1   2
BRANCH   1   4
ATOM      4  O   UNL     1      44.628 132.008  18.381  1.00  0.00    -0.465 OA
BRANCH   4   5
ATOM      5  C   UNL     1      44.630 131.541  17.059  1.00  0.00     0.220 A 
ATOM      6  N   UNL     1      43.726 132.023  16.164  1.00  0.00    -0.202 NA
ATOM      7  C   UNL     1      45.565 130.572  16.654  1.00  0.00     0.032 A 
ATOM      8  C   UNL     1      43.707 131.592  14.879  1.00  0.00     0.226 A 
ATOM      9  C   UNL     1      45.542 130.157  15.303  1.00  0.00     0.047 A 
ATOM     10  N   UNL     1      44.609 130.672  14.460  1.00  0.00    -0.241 NA
ATOM     11  C   UNL     1      46.588 130.029  17.622  1.00  0.00     0.052 C 
ATOM     12  C   UNL     1      46.508 129.139  14.770  1.00  0.00     0.067 C 
ENDBRANCH   4   5
ENDBRANCH   1   4
BRANCH   1  13
ATOM     13  C   UNL     1      44.560 131.776  20.776  1.00  0.00     0.003 A 
ATOM     14  C   UNL     1      45.663 132.657  20.813  1.00  0.00     0.017 A 
ATOM     15  C   UNL     1      44.048 131.324  22.001  1.00  0.00    -0.006 A 
ATOM     16  C   UNL     1      46.236 133.061  22.046  1.00  0.00    -0.016 A 
ATOM     17  C   UNL     1      44.596 131.716  23.193  1.00  0.00     0.071 A 
ATOM     18  C   UNL     1      42.928 130.388  22.291  1.00  0.00     0.135 C 
ATOM     19  C   UNL     1      45.686 132.578  23.253  1.00  0.00     0.037 A 
ATOM     20  N   UNL     1      43.936 131.121  24.296  1.00  0.00    -0.218 NA
ATOM     21  C   UNL     1      42.999 130.378  23.794  1.00  0.00     0.190 C 
BRANCH  16  22
ATOM     22  C   UNL     1      47.410 133.969  22.065  1.00  0.00    -0.022 A 
ATOM     23  C   UNL     1      47.460 135.099  21.195  1.00  0.00    -0.014 A 
ATOM     24  C   UNL     1      48.485 133.722  22.953  1.00  0.00     0.016 A 
ATOM     25  N   UNL     1      48.527 135.955  21.195  1.00  0.00    -0.442 NA
ATOM     26  C   UNL     1      49.550 134.607  22.928  1.00  0.00    -0.026 A 
ATOM     27  C   UNL     1      49.552 135.720  22.043  1.00  0.00    -0.052 A 
ATOM     28  C   UNL     1      50.724 134.685  23.633  1.00  0.00     0.003 A 
ATOM     29  N   UNL     1      50.664 136.459  22.176  1.00  0.00    -0.442 NA
ATOM     30  C   UNL     1      51.373 135.822  23.147  1.00  0.00    -0.022 A 
ENDBRANCH  16  22
BRANCH  21  31
ATOM     31  O   UNL     1      42.143 129.636  24.600  1.00  0.00    -0.496 OA
ATOM     32  H   UNL     1      41.910 128.679  24.361  1.00  0.00     0.294 HD
ENDBRANCH  21  31
ENDBRANCH   1  13
TORSDOF 6
ENDMDL
MODEL 6
REMARK VINA RESULT:      -3.7      3.972      6.858
REMARK SMILES C=C[C@@H](Oc1ncnc(C)c1C)c1cc(-c2c[n-]c3nccc-3c2)cc2c1CC(O)=N2
REMARK SMILES IDX 3 1 2 2 1 3 4 4 5 5 6 6 11 7 7 8 9 9 8 10 12 11 10 12 13 13
REMARK SMILES IDX 14 14 27 15 15 16 26 17 28 18 25 19 31 20 29 21 16 22 17 23
REMARK SMILES IDX 24 24 18 25 23 26 19 27 22 28 20 29 21 30 30 31
REMARK H PARENT 30 32
ROOT
ATOM      1  C   UNL     1      44.350 131.313  19.205  1.00  0.00     0.228 C 
ENDROOT
BRANCH   1   2
ATOM      2  C   UNL     1      43.009 131.912  18.881  1.00  0.00     0.014 C 
ATOM      3  C   UNL     1      42.548 131.961  17.627  1.00  0.00     0.008 C 
ENDBRANCH   1   2
BRANCH   1   4
ATOM      4  O   UNL     1      45.283 131.687  18.191  1.00  0.00    -0.465 OA
BRANCH   4   5
ATOM      5  C   UNL     1      45.567 130.898  17.068  1.00  0.00     0.220 A 
ATOM      6  N   UNL     1      45.495 129.541  17.152  1.00  0.00    -0.202 NA
ATOM      7  C   UNL     1      45.927 131.503  15.851  1.00  0.00     0.032 A 
ATOM      8  C   UNL     1      45.761 128.753  16.082  1.00  0.00     0.226 A 
ATOM      9  C   UNL     1      46.174 130.662  14.743  1.00  0.00     0.047 A 
ATOM     10  N   UNL     1      46.093 129.313  14.894  1.00  0.00    -0.241 NA
ATOM     11  C   UNL     1      46.002 133.005  15.725  1.00  0.00     0.052 C 
ATOM     12  C   UNL     1      46.550 131.212  13.398  1.00  0.00     0.067 C 
ENDBRANCH   4   5
ENDBRANCH   1   4
BRANCH   1  13
ATOM     13  C   UNL     1      44.827 131.809  20.552  1.00  0.00     0.003 A 
ATOM     14  C   UNL     1      45.930 132.686  20.646  1.00  0.00     0.017 A 
ATOM     15  C   UNL     1      44.205 131.418  21.745  1.00  0.00    -0.006 A 
ATOM     16  C   UNL     1      46.396 133.143  21.905  1.00  0.00    -0.016 A 
ATOM     17  C   UNL     1      44.649 131.861  22.962  1.00  0.00     0.071 A 
ATOM     18  C   UNL     1      43.054 130.502  21.978  1.00  0.00     0.135 C 
ATOM     19  C   UNL     1      45.737 132.719  23.080  1.00  0.00     0.037 A 
ATOM     20  N   UNL     1      43.889 131.322  24.029  1.00  0.00    -0.218 NA
ATOM     21  C   UNL     1      42.993 130.561  23.481  1.00  0.00     0.190 C 
BRANCH  16  22
ATOM     22  C   UNL     1      47.572 134.045  21.986  1.00  0.00    -0.022 A 
ATOM     23  C   UNL     1      48.640 133.758  22.887  1.00  0.00    -0.014 A 
ATOM     24  C   UNL     1      47.642 135.196  21.162  1.00  0.00     0.016 A 
ATOM     25  N   UNL     1      49.737 134.570  22.978  1.00  0.00    -0.442 NA
ATOM     26  C   UNL     1      48.765 135.997  21.279  1.00  0.00    -0.026 A 
ATOM     27  C   UNL     1      49.804 135.667  22.192  1.00  0.00    -0.052 A 
ATOM     28  C   UNL     1      49.166 137.149  20.653  1.00  0.00     0.003 A 
ATOM     29  N   UNL     1      50.805 136.560  22.150  1.00  0.00    -0.442 NA
ATOM     30  C   UNL     1      50.409 137.460  21.209  1.00  0.00    -0.022 A 
ENDBRANCH  16  22
BRANCH  21  31
ATOM     31  O   UNL     1      42.062 129.862  24.240  1.00  0.00    -0.496 OA
ATOM     32  H   UNL     1      42.364 129.223  24.967  1.00  0.00     0.294 HD
ENDBRANCH  21  31
ENDBRANCH   1  13
TORSDOF 6
ENDMDL
MODEL 7
REMARK VINA RESULT:      -3.2      1.125      1.580
REMARK SMILES C=C[C@@H](Oc1ncnc(C)c1C)c1cc(-c2c[n-]c3nccc-3c2)cc2c1CC(O)=N2
REMARK SMILES IDX 3 1 2 2 1 3 4 4 5 5 6 6 11 7 7 8 9 9 8 10 12 11 10 12 13 13
REMARK SMILES IDX 14 14 27 15 15 16 26 17 28 18 25 19 31 20 29 21 16 22 17 23
REMARK SMILES IDX 24 24 18 25 23 26 19 27 22 28 20 29 21 30 30 31
REMARK H PARENT 30 32
ROOT
ATOM      1  C   UNL     1      44.700 131.158  19.845  1.00  0.00     0.228 C 
ENDROOT
BRANCH   1   2
ATOM      2  C   UNL     1      45.971 131.961  19.889  1.00  0.00     0.014 C 
ATOM      3  C   UNL     1      46.865 131.805  20.871  1.00  0.00     0.008 C 
ENDBRANCH   1   2
BRANCH   1   4
ATOM      4  O   UNL     1      44.714 130.327  18.684  1.00  0.00    -0.465 OA
BRANCH   4   5
ATOM      5  C   UNL     1      44.639 130.822  17.375  1.00  0.00     0.220 A 
ATOM      6  N   UNL     1      43.529 131.492  16.962  1.00  0.00    -0.202 NA
ATOM      7  C   UNL     1      45.709 130.628  16.483  1.00  0.00     0.032 A 
ATOM      8  C   UNL     1      43.430 131.984  15.703  1.00  0.00     0.226 A 
ATOM      9  C   UNL     1      45.593 131.172  15.185  1.00  0.00     0.047 A 
ATOM     10  N   UNL     1      44.454 131.826  14.831  1.00  0.00    -0.241 NA
ATOM     11  C   UNL     1      46.957 129.900  16.918  1.00  0.00     0.052 C 
ATOM     12  C   UNL     1      46.686 131.032  14.166  1.00  0.00     0.067 C 
ENDBRANCH   4   5
ENDBRANCH   1   4
BRANCH   1  13
ATOM     13  C   UNL     1      44.585 130.303  21.088  1.00  0.00     0.003 A 
ATOM     14  C   UNL     1      45.163 129.016  21.132  1.00  0.00     0.017 A 
ATOM     15  C   UNL     1      43.902 130.748  22.229  1.00  0.00    -0.006 A 
ATOM     16  C   UNL     1      45.046 128.200  22.286  1.00  0.00    -0.016 A 
ATOM     17  C   UNL     1      43.792 129.965  23.347  1.00  0.00     0.071 A 
ATOM     18  C   UNL     1      43.178 132.023  22.484  1.00  0.00     0.135 C 
ATOM     19  C   UNL     1      44.347 128.691  23.410  1.00  0.00     0.037 A 
ATOM     20  N   UNL     1      43.043 130.604  24.366  1.00  0.00    -0.218 NA
ATOM     21  C   UNL     1      42.699 131.759  23.886  1.00  0.00     0.190 C 
BRANCH  16  22
ATOM     22  C   UNL     1      45.640 126.840  22.305  1.00  0.00    -0.022 A 
ATOM     23  C   UNL     1      44.817 125.691  22.111  1.00  0.00    -0.014 A 
ATOM     24  C   UNL     1      47.032 126.676  22.511  1.00  0.00     0.016 A 
ATOM     25  N   UNL     1      45.339 124.427  22.118  1.00  0.00    -0.442 NA
ATOM     26  C   UNL     1      47.529 125.383  22.514  1.00  0.00    -0.026 A 
ATOM     27  C   UNL     1      46.667 124.270  22.314  1.00  0.00    -0.052 A 
ATOM     28  C   UNL     1      48.787 124.861  22.670  1.00  0.00     0.003 A 
ATOM     29  N   UNL     1      47.339 123.110  22.344  1.00  0.00    -0.442 NA
ATOM     30  C   UNL     1      48.631 123.477  22.561  1.00  0.00    -0.022 A 
ENDBRANCH  16  22
BRANCH  21  31
ATOM     31  O   UNL     1      41.945 132.663  24.625  1.00  0.00    -0.496 OA
ATOM     32  H   UNL     1      42.393 133.430  25.114  1.00  0.00     0.294 HD
ENDBRANCH  21  31
ENDBRANCH   1  13
TORSDOF 6
ENDMDL
MODEL 8
REMARK VINA RESULT:      -2.4      3.923      6.594
REMARK SMILES C=C[C@@H](Oc1ncnc(C)c1C)c1cc(-c2c[n-]c3nccc-3c2)cc2c1CC(O)=N2
REMARK SMILES IDX 3 1 2 2 1 3 4 4 5 5 6 6 11 7 7 8 9 9 8 10 12 11 10 12 13 13
REMARK SMILES IDX 14 14 27 15 15 16 26 17 28 18 25 19 31 20 29 21 16 22 17 23
REMARK SMILES IDX 24 24 18 25 23 26 19 27 22 28 20 29 21 30 30 31
REMARK H PARENT 30 32
ROOT
ATOM      1  C   UNL     1      44.119 131.180  19.490  1.00  0.00     0.228 C 
ENDROOT
BRANCH   1   2
ATOM      2  C   UNL     1      42.637 131.425  19.409  1.00  0.00     0.014 C 
ATOM      3  C   UNL     1      42.125 132.658  19.471  1.00  0.00     0.008 C 
ENDBRANCH   1   2
BRANCH   1   4
ATOM      4  O   UNL     1      44.762 131.867  18.416  1.00  0.00    -0.465 OA
BRANCH   4   5
ATOM      5  C   UNL     1      45.189 131.239  17.238  1.00  0.00     0.220 A 
ATOM      6  N   UNL     1      46.336 130.508  17.232  1.00  0.00    -0.202 NA
ATOM      7  C   UNL     1      44.434 131.361  16.057  1.00  0.00     0.032 A 
ATOM      8  C   UNL     1      46.771 129.886  16.109  1.00  0.00     0.226 A 
ATOM      9  C   UNL     1      44.894 130.684  14.907  1.00  0.00     0.047 A 
ATOM     10  N   UNL     1      46.052 129.975  14.964  1.00  0.00    -0.241 NA
ATOM     11  C   UNL     1      43.150 132.155  16.038  1.00  0.00     0.052 C 
ATOM     12  C   UNL     1      44.151 130.740  13.603  1.00  0.00     0.067 C 
ENDBRANCH   4   5
ENDBRANCH   1   4
BRANCH   1  13
ATOM     13  C   UNL     1      44.654 131.679  20.813  1.00  0.00     0.003 A 
ATOM     14  C   UNL     1      45.761 132.555  20.858  1.00  0.00     0.017 A 
ATOM     15  C   UNL     1      44.084 131.290  22.034  1.00  0.00    -0.006 A 
ATOM     16  C   UNL     1      46.281 133.014  22.094  1.00  0.00    -0.016 A 
ATOM     17  C   UNL     1      44.581 131.736  23.229  1.00  0.00     0.071 A 
ATOM     18  C   UNL     1      42.944 130.376  22.318  1.00  0.00     0.135 C 
ATOM     19  C   UNL     1      45.674 132.593  23.297  1.00  0.00     0.037 A 
ATOM     20  N   UNL     1      43.867 131.199  24.329  1.00  0.00    -0.218 NA
ATOM     21  C   UNL     1      42.948 130.438  23.822  1.00  0.00     0.190 C 
BRANCH  16  22
ATOM     22  C   UNL     1      47.460 133.916  22.122  1.00  0.00    -0.022 A 
ATOM     23  C   UNL     1      47.523 135.046  21.255  1.00  0.00    -0.014 A 
ATOM     24  C   UNL     1      48.529 133.661  23.017  1.00  0.00     0.016 A 
ATOM     25  N   UNL     1      48.595 135.896  21.263  1.00  0.00    -0.442 NA
ATOM     26  C   UNL     1      49.599 134.539  23.000  1.00  0.00    -0.026 A 
ATOM     27  C   UNL     1      49.613 135.654  22.117  1.00  0.00    -0.052 A 
ATOM     28  C   UNL     1      50.768 134.608  23.713  1.00  0.00     0.003 A 
ATOM     29  N   UNL     1      50.729 136.385  22.259  1.00  0.00    -0.442 NA
ATOM     30  C   UNL     1      51.428 135.743  23.234  1.00  0.00    -0.022 A 
ENDBRANCH  16  22
BRANCH  21  31
ATOM     31  O   UNL     1      42.050 129.741  24.623  1.00  0.00    -0.496 OA
ATOM     32  H   UNL     1      41.966 129.955  25.609  1.00  0.00     0.294 HD
ENDBRANCH  21  31
ENDBRANCH   1  13
TORSDOF 6
ENDMDL
MODEL 9
REMARK VINA RESULT:      -2.3      3.966      7.357
REMARK SMILES C=C[C@@H](Oc1ncnc(C)c1C)c1cc(-c2c[n-]c3nccc-3c2)cc2c1CC(O)=N2
REMARK SMILES IDX 3 1 2 2 1 3 4 4 5 5 6 6 11 7 7 8 9 9 8 10 12 11 10 12 13 13
REMARK SMILES IDX 14 14 27 15 15 16 26 17 28 18 25 19 31 20 29 21 16 22 17 23
REMARK SMILES IDX 24 24 18 25 23 26 19 27 22 28 20 29 21 30 30 31
REMARK H PARENT 30 32
ROOT
ATOM      1  C   UNL     1      46.487 133.757  22.209  1.00  0.00     0.228 C 
ENDROOT
BRANCH   1   2
ATOM      2  C   UNL     1      46.620 133.403  23.665  1.00  0.00     0.014 C 
ATOM      3  C   UNL     1      46.110 134.181  24.624  1.00  0.00     0.008 C 
ENDBRANCH   1   2
BRANCH   1   4
ATOM      4  O   UNL     1      47.791 133.885  21.640  1.00  0.00    -0.465 OA
BRANCH   4   5
ATOM      5  C   UNL     1      48.866 134.499  22.297  1.00  0.00     0.220 A 
ATOM      6  N   UNL     1      49.465 133.881  23.351  1.00  0.00    -0.202 NA
ATOM      7  C   UNL     1      49.330 135.757  21.870  1.00  0.00     0.032 A 
ATOM      8  C   UNL     1      50.509 134.450  24.002  1.00  0.00     0.226 A 
ATOM      9  C   UNL     1      50.435 136.317  22.549  1.00  0.00     0.047 A 
ATOM     10  N   UNL     1      50.985 135.652  23.599  1.00  0.00    -0.241 NA
ATOM     11  C   UNL     1      48.694 136.459  20.696  1.00  0.00     0.052 C 
ATOM     12  C   UNL     1      51.013 137.647  22.159  1.00  0.00     0.067 C 
ENDBRANCH   4   5
ENDBRANCH   1   4
BRANCH   1  13
ATOM     13  C   UNL     1      45.713 132.680  21.483  1.00  0.00     0.003 A 
ATOM     14  C   UNL     1      45.890 132.477  20.096  1.00  0.00     0.017 A 
ATOM     15  C   UNL     1      44.796 131.854  22.148  1.00  0.00    -0.006 A 
ATOM     16  C   UNL     1      45.155 131.481  19.403  1.00  0.00    -0.016 A 
ATOM     17  C   UNL     1      44.090 130.888  21.482  1.00  0.00     0.071 A 
ATOM     18  C   UNL     1      44.377 131.833  23.576  1.00  0.00     0.135 C 
ATOM     19  C   UNL     1      44.242 130.675  20.116  1.00  0.00     0.037 A 
ATOM     20  N   UNL     1      43.208 130.192  22.345  1.00  0.00    -0.218 NA
ATOM     21  C   UNL     1      43.368 130.718  23.520  1.00  0.00     0.190 C 
BRANCH  16  22
ATOM     22  C   UNL     1      45.337 131.299  17.941  1.00  0.00    -0.022 A 
ATOM     23  C   UNL     1      44.671 132.161  17.019  1.00  0.00    -0.014 A 
ATOM     24  C   UNL     1      46.178 130.270  17.452  1.00  0.00     0.016 A 
ATOM     25  N   UNL     1      44.824 132.019  15.667  1.00  0.00    -0.442 NA
ATOM     26  C   UNL     1      46.312 130.152  16.079  1.00  0.00    -0.026 A 
ATOM     27  C   UNL     1      45.628 131.037  15.202  1.00  0.00    -0.052 A 
ATOM     28  C   UNL     1      47.028 129.303  15.275  1.00  0.00     0.003 A 
ATOM     29  N   UNL     1      45.893 130.765  13.915  1.00  0.00    -0.442 NA
ATOM     30  C   UNL     1      46.747 129.707  13.967  1.00  0.00    -0.022 A 
ENDBRANCH  16  22
BRANCH  21  31
ATOM     31  O   UNL     1      42.650 130.273  24.625  1.00  0.00    -0.496 OA
ATOM     32  H   UNL     1      41.883 130.821  24.996  1.00  0.00     0.294 HD
ENDBRANCH  21  31
ENDBRANCH   1  13
TORSDOF 6
ENDMDL


