REMARK SMILES c1cc(-c2ccc3[nH]ccc3c2)cc([C@H]2CO2)c1
REMARK SMILES IDX 4 1 5 2 6 3 7 4 8 5 9 6 10 7 11 8 12 9 3 11 1 12 2 13 18 14
REMARK SMILES IDX 14 15 13 16 15 17 16 18 17 19
REMARK H PARENT 8 10
ROOT
ATOM      1  C   UNL     1      -0.011  -0.745   0.544  1.00  0.00    -0.018 A 
ATOM      2  C   UNL     1      -0.061  -0.423   1.929  1.00  0.00     0.011 A 
ATOM      3  C   UNL     1      -0.885  -1.147   2.809  1.00  0.00     0.027 A 
ATOM      4  C   UNL     1      -1.647  -2.186   2.282  1.00  0.00     0.045 A 
ATOM      5  N   UNL     1      -2.493  -2.993   2.941  1.00  0.00    -0.361 N 
ATOM      6  C   UNL     1      -2.998  -3.837   2.011  1.00  0.00     0.083 A 
ATOM      7  C   UNL     1      -2.467  -3.562   0.755  1.00  0.00     0.028 A 
ATOM      8  C   UNL     1      -1.606  -2.504   0.952  1.00  0.00    -0.000 A 
ATOM      9  C   UNL     1      -0.802  -1.810   0.051  1.00  0.00     0.019 A 
ATOM     10  H   UNL     1      -2.720  -2.976   3.960  1.00  0.00     0.166 HD
ENDROOT
BRANCH   1  11
ATOM     11  C   UNL     1       0.863   0.028  -0.375  1.00  0.00    -0.018 A 
ATOM     12  C   UNL     1       2.406   0.103  -2.255  1.00  0.00     0.001 A 
ATOM     13  C   UNL     1       1.589  -0.626  -1.387  1.00  0.00     0.009 A 
ATOM     14  C   UNL     1       2.512   1.489  -2.123  1.00  0.00     0.006 A 
ATOM     15  C   UNL     1       1.808   2.155  -1.110  1.00  0.00    -0.016 A 
ATOM     16  C   UNL     1       0.974   1.425  -0.250  1.00  0.00     0.015 A 
BRANCH  15  17
ATOM     17  C   UNL     1       1.890   3.648  -0.988  1.00  0.00     0.174 C 
ATOM     18  C   UNL     1       2.472   4.169   0.271  1.00  0.00     0.198 C 
ATOM     19  O   UNL     1       3.225   4.093  -0.916  1.00  0.00    -0.368 OA
ENDBRANCH  15  17
ENDBRANCH   1  11
TORSDOF 2


