REMARK SMILES C=c1cc/c(=C(/O)CC(O)=C2CCC2)c(F)c1
REMARK SMILES IDX 8 1 9 2 10 3 11 5 12 6 14 7 13 8 6 9 7 10 5 12 4 13 15 14
REMARK SMILES IDX 3 15 17 16 2 17 16 18 1 19
REMARK H PARENT 10 4 7 11
ROOT
ATOM      1  C   UNL     1       1.970   1.426  -1.404  1.00  0.00     0.149 C 
ENDROOT
BRANCH   1   2
ATOM      2  C   UNL     1       0.654   0.961  -1.974  1.00  0.00     0.099 C 
BRANCH   2   3
ATOM      3  O   UNL     1      -0.319   1.884  -2.353  1.00  0.00    -0.512 OA
ATOM      4  H   UNL     1      -0.166   2.881  -2.267  1.00  0.00     0.293 HD
ENDBRANCH   2   3
BRANCH   2   5
ATOM      5  C   UNL     1       0.415  -0.335  -2.165  1.00  0.00    -0.032 C 
ATOM      6  C   UNL     1       1.135  -1.656  -1.967  1.00  0.00     0.035 C 
ATOM      7  C   UNL     1      -0.721  -1.180  -2.706  1.00  0.00     0.035 C 
ATOM      8  C   UNL     1       0.003  -2.471  -2.504  1.00  0.00     0.009 C 
ENDBRANCH   2   5
ENDBRANCH   1   2
BRANCH   1   9
ATOM      9  C   UNL     1       1.769   2.487  -0.339  1.00  0.00     0.110 C 
BRANCH   9  10
ATOM     10  O   UNL     1       2.038   3.809  -0.705  1.00  0.00    -0.511 OA
ATOM     11  H   UNL     1       2.345   4.057  -1.638  1.00  0.00     0.293 HD
ENDBRANCH   9  10
BRANCH   9  12
ATOM     12  C   UNL     1       1.332   2.208   0.922  1.00  0.00     0.048 A 
ATOM     13  C   UNL     1       1.025   0.885   1.322  1.00  0.00     0.015 A 
ATOM     14  C   UNL     1       1.163   3.239   1.884  1.00  0.00     0.134 A 
ATOM     15  C   UNL     1       0.573   0.604   2.613  1.00  0.00     0.008 A 
ATOM     16  C   UNL     1       0.710   2.948   3.175  1.00  0.00     0.047 A 
ATOM     17  C   UNL     1       0.411   1.631   3.550  1.00  0.00    -0.030 A 
ATOM     18  F   UNL     1       1.432   4.540   1.598  1.00  0.00    -0.206 F 
ATOM     19  C   UNL     1      -0.022   1.360   4.786  1.00  0.00     0.017 C 
ENDBRANCH   9  12
ENDBRANCH   1   9
TORSDOF 6


