REMARK SMILES CCOC(=O)c1cc(/N=C(\S)n2[n-]c(=O)/c(=N/N)cc2-c2ccc3[nH]ccc3c2)ccc1F
REMARK SMILES IDX 9 1 10 2 11 3 12 5 13 6 20 7 14 8 19 9 16 10 15 11 21 12
REMARK SMILES IDX 22 13 29 14 23 15 28 16 24 17 27 18 25 19 26 20 17 22 18 23
REMARK SMILES IDX 8 26 30 27 7 28 31 29 6 30 32 31 33 32 4 33 5 34 3 35 2 36
REMARK SMILES IDX 1 37
REMARK H PARENT 11 4 25 21 18 24 18 25
ROOT
ATOM      1  N   UNL     1       2.174  -0.270   1.072  1.00  0.00    -0.226 NA
ENDROOT
BRANCH   1   2
ATOM      2  C   UNL     1       2.074  -0.075  -0.213  1.00  0.00     0.152 C 
BRANCH   2   3
ATOM      3  S   UNL     1       1.575  -1.401  -1.332  1.00  0.00    -0.106 SA
ATOM      4  H   UNL     1       2.897  -1.871  -1.448  1.00  0.00     0.111 HD
ENDBRANCH   2   3
BRANCH   2   5
ATOM      5  N   UNL     1       2.540   1.167  -0.763  1.00  0.00    -0.393 N 
ATOM      6  N   UNL     1       3.741   1.598  -0.373  1.00  0.00    -0.552 NA
ATOM      7  C   UNL     1       1.810   1.883  -1.682  1.00  0.00     0.039 A 
ATOM      8  C   UNL     1       4.313   2.722  -0.873  1.00  0.00     0.118 A 
ATOM      9  C   UNL     1       2.366   3.042  -2.243  1.00  0.00     0.058 A 
ATOM     10  C   UNL     1       3.643   3.472  -1.845  1.00  0.00     0.111 A 
ATOM     11  O   UNL     1       5.450   3.074  -0.459  1.00  0.00    -0.312 OA
BRANCH   7  12
ATOM     12  C   UNL     1       0.417   1.520  -2.041  1.00  0.00    -0.002 A 
ATOM     13  C   UNL     1       0.052   1.359  -3.402  1.00  0.00     0.012 A 
ATOM     14  C   UNL     1      -0.558   1.359  -1.030  1.00  0.00     0.020 A 
ATOM     15  C   UNL     1      -1.268   1.025  -3.757  1.00  0.00     0.027 A 
ATOM     16  C   UNL     1      -1.853   1.030  -1.417  1.00  0.00     0.000 A 
ATOM     17  C   UNL     1      -2.197   0.868  -2.732  1.00  0.00     0.045 A 
ATOM     18  C   UNL     1      -2.989   0.822  -0.665  1.00  0.00     0.028 A 
ATOM     19  N   UNL     1      -3.500   0.566  -2.851  1.00  0.00    -0.361 N 
ATOM     20  C   UNL     1      -3.989   0.538  -1.590  1.00  0.00     0.083 A 
ATOM     21  H   UNL     1      -4.031   0.391  -3.733  1.00  0.00     0.166 HD
ENDBRANCH   7  12
BRANCH  10  22
ATOM     22  N   UNL     1       4.215   4.545  -2.322  1.00  0.00    -0.181 NA
BRANCH  22  23
ATOM     23  N   UNL     1       3.697   5.381  -3.327  1.00  0.00    -0.323 N 
ATOM     24  H   UNL     1       4.207   6.259  -3.564  1.00  0.00     0.179 HD
ATOM     25  H   UNL     1       2.893   5.112  -3.932  1.00  0.00     0.179 HD
ENDBRANCH  22  23
ENDBRANCH  10  22
ENDBRANCH   2   5
ENDBRANCH   1   2
BRANCH   1  26
ATOM     26  C   UNL     1       1.750  -1.436   1.792  1.00  0.00     0.067 A 
ATOM     27  C   UNL     1       2.601  -1.982   2.757  1.00  0.00     0.031 A 
ATOM     28  C   UNL     1       0.467  -1.981   1.613  1.00  0.00     0.047 A 
ATOM     29  C   UNL     1       2.204  -3.098   3.495  1.00  0.00     0.042 A 
ATOM     30  C   UNL     1       0.056  -3.110   2.347  1.00  0.00     0.097 A 
ATOM     31  C   UNL     1       0.945  -3.669   3.290  1.00  0.00     0.137 A 
ATOM     32  F   UNL     1       0.598  -4.754   4.027  1.00  0.00    -0.206 F 
BRANCH  30  33
ATOM     33  C   UNL     1      -1.291  -3.685   2.116  1.00  0.00     0.341 C 
ATOM     34  O   UNL     1      -1.648  -4.738   2.713  1.00  0.00    -0.246 OA
BRANCH  33  35
ATOM     35  O   UNL     1      -2.171  -3.058   1.227  1.00  0.00    -0.462 OA
BRANCH  35  36
ATOM     36  C   UNL     1      -3.462  -3.579   0.927  1.00  0.00     0.230 C 
ATOM     37  C   UNL     1      -4.181  -2.640  -0.026  1.00  0.00     0.049 C 
ENDBRANCH  35  36
ENDBRANCH  33  35
ENDBRANCH  30  33
ENDBRANCH   1  26
TORSDOF 10


