REMARK SMILES C=Cc1ccc(-c2cccc3cc([NH2+]c4ccc(F)cc4C)[nH]c23)[nH+]c1
REMARK SMILES IDX 7 1 8 2 9 3 10 4 11 5 12 6 13 7 23 8 24 9 6 11 3 12 4 13
REMARK SMILES IDX 26 14 5 15 25 16 2 18 1 19 14 20 15 23 16 24 21 25 17 26
REMARK SMILES IDX 20 27 18 28 22 29 19 30
REMARK H PARENT 23 10 25 17 14 21 14 22
ROOT
ATOM      1  C   UNL     1       2.055   0.341   0.494  1.00  0.00     0.070 A 
ATOM      2  C   UNL     1       3.061   0.535   1.467  1.00  0.00     0.017 A 
ATOM      3  C   UNL     1       3.208  -0.365   2.544  1.00  0.00     0.002 A 
ATOM      4  C   UNL     1       2.348  -1.468   2.673  1.00  0.00     0.010 A 
ATOM      5  C   UNL     1       1.355  -1.635   1.713  1.00  0.00     0.007 A 
ATOM      6  C   UNL     1       0.367  -2.590   1.619  1.00  0.00     0.099 A 
ATOM      7  C   UNL     1      -0.364  -2.227   0.490  1.00  0.00     0.208 A 
ATOM      8  N   UNL     1       0.148  -1.120  -0.097  1.00  0.00    -0.309 N 
ATOM      9  C   UNL     1       1.205  -0.766   0.659  1.00  0.00     0.064 A 
ATOM     10  H   UNL     1      -0.223  -0.637  -0.944  1.00  0.00     0.172 HD
ENDROOT
BRANCH   1  11
ATOM     11  C   UNL     1       1.923   1.283  -0.640  1.00  0.00     0.212 A 
ATOM     12  C   UNL     1       1.728   3.089  -2.765  1.00  0.00     0.038 A 
ATOM     13  C   UNL     1       1.757   1.710  -3.012  1.00  0.00     0.021 A 
ATOM     14  C   UNL     1       1.792   3.527  -1.429  1.00  0.00     0.314 A 
ATOM     15  C   UNL     1       1.863   0.806  -1.956  1.00  0.00     0.081 A 
ATOM     16  N   UNL     1       1.895   2.628  -0.412  1.00  0.00    -0.210 N 
ATOM     17  H   UNL     1       1.933   2.990   0.568  1.00  0.00     0.453 HD
BRANCH  12  18
ATOM     18  C   UNL     1       1.605   4.018  -3.916  1.00  0.00     0.006 C 
ATOM     19  C   UNL     1       1.863   5.325  -3.858  1.00  0.00     0.009 C 
ENDBRANCH  12  18
ENDBRANCH   1  11
BRANCH   7  20
ATOM     20  N   UNL     1      -1.512  -2.932  -0.013  1.00  0.00    -0.267 N 
ATOM     21  H   UNL     1      -1.239  -3.928  -0.180  1.00  0.00     0.359 HD
ATOM     22  H   UNL     1      -1.800  -2.541  -0.937  1.00  0.00     0.359 HD
BRANCH  20  23
ATOM     23  C   UNL     1      -2.600  -2.857   0.937  1.00  0.00     0.138 A 
ATOM     24  C   UNL     1      -2.783  -3.910   1.855  1.00  0.00     0.071 A 
ATOM     25  C   UNL     1      -3.470  -1.734   0.997  1.00  0.00     0.013 A 
ATOM     26  C   UNL     1      -3.805  -3.863   2.803  1.00  0.00     0.045 A 
ATOM     27  C   UNL     1      -4.493  -1.705   1.962  1.00  0.00     0.048 A 
ATOM     28  C   UNL     1      -4.659  -2.764   2.856  1.00  0.00     0.123 A 
ATOM     29  C   UNL     1      -3.318  -0.562   0.063  1.00  0.00     0.051 C 
ATOM     30  F   UNL     1      -5.650  -2.720   3.780  1.00  0.00    -0.207 F 
ENDBRANCH  20  23
ENDBRANCH   7  20
TORSDOF 4


