REMARK SMILES Cc1cc(N)c(O)c(-n2nc3ccccc3n2)c1
REMARK SMILES IDX 1 1 2 2 3 3 4 4 6 5 8 6 18 7 5 8 9 11 10 12 17 13 11 14
REMARK SMILES IDX 16 15 12 16 15 17 13 18 14 19 7 20
REMARK H PARENT 5 9 5 10 7 21
ROOT
ATOM      1  C   UNL     1       0.867  -1.113   3.553  1.00  0.00     0.044 C 
ATOM      2  C   UNL     1       0.272  -0.454   2.344  1.00  0.00    -0.047 A 
ATOM      3  C   UNL     1      -0.270   0.833   2.438  1.00  0.00     0.033 A 
ATOM      4  C   UNL     1      -0.853   1.445   1.320  1.00  0.00     0.077 A 
ATOM      5  C   UNL     1      -0.909   0.758   0.092  1.00  0.00     0.166 A 
ATOM      6  C   UNL     1      -0.420  -0.568   0.008  1.00  0.00     0.130 A 
ATOM      7  C   UNL     1       0.180  -1.153   1.134  1.00  0.00     0.037 A 
ENDROOT
BRANCH   4   8
ATOM      8  N   UNL     1      -1.371   2.776   1.436  1.00  0.00    -0.396 N 
ATOM      9  H   UNL     1      -1.320   3.290   2.344  1.00  0.00     0.156 HD
ATOM     10  H   UNL     1      -1.813   3.262   0.625  1.00  0.00     0.156 HD
ENDBRANCH   4   8
BRANCH   6  11
ATOM     11  N   UNL     1      -0.551  -1.347  -1.192  1.00  0.00    -0.147 N 
ATOM     12  N   UNL     1      -1.655  -1.376  -1.938  1.00  0.00    -0.148 NA
ATOM     13  N   UNL     1       0.388  -2.190  -1.621  1.00  0.00    -0.148 NA
ATOM     14  C   UNL     1      -1.391  -2.267  -2.905  1.00  0.00     0.113 A 
ATOM     15  C   UNL     1      -0.141  -2.765  -2.711  1.00  0.00     0.113 A 
ATOM     16  C   UNL     1      -2.200  -2.682  -3.958  1.00  0.00     0.032 A 
ATOM     17  C   UNL     1       0.415  -3.725  -3.550  1.00  0.00     0.032 A 
ATOM     18  C   UNL     1      -1.673  -3.652  -4.834  1.00  0.00     0.002 A 
ATOM     19  C   UNL     1      -0.372  -4.171  -4.631  1.00  0.00     0.002 A 
ENDBRANCH   6  11
BRANCH   5  20
ATOM     20  O   UNL     1      -1.420   1.422  -1.026  1.00  0.00    -0.504 OA
ATOM     21  H   UNL     1      -1.343   1.063  -1.968  1.00  0.00     0.293 HD
ENDBRANCH   5  20
TORSDOF 3


