MODEL 1
REMARK VINA RESULT:      -5.4      0.000      0.000
REMARK SMILES CC(=O)c1c(-c2cnc3c(c2)C(O)=NC3)cc(/C(O)=N/[C@@H]2C=CCC2)c(F)c1O
REMARK SMILES IDX 5 1 16 2 17 3 26 4 27 5 28 6 4 7 6 8 12 9 14 10 10 11 15 12
REMARK SMILES IDX 11 13 9 14 8 15 7 16 13 17 2 19 3 20 1 21 18 22 20 23 21 24
REMARK SMILES IDX 22 25 25 26 23 27 24 28 19 29 29 31
REMARK H PARENT 13 18 19 30 29 32
ROOT
ATOM      1  C   UNL     1      44.956 129.110  21.593  1.00  0.00    -0.001 A 
ATOM      2  C   UNL     1      45.409 129.395  20.297  1.00  0.00     0.026 A 
ATOM      3  C   UNL     1      45.088 130.605  19.660  1.00  0.00     0.076 A 
ATOM      4  C   UNL     1      44.290 131.542  20.348  1.00  0.00     0.178 A 
ATOM      5  F   UNL     1      43.946 132.720  19.767  1.00  0.00    -0.202 F 
ATOM      6  C   UNL     1      43.846 131.279  21.654  1.00  0.00     0.163 A 
ATOM      7  C   UNL     1      44.183 130.069  22.292  1.00  0.00     0.070 A 
ENDROOT
BRANCH   1   8
ATOM      8  C   UNL     1      45.259 127.778  22.165  1.00  0.00     0.002 A 
ATOM      9  C   UNL     1      47.912 125.083  22.555  1.00  0.00     0.215 C 
ATOM     10  N   UNL     1      47.679 123.979  23.197  1.00  0.00    -0.245 NA
ATOM     11  C   UNL     1      46.756 125.945  22.538  1.00  0.00     0.060 A 
ATOM     12  C   UNL     1      46.298 123.976  23.701  1.00  0.00     0.203 C 
ATOM     13  C   UNL     1      46.533 127.200  21.983  1.00  0.00     0.026 A 
ATOM     14  C   UNL     1      45.781 125.289  23.225  1.00  0.00     0.075 A 
ATOM     15  N   UNL     1      44.546 125.822  23.399  1.00  0.00    -0.258 NA
ATOM     16  C   UNL     1      44.268 127.055  22.877  1.00  0.00     0.120 A 
BRANCH   9  17
ATOM     17  O   UNL     1      49.135 125.376  21.961  1.00  0.00    -0.493 OA
ATOM     18  H   UNL     1      49.796 125.995  22.415  1.00  0.00     0.295 HD
ENDBRANCH   9  17
ENDBRANCH   1   8
BRANCH   7  19
ATOM     19  C   UNL     1      43.754 129.854  23.695  1.00  0.00     0.164 C 
ATOM     20  O   UNL     1      44.603 129.923  24.623  1.00  0.00    -0.294 OA
ATOM     21  C   UNL     1      42.331 129.535  24.038  1.00  0.00     0.093 C 
ENDBRANCH   7  19
BRANCH   3  22
ATOM     22  C   UNL     1      45.586 130.854  18.279  1.00  0.00     0.217 C 
BRANCH  22  23
ATOM     23  N   UNL     1      44.982 131.720  17.513  1.00  0.00    -0.244 NA
BRANCH  23  24
ATOM     24  C   UNL     1      44.852 131.639  16.059  1.00  0.00     0.132 C 
ATOM     25  C   UNL     1      44.730 130.213  15.658  1.00  0.00    -0.005 C 
ATOM     26  C   UNL     1      46.131 132.120  15.348  1.00  0.00     0.036 C 
ATOM     27  C   UNL     1      45.723 129.817  14.883  1.00  0.00    -0.029 C 
ATOM     28  C   UNL     1      46.703 130.901  14.619  1.00  0.00     0.029 C 
ENDBRANCH  23  24
ENDBRANCH  22  23
BRANCH  22  29
ATOM     29  O   UNL     1      46.707 130.149  17.827  1.00  0.00    -0.493 OA
ATOM     30  H   UNL     1      46.966 130.077  16.851  1.00  0.00     0.295 HD
ENDBRANCH  22  29
ENDBRANCH   3  22
BRANCH   6  31
ATOM     31  O   UNL     1      43.079 132.228  22.334  1.00  0.00    -0.504 OA
ATOM     32  H   UNL     1      43.190 133.224  22.180  1.00  0.00     0.293 HD
ENDBRANCH   6  31
TORSDOF 8
ENDMDL
MODEL 2
REMARK VINA RESULT:      -3.9      2.138      7.273
REMARK SMILES CC(=O)c1c(-c2cnc3c(c2)C(O)=NC3)cc(/C(O)=N/[C@@H]2C=CCC2)c(F)c1O
REMARK SMILES IDX 5 1 16 2 17 3 26 4 27 5 28 6 4 7 6 8 12 9 14 10 10 11 15 12
REMARK SMILES IDX 11 13 9 14 8 15 7 16 13 17 2 19 3 20 1 21 18 22 20 23 21 24
REMARK SMILES IDX 22 25 25 26 23 27 24 28 19 29 29 31
REMARK H PARENT 13 18 19 30 29 32
ROOT
ATOM      1  C   UNL     1      44.434 130.625  19.977  1.00  0.00    -0.001 A 
ATOM      2  C   UNL     1      45.067 129.584  20.672  1.00  0.00     0.026 A 
ATOM      3  C   UNL     1      44.727 129.277  21.999  1.00  0.00     0.076 A 
ATOM      4  C   UNL     1      43.728 130.042  22.636  1.00  0.00     0.178 A 
ATOM      5  F   UNL     1      43.374 129.788  23.922  1.00  0.00    -0.202 F 
ATOM      6  C   UNL     1      43.071 131.075  21.947  1.00  0.00     0.163 A 
ATOM      7  C   UNL     1      43.409 131.367  20.611  1.00  0.00     0.070 A 
ENDROOT
BRANCH   1   8
ATOM      8  C   UNL     1      44.908 130.947  18.611  1.00  0.00     0.002 A 
ATOM      9  C   UNL     1      45.809 129.518  15.205  1.00  0.00     0.215 C 
ATOM     10  N   UNL     1      46.224 130.272  14.234  1.00  0.00    -0.245 NA
ATOM     11  C   UNL     1      45.535 130.284  16.396  1.00  0.00     0.060 A 
ATOM     12  C   UNL     1      46.276 131.673  14.676  1.00  0.00     0.203 C 
ATOM     13  C   UNL     1      45.081 129.921  17.658  1.00  0.00     0.026 A 
ATOM     14  C   UNL     1      45.811 131.581  16.087  1.00  0.00     0.075 A 
ATOM     15  N   UNL     1      45.664 132.580  16.993  1.00  0.00    -0.258 NA
ATOM     16  C   UNL     1      45.219 132.283  18.251  1.00  0.00     0.120 A 
BRANCH   9  17
ATOM     17  O   UNL     1      45.657 128.141  15.090  1.00  0.00    -0.493 OA
ATOM     18  H   UNL     1      44.771 127.739  14.805  1.00  0.00     0.295 HD
ENDBRANCH   9  17
ENDBRANCH   1   8
BRANCH   7  19
ATOM     19  C   UNL     1      42.648 132.419  19.893  1.00  0.00     0.164 C 
ATOM     20  O   UNL     1      42.653 133.600  20.332  1.00  0.00    -0.294 OA
ATOM     21  C   UNL     1      41.853 132.108  18.662  1.00  0.00     0.093 C 
ENDBRANCH   7  19
BRANCH   3  22
ATOM     22  C   UNL     1      45.436 128.168  22.694  1.00  0.00     0.217 C 
BRANCH  22  23
ATOM     23  N   UNL     1      45.243 127.966  23.968  1.00  0.00    -0.244 NA
BRANCH  23  24
ATOM     24  C   UNL     1      44.561 126.819  24.564  1.00  0.00     0.132 C 
ATOM     25  C   UNL     1      45.492 125.660  24.598  1.00  0.00    -0.005 C 
ATOM     26  C   UNL     1      43.392 126.335  23.686  1.00  0.00     0.036 C 
ATOM     27  C   UNL     1      45.062 124.643  23.875  1.00  0.00    -0.029 C 
ATOM     28  C   UNL     1      43.762 124.926  23.215  1.00  0.00     0.029 C 
ENDBRANCH  23  24
ENDBRANCH  22  23
BRANCH  22  29
ATOM     29  O   UNL     1      46.303 127.353  21.957  1.00  0.00    -0.493 OA
ATOM     30  H   UNL     1      46.501 127.493  20.975  1.00  0.00     0.295 HD
ENDBRANCH  22  29
ENDBRANCH   3  22
BRANCH   6  31
ATOM     31  O   UNL     1      42.065 131.807  22.582  1.00  0.00    -0.504 OA
ATOM     32  H   UNL     1      42.153 132.130  23.538  1.00  0.00     0.293 HD
ENDBRANCH   6  31
TORSDOF 8
ENDMDL
MODEL 3
REMARK VINA RESULT:      -2.7      1.582      2.205
REMARK SMILES CC(=O)c1c(-c2cnc3c(c2)C(O)=NC3)cc(/C(O)=N/[C@@H]2C=CCC2)c(F)c1O
REMARK SMILES IDX 5 1 16 2 17 3 26 4 27 5 28 6 4 7 6 8 12 9 14 10 10 11 15 12
REMARK SMILES IDX 11 13 9 14 8 15 7 16 13 17 2 19 3 20 1 21 18 22 20 23 21 24
REMARK SMILES IDX 22 25 25 26 23 27 24 28 19 29 29 31
REMARK H PARENT 13 18 19 30 29 32
ROOT
ATOM      1  C   UNL     1      45.086 129.920  20.504  1.00  0.00    -0.001 A 
ATOM      2  C   UNL     1      45.512 129.539  19.223  1.00  0.00     0.026 A 
ATOM      3  C   UNL     1      45.351 130.389  18.117  1.00  0.00     0.076 A 
ATOM      4  C   UNL     1      44.744 131.647  18.311  1.00  0.00     0.178 A 
ATOM      5  F   UNL     1      44.558 132.496  17.268  1.00  0.00    -0.202 F 
ATOM      6  C   UNL     1      44.330 132.049  19.591  1.00  0.00     0.163 A 
ATOM      7  C   UNL     1      44.508 131.197  20.699  1.00  0.00     0.070 A 
ENDROOT
BRANCH   1   8
ATOM      8  C   UNL     1      45.209 128.936  21.604  1.00  0.00     0.002 A 
ATOM      9  C   UNL     1      46.790 125.654  22.692  1.00  0.00     0.215 C 
ATOM     10  N   UNL     1      46.568 125.142  23.864  1.00  0.00    -0.245 NA
ATOM     11  C   UNL     1      46.079 126.896  22.509  1.00  0.00     0.060 A 
ATOM     12  C   UNL     1      45.655 126.008  24.623  1.00  0.00     0.203 C 
ATOM     13  C   UNL     1      46.009 127.785  21.444  1.00  0.00     0.026 A 
ATOM     14  C   UNL     1      45.395 127.118  23.665  1.00  0.00     0.075 A 
ATOM     15  N   UNL     1      44.609 128.210  23.834  1.00  0.00    -0.258 NA
ATOM     16  C   UNL     1      44.503 129.122  22.820  1.00  0.00     0.120 A 
BRANCH   9  17
ATOM     17  O   UNL     1      47.616 125.060  21.744  1.00  0.00    -0.493 OA
ATOM     18  H   UNL     1      47.223 124.597  20.932  1.00  0.00     0.295 HD
ENDBRANCH   9  17
ENDBRANCH   1   8
BRANCH   7  19
ATOM     19  C   UNL     1      44.121 131.682  22.046  1.00  0.00     0.164 C 
ATOM     20  O   UNL     1      42.906 131.690  22.380  1.00  0.00    -0.294 OA
ATOM     21  C   UNL     1      45.143 132.183  23.020  1.00  0.00     0.093 C 
ENDBRANCH   7  19
BRANCH   3  22
ATOM     22  C   UNL     1      45.812 129.933  16.775  1.00  0.00     0.217 C 
BRANCH  22  23
ATOM     23  N   UNL     1      46.156 130.807  15.872  1.00  0.00    -0.244 NA
BRANCH  23  24
ATOM     24  C   UNL     1      46.218 130.575  14.430  1.00  0.00     0.132 C 
ATOM     25  C   UNL     1      47.170 129.467  14.153  1.00  0.00    -0.005 C 
ATOM     26  C   UNL     1      46.821 131.782  13.686  1.00  0.00     0.036 C 
ATOM     27  C   UNL     1      48.198 129.853  13.421  1.00  0.00    -0.029 C 
ATOM     28  C   UNL     1      48.134 131.294  13.069  1.00  0.00     0.029 C 
ENDBRANCH  23  24
ENDBRANCH  22  23
BRANCH  22  29
ATOM     29  O   UNL     1      45.868 128.560  16.511  1.00  0.00    -0.493 OA
ATOM     30  H   UNL     1      46.634 128.116  16.021  1.00  0.00     0.295 HD
ENDBRANCH  22  29
ENDBRANCH   3  22
BRANCH   6  31
ATOM     31  O   UNL     1      43.755 133.309  19.774  1.00  0.00    -0.504 OA
ATOM     32  H   UNL     1      44.290 134.105  20.103  1.00  0.00     0.293 HD
ENDBRANCH   6  31
TORSDOF 8
ENDMDL
MODEL 4
REMARK VINA RESULT:      -2.5      4.271      6.646
REMARK SMILES CC(=O)c1c(-c2cnc3c(c2)C(O)=NC3)cc(/C(O)=N/[C@@H]2C=CCC2)c(F)c1O
REMARK SMILES IDX 5 1 16 2 17 3 26 4 27 5 28 6 4 7 6 8 12 9 14 10 10 11 15 12
REMARK SMILES IDX 11 13 9 14 8 15 7 16 13 17 2 19 3 20 1 21 18 22 20 23 21 24
REMARK SMILES IDX 22 25 25 26 23 27 24 28 19 29 29 31
REMARK H PARENT 13 18 19 30 29 32
ROOT
ATOM      1  C   UNL     1      45.582 132.308  20.957  1.00  0.00    -0.001 A 
ATOM      2  C   UNL     1      46.670 133.192  21.011  1.00  0.00     0.026 A 
ATOM      3  C   UNL     1      47.133 133.708  22.231  1.00  0.00     0.076 A 
ATOM      4  C   UNL     1      46.479 133.325  23.421  1.00  0.00     0.178 A 
ATOM      5  F   UNL     1      46.886 133.807  24.623  1.00  0.00    -0.202 F 
ATOM      6  C   UNL     1      45.401 132.426  23.384  1.00  0.00     0.163 A 
ATOM      7  C   UNL     1      44.951 131.901  22.157  1.00  0.00     0.070 A 
ENDROOT
BRANCH   1   8
ATOM      8  C   UNL     1      45.095 131.876  19.627  1.00  0.00     0.002 A 
ATOM      9  C   UNL     1      46.010 130.083  16.401  1.00  0.00     0.215 C 
ATOM     10  N   UNL     1      45.164 129.953  15.426  1.00  0.00    -0.245 NA
ATOM     11  C   UNL     1      45.436 130.801  17.513  1.00  0.00     0.060 A 
ATOM     12  C   UNL     1      43.887 130.586  15.784  1.00  0.00     0.203 C 
ATOM     13  C   UNL     1      45.949 131.174  18.750  1.00  0.00     0.026 A 
ATOM     14  C   UNL     1      44.159 131.106  17.153  1.00  0.00     0.075 A 
ATOM     15  N   UNL     1      43.328 131.792  17.975  1.00  0.00    -0.258 NA
ATOM     16  C   UNL     1      43.776 132.185  19.206  1.00  0.00     0.120 A 
BRANCH   9  17
ATOM     17  O   UNL     1      47.307 129.586  16.357  1.00  0.00    -0.493 OA
ATOM     18  H   UNL     1      47.531 128.770  15.799  1.00  0.00     0.295 HD
ENDBRANCH   9  17
ENDBRANCH   1   8
BRANCH   7  19
ATOM     19  C   UNL     1      43.854 130.902  22.163  1.00  0.00     0.164 C 
ATOM     20  O   UNL     1      44.130 129.677  22.264  1.00  0.00    -0.294 OA
ATOM     21  C   UNL     1      42.420 131.314  22.032  1.00  0.00     0.093 C 
ENDBRANCH   7  19
BRANCH   3  22
ATOM     22  C   UNL     1      48.286 134.651  22.232  1.00  0.00     0.217 C 
BRANCH  22  23
ATOM     23  N   UNL     1      48.544 135.369  21.175  1.00  0.00    -0.244 NA
BRANCH  23  24
ATOM     24  C   UNL     1      48.781 136.811  21.152  1.00  0.00     0.132 C 
ATOM     25  C   UNL     1      47.950 137.426  20.083  1.00  0.00    -0.005 C 
ATOM     26  C   UNL     1      50.228 137.141  20.739  1.00  0.00     0.036 C 
ATOM     27  C   UNL     1      48.678 138.005  19.145  1.00  0.00    -0.029 C 
ATOM     28  C   UNL     1      50.135 137.886  19.404  1.00  0.00     0.029 C 
ENDBRANCH  23  24
ENDBRANCH  22  23
BRANCH  22  29
ATOM     29  O   UNL     1      49.077 134.748  23.383  1.00  0.00    -0.493 OA
ATOM     30  H   UNL     1      49.373 133.948  23.927  1.00  0.00     0.295 HD
ENDBRANCH  22  29
ENDBRANCH   3  22
BRANCH   6  31
ATOM     31  O   UNL     1      44.780 132.033  24.573  1.00  0.00    -0.504 OA
ATOM     32  H   UNL     1      44.352 131.121  24.684  1.00  0.00     0.293 HD
ENDBRANCH   6  31
TORSDOF 8
ENDMDL


