REMARK SMILES C=Cc1cccc(-c2nc3ccccc3[nH]2)c1NN
REMARK SMILES IDX 3 1 4 2 5 3 6 4 7 5 17 6 2 7 1 8 18 9 19 11 8 14 9 15 16 16
REMARK SMILES IDX 10 17 15 18 11 19 14 20 12 21 13 22
REMARK H PARENT 18 10 19 12 19 13 16 23
ROOT
ATOM      1  C   UNL     1       3.184   0.783  -2.046  1.00  0.00    -0.001 A 
ATOM      2  C   UNL     1       3.308  -0.162  -3.081  1.00  0.00     0.010 A 
ATOM      3  C   UNL     1       2.200  -0.883  -3.520  1.00  0.00     0.002 A 
ATOM      4  C   UNL     1       0.948  -0.664  -2.949  1.00  0.00     0.014 A 
ATOM      5  C   UNL     1       0.783   0.287  -1.930  1.00  0.00     0.042 A 
ATOM      6  C   UNL     1       1.911   1.012  -1.471  1.00  0.00     0.067 A 
ENDROOT
BRANCH   1   7
ATOM      7  C   UNL     1       4.366   1.550  -1.567  1.00  0.00     0.002 C 
ATOM      8  C   UNL     1       5.618   1.099  -1.642  1.00  0.00     0.009 C 
ENDBRANCH   1   7
BRANCH   6   9
ATOM      9  N   UNL     1       1.780   1.938  -0.382  1.00  0.00    -0.323 N 
ATOM     10  H   UNL     1       1.879   2.960  -0.567  1.00  0.00     0.181 HD
BRANCH   9  11
ATOM     11  N   UNL     1       1.717   1.489   0.947  1.00  0.00    -0.250 NA
ATOM     12  H   UNL     1       2.546   0.874   1.113  1.00  0.00     0.143 HD
ATOM     13  H   UNL     1       0.862   0.897   1.047  1.00  0.00     0.143 HD
ENDBRANCH   9  11
ENDBRANCH   6   9
BRANCH   5  14
ATOM     14  C   UNL     1      -0.575   0.536  -1.387  1.00  0.00     0.140 A 
ATOM     15  N   UNL     1      -0.977   1.747  -0.912  1.00  0.00    -0.228 NA
ATOM     16  N   UNL     1      -1.547  -0.412  -1.332  1.00  0.00    -0.338 N 
ATOM     17  C   UNL     1      -2.251   1.521  -0.546  1.00  0.00     0.089 A 
ATOM     18  C   UNL     1      -2.594   0.227  -0.797  1.00  0.00     0.066 A 
ATOM     19  C   UNL     1      -3.149   2.424   0.017  1.00  0.00     0.030 A 
ATOM     20  C   UNL     1      -3.859  -0.276  -0.505  1.00  0.00     0.028 A 
ATOM     21  C   UNL     1      -4.441   1.954   0.326  1.00  0.00     0.002 A 
ATOM     22  C   UNL     1      -4.794   0.609   0.066  1.00  0.00     0.002 A 
ATOM     23  H   UNL     1      -1.495  -1.416  -1.616  1.00  0.00     0.168 HD
ENDBRANCH   5  14
TORSDOF 4


