MODEL 1
REMARK VINA RESULT:      -9.6      0.000      0.000
REMARK SMILES NN(C(=O)N1CCOCC1)c1ccc2cc3ccccc3cc2c1
REMARK SMILES IDX 2 1 1 2 3 5 5 6 6 7 10 8 7 9 9 10 8 11 4 12 11 13 12 14
REMARK SMILES IDX 24 15 13 16 23 17 14 18 22 19 15 20 21 21 16 22 20 23 17 24
REMARK SMILES IDX 19 25 18 26
REMARK H PARENT 1 3 1 4
ROOT
ATOM      1  N   UNL     1      43.945 131.524  22.855  1.00  0.00    -0.230 N 
ENDROOT
BRANCH   1   2
ATOM      2  N   UNL     1      45.054 132.159  23.440  1.00  0.00    -0.239 NA
ATOM      3  H   UNL     1      45.707 132.430  22.670  1.00  0.00     0.144 HD
ATOM      4  H   UNL     1      44.721 133.037  23.900  1.00  0.00     0.144 HD
ENDBRANCH   1   2
BRANCH   1   5
ATOM      5  C   UNL     1      42.934 130.933  23.698  1.00  0.00     0.339 C 
ATOM      6  N   UNL     1      42.903 129.514  23.928  1.00  0.00    -0.319 N 
ATOM      7  C   UNL     1      44.118 128.797  24.323  1.00  0.00     0.150 C 
ATOM      8  C   UNL     1      41.623 128.826  24.108  1.00  0.00     0.150 C 
ATOM      9  C   UNL     1      44.056 127.364  23.785  1.00  0.00     0.181 C 
ATOM     10  C   UNL     1      41.745 127.385  23.600  1.00  0.00     0.181 C 
ATOM     11  O   UNL     1      42.855 126.732  24.189  1.00  0.00    -0.378 OA
ATOM     12  O   UNL     1      42.065 131.670  24.239  1.00  0.00    -0.247 OA
ENDBRANCH   1   5
BRANCH   1  13
ATOM     13  C   UNL     1      43.798 131.570  21.422  1.00  0.00     0.063 A 
ATOM     14  C   UNL     1      42.644 132.133  20.854  1.00  0.00     0.028 A 
ATOM     15  C   UNL     1      44.799 131.060  20.577  1.00  0.00     0.036 A 
ATOM     16  C   UNL     1      42.501 132.215  19.467  1.00  0.00     0.011 A 
ATOM     17  C   UNL     1      44.671 131.149  19.183  1.00  0.00    -0.016 A 
ATOM     18  C   UNL     1      43.511 131.734  18.622  1.00  0.00    -0.018 A 
ATOM     19  C   UNL     1      45.685 130.667  18.344  1.00  0.00     0.017 A 
ATOM     20  C   UNL     1      43.381 131.827  17.229  1.00  0.00     0.017 A 
ATOM     21  C   UNL     1      45.557 130.762  16.951  1.00  0.00    -0.018 A 
ATOM     22  C   UNL     1      44.396 131.346  16.389  1.00  0.00    -0.018 A 
ATOM     23  C   UNL     1      46.571 130.282  16.107  1.00  0.00     0.009 A 
ATOM     24  C   UNL     1      44.272 131.438  14.994  1.00  0.00     0.009 A 
ATOM     25  C   UNL     1      46.434 130.380  14.719  1.00  0.00     0.001 A 
ATOM     26  C   UNL     1      45.289 130.957  14.165  1.00  0.00     0.001 A 
ENDBRANCH   1  13
TORSDOF 3
ENDMDL
MODEL 2
REMARK VINA RESULT:      -6.8      1.224      2.221
REMARK SMILES NN(C(=O)N1CCOCC1)c1ccc2cc3ccccc3cc2c1
REMARK SMILES IDX 2 1 1 2 3 5 5 6 6 7 10 8 7 9 9 10 8 11 4 12 11 13 12 14
REMARK SMILES IDX 24 15 13 16 23 17 14 18 22 19 15 20 21 21 16 22 20 23 17 24
REMARK SMILES IDX 19 25 18 26
REMARK H PARENT 1 3 1 4
ROOT
ATOM      1  N   UNL     1      43.012 131.877  21.481  1.00  0.00    -0.230 N 
ENDROOT
BRANCH   1   2
ATOM      2  N   UNL     1      41.815 132.524  21.129  1.00  0.00    -0.239 NA
ATOM      3  H   UNL     1      42.067 133.396  20.610  1.00  0.00     0.144 HD
ATOM      4  H   UNL     1      41.291 131.902  20.471  1.00  0.00     0.144 HD
ENDBRANCH   1   2
BRANCH   1   5
ATOM      5  C   UNL     1      43.257 131.528  22.859  1.00  0.00     0.339 C 
ATOM      6  N   UNL     1      43.248 130.155  23.285  1.00  0.00    -0.319 N 
ATOM      7  C   UNL     1      44.010 129.143  22.551  1.00  0.00     0.150 C 
ATOM      8  C   UNL     1      42.772 129.805  24.624  1.00  0.00     0.150 C 
ATOM      9  C   UNL     1      43.298 127.792  22.666  1.00  0.00     0.181 C 
ATOM     10  C   UNL     1      42.163 128.398  24.595  1.00  0.00     0.181 C 
ATOM     11  O   UNL     1      43.064 127.467  24.025  1.00  0.00    -0.378 OA
ATOM     12  O   UNL     1      43.482 132.440  23.701  1.00  0.00    -0.247 OA
ENDBRANCH   1   5
BRANCH   1  13
ATOM     13  C   UNL     1      43.922 131.488  20.432  1.00  0.00     0.063 A 
ATOM     14  C   UNL     1      45.114 130.818  20.752  1.00  0.00     0.028 A 
ATOM     15  C   UNL     1      43.633 131.768  19.085  1.00  0.00     0.036 A 
ATOM     16  C   UNL     1      45.989 130.405  19.745  1.00  0.00     0.011 A 
ATOM     17  C   UNL     1      44.500 131.348  18.066  1.00  0.00    -0.016 A 
ATOM     18  C   UNL     1      45.690 130.658  18.399  1.00  0.00    -0.018 A 
ATOM     19  C   UNL     1      44.194 131.602  16.722  1.00  0.00     0.017 A 
ATOM     20  C   UNL     1      46.557 130.233  17.382  1.00  0.00     0.017 A 
ATOM     21  C   UNL     1      45.059 131.175  15.705  1.00  0.00    -0.018 A 
ATOM     22  C   UNL     1      46.251 130.486  16.037  1.00  0.00    -0.018 A 
ATOM     23  C   UNL     1      44.755 131.426  14.358  1.00  0.00     0.009 A 
ATOM     24  C   UNL     1      47.115 130.062  15.016  1.00  0.00     0.009 A 
ATOM     25  C   UNL     1      45.625 130.998  13.350  1.00  0.00     0.001 A 
ATOM     26  C   UNL     1      46.800 130.318  13.679  1.00  0.00     0.001 A 
ENDBRANCH   1  13
TORSDOF 3
ENDMDL


