REMARK SMILES Cc1ccc(-c2cc3[nH]ccc3cc2N(N)C(=O)N2CCOCC2)cc1F
REMARK SMILES IDX 6 1 7 2 8 3 9 4 10 5 11 6 12 7 13 8 14 9 5 11 2 12 3 13
REMARK SMILES IDX 26 14 4 15 25 16 1 17 27 18 15 19 16 20 17 23 19 24 20 25
REMARK SMILES IDX 24 26 21 27 23 28 22 29 18 30
REMARK H PARENT 9 10 16 21 16 22
ROOT
ATOM      1  C   UNL     1      -1.682  -0.644   0.634  1.00  0.00     0.009 A 
ATOM      2  C   UNL     1      -3.087  -0.591   0.761  1.00  0.00     0.037 A 
ATOM      3  C   UNL     1      -3.624  -0.265   2.002  1.00  0.00     0.046 A 
ATOM      4  N   UNL     1      -4.924  -0.172   2.329  1.00  0.00    -0.361 N 
ATOM      5  C   UNL     1      -4.952   0.165   3.639  1.00  0.00     0.083 A 
ATOM      6  C   UNL     1      -3.661   0.284   4.145  1.00  0.00     0.028 A 
ATOM      7  C   UNL     1      -2.831   0.003   3.082  1.00  0.00     0.002 A 
ATOM      8  C   UNL     1      -1.443  -0.022   3.001  1.00  0.00     0.039 A 
ATOM      9  C   UNL     1      -0.849  -0.336   1.757  1.00  0.00     0.071 A 
ATOM     10  H   UNL     1      -5.746  -0.326   1.704  1.00  0.00     0.166 HD
ENDROOT
BRANCH   1  11
ATOM     11  C   UNL     1      -1.101  -1.056  -0.661  1.00  0.00    -0.013 A 
ATOM     12  C   UNL     1       0.075  -1.794  -3.108  1.00  0.00    -0.015 A 
ATOM     13  C   UNL     1      -0.766  -0.673  -3.035  1.00  0.00     0.007 A 
ATOM     14  C   UNL     1       0.323  -2.547  -1.948  1.00  0.00     0.126 A 
ATOM     15  C   UNL     1      -1.359  -0.313  -1.822  1.00  0.00     0.009 A 
ATOM     16  C   UNL     1      -0.267  -2.182  -0.735  1.00  0.00     0.048 A 
ATOM     17  C   UNL     1       0.750  -2.154  -4.400  1.00  0.00     0.047 C 
ATOM     18  F   UNL     1       1.145  -3.626  -1.989  1.00  0.00    -0.207 F 
ENDBRANCH   1  11
BRANCH   9  19
ATOM     19  N   UNL     1       0.590  -0.299   1.626  1.00  0.00    -0.229 N 
BRANCH  19  20
ATOM     20  N   UNL     1       1.405  -0.859   2.627  1.00  0.00    -0.239 NA
ATOM     21  H   UNL     1       0.952  -1.738   2.970  1.00  0.00     0.144 HD
ATOM     22  H   UNL     1       1.448  -0.182   3.422  1.00  0.00     0.144 HD
ENDBRANCH  19  20
BRANCH  19  23
ATOM     23  C   UNL     1       1.194   0.554   0.635  1.00  0.00     0.339 C 
ATOM     24  N   UNL     1       2.486   0.250   0.064  1.00  0.00    -0.319 N 
ATOM     25  C   UNL     1       3.100  -1.075   0.210  1.00  0.00     0.150 C 
ATOM     26  C   UNL     1       3.311   1.320  -0.509  1.00  0.00     0.150 C 
ATOM     27  C   UNL     1       3.900  -1.420  -1.050  1.00  0.00     0.181 C 
ATOM     28  C   UNL     1       4.091   0.787  -1.714  1.00  0.00     0.181 C 
ATOM     29  O   UNL     1       4.808  -0.383  -1.369  1.00  0.00    -0.378 OA
ATOM     30  O   UNL     1       0.571   1.581   0.250  1.00  0.00    -0.247 OA
ENDBRANCH  19  23
ENDBRANCH   9  19
TORSDOF 4


