MODEL 1
REMARK VINA RESULT:      -9.8      0.000      0.000
REMARK SMILES Cc1cc(-c2c[nH+]c3ccnn3c2)ccc1C(=O)[N-][C@H]1CC12CCC2
REMARK SMILES IDX 1 1 2 2 3 3 4 4 14 5 15 6 16 7 17 8 18 9 19 10 20 11 21 12
REMARK SMILES IDX 22 13 23 14 25 15 24 16 5 17 6 18 13 19 7 20 12 21 8 22
REMARK SMILES IDX 11 23 9 24 10 25
REMARK H PARENT 7 26
ROOT
ATOM      1  C   UNL     1      41.442 131.959  19.033  1.00  0.00     0.045 C 
ATOM      2  C   UNL     1      42.916 131.646  19.088  1.00  0.00    -0.041 A 
ATOM      3  C   UNL     1      43.636 131.601  17.881  1.00  0.00     0.013 A 
ATOM      4  C   UNL     1      45.000 131.267  17.860  1.00  0.00    -0.011 A 
ATOM      5  C   UNL     1      45.646 130.976  19.069  1.00  0.00     0.010 A 
ATOM      6  C   UNL     1      44.951 131.033  20.276  1.00  0.00     0.011 A 
ATOM      7  C   UNL     1      43.589 131.384  20.311  1.00  0.00     0.002 A 
ENDROOT
BRANCH   7   8
ATOM      8  C   UNL     1      42.920 131.460  21.634  1.00  0.00     0.082 C 
ATOM      9  O   UNL     1      42.326 132.521  21.974  1.00  0.00    -0.315 OA
BRANCH   8  10
ATOM     10  N   UNL     1      42.905 130.332  22.512  1.00  0.00    -0.646 NA
BRANCH  10  11
ATOM     11  C   UNL     1      44.122 129.661  22.947  1.00  0.00    -0.100 C 
ATOM     12  C   UNL     1      44.260 129.598  24.472  1.00  0.00    -0.010 C 
ATOM     13  C   UNL     1      43.861 128.364  23.672  1.00  0.00    -0.044 C 
ATOM     14  C   UNL     1      42.583 127.673  24.054  1.00  0.00     0.006 C 
ATOM     15  C   UNL     1      44.724 127.144  23.810  1.00  0.00     0.006 C 
ATOM     16  C   UNL     1      43.435 126.396  24.209  1.00  0.00     0.001 C 
ENDBRANCH  10  11
ENDBRANCH   8  10
ENDBRANCH   7   8
BRANCH   4  17
ATOM     17  C   UNL     1      45.744 131.217  16.575  1.00  0.00     0.063 A 
ATOM     18  C   UNL     1      45.842 132.359  15.741  1.00  0.00     0.210 A 
ATOM     19  C   UNL     1      46.378 130.032  16.150  1.00  0.00     0.245 A 
ATOM     20  N   UNL     1      46.528 132.305  14.560  1.00  0.00    -0.245 N 
ATOM     21  N   UNL     1      47.041 130.050  14.969  1.00  0.00    -0.104 N 
ATOM     22  C   UNL     1      47.116 131.138  14.202  1.00  0.00     0.306 A 
ATOM     23  N   UNL     1      47.688 129.047  14.403  1.00  0.00    -0.086 NA
ATOM     24  C   UNL     1      47.845 130.862  13.070  1.00  0.00     0.125 A 
ATOM     25  C   UNL     1      48.190 129.522  13.237  1.00  0.00     0.167 A 
ATOM     26  H   UNL     1      46.599 133.151  13.951  1.00  0.00     0.312 HD
ENDBRANCH   4  17
TORSDOF 4
ENDMDL
MODEL 2
REMARK VINA RESULT:      -8.1      0.858      1.681
REMARK SMILES Cc1cc(-c2c[nH+]c3ccnn3c2)ccc1C(=O)[N-][C@H]1CC12CCC2
REMARK SMILES IDX 1 1 2 2 3 3 4 4 14 5 15 6 16 7 17 8 18 9 19 10 20 11 21 12
REMARK SMILES IDX 22 13 23 14 25 15 24 16 5 17 6 18 13 19 7 20 12 21 8 22
REMARK SMILES IDX 11 23 9 24 10 25
REMARK H PARENT 7 26
ROOT
ATOM      1  C   UNL     1      45.977 131.952  21.234  1.00  0.00     0.045 C 
ATOM      2  C   UNL     1      45.057 131.778  20.053  1.00  0.00    -0.041 A 
ATOM      3  C   UNL     1      45.628 131.568  18.785  1.00  0.00     0.013 A 
ATOM      4  C   UNL     1      44.828 131.448  17.638  1.00  0.00    -0.011 A 
ATOM      5  C   UNL     1      43.435 131.538  17.769  1.00  0.00     0.010 A 
ATOM      6  C   UNL     1      42.852 131.729  19.021  1.00  0.00     0.011 A 
ATOM      7  C   UNL     1      43.643 131.833  20.179  1.00  0.00     0.002 A 
ENDROOT
BRANCH   7   8
ATOM      8  C   UNL     1      42.955 131.999  21.484  1.00  0.00     0.082 C 
ATOM      9  O   UNL     1      41.854 132.614  21.537  1.00  0.00    -0.315 OA
BRANCH   8  10
ATOM     10  N   UNL     1      43.505 131.435  22.677  1.00  0.00    -0.646 NA
BRANCH  10  11
ATOM     11  C   UNL     1      44.007 130.070  22.739  1.00  0.00    -0.100 C 
ATOM     12  C   UNL     1      44.529 129.685  24.129  1.00  0.00    -0.010 C 
ATOM     13  C   UNL     1      43.183 129.172  23.629  1.00  0.00    -0.044 C 
ATOM     14  C   UNL     1      41.977 129.446  24.482  1.00  0.00     0.006 C 
ATOM     15  C   UNL     1      42.986 127.686  23.584  1.00  0.00     0.006 C 
ATOM     16  C   UNL     1      41.739 127.921  24.461  1.00  0.00     0.001 C 
ENDBRANCH  10  11
ENDBRANCH   8  10
ENDBRANCH   7   8
BRANCH   4  17
ATOM     17  C   UNL     1      45.448 131.233  16.305  1.00  0.00     0.063 A 
ATOM     18  C   UNL     1      44.939 131.877  15.148  1.00  0.00     0.210 A 
ATOM     19  C   UNL     1      46.563 130.383  16.151  1.00  0.00     0.245 A 
ATOM     20  N   UNL     1      45.514 131.674  13.926  1.00  0.00    -0.245 N 
ATOM     21  N   UNL     1      47.082 130.228  14.910  1.00  0.00    -0.104 N 
ATOM     22  C   UNL     1      46.583 130.845  13.838  1.00  0.00     0.306 A 
ATOM     23  N   UNL     1      48.113 129.476  14.566  1.00  0.00    -0.086 NA
ATOM     24  C   UNL     1      47.306 130.498  12.722  1.00  0.00     0.125 A 
ATOM     25  C   UNL     1      48.269 129.628  13.228  1.00  0.00     0.167 A 
ATOM     26  H   UNL     1      45.137 132.153  13.078  1.00  0.00     0.312 HD
ENDBRANCH   4  17
TORSDOF 4
ENDMDL
MODEL 3
REMARK VINA RESULT:      -7.8      0.862      1.470
REMARK SMILES Cc1cc(-c2c[nH+]c3ccnn3c2)ccc1C(=O)[N-][C@H]1CC12CCC2
REMARK SMILES IDX 1 1 2 2 3 3 4 4 14 5 15 6 16 7 17 8 18 9 19 10 20 11 21 12
REMARK SMILES IDX 22 13 23 14 25 15 24 16 5 17 6 18 13 19 7 20 12 21 8 22
REMARK SMILES IDX 11 23 9 24 10 25
REMARK H PARENT 7 26
ROOT
ATOM      1  C   UNL     1      41.664 132.399  18.884  1.00  0.00     0.045 C 
ATOM      2  C   UNL     1      43.063 131.882  19.094  1.00  0.00    -0.041 A 
ATOM      3  C   UNL     1      43.832 131.551  17.963  1.00  0.00     0.013 A 
ATOM      4  C   UNL     1      45.124 131.019  18.092  1.00  0.00    -0.011 A 
ATOM      5  C   UNL     1      45.651 130.819  19.376  1.00  0.00     0.010 A 
ATOM      6  C   UNL     1      44.909 131.158  20.507  1.00  0.00     0.011 A 
ATOM      7  C   UNL     1      43.620 131.708  20.390  1.00  0.00     0.002 A 
ENDROOT
BRANCH   7   8
ATOM      8  C   UNL     1      42.901 132.080  21.634  1.00  0.00     0.082 C 
ATOM      9  O   UNL     1      41.819 132.724  21.562  1.00  0.00    -0.315 OA
BRANCH   8  10
ATOM     10  N   UNL     1      43.400 131.681  22.913  1.00  0.00    -0.646 NA
BRANCH  10  11
ATOM     11  C   UNL     1      44.223 130.494  23.098  1.00  0.00    -0.100 C 
ATOM     12  C   UNL     1      44.351 130.075  24.567  1.00  0.00    -0.010 C 
ATOM     13  C   UNL     1      43.448 129.305  23.611  1.00  0.00    -0.044 C 
ATOM     14  C   UNL     1      42.005 129.146  23.997  1.00  0.00     0.006 C 
ATOM     15  C   UNL     1      43.710 127.837  23.447  1.00  0.00     0.006 C 
ATOM     16  C   UNL     1      42.233 127.628  23.841  1.00  0.00     0.001 C 
ENDBRANCH  10  11
ENDBRANCH   8  10
ENDBRANCH   7   8
BRANCH   4  17
ATOM     17  C   UNL     1      45.920 130.668  16.888  1.00  0.00     0.063 A 
ATOM     18  C   UNL     1      46.733 129.507  16.861  1.00  0.00     0.210 A 
ATOM     19  C   UNL     1      45.887 131.479  15.735  1.00  0.00     0.245 A 
ATOM     20  N   UNL     1      47.463 129.191  15.749  1.00  0.00    -0.245 N 
ATOM     21  N   UNL     1      46.635 131.106  14.670  1.00  0.00    -0.104 N 
ATOM     22  C   UNL     1      47.393 130.009  14.671  1.00  0.00     0.306 A 
ATOM     23  N   UNL     1      46.740 131.732  13.511  1.00  0.00    -0.086 NA
ATOM     24  C   UNL     1      48.037 129.886  13.463  1.00  0.00     0.125 A 
ATOM     25  C   UNL     1      47.594 131.002  12.755  1.00  0.00     0.167 A 
ATOM     26  H   UNL     1      48.058 128.333  15.734  1.00  0.00     0.312 HD
ENDBRANCH   4  17
TORSDOF 4
ENDMDL


