REMARK SMILES NC(=O)c1ccc(C2CC2)c(F)c1CCC(=O)c1ccccc1
REMARK SMILES IDX 14 1 13 2 4 3 5 4 6 5 11 6 7 7 12 8 2 9 1 10 3 13 8 14 9 15
REMARK SMILES IDX 10 16 15 17 16 18 17 19 18 20 19 21 23 22 20 23 22 24 21 25
REMARK H PARENT 1 11 1 12
ROOT
ATOM      1  C   UNL     1      -0.453  -2.713   0.895  1.00  0.00     0.047 C 
ENDROOT
BRANCH   1   2
ATOM      2  C   UNL     1      -0.558  -1.405   0.130  1.00  0.00     0.001 A 
ATOM      3  C   UNL     1      -1.616  -0.483   0.360  1.00  0.00     0.045 A 
ATOM      4  C   UNL     1      -1.572   0.781  -0.250  1.00  0.00     0.014 A 
ATOM      5  C   UNL     1      -0.515   1.135  -1.085  1.00  0.00     0.008 A 
ATOM      6  C   UNL     1       0.498  -1.035  -0.732  1.00  0.00     0.130 A 
ATOM      7  C   UNL     1       0.513   0.225  -1.351  1.00  0.00    -0.009 A 
ATOM      8  F   UNL     1       1.546  -1.878  -0.927  1.00  0.00    -0.206 F 
BRANCH   3   9
ATOM      9  C   UNL     1      -2.758  -0.783   1.252  1.00  0.00     0.249 C 
ATOM     10  N   UNL     1      -3.184   0.170   2.227  1.00  0.00    -0.366 N 
ATOM     11  H   UNL     1      -2.657   1.059   2.375  1.00  0.00     0.159 HD
ATOM     12  H   UNL     1      -4.010  -0.032   2.833  1.00  0.00     0.159 HD
ATOM     13  O   UNL     1      -3.387  -1.869   1.136  1.00  0.00    -0.270 OA
ENDBRANCH   3   9
BRANCH   7  14
ATOM     14  C   UNL     1       1.688   0.646  -2.194  1.00  0.00     0.022 C 
ATOM     15  C   UNL     1       1.937  -0.213  -3.427  1.00  0.00     0.009 C 
ATOM     16  C   UNL     1       1.341   1.174  -3.580  1.00  0.00     0.009 C 
ENDBRANCH   7  14
ENDBRANCH   1   2
BRANCH   1  17
ATOM     17  C   UNL     1      -0.004  -2.503   2.350  1.00  0.00     0.086 C 
BRANCH  17  18
ATOM     18  C   UNL     1       1.409  -1.976   2.432  1.00  0.00     0.163 C 
ATOM     19  O   UNL     1       2.345  -2.805   2.595  1.00  0.00    -0.294 OA
BRANCH  18  20
ATOM     20  C   UNL     1       1.741  -0.540   2.231  1.00  0.00     0.017 A 
ATOM     21  C   UNL     1       0.824   0.484   2.538  1.00  0.00     0.012 A 
ATOM     22  C   UNL     1       2.989  -0.188   1.682  1.00  0.00     0.012 A 
ATOM     23  C   UNL     1       1.139   1.820   2.272  1.00  0.00     0.001 A 
ATOM     24  C   UNL     1       3.298   1.149   1.420  1.00  0.00     0.001 A 
ATOM     25  C   UNL     1       2.372   2.152   1.709  1.00  0.00     0.000 A 
ENDBRANCH  18  20
ENDBRANCH  17  18
ENDBRANCH   1  17
TORSDOF 6


