REMARK SMILES N/N=c1\cc(-c2ccc3[nH]ccc3c2)n(C(=O)[C@H]2C3CCN2CC3)[n-]c1=O
REMARK SMILES IDX 5 1 4 2 3 3 26 4 27 5 25 6 15 7 6 8 7 9 8 10 14 11 9 12
REMARK SMILES IDX 13 13 10 14 12 15 11 16 16 18 17 19 18 20 22 21 19 22 21 23
REMARK SMILES IDX 23 24 20 25 24 26 2 27 1 28
REMARK H PARENT 10 17 1 29 1 30
ROOT
ATOM      1  C   UNL     1       0.875   1.158  -0.481  1.00  0.00     0.040 A 
ATOM      2  C   UNL     1       1.475   2.274  -1.081  1.00  0.00     0.058 A 
ATOM      3  C   UNL     1       0.684   3.352  -1.510  1.00  0.00     0.111 A 
ATOM      4  C   UNL     1      -0.699   3.262  -1.323  1.00  0.00     0.118 A 
ATOM      5  O   UNL     1      -1.461   4.192  -1.699  1.00  0.00    -0.312 OA
ATOM      6  N   UNL     1      -1.230   2.168  -0.724  1.00  0.00    -0.551 NA
ATOM      7  N   UNL     1      -0.491   1.136  -0.306  1.00  0.00    -0.383 N 
ENDROOT
BRANCH   1   8
ATOM      8  C   UNL     1       1.747   0.027  -0.090  1.00  0.00    -0.002 A 
ATOM      9  C   UNL     1       1.603  -1.238  -0.715  1.00  0.00     0.012 A 
ATOM     10  C   UNL     1       2.428  -2.317  -0.349  1.00  0.00     0.027 A 
ATOM     11  C   UNL     1       2.744   0.215   0.893  1.00  0.00     0.020 A 
ATOM     12  C   UNL     1       3.391  -2.096   0.633  1.00  0.00     0.045 A 
ATOM     13  C   UNL     1       3.543  -0.874   1.230  1.00  0.00     0.000 A 
ATOM     14  N   UNL     1       4.275  -2.981   1.123  1.00  0.00    -0.361 N 
ATOM     15  C   UNL     1       4.571  -0.986   2.141  1.00  0.00     0.028 A 
ATOM     16  C   UNL     1       4.998  -2.307   2.046  1.00  0.00     0.083 A 
ATOM     17  H   UNL     1       4.385  -3.983   0.850  1.00  0.00     0.166 HD
ENDBRANCH   1   8
BRANCH   7  18
ATOM     18  C   UNL     1      -1.173   0.064   0.381  1.00  0.00     0.231 C 
ATOM     19  O   UNL     1      -0.588  -0.572   1.300  1.00  0.00    -0.274 OA
BRANCH  18  20
ATOM     20  C   UNL     1      -2.653  -0.207   0.140  1.00  0.00     0.149 C 
ATOM     21  N   UNL     1      -3.071  -1.555   0.535  1.00  0.00    -0.292 NA
ATOM     22  C   UNL     1      -3.107  -0.273  -1.302  1.00  0.00     0.018 C 
ATOM     23  C   UNL     1      -2.418  -2.400  -0.500  1.00  0.00     0.085 C 
ATOM     24  C   UNL     1      -4.511  -1.496   0.183  1.00  0.00     0.085 C 
ATOM     25  C   UNL     1      -2.410  -1.550  -1.785  1.00  0.00     0.021 C 
ATOM     26  C   UNL     1      -4.588  -0.611  -1.081  1.00  0.00     0.021 C 
ENDBRANCH  18  20
ENDBRANCH   7  18
BRANCH   3  27
ATOM     27  N   UNL     1       1.176   4.417  -2.084  1.00  0.00    -0.181 NA
BRANCH  27  28
ATOM     28  N   UNL     1       2.538   4.680  -2.312  1.00  0.00    -0.323 N 
ATOM     29  H   UNL     1       2.804   5.536  -2.847  1.00  0.00     0.179 HD
ATOM     30  H   UNL     1       3.308   4.120  -1.888  1.00  0.00     0.179 HD
ENDBRANCH  27  28
ENDBRANCH   3  27
TORSDOF 5


