MODEL 1
REMARK VINA RESULT:      -5.9      0.000      0.000
REMARK SMILES CS[C@@H](C)C(=O)Oc1cc(-c2cccc3[nH+]coc23)cc(C)c1F
REMARK SMILES IDX 5 1 6 2 3 3 4 4 2 5 1 6 7 7 8 8 9 9 23 10 10 11 21 12 20 13
REMARK SMILES IDX 24 14 22 15 11 16 12 17 19 18 13 19 18 20 15 21 14 22 17 23
REMARK SMILES IDX 16 24
REMARK H PARENT 16 25
ROOT
ATOM      1  C   UNL     1      45.125 129.148  22.056  1.00  0.00     0.324 C 
ATOM      2  O   UNL     1      45.714 128.228  21.421  1.00  0.00    -0.250 OA
ENDROOT
BRANCH   1   3
ATOM      3  C   UNL     1      44.274 128.809  23.244  1.00  0.00     0.153 C 
ATOM      4  C   UNL     1      44.310 129.943  24.267  1.00  0.00     0.032 C 
BRANCH   3   5
ATOM      5  S   UNL     1      44.856 127.259  24.023  1.00  0.00    -0.150 SA
ATOM      6  C   UNL     1      43.196 126.564  24.316  1.00  0.00     0.086 C 
ENDBRANCH   3   5
ENDBRANCH   1   3
BRANCH   1   7
ATOM      7  O   UNL     1      45.195 130.479  21.624  1.00  0.00    -0.423 OA
BRANCH   7   8
ATOM      8  C   UNL     1      44.403 131.043  20.612  1.00  0.00     0.167 A 
ATOM      9  C   UNL     1      44.719 130.893  19.251  1.00  0.00     0.059 A 
ATOM     10  C   UNL     1      43.293 131.811  20.981  1.00  0.00     0.168 A 
ATOM     11  C   UNL     1      43.912 131.477  18.260  1.00  0.00    -0.010 A 
ATOM     12  C   UNL     1      42.475 132.396  20.003  1.00  0.00    -0.011 A 
ATOM     13  C   UNL     1      42.792 132.231  18.646  1.00  0.00     0.015 A 
ATOM     14  F   UNL     1      43.008 131.979  22.299  1.00  0.00    -0.203 F 
ATOM     15  C   UNL     1      41.290 133.226  20.409  1.00  0.00     0.048 C 
BRANCH  11  16
ATOM     16  C   UNL     1      44.249 131.313  16.823  1.00  0.00     0.032 A 
ATOM     17  C   UNL     1      43.413 131.834  15.804  1.00  0.00     0.013 A 
ATOM     18  C   UNL     1      45.402 130.636  16.407  1.00  0.00     0.212 A 
ATOM     19  C   UNL     1      43.748 131.671  14.440  1.00  0.00     0.008 A 
ATOM     20  O   UNL     1      46.324 130.046  17.130  1.00  0.00    -0.403 OA
ATOM     21  C   UNL     1      45.720 130.484  15.089  1.00  0.00     0.249 A 
ATOM     22  C   UNL     1      44.920 130.987  14.068  1.00  0.00     0.083 A 
ATOM     23  C   UNL     1      47.200 129.542  16.276  1.00  0.00     0.521 A 
ATOM     24  N   UNL     1      46.863 129.791  14.988  1.00  0.00    -0.176 N 
ATOM     25  H   UNL     1      47.374 129.505  14.123  1.00  0.00     0.457 HD
ENDBRANCH  11  16
ENDBRANCH   7   8
ENDBRANCH   1   7
TORSDOF 5
ENDMDL
MODEL 2
REMARK VINA RESULT:      -5.7      1.474      2.312
REMARK SMILES CS[C@@H](C)C(=O)Oc1cc(-c2cccc3[nH+]coc23)cc(C)c1F
REMARK SMILES IDX 5 1 6 2 3 3 4 4 2 5 1 6 7 7 8 8 9 9 23 10 10 11 21 12 20 13
REMARK SMILES IDX 24 14 22 15 11 16 12 17 19 18 13 19 18 20 15 21 14 22 17 23
REMARK SMILES IDX 16 24
REMARK H PARENT 16 25
ROOT
ATOM      1  C   UNL     1      44.635 130.744  23.529  1.00  0.00     0.324 C 
ATOM      2  O   UNL     1      44.357 131.478  24.519  1.00  0.00    -0.250 OA
ENDROOT
BRANCH   1   3
ATOM      3  C   UNL     1      44.413 129.263  23.611  1.00  0.00     0.153 C 
ATOM      4  C   UNL     1      45.150 128.549  22.479  1.00  0.00     0.032 C 
BRANCH   3   5
ATOM      5  S   UNL     1      42.625 128.881  23.516  1.00  0.00    -0.150 SA
ATOM      6  C   UNL     1      42.805 127.086  23.776  1.00  0.00     0.086 C 
ENDBRANCH   3   5
ENDBRANCH   1   3
BRANCH   1   7
ATOM      7  O   UNL     1      45.218 131.283  22.375  1.00  0.00    -0.423 OA
BRANCH   7   8
ATOM      8  C   UNL     1      44.567 131.453  21.144  1.00  0.00     0.167 A 
ATOM      9  C   UNL     1      45.158 131.063  19.929  1.00  0.00     0.059 A 
ATOM     10  C   UNL     1      43.310 132.069  21.131  1.00  0.00     0.168 A 
ATOM     11  C   UNL     1      44.485 131.254  18.711  1.00  0.00    -0.010 A 
ATOM     12  C   UNL     1      42.623 132.261  19.923  1.00  0.00    -0.011 A 
ATOM     13  C   UNL     1      43.217 131.858  18.717  1.00  0.00     0.015 A 
ATOM     14  F   UNL     1      42.755 132.472  22.304  1.00  0.00    -0.203 F 
ATOM     15  C   UNL     1      41.278 132.931  19.919  1.00  0.00     0.048 C 
BRANCH  11  16
ATOM     16  C   UNL     1      45.112 130.837  17.432  1.00  0.00     0.032 A 
ATOM     17  C   UNL     1      46.332 130.118  17.406  1.00  0.00     0.013 A 
ATOM     18  C   UNL     1      44.532 131.138  16.193  1.00  0.00     0.212 A 
ATOM     19  C   UNL     1      46.916 129.726  16.180  1.00  0.00     0.008 A 
ATOM     20  O   UNL     1      43.432 131.802  15.931  1.00  0.00    -0.403 OA
ATOM     21  C   UNL     1      45.101 130.756  15.012  1.00  0.00     0.249 A 
ATOM     22  C   UNL     1      46.296 130.046  14.958  1.00  0.00     0.083 A 
ATOM     23  C   UNL     1      43.318 131.827  14.613  1.00  0.00     0.521 A 
ATOM     24  N   UNL     1      44.339 131.185  13.996  1.00  0.00    -0.176 N 
ATOM     25  H   UNL     1      44.496 131.061  12.971  1.00  0.00     0.457 HD
ENDBRANCH  11  16
ENDBRANCH   7   8
ENDBRANCH   1   7
TORSDOF 5
ENDMDL
MODEL 3
REMARK VINA RESULT:      -5.7      3.498      7.213
REMARK SMILES CS[C@@H](C)C(=O)Oc1cc(-c2cccc3[nH+]coc23)cc(C)c1F
REMARK SMILES IDX 5 1 6 2 3 3 4 4 2 5 1 6 7 7 8 8 9 9 23 10 10 11 21 12 20 13
REMARK SMILES IDX 24 14 22 15 11 16 12 17 19 18 13 19 18 20 15 21 14 22 17 23
REMARK SMILES IDX 16 24
REMARK H PARENT 16 25
ROOT
ATOM      1  C   UNL     1      45.333 130.763  18.291  1.00  0.00     0.324 C 
ATOM      2  O   UNL     1      45.636 129.735  17.624  1.00  0.00    -0.250 OA
ENDROOT
BRANCH   1   3
ATOM      3  C   UNL     1      44.440 131.808  17.690  1.00  0.00     0.153 C 
ATOM      4  C   UNL     1      43.036 131.718  18.285  1.00  0.00     0.032 C 
BRANCH   3   5
ATOM      5  S   UNL     1      44.352 131.601  15.873  1.00  0.00    -0.150 SA
ATOM      6  C   UNL     1      46.147 131.732  15.584  1.00  0.00     0.086 C 
ENDBRANCH   3   5
ENDBRANCH   1   3
BRANCH   1   7
ATOM      7  O   UNL     1      45.877 130.982  19.563  1.00  0.00    -0.423 OA
BRANCH   7   8
ATOM      8  C   UNL     1      45.371 130.455  20.761  1.00  0.00     0.167 A 
ATOM      9  C   UNL     1      45.465 129.086  21.069  1.00  0.00     0.059 A 
ATOM     10  C   UNL     1      44.718 131.317  21.648  1.00  0.00     0.168 A 
ATOM     11  C   UNL     1      44.940 128.585  22.273  1.00  0.00    -0.010 A 
ATOM     12  C   UNL     1      44.195 130.833  22.857  1.00  0.00    -0.011 A 
ATOM     13  C   UNL     1      44.303 129.468  23.161  1.00  0.00     0.015 A 
ATOM     14  F   UNL     1      44.603 132.633  21.333  1.00  0.00    -0.203 F 
ATOM     15  C   UNL     1      43.488 131.766  23.799  1.00  0.00     0.048 C 
BRANCH  11  16
ATOM     16  C   UNL     1      45.044 127.140  22.595  1.00  0.00     0.032 A 
ATOM     17  C   UNL     1      46.226 126.406  22.329  1.00  0.00     0.013 A 
ATOM     18  C   UNL     1      43.981 126.434  23.172  1.00  0.00     0.212 A 
ATOM     19  C   UNL     1      46.311 125.030  22.643  1.00  0.00     0.008 A 
ATOM     20  O   UNL     1      42.783 126.857  23.497  1.00  0.00    -0.403 OA
ATOM     21  C   UNL     1      44.069 125.106  23.474  1.00  0.00     0.249 A 
ATOM     22  C   UNL     1      45.218 124.362  23.226  1.00  0.00     0.083 A 
ATOM     23  C   UNL     1      42.142 125.813  23.996  1.00  0.00     0.521 A 
ATOM     24  N   UNL     1      42.908 124.695  24.001  1.00  0.00    -0.176 N 
ATOM     25  H   UNL     1      42.648 123.740  24.334  1.00  0.00     0.457 HD
ENDBRANCH  11  16
ENDBRANCH   7   8
ENDBRANCH   1   7
TORSDOF 5
ENDMDL
MODEL 4
REMARK VINA RESULT:      -5.6      0.945      1.208
REMARK SMILES CS[C@@H](C)C(=O)Oc1cc(-c2cccc3[nH+]coc23)cc(C)c1F
REMARK SMILES IDX 5 1 6 2 3 3 4 4 2 5 1 6 7 7 8 8 9 9 23 10 10 11 21 12 20 13
REMARK SMILES IDX 24 14 22 15 11 16 12 17 19 18 13 19 18 20 15 21 14 22 17 23
REMARK SMILES IDX 16 24
REMARK H PARENT 16 25
ROOT
ATOM      1  C   UNL     1      44.421 130.149  23.085  1.00  0.00     0.324 C 
ATOM      2  O   UNL     1      44.583 130.665  24.226  1.00  0.00    -0.250 OA
ENDROOT
BRANCH   1   3
ATOM      3  C   UNL     1      43.749 128.814  22.957  1.00  0.00     0.153 C 
ATOM      4  C   UNL     1      42.332 128.873  23.523  1.00  0.00     0.032 C 
BRANCH   3   5
ATOM      5  S   UNL     1      44.710 127.531  23.841  1.00  0.00    -0.150 SA
ATOM      6  C   UNL     1      45.392 126.746  22.343  1.00  0.00     0.086 C 
ENDBRANCH   3   5
ENDBRANCH   1   3
BRANCH   1   7
ATOM      7  O   UNL     1      44.925 130.771  21.935  1.00  0.00    -0.423 OA
BRANCH   7   8
ATOM      8  C   UNL     1      44.148 131.273  20.881  1.00  0.00     0.167 A 
ATOM      9  C   UNL     1      44.508 131.086  19.535  1.00  0.00     0.059 A 
ATOM     10  C   UNL     1      43.004 132.019  21.190  1.00  0.00     0.168 A 
ATOM     11  C   UNL     1      43.714 131.609  18.501  1.00  0.00    -0.010 A 
ATOM     12  C   UNL     1      42.198 132.543  20.168  1.00  0.00    -0.011 A 
ATOM     13  C   UNL     1      42.560 132.341  18.828  1.00  0.00     0.015 A 
ATOM     14  F   UNL     1      42.675 132.224  22.492  1.00  0.00    -0.203 F 
ATOM     15  C   UNL     1      40.977 133.349  20.510  1.00  0.00     0.048 C 
BRANCH  11  16
ATOM     16  C   UNL     1      44.098 131.406  17.082  1.00  0.00     0.032 A 
ATOM     17  C   UNL     1      43.320 131.935  16.022  1.00  0.00     0.013 A 
ATOM     18  C   UNL     1      45.241 130.681  16.722  1.00  0.00     0.212 A 
ATOM     19  C   UNL     1      43.700 131.734  14.675  1.00  0.00     0.008 A 
ATOM     20  O   UNL     1      46.114 130.074  17.491  1.00  0.00    -0.403 OA
ATOM     21  C   UNL     1      45.603 130.492  15.420  1.00  0.00     0.249 A 
ATOM     22  C   UNL     1      44.860 131.002  14.361  1.00  0.00     0.083 A 
ATOM     23  C   UNL     1      47.003 129.522  16.680  1.00  0.00     0.521 A 
ATOM     24  N   UNL     1      46.723 129.757  15.376  1.00  0.00    -0.176 N 
ATOM     25  H   UNL     1      47.255 129.437  14.536  1.00  0.00     0.457 HD
ENDBRANCH  11  16
ENDBRANCH   7   8
ENDBRANCH   1   7
TORSDOF 5
ENDMDL
MODEL 5
REMARK VINA RESULT:      -5.5      3.756      7.165
REMARK SMILES CS[C@@H](C)C(=O)Oc1cc(-c2cccc3[nH+]coc23)cc(C)c1F
REMARK SMILES IDX 5 1 6 2 3 3 4 4 2 5 1 6 7 7 8 8 9 9 23 10 10 11 21 12 20 13
REMARK SMILES IDX 24 14 22 15 11 16 12 17 19 18 13 19 18 20 15 21 14 22 17 23
REMARK SMILES IDX 16 24
REMARK H PARENT 16 25
ROOT
ATOM      1  C   UNL     1      43.886 130.974  22.847  1.00  0.00     0.324 C 
ATOM      2  O   UNL     1      43.385 132.005  23.377  1.00  0.00    -0.250 OA
ENDROOT
BRANCH   1   3
ATOM      3  C   UNL     1      43.985 130.875  21.353  1.00  0.00     0.153 C 
ATOM      4  C   UNL     1      45.409 131.178  20.892  1.00  0.00     0.032 C 
BRANCH   3   5
ATOM      5  S   UNL     1      42.820 132.041  20.559  1.00  0.00    -0.150 SA
ATOM      6  C   UNL     1      43.436 131.792  18.861  1.00  0.00     0.086 C 
ENDBRANCH   3   5
ENDBRANCH   1   3
BRANCH   1   7
ATOM      7  O   UNL     1      44.285 129.883  23.630  1.00  0.00    -0.423 OA
BRANCH   7   8
ATOM      8  C   UNL     1      43.707 128.605  23.591  1.00  0.00     0.167 A 
ATOM      9  C   UNL     1      44.421 127.479  23.148  1.00  0.00     0.059 A 
ATOM     10  C   UNL     1      42.366 128.466  23.966  1.00  0.00     0.168 A 
ATOM     11  C   UNL     1      43.812 126.213  23.112  1.00  0.00    -0.010 A 
ATOM     12  C   UNL     1      41.745 127.208  23.941  1.00  0.00    -0.011 A 
ATOM     13  C   UNL     1      42.470 126.087  23.508  1.00  0.00     0.015 A 
ATOM     14  F   UNL     1      41.669 129.562  24.365  1.00  0.00    -0.203 F 
ATOM     15  C   UNL     1      40.302 127.071  24.337  1.00  0.00     0.048 C 
BRANCH  11  16
ATOM     16  C   UNL     1      44.572 125.026  22.646  1.00  0.00     0.032 A 
ATOM     17  C   UNL     1      43.917 123.822  22.288  1.00  0.00     0.013 A 
ATOM     18  C   UNL     1      45.969 125.038  22.541  1.00  0.00     0.212 A 
ATOM     19  C   UNL     1      44.655 122.700  21.845  1.00  0.00     0.008 A 
ATOM     20  O   UNL     1      46.814 126.000  22.824  1.00  0.00    -0.403 OA
ATOM     21  C   UNL     1      46.675 123.952  22.111  1.00  0.00     0.249 A 
ATOM     22  C   UNL     1      46.057 122.759  21.751  1.00  0.00     0.083 A 
ATOM     23  C   UNL     1      48.021 125.522  22.570  1.00  0.00     0.521 A 
ATOM     24  N   UNL     1      47.983 124.244  22.121  1.00  0.00    -0.176 N 
ATOM     25  H   UNL     1      48.786 123.632  21.853  1.00  0.00     0.457 HD
ENDBRANCH  11  16
ENDBRANCH   7   8
ENDBRANCH   1   7
TORSDOF 5
ENDMDL
MODEL 6
REMARK VINA RESULT:      -5.2      3.349      7.042
REMARK SMILES CS[C@@H](C)C(=O)Oc1cc(-c2cccc3[nH+]coc23)cc(C)c1F
REMARK SMILES IDX 5 1 6 2 3 3 4 4 2 5 1 6 7 7 8 8 9 9 23 10 10 11 21 12 20 13
REMARK SMILES IDX 24 14 22 15 11 16 12 17 19 18 13 19 18 20 15 21 14 22 17 23
REMARK SMILES IDX 16 24
REMARK H PARENT 16 25
ROOT
ATOM      1  C   UNL     1      44.959 131.139  18.583  1.00  0.00     0.324 C 
ATOM      2  O   UNL     1      43.983 131.912  18.797  1.00  0.00    -0.250 OA
ENDROOT
BRANCH   1   3
ATOM      3  C   UNL     1      45.222 130.634  17.195  1.00  0.00     0.153 C 
ATOM      4  C   UNL     1      46.436 129.707  17.186  1.00  0.00     0.032 C 
BRANCH   3   5
ATOM      5  S   UNL     1      45.510 132.035  16.052  1.00  0.00    -0.150 SA
ATOM      6  C   UNL     1      44.301 131.502  14.797  1.00  0.00     0.086 C 
ENDBRANCH   3   5
ENDBRANCH   1   3
BRANCH   1   7
ATOM      7  O   UNL     1      45.761 130.685  19.637  1.00  0.00    -0.423 OA
BRANCH   7   8
ATOM      8  C   UNL     1      45.289 130.263  20.889  1.00  0.00     0.167 A 
ATOM      9  C   UNL     1      45.193 128.902  21.228  1.00  0.00     0.059 A 
ATOM     10  C   UNL     1      44.863 131.232  21.804  1.00  0.00     0.168 A 
ATOM     11  C   UNL     1      44.707 128.510  22.487  1.00  0.00    -0.010 A 
ATOM     12  C   UNL     1      44.381 130.856  23.068  1.00  0.00    -0.011 A 
ATOM     13  C   UNL     1      44.300 129.496  23.401  1.00  0.00     0.015 A 
ATOM     14  F   UNL     1      44.929 132.545  21.462  1.00  0.00    -0.203 F 
ATOM     15  C   UNL     1      43.918 131.904  24.040  1.00  0.00     0.048 C 
BRANCH  11  16
ATOM     16  C   UNL     1      44.611 127.072  22.841  1.00  0.00     0.032 A 
ATOM     17  C   UNL     1      43.454 126.539  23.461  1.00  0.00     0.013 A 
ATOM     18  C   UNL     1      45.656 126.176  22.583  1.00  0.00     0.212 A 
ATOM     19  C   UNL     1      43.376 125.165  23.790  1.00  0.00     0.008 A 
ATOM     20  O   UNL     1      46.831 126.404  22.046  1.00  0.00    -0.403 OA
ATOM     21  C   UNL     1      45.575 124.852  22.902  1.00  0.00     0.249 A 
ATOM     22  C   UNL     1      44.450 124.301  23.509  1.00  0.00     0.083 A 
ATOM     23  C   UNL     1      47.464 125.243  22.028  1.00  0.00     0.521 A 
ATOM     24  N   UNL     1      46.717 124.243  22.554  1.00  0.00    -0.176 N 
ATOM     25  H   UNL     1      46.975 123.237  22.665  1.00  0.00     0.457 HD
ENDBRANCH  11  16
ENDBRANCH   7   8
ENDBRANCH   1   7
TORSDOF 5
ENDMDL
MODEL 7
REMARK VINA RESULT:      -4.9      4.816      7.736
REMARK SMILES CS[C@@H](C)C(=O)Oc1cc(-c2cccc3[nH+]coc23)cc(C)c1F
REMARK SMILES IDX 5 1 6 2 3 3 4 4 2 5 1 6 7 7 8 8 9 9 23 10 10 11 21 12 20 13
REMARK SMILES IDX 24 14 22 15 11 16 12 17 19 18 13 19 18 20 15 21 14 22 17 23
REMARK SMILES IDX 16 24
REMARK H PARENT 16 25
ROOT
ATOM      1  C   UNL     1      49.192 124.987  22.729  1.00  0.00     0.324 C 
ATOM      2  O   UNL     1      49.927 126.013  22.737  1.00  0.00    -0.250 OA
ENDROOT
BRANCH   1   3
ATOM      3  C   UNL     1      49.441 123.897  21.728  1.00  0.00     0.153 C 
ATOM      4  C   UNL     1      49.541 122.542  22.427  1.00  0.00     0.032 C 
BRANCH   3   5
ATOM      5  S   UNL     1      50.984 124.225  20.800  1.00  0.00    -0.150 SA
ATOM      6  C   UNL     1      52.014 123.042  21.729  1.00  0.00     0.086 C 
ENDBRANCH   3   5
ENDBRANCH   1   3
BRANCH   1   7
ATOM      7  O   UNL     1      48.096 124.879  23.595  1.00  0.00    -0.423 OA
BRANCH   7   8
ATOM      8  C   UNL     1      46.771 125.205  23.267  1.00  0.00     0.167 A 
ATOM      9  C   UNL     1      46.273 126.512  23.398  1.00  0.00     0.059 A 
ATOM     10  C   UNL     1      45.918 124.182  22.838  1.00  0.00     0.168 A 
ATOM     11  C   UNL     1      44.939 126.807  23.070  1.00  0.00    -0.010 A 
ATOM     12  C   UNL     1      44.584 124.461  22.502  1.00  0.00    -0.011 A 
ATOM     13  C   UNL     1      44.099 125.772  22.625  1.00  0.00     0.015 A 
ATOM     14  F   UNL     1      46.394 122.914  22.742  1.00  0.00    -0.203 F 
ATOM     15  C   UNL     1      43.673 123.355  22.051  1.00  0.00     0.048 C 
BRANCH  11  16
ATOM     16  C   UNL     1      44.418 128.190  23.208  1.00  0.00     0.032 A 
ATOM     17  C   UNL     1      43.512 128.540  24.239  1.00  0.00     0.013 A 
ATOM     18  C   UNL     1      44.793 129.211  22.325  1.00  0.00     0.212 A 
ATOM     19  C   UNL     1      43.027 129.863  24.358  1.00  0.00     0.008 A 
ATOM     20  O   UNL     1      45.589 129.157  21.284  1.00  0.00    -0.403 OA
ATOM     21  C   UNL     1      44.322 130.486  22.446  1.00  0.00     0.249 A 
ATOM     22  C   UNL     1      43.434 130.858  23.451  1.00  0.00     0.083 A 
ATOM     23  C   UNL     1      45.615 130.377  20.772  1.00  0.00     0.521 A 
ATOM     24  N   UNL     1      44.837 131.242  21.466  1.00  0.00    -0.176 N 
ATOM     25  H   UNL     1      44.675 132.256  21.277  1.00  0.00     0.457 HD
ENDBRANCH  11  16
ENDBRANCH   7   8
ENDBRANCH   1   7
TORSDOF 5
ENDMDL
MODEL 8
REMARK VINA RESULT:      -4.8      1.186      1.242
REMARK SMILES CS[C@@H](C)C(=O)Oc1cc(-c2cccc3[nH+]coc23)cc(C)c1F
REMARK SMILES IDX 5 1 6 2 3 3 4 4 2 5 1 6 7 7 8 8 9 9 23 10 10 11 21 12 20 13
REMARK SMILES IDX 24 14 22 15 11 16 12 17 19 18 13 19 18 20 15 21 14 22 17 23
REMARK SMILES IDX 16 24
REMARK H PARENT 16 25
ROOT
ATOM      1  C   UNL     1      45.070 128.785  22.045  1.00  0.00     0.324 C 
ATOM      2  O   UNL     1      45.734 128.012  21.300  1.00  0.00    -0.250 OA
ENDROOT
BRANCH   1   3
ATOM      3  C   UNL     1      44.191 128.214  23.119  1.00  0.00     0.153 C 
ATOM      4  C   UNL     1      43.339 129.313  23.752  1.00  0.00     0.032 C 
BRANCH   3   5
ATOM      5  S   UNL     1      45.206 127.403  24.409  1.00  0.00    -0.150 SA
ATOM      6  C   UNL     1      45.213 125.755  23.630  1.00  0.00     0.086 C 
ENDBRANCH   3   5
ENDBRANCH   1   3
BRANCH   1   7
ATOM      7  O   UNL     1      45.082 130.170  21.840  1.00  0.00    -0.423 OA
BRANCH   7   8
ATOM      8  C   UNL     1      44.536 130.827  20.727  1.00  0.00     0.167 A 
ATOM      9  C   UNL     1      45.151 130.789  19.464  1.00  0.00     0.059 A 
ATOM     10  C   UNL     1      43.366 131.575  20.900  1.00  0.00     0.168 A 
ATOM     11  C   UNL     1      44.585 131.464  18.370  1.00  0.00    -0.010 A 
ATOM     12  C   UNL     1      42.785 132.250  19.816  1.00  0.00    -0.011 A 
ATOM     13  C   UNL     1      43.401 132.197  18.557  1.00  0.00     0.015 A 
ATOM     14  F   UNL     1      42.790 131.635  22.129  1.00  0.00    -0.203 F 
ATOM     15  C   UNL     1      41.533 133.058  20.015  1.00  0.00     0.048 C 
BRANCH  11  16
ATOM     16  C   UNL     1      45.237 131.418  17.038  1.00  0.00     0.032 A 
ATOM     17  C   UNL     1      45.688 132.597  16.394  1.00  0.00     0.013 A 
ATOM     18  C   UNL     1      45.435 130.212  16.353  1.00  0.00     0.212 A 
ATOM     19  C   UNL     1      46.310 132.536  15.125  1.00  0.00     0.008 A 
ATOM     20  O   UNL     1      45.099 128.994  16.706  1.00  0.00    -0.403 OA
ATOM     21  C   UNL     1      46.037 130.160  15.130  1.00  0.00     0.249 A 
ATOM     22  C   UNL     1      46.491 131.301  14.476  1.00  0.00     0.083 A 
ATOM     23  C   UNL     1      45.489 128.201  15.721  1.00  0.00     0.521 A 
ATOM     24  N   UNL     1      46.081 128.887  14.713  1.00  0.00    -0.176 N 
ATOM     25  H   UNL     1      46.473 128.510  13.822  1.00  0.00     0.457 HD
ENDBRANCH  11  16
ENDBRANCH   7   8
ENDBRANCH   1   7
TORSDOF 5
ENDMDL
MODEL 9
REMARK VINA RESULT:      -4.7      1.504      2.196
REMARK SMILES CS[C@@H](C)C(=O)Oc1cc(-c2cccc3[nH+]coc23)cc(C)c1F
REMARK SMILES IDX 5 1 6 2 3 3 4 4 2 5 1 6 7 7 8 8 9 9 23 10 10 11 21 12 20 13
REMARK SMILES IDX 24 14 22 15 11 16 12 17 19 18 13 19 18 20 15 21 14 22 17 23
REMARK SMILES IDX 16 24
REMARK H PARENT 16 25
ROOT
ATOM      1  C   UNL     1      44.973 127.959  22.312  1.00  0.00     0.324 C 
ATOM      2  O   UNL     1      45.070 127.046  21.445  1.00  0.00    -0.250 OA
ENDROOT
BRANCH   1   3
ATOM      3  C   UNL     1      44.345 127.662  23.642  1.00  0.00     0.153 C 
ATOM      4  C   UNL     1      44.614 128.800  24.625  1.00  0.00     0.032 C 
BRANCH   3   5
ATOM      5  S   UNL     1      45.003 126.095  24.321  1.00  0.00    -0.150 SA
ATOM      6  C   UNL     1      46.756 126.474  23.999  1.00  0.00     0.086 C 
ENDBRANCH   3   5
ENDBRANCH   1   3
BRANCH   1   7
ATOM      7  O   UNL     1      45.377 129.269  22.027  1.00  0.00    -0.423 OA
BRANCH   7   8
ATOM      8  C   UNL     1      44.893 130.052  20.967  1.00  0.00     0.167 A 
ATOM      9  C   UNL     1      45.390 129.922  19.659  1.00  0.00     0.059 A 
ATOM     10  C   UNL     1      43.918 131.017  21.240  1.00  0.00     0.168 A 
ATOM     11  C   UNL     1      44.892 130.726  18.620  1.00  0.00    -0.010 A 
ATOM     12  C   UNL     1      43.406 131.824  20.213  1.00  0.00    -0.011 A 
ATOM     13  C   UNL     1      43.901 131.679  18.907  1.00  0.00     0.015 A 
ATOM     14  F   UNL     1      43.462 131.161  22.512  1.00  0.00    -0.203 F 
ATOM     15  C   UNL     1      42.365 132.864  20.518  1.00  0.00     0.048 C 
BRANCH  11  16
ATOM     16  C   UNL     1      45.418 130.582  17.240  1.00  0.00     0.032 A 
ATOM     17  C   UNL     1      46.675 129.980  16.986  1.00  0.00     0.013 A 
ATOM     18  C   UNL     1      44.701 131.036  16.125  1.00  0.00     0.212 A 
ATOM     19  C   UNL     1      47.162 129.849  15.664  1.00  0.00     0.008 A 
ATOM     20  O   UNL     1      43.538 131.641  16.077  1.00  0.00    -0.403 OA
ATOM     21  C   UNL     1      45.176 130.905  14.852  1.00  0.00     0.249 A 
ATOM     22  C   UNL     1      46.405 130.316  14.574  1.00  0.00     0.083 A 
ATOM     23  C   UNL     1      43.294 131.877  14.798  1.00  0.00     0.521 A 
ATOM     24  N   UNL     1      44.291 131.433  13.995  1.00  0.00    -0.176 N 
ATOM     25  H   UNL     1      44.354 131.495  12.954  1.00  0.00     0.457 HD
ENDBRANCH  11  16
ENDBRANCH   7   8
ENDBRANCH   1   7
TORSDOF 5
ENDMDL


