REMARK SMILES C#Cc1c[nH+]cc([NH2+]c2cc(C=C)cc(-c3ccc4cc[n-]c(=O)c4c3)c2O)c1
REMARK SMILES IDX 8 1 7 4 3 5 4 6 29 7 5 8 6 9 2 11 1 12 9 13 10 14 27 15
REMARK SMILES IDX 11 16 15 17 14 18 28 19 12 21 13 22 16 23 17 24 26 25 18 26
REMARK SMILES IDX 25 27 19 28 23 29 20 30 22 31 21 32 24 33
REMARK H PARENT 8 2 8 3 5 10 28 20
ROOT
ATOM      1  N   UNL     1       2.386  -1.762  -0.457  1.00  0.00    -0.273 N 
ATOM      2  H   UNL     1       2.981  -1.024  -0.016  1.00  0.00     0.358 HD
ATOM      3  H   UNL     1       2.950  -2.141  -1.253  1.00  0.00     0.358 HD
ENDROOT
BRANCH   1   4
ATOM      4  C   UNL     1       2.117  -2.849   0.458  1.00  0.00     0.200 A 
ATOM      5  C   UNL     1       2.338  -3.880   2.646  1.00  0.00     0.094 A 
ATOM      6  C   UNL     1       1.626  -4.987   2.177  1.00  0.00     0.324 A 
ATOM      7  C   UNL     1       2.591  -2.813   1.780  1.00  0.00     0.098 A 
ATOM      8  N   UNL     1       1.194  -5.026   0.888  1.00  0.00    -0.212 N 
ATOM      9  C   UNL     1       1.428  -3.998   0.028  1.00  0.00     0.375 A 
ATOM     10  H   UNL     1       0.673  -5.865   0.550  1.00  0.00     0.453 HD
BRANCH   5  11
ATOM     11  C   UNL     1       2.810  -3.841   4.006  1.00  0.00    -0.064 C 
ATOM     12  C   UNL     1       3.205  -3.808   5.144  1.00  0.00     0.010 C 
ENDBRANCH   5  11
ENDBRANCH   1   4
BRANCH   1  13
ATOM     13  C   UNL     1       1.153  -1.176  -0.939  1.00  0.00     0.178 A 
ATOM     14  C   UNL     1       0.669  -1.546  -2.208  1.00  0.00     0.080 A 
ATOM     15  C   UNL     1       0.404  -0.261  -0.156  1.00  0.00     0.185 A 
ATOM     16  C   UNL     1      -0.544  -1.038  -2.702  1.00  0.00    -0.019 A 
ATOM     17  C   UNL     1      -0.798   0.275  -0.662  1.00  0.00     0.030 A 
ATOM     18  C   UNL     1      -1.260  -0.120  -1.926  1.00  0.00     0.021 A 
BRANCH  15  19
ATOM     19  O   UNL     1       0.817   0.120   1.125  1.00  0.00    -0.502 OA
ATOM     20  H   UNL     1       1.671  -0.197   1.559  1.00  0.00     0.293 HD
ENDBRANCH  15  19
BRANCH  16  21
ATOM     21  C   UNL     1      -1.081  -1.411  -4.034  1.00  0.00     0.000 C 
ATOM     22  C   UNL     1      -0.732  -2.513  -4.700  1.00  0.00     0.009 C 
ENDBRANCH  16  21
BRANCH  17  23
ATOM     23  C   UNL     1      -1.591   1.251   0.125  1.00  0.00    -0.014 A 
ATOM     24  C   UNL     1      -0.987   2.410   0.637  1.00  0.00     0.009 A 
ATOM     25  C   UNL     1      -2.962   1.033   0.345  1.00  0.00     0.019 A 
ATOM     26  C   UNL     1      -1.733   3.336   1.369  1.00  0.00     0.009 A 
ATOM     27  C   UNL     1      -3.724   1.960   1.081  1.00  0.00     0.007 A 
ATOM     28  C   UNL     1      -3.099   3.120   1.597  1.00  0.00    -0.018 A 
ATOM     29  C   UNL     1      -5.099   1.766   1.323  1.00  0.00     0.086 A 
ATOM     30  C   UNL     1      -3.854   4.045   2.329  1.00  0.00    -0.015 A 
ATOM     31  N   UNL     1      -5.797   2.687   2.039  1.00  0.00    -0.629 NA
ATOM     32  C   UNL     1      -5.212   3.807   2.541  1.00  0.00    -0.136 A 
ATOM     33  O   UNL     1      -5.697   0.748   0.883  1.00  0.00    -0.315 OA
ENDBRANCH  17  23
ENDBRANCH   1  13
TORSDOF 6


