REMARK SMILES C=Cc1cc(-c2cccc3[nH+]coc23)cc(OC[C@@H](O)CCn2cc(-c3ccc[nH+]c3F)[nH+]n2)c1F
REMARK SMILES IDX 19 1 18 2 17 3 16 4 3 5 4 6 35 7 5 8 15 9 36 10 2 11 1 12
REMARK SMILES IDX 6 13 7 14 14 15 8 16 13 17 10 18 9 19 12 20 11 21 20 23
REMARK SMILES IDX 21 25 22 26 23 27 24 28 34 29 25 30 33 31 26 33 27 34 31 35
REMARK SMILES IDX 28 36 30 37 29 38 32 39
REMARK H PARENT 11 22 20 24 33 32 30 40
ROOT
ATOM      1  C   UNL     1       1.326   2.053  -0.336  1.00  0.00     0.156 C 
ENDROOT
BRANCH   1   2
ATOM      2  C   UNL     1       1.278   0.651   0.282  1.00  0.00     0.261 C 
BRANCH   2   3
ATOM      3  O   UNL     1       2.123  -0.229  -0.456  1.00  0.00    -0.488 OA
BRANCH   3   4
ATOM      4  C   UNL     1       2.315  -1.587  -0.157  1.00  0.00     0.156 A 
ATOM      5  C   UNL     1       3.407  -3.697  -0.714  1.00  0.00     0.014 A 
ATOM      6  C   UNL     1       2.730  -4.314   0.348  1.00  0.00     0.020 A 
ATOM      7  C   UNL     1       3.178  -2.329  -0.972  1.00  0.00     0.172 A 
ATOM      8  C   UNL     1       1.867  -3.581   1.178  1.00  0.00    -0.010 A 
ATOM      9  C   UNL     1       1.666  -2.216   0.921  1.00  0.00     0.058 A 
ATOM     10  F   UNL     1       3.744  -1.719  -2.045  1.00  0.00    -0.202 F 
BRANCH   5  11
ATOM     11  C   UNL     1       4.306  -4.525  -1.550  1.00  0.00     0.003 C 
ATOM     12  C   UNL     1       5.431  -4.065  -2.097  1.00  0.00     0.009 C 
ENDBRANCH   5  11
BRANCH   8  13
ATOM     13  C   UNL     1       1.171  -4.245   2.308  1.00  0.00     0.032 A 
ATOM     14  C   UNL     1       0.606  -5.537   2.171  1.00  0.00     0.013 A 
ATOM     15  C   UNL     1       1.045  -3.633   3.562  1.00  0.00     0.212 A 
ATOM     16  C   UNL     1      -0.056  -6.156   3.256  1.00  0.00     0.008 A 
ATOM     17  O   UNL     1       1.490  -2.467   3.964  1.00  0.00    -0.403 OA
ATOM     18  C   UNL     1       0.405  -4.237   4.604  1.00  0.00     0.249 A 
ATOM     19  C   UNL     1      -0.163  -5.502   4.496  1.00  0.00     0.083 A 
ATOM     20  C   UNL     1       1.128  -2.347   5.231  1.00  0.00     0.521 A 
ATOM     21  N   UNL     1       0.446  -3.430   5.675  1.00  0.00    -0.176 N 
ATOM     22  H   UNL     1       0.053  -3.597   6.627  1.00  0.00     0.457 HD
ENDBRANCH   8  13
ENDBRANCH   3   4
ENDBRANCH   2   3
ENDBRANCH   1   2
BRANCH   1  23
ATOM     23  O   UNL     1       0.854   1.996  -1.658  1.00  0.00    -0.389 OA
ATOM     24  H   UNL     1       1.618   1.718  -2.228  1.00  0.00     0.211 HD
ENDBRANCH   1  23
BRANCH   1  25
ATOM     25  C   UNL     1       0.457   3.028   0.480  1.00  0.00     0.084 C 
BRANCH  25  26
ATOM     26  C   UNL     1       0.673   4.496   0.082  1.00  0.00     0.272 C 
BRANCH  26  27
ATOM     27  N   UNL     1       0.198   4.758  -1.274  1.00  0.00    -0.137 N 
ATOM     28  C   UNL     1      -1.084   4.810  -1.683  1.00  0.00     0.280 A 
ATOM     29  N   UNL     1       0.986   4.947  -2.320  1.00  0.00     0.088 NA
ATOM     30  C   UNL     1      -1.050   5.044  -3.046  1.00  0.00     0.204 A 
ATOM     31  N   UNL     1       0.249   5.121  -3.405  1.00  0.00    -0.143 N 
ATOM     32  H   UNL     1       0.637   5.297  -4.357  1.00  0.00     0.342 HD
BRANCH  30  33
ATOM     33  C   UNL     1      -2.200   5.157  -3.975  1.00  0.00     0.131 A 
ATOM     34  C   UNL     1      -2.043   4.824  -5.331  1.00  0.00     0.029 A 
ATOM     35  C   UNL     1      -3.466   5.594  -3.538  1.00  0.00     0.369 A 
ATOM     36  C   UNL     1      -3.122   4.921  -6.208  1.00  0.00     0.072 A 
ATOM     37  N   UNL     1      -4.503   5.681  -4.417  1.00  0.00    -0.186 N 
ATOM     38  C   UNL     1      -4.357   5.354  -5.729  1.00  0.00     0.309 A 
ATOM     39  F   UNL     1      -3.666   5.972  -2.250  1.00  0.00    -0.135 F 
ATOM     40  H   UNL     1      -5.434   6.011  -4.078  1.00  0.00     0.456 HD
ENDBRANCH  30  33
ENDBRANCH  26  27
ENDBRANCH  25  26
ENDBRANCH   1  25
TORSDOF 10


