MODEL 1
REMARK VINA RESULT:     -10.6      0.000      0.000
REMARK SMILES C=Cc1cccc(-c2ccc3ccnc(O)c3c2)c1
REMARK SMILES IDX 8 1 9 2 10 3 11 4 12 5 13 6 14 7 15 8 17 9 18 10 7 11 3 12
REMARK SMILES IDX 4 13 19 14 5 15 6 16 2 17 1 18 16 19
REMARK H PARENT 16 20
ROOT
ATOM      1  C   UNL     1      44.983 131.031  18.256  1.00  0.00    -0.018 A 
ATOM      2  C   UNL     1      45.887 130.429  19.149  1.00  0.00     0.009 A 
ATOM      3  C   UNL     1      45.664 130.473  20.526  1.00  0.00     0.009 A 
ATOM      4  C   UNL     1      44.531 131.119  21.038  1.00  0.00    -0.011 A 
ATOM      5  C   UNL     1      44.300 131.167  22.418  1.00  0.00     0.029 A 
ATOM      6  C   UNL     1      43.162 131.816  22.901  1.00  0.00     0.116 A 
ATOM      7  N   UNL     1      42.288 132.395  22.037  1.00  0.00    -0.222 NA
ATOM      8  C   UNL     1      42.478 132.369  20.690  1.00  0.00     0.218 A 
ATOM      9  C   UNL     1      43.611 131.728  20.154  1.00  0.00     0.044 A 
ATOM     10  C   UNL     1      43.844 131.680  18.769  1.00  0.00     0.023 A 
ENDROOT
BRANCH   1  11
ATOM     11  C   UNL     1      45.226 130.982  16.792  1.00  0.00    -0.018 A 
ATOM     12  C   UNL     1      46.563 130.216  14.889  1.00  0.00    -0.026 A 
ATOM     13  C   UNL     1      45.682 130.889  14.019  1.00  0.00     0.008 A 
ATOM     14  C   UNL     1      46.318 130.261  16.272  1.00  0.00     0.016 A 
ATOM     15  C   UNL     1      44.597 131.604  14.529  1.00  0.00     0.001 A 
ATOM     16  C   UNL     1      44.370 131.655  15.904  1.00  0.00     0.009 A 
BRANCH  12  17
ATOM     17  C   UNL     1      47.723 129.431  14.400  1.00  0.00     0.000 C 
ATOM     18  C   UNL     1      48.396 129.702  13.281  1.00  0.00     0.009 C 
ENDBRANCH  12  17
ENDBRANCH   1  11
BRANCH   8  19
ATOM     19  O   UNL     1      41.546 132.982  19.856  1.00  0.00    -0.493 OA
ATOM     20  H   UNL     1      40.674 132.520  19.621  1.00  0.00     0.295 HD
ENDBRANCH   8  19
TORSDOF 3
ENDMDL
MODEL 2
REMARK VINA RESULT:      -9.2      1.567      2.176
REMARK SMILES C=Cc1cccc(-c2ccc3ccnc(O)c3c2)c1
REMARK SMILES IDX 8 1 9 2 10 3 11 4 12 5 13 6 14 7 15 8 17 9 18 10 7 11 3 12
REMARK SMILES IDX 4 13 19 14 5 15 6 16 2 17 1 18 16 19
REMARK H PARENT 16 20
ROOT
ATOM      1  C   UNL     1      44.002 131.484  17.624  1.00  0.00    -0.018 A 
ATOM      2  C   UNL     1      42.656 131.856  17.784  1.00  0.00     0.009 A 
ATOM      3  C   UNL     1      42.121 132.068  19.056  1.00  0.00     0.009 A 
ATOM      4  C   UNL     1      42.923 131.912  20.194  1.00  0.00    -0.011 A 
ATOM      5  C   UNL     1      42.395 132.124  21.473  1.00  0.00     0.029 A 
ATOM      6  C   UNL     1      43.217 131.964  22.589  1.00  0.00     0.116 A 
ATOM      7  N   UNL     1      44.519 131.606  22.434  1.00  0.00    -0.222 NA
ATOM      8  C   UNL     1      45.068 131.392  21.208  1.00  0.00     0.218 A 
ATOM      9  C   UNL     1      44.280 131.540  20.051  1.00  0.00     0.044 A 
ATOM     10  C   UNL     1      44.809 131.328  18.766  1.00  0.00     0.023 A 
ENDROOT
BRANCH   1  11
ATOM     11  C   UNL     1      44.564 131.258  16.268  1.00  0.00    -0.018 A 
ATOM     12  C   UNL     1      46.347 130.397  14.828  1.00  0.00    -0.026 A 
ATOM     13  C   UNL     1      45.623 130.829  13.699  1.00  0.00     0.008 A 
ATOM     14  C   UNL     1      45.802 130.607  16.106  1.00  0.00     0.016 A 
ATOM     15  C   UNL     1      44.395 131.474  13.853  1.00  0.00     0.001 A 
ATOM     16  C   UNL     1      43.868 131.691  15.127  1.00  0.00     0.009 A 
BRANCH  12  17
ATOM     17  C   UNL     1      47.650 129.695  14.721  1.00  0.00     0.000 C 
ATOM     18  C   UNL     1      48.336 129.555  13.585  1.00  0.00     0.009 C 
ENDBRANCH  12  17
ENDBRANCH   1  11
BRANCH   8  19
ATOM     19  O   UNL     1      46.409 131.027  21.113  1.00  0.00    -0.493 OA
ATOM     20  H   UNL     1      47.119 131.709  20.869  1.00  0.00     0.295 HD
ENDBRANCH   8  19
TORSDOF 3
ENDMDL
MODEL 3
REMARK VINA RESULT:      -8.1      2.637      6.757
REMARK SMILES C=Cc1cccc(-c2ccc3ccnc(O)c3c2)c1
REMARK SMILES IDX 8 1 9 2 10 3 11 4 12 5 13 6 14 7 15 8 17 9 18 10 7 11 3 12
REMARK SMILES IDX 4 13 19 14 5 15 6 16 2 17 1 18 16 19
REMARK H PARENT 16 20
ROOT
ATOM      1  C   UNL     1      44.417 131.289  18.452  1.00  0.00    -0.018 A 
ATOM      2  C   UNL     1      45.606 130.580  18.702  1.00  0.00     0.009 A 
ATOM      3  C   UNL     1      46.419 130.158  17.649  1.00  0.00     0.009 A 
ATOM      4  C   UNL     1      46.060 130.437  16.324  1.00  0.00    -0.011 A 
ATOM      5  C   UNL     1      46.871 130.018  15.262  1.00  0.00     0.029 A 
ATOM      6  C   UNL     1      46.490 130.311  13.952  1.00  0.00     0.116 A 
ATOM      7  N   UNL     1      45.343 130.997  13.711  1.00  0.00    -0.222 NA
ATOM      8  C   UNL     1      44.529 131.421  14.715  1.00  0.00     0.218 A 
ATOM      9  C   UNL     1      44.869 131.149  16.054  1.00  0.00     0.044 A 
ATOM     10  C   UNL     1      44.056 131.570  17.121  1.00  0.00     0.023 A 
ENDROOT
BRANCH   1  11
ATOM     11  C   UNL     1      43.555 131.733  19.576  1.00  0.00    -0.018 A 
ATOM     12  C   UNL     1      43.048 131.776  21.971  1.00  0.00    -0.026 A 
ATOM     13  C   UNL     1      41.924 132.582  21.703  1.00  0.00     0.008 A 
ATOM     14  C   UNL     1      43.863 131.368  20.901  1.00  0.00     0.016 A 
ATOM     15  C   UNL     1      41.615 132.948  20.392  1.00  0.00     0.001 A 
ATOM     16  C   UNL     1      42.421 132.527  19.334  1.00  0.00     0.009 A 
BRANCH  12  17
ATOM     17  C   UNL     1      43.430 131.369  23.346  1.00  0.00     0.000 C 
ATOM     18  C   UNL     1      42.999 131.972  24.455  1.00  0.00     0.009 C 
ENDBRANCH  12  17
ENDBRANCH   1  11
BRANCH   8  19
ATOM     19  O   UNL     1      43.366 132.120  14.405  1.00  0.00    -0.493 OA
ATOM     20  H   UNL     1      43.405 133.080  14.078  1.00  0.00     0.295 HD
ENDBRANCH   8  19
TORSDOF 3
ENDMDL
MODEL 4
REMARK VINA RESULT:      -7.8      0.729      2.075
REMARK SMILES C=Cc1cccc(-c2ccc3ccnc(O)c3c2)c1
REMARK SMILES IDX 8 1 9 2 10 3 11 4 12 5 13 6 14 7 15 8 17 9 18 10 7 11 3 12
REMARK SMILES IDX 4 13 19 14 5 15 6 16 2 17 1 18 16 19
REMARK H PARENT 16 20
ROOT
ATOM      1  C   UNL     1      45.131 130.841  18.382  1.00  0.00    -0.018 A 
ATOM      2  C   UNL     1      45.958 130.314  19.389  1.00  0.00     0.009 A 
ATOM      3  C   UNL     1      45.630 130.470  20.736  1.00  0.00     0.009 A 
ATOM      4  C   UNL     1      44.465 131.157  21.104  1.00  0.00    -0.011 A 
ATOM      5  C   UNL     1      44.127 131.318  22.453  1.00  0.00     0.029 A 
ATOM      6  C   UNL     1      42.960 132.005  22.790  1.00  0.00     0.116 A 
ATOM      7  N   UNL     1      42.160 132.512  21.817  1.00  0.00    -0.222 NA
ATOM      8  C   UNL     1      42.454 132.376  20.495  1.00  0.00     0.218 A 
ATOM      9  C   UNL     1      43.621 131.692  20.103  1.00  0.00     0.044 A 
ATOM     10  C   UNL     1      43.961 131.530  18.749  1.00  0.00     0.023 A 
ENDROOT
BRANCH   1  11
ATOM     11  C   UNL     1      45.487 130.672  16.950  1.00  0.00    -0.018 A 
ATOM     12  C   UNL     1      44.942 130.960  14.581  1.00  0.00    -0.026 A 
ATOM     13  C   UNL     1      46.168 130.355  14.241  1.00  0.00     0.008 A 
ATOM     14  C   UNL     1      44.618 131.123  15.939  1.00  0.00     0.016 A 
ATOM     15  C   UNL     1      47.034 129.908  15.239  1.00  0.00     0.001 A 
ATOM     16  C   UNL     1      46.699 130.061  16.584  1.00  0.00     0.009 A 
BRANCH  12  17
ATOM     17  C   UNL     1      43.990 131.466  13.560  1.00  0.00     0.000 C 
ATOM     18  C   UNL     1      42.750 131.875  13.828  1.00  0.00     0.009 C 
ENDBRANCH  12  17
ENDBRANCH   1  11
BRANCH   8  19
ATOM     19  O   UNL     1      41.594 132.919  19.543  1.00  0.00    -0.493 OA
ATOM     20  H   UNL     1      40.706 132.478  19.332  1.00  0.00     0.295 HD
ENDBRANCH   8  19
TORSDOF 3
ENDMDL


