REMARK SMILES C=Cc1cc(-c2ccc(C)c3[nH]ncc23)ccc1[O-]
REMARK SMILES IDX 3 1 4 2 5 3 16 4 17 5 18 6 19 7 2 8 1 9 6 10 7 11 15 12 8 13
REMARK SMILES IDX 14 14 11 15 9 16 13 17 12 18 10 19
REMARK H PARENT 12 20
ROOT
ATOM      1  C   UNL     1       0.260   2.686   0.505  1.00  0.00    -0.034 A 
ATOM      2  C   UNL     1       0.094   1.360   0.056  1.00  0.00     0.016 A 
ATOM      3  C   UNL     1       0.567   0.277   0.817  1.00  0.00    -0.017 A 
ATOM      4  C   UNL     1       1.206   0.525   2.040  1.00  0.00     0.008 A 
ATOM      5  C   UNL     1       1.390   1.834   2.486  1.00  0.00    -0.007 A 
ATOM      6  C   UNL     1       0.927   2.912   1.726  1.00  0.00    -0.102 A 
ATOM      7  O   UNL     1       1.124   4.205   2.200  1.00  0.00    -0.872 OA
ENDROOT
BRANCH   1   8
ATOM      8  C   UNL     1      -0.215   3.846  -0.292  1.00  0.00    -0.001 C 
ATOM      9  C   UNL     1      -1.200   3.776  -1.189  1.00  0.00     0.009 C 
ENDBRANCH   1   8
BRANCH   3  10
ATOM     10  C   UNL     1       0.373  -1.112   0.338  1.00  0.00    -0.007 A 
ATOM     11  C   UNL     1      -0.890  -1.547  -0.126  1.00  0.00     0.010 A 
ATOM     12  C   UNL     1       1.414  -2.050   0.315  1.00  0.00     0.028 A 
ATOM     13  C   UNL     1      -1.080  -2.872  -0.575  1.00  0.00     0.006 A 
ATOM     14  C   UNL     1       2.758  -1.967   0.629  1.00  0.00     0.144 A 
ATOM     15  C   UNL     1       1.230  -3.333  -0.124  1.00  0.00     0.069 A 
ATOM     16  C   UNL     1      -0.011  -3.793  -0.576  1.00  0.00    -0.025 A 
ATOM     17  N   UNL     1       3.330  -3.170   0.389  1.00  0.00    -0.183 NA
ATOM     18  N   UNL     1       2.397  -3.996  -0.066  1.00  0.00    -0.278 N 
ATOM     19  C   UNL     1      -0.191  -5.199  -1.066  1.00  0.00     0.046 C 
ATOM     20  H   UNL     1       2.572  -4.989  -0.340  1.00  0.00     0.190 HD
ENDBRANCH   3  10
TORSDOF 2


