REMARK SMILES C[C@H](CCO)C(=O)N(N)c1ccccc1-c1nc2ccccc2[n-]1
REMARK SMILES IDX 1 1 2 2 3 3 4 4 5 5 6 7 7 8 8 9 9 10 10 13 11 14 15 15 12 16
REMARK SMILES IDX 14 17 13 18 16 19 17 20 24 21 18 22 23 23 19 24 22 25 20 26
REMARK SMILES IDX 21 27
REMARK H PARENT 5 6 9 11 9 12
ROOT
ATOM      1  C   UNL     1      -1.770  -1.130   0.376  1.00  0.00     0.018 C 
ATOM      2  C   UNL     1      -1.770  -0.865  -1.135  1.00  0.00     0.079 C 
ENDROOT
BRANCH   2   3
ATOM      3  C   UNL     1      -1.753  -2.180  -1.954  1.00  0.00     0.041 C 
BRANCH   3   4
ATOM      4  C   UNL     1      -3.059  -2.978  -1.869  1.00  0.00     0.157 C 
BRANCH   4   5
ATOM      5  O   UNL     1      -4.129  -2.214  -2.354  1.00  0.00    -0.396 OA
ATOM      6  H   UNL     1      -4.937  -2.784  -2.266  1.00  0.00     0.210 HD
ENDBRANCH   4   5
ENDBRANCH   3   4
ENDBRANCH   2   3
BRANCH   2   7
ATOM      7  C   UNL     1      -0.581   0.004  -1.486  1.00  0.00     0.244 C 
ATOM      8  O   UNL     1       0.516  -0.542  -1.795  1.00  0.00    -0.273 OA
BRANCH   7   9
ATOM      9  N   UNL     1      -0.660   1.441  -1.401  1.00  0.00    -0.247 N 
BRANCH   9  10
ATOM     10  N   UNL     1      -1.881   2.059  -1.078  1.00  0.00    -0.241 NA
ATOM     11  H   UNL     1      -1.679   2.862  -0.438  1.00  0.00     0.144 HD
ATOM     12  H   UNL     1      -2.285   2.448  -1.960  1.00  0.00     0.144 HD
ENDBRANCH   9  10
BRANCH   9  13
ATOM     13  C   UNL     1       0.466   2.252  -1.783  1.00  0.00     0.068 A 
ATOM     14  C   UNL     1       0.405   2.970  -2.987  1.00  0.00     0.028 A 
ATOM     15  C   UNL     1       1.644   2.306  -0.993  1.00  0.00    -0.001 A 
ATOM     16  C   UNL     1       1.499   3.718  -3.423  1.00  0.00     0.002 A 
ATOM     17  C   UNL     1       2.741   3.055  -1.457  1.00  0.00     0.010 A 
ATOM     18  C   UNL     1       2.666   3.756  -2.663  1.00  0.00     0.001 A 
BRANCH  15  19
ATOM     19  C   UNL     1       1.748   1.617   0.316  1.00  0.00    -0.049 A 
ATOM     20  N   UNL     1       0.666   1.266   1.063  1.00  0.00    -0.435 NA
ATOM     21  N   UNL     1       2.943   1.298   0.885  1.00  0.00    -0.435 NA
ATOM     22  C   UNL     1       1.221   0.691   2.138  1.00  0.00    -0.038 A 
ATOM     23  C   UNL     1       2.576   0.711   2.033  1.00  0.00    -0.038 A 
ATOM     24  C   UNL     1       0.572   0.133   3.237  1.00  0.00     0.004 A 
ATOM     25  C   UNL     1       3.401   0.176   3.020  1.00  0.00     0.004 A 
ATOM     26  C   UNL     1       1.372  -0.420   4.255  1.00  0.00     0.000 A 
ATOM     27  C   UNL     1       2.782  -0.398   4.147  1.00  0.00     0.000 A 
ENDBRANCH  15  19
ENDBRANCH   9  13
ENDBRANCH   7   9
ENDBRANCH   2   7
TORSDOF 8


