MODEL 1
REMARK VINA RESULT:      -7.7      0.000      0.000
REMARK SMILES C=C[C@H]1CCC[C@](F)(c2ccc3c(c2)[C@H](N)CC3)[C@@H]1Cl
REMARK SMILES IDX 9 1 10 2 11 3 12 4 13 5 14 6 15 7 17 8 18 9 7 10 3 11 4 12
REMARK SMILES IDX 19 13 5 14 6 15 20 16 8 17 2 18 1 19 16 20
REMARK H PARENT 16 21 16 22
ROOT
ATOM      1  C   UNL     1      45.244 130.896  18.454  1.00  0.00    -0.009 A 
ATOM      2  C   UNL     1      46.100 130.666  19.565  1.00  0.00     0.007 A 
ATOM      3  C   UNL     1      45.669 130.943  20.870  1.00  0.00     0.004 A 
ATOM      4  C   UNL     1      44.381 131.437  21.066  1.00  0.00    -0.043 A 
ATOM      5  C   UNL     1      43.539 131.657  20.009  1.00  0.00    -0.028 A 
ATOM      6  C   UNL     1      43.940 131.387  18.699  1.00  0.00     0.012 A 
ATOM      7  C   UNL     1      42.219 132.183  20.450  1.00  0.00     0.081 C 
ATOM      8  C   UNL     1      42.301 132.136  21.994  1.00  0.00     0.028 C 
ATOM      9  C   UNL     1      43.753 131.780  22.364  1.00  0.00     0.038 C 
ENDROOT
BRANCH   1  10
ATOM     10  C   UNL     1      45.642 130.572  17.011  1.00  0.00     0.152 C 
ATOM     11  C   UNL     1      45.548 131.439  14.566  1.00  0.00     0.033 C 
ATOM     12  C   UNL     1      45.083 130.031  14.126  1.00  0.00     0.009 C 
ATOM     13  C   UNL     1      45.195 131.717  16.054  1.00  0.00     0.130 C 
ATOM     14  C   UNL     1      45.576 128.934  15.075  1.00  0.00     0.004 C 
ATOM     15  C   UNL     1      45.107 129.210  16.507  1.00  0.00     0.048 C 
ATOM     16  Cl  UNL     1      43.431 132.033  16.195  1.00  0.00    -0.118 Cl
ATOM     17  F   UNL     1      47.027 130.488  16.991  1.00  0.00    -0.237 F 
BRANCH  11  18
ATOM     18  C   UNL     1      47.022 131.659  14.284  1.00  0.00    -0.030 C 
ATOM     19  C   UNL     1      47.607 131.175  13.183  1.00  0.00     0.004 C 
ENDBRANCH  11  18
ENDBRANCH   1  10
BRANCH   7  20
ATOM     20  N   UNL     1      42.005 133.554  19.980  1.00  0.00    -0.324 NA
ATOM     21  H   UNL     1      42.919 133.940  19.653  1.00  0.00     0.119 HD
ATOM     22  H   UNL     1      41.681 134.151  20.778  1.00  0.00     0.119 HD
ENDBRANCH   7  20
TORSDOF 3
ENDMDL
MODEL 2
REMARK VINA RESULT:      -7.5      1.205      1.351
REMARK SMILES C=C[C@H]1CCC[C@](F)(c2ccc3c(c2)[C@H](N)CC3)[C@@H]1Cl
REMARK SMILES IDX 9 1 10 2 11 3 12 4 13 5 14 6 15 7 17 8 18 9 7 10 3 11 4 12
REMARK SMILES IDX 19 13 5 14 6 15 20 16 8 17 2 18 1 19 16 20
REMARK H PARENT 16 21 16 22
ROOT
ATOM      1  C   UNL     1      44.973 130.840  17.924  1.00  0.00    -0.009 A 
ATOM      2  C   UNL     1      45.960 130.597  18.919  1.00  0.00     0.007 A 
ATOM      3  C   UNL     1      45.705 130.890  20.266  1.00  0.00     0.004 A 
ATOM      4  C   UNL     1      44.463 131.412  20.621  1.00  0.00    -0.043 A 
ATOM      5  C   UNL     1      43.498 131.645  19.679  1.00  0.00    -0.028 A 
ATOM      6  C   UNL     1      43.722 131.359  18.330  1.00  0.00     0.012 A 
ATOM      7  C   UNL     1      42.255 132.201  20.281  1.00  0.00     0.081 C 
ATOM      8  C   UNL     1      42.534 132.159  21.802  1.00  0.00     0.028 C 
ATOM      9  C   UNL     1      44.014 131.775  21.986  1.00  0.00     0.038 C 
ENDROOT
BRANCH   1  10
ATOM     10  C   UNL     1      45.177 130.501  16.445  1.00  0.00     0.152 C 
ATOM     11  C   UNL     1      46.614 131.037  14.351  1.00  0.00     0.033 C 
ATOM     12  C   UNL     1      45.307 131.153  13.532  1.00  0.00     0.009 C 
ATOM     13  C   UNL     1      46.369 131.317  15.860  1.00  0.00     0.130 C 
ATOM     14  C   UNL     1      44.175 130.307  14.122  1.00  0.00     0.004 C 
ATOM     15  C   UNL     1      43.911 130.702  15.579  1.00  0.00     0.048 C 
ATOM     16  Cl  UNL     1      46.132 133.081  16.104  1.00  0.00    -0.118 Cl
ATOM     17  F   UNL     1      45.489 129.150  16.386  1.00  0.00    -0.237 F 
BRANCH  11  18
ATOM     18  C   UNL     1      47.302 129.704  14.127  1.00  0.00    -0.030 C 
ATOM     19  C   UNL     1      48.458 129.613  13.461  1.00  0.00     0.004 C 
ENDBRANCH  11  18
ENDBRANCH   1  10
BRANCH   7  20
ATOM     20  N   UNL     1      42.011 133.573  19.832  1.00  0.00    -0.324 NA
ATOM     21  H   UNL     1      42.178 134.221  20.634  1.00  0.00     0.119 HD
ATOM     22  H   UNL     1      41.007 133.675  19.550  1.00  0.00     0.119 HD
ENDBRANCH   7  20
TORSDOF 3
ENDMDL
MODEL 3
REMARK VINA RESULT:      -7.1      1.825      2.485
REMARK SMILES C=C[C@H]1CCC[C@](F)(c2ccc3c(c2)[C@H](N)CC3)[C@@H]1Cl
REMARK SMILES IDX 9 1 10 2 11 3 12 4 13 5 14 6 15 7 17 8 18 9 7 10 3 11 4 12
REMARK SMILES IDX 19 13 5 14 6 15 20 16 8 17 2 18 1 19 16 20
REMARK H PARENT 16 21 16 22
ROOT
ATOM      1  C   UNL     1      44.135 131.116  17.538  1.00  0.00    -0.009 A 
ATOM      2  C   UNL     1      42.841 131.691  17.666  1.00  0.00     0.007 A 
ATOM      3  C   UNL     1      42.338 132.047  18.925  1.00  0.00     0.004 A 
ATOM      4  C   UNL     1      43.129 131.840  20.053  1.00  0.00    -0.043 A 
ATOM      5  C   UNL     1      44.380 131.294  19.948  1.00  0.00    -0.028 A 
ATOM      6  C   UNL     1      44.909 130.934  18.707  1.00  0.00     0.012 A 
ATOM      7  C   UNL     1      45.043 131.166  21.275  1.00  0.00     0.081 C 
ATOM      8  C   UNL     1      44.056 131.853  22.247  1.00  0.00     0.028 C 
ATOM      9  C   UNL     1      42.771 132.157  21.455  1.00  0.00     0.038 C 
ENDROOT
BRANCH   1  10
ATOM     10  C   UNL     1      44.755 130.747  16.187  1.00  0.00     0.152 C 
ATOM     11  C   UNL     1      46.819 131.119  14.657  1.00  0.00     0.033 C 
ATOM     12  C   UNL     1      45.850 131.362  13.476  1.00  0.00     0.009 C 
ATOM     13  C   UNL     1      46.144 131.433  16.021  1.00  0.00     0.130 C 
ATOM     14  C   UNL     1      44.512 130.641  13.664  1.00  0.00     0.004 C 
ATOM     15  C   UNL     1      43.848 131.071  14.975  1.00  0.00     0.048 C 
ATOM     16  Cl  UNL     1      46.021 133.214  16.225  1.00  0.00    -0.118 Cl
ATOM     17  F   UNL     1      44.932 129.371  16.194  1.00  0.00    -0.237 F 
BRANCH  11  18
ATOM     18  C   UNL     1      47.405 129.720  14.624  1.00  0.00    -0.030 C 
ATOM     19  C   UNL     1      48.260 129.339  13.669  1.00  0.00     0.004 C 
ENDBRANCH  11  18
ENDBRANCH   1  10
BRANCH   7  20
ATOM     20  N   UNL     1      45.243 129.762  21.639  1.00  0.00    -0.324 NA
ATOM     21  H   UNL     1      44.415 129.439  22.190  1.00  0.00     0.119 HD
ATOM     22  H   UNL     1      46.083 129.677  22.259  1.00  0.00     0.119 HD
ENDBRANCH   7  20
TORSDOF 3
ENDMDL
MODEL 4
REMARK VINA RESULT:      -7.0      1.368      1.971
REMARK SMILES C=C[C@H]1CCC[C@](F)(c2ccc3c(c2)[C@H](N)CC3)[C@@H]1Cl
REMARK SMILES IDX 9 1 10 2 11 3 12 4 13 5 14 6 15 7 17 8 18 9 7 10 3 11 4 12
REMARK SMILES IDX 19 13 5 14 6 15 20 16 8 17 2 18 1 19 16 20
REMARK H PARENT 16 21 16 22
ROOT
ATOM      1  C   UNL     1      44.423 131.183  18.110  1.00  0.00    -0.009 A 
ATOM      2  C   UNL     1      43.168 131.849  18.073  1.00  0.00     0.007 A 
ATOM      3  C   UNL     1      42.521 132.222  19.259  1.00  0.00     0.004 A 
ATOM      4  C   UNL     1      43.131 131.942  20.480  1.00  0.00    -0.043 A 
ATOM      5  C   UNL     1      44.343 131.309  20.535  1.00  0.00    -0.028 A 
ATOM      6  C   UNL     1      45.013 130.929  19.370  1.00  0.00     0.012 A 
ATOM      7  C   UNL     1      44.805 131.114  21.937  1.00  0.00     0.081 C 
ATOM      8  C   UNL     1      43.743 131.857  22.780  1.00  0.00     0.028 C 
ATOM      9  C   UNL     1      42.604 132.265  21.826  1.00  0.00     0.038 C 
ENDROOT
BRANCH   1  10
ATOM     10  C   UNL     1      45.198 130.789  16.849  1.00  0.00     0.152 C 
ATOM     11  C   UNL     1      45.583 131.390  14.353  1.00  0.00     0.033 C 
ATOM     12  C   UNL     1      45.429 129.890  14.009  1.00  0.00     0.009 C 
ATOM     13  C   UNL     1      44.847 131.750  15.674  1.00  0.00     0.130 C 
ATOM     14  C   UNL     1      45.819 128.982  15.180  1.00  0.00     0.004 C 
ATOM     15  C   UNL     1      44.986 129.317  16.421  1.00  0.00     0.048 C 
ATOM     16  Cl  UNL     1      43.076 131.793  15.373  1.00  0.00    -0.118 Cl
ATOM     17  F   UNL     1      46.545 130.925  17.152  1.00  0.00    -0.237 F 
BRANCH  11  18
ATOM     18  C   UNL     1      47.039 131.814  14.383  1.00  0.00    -0.030 C 
ATOM     19  C   UNL     1      47.895 131.456  13.420  1.00  0.00     0.004 C 
ENDBRANCH  11  18
ENDBRANCH   1  10
BRANCH   7  20
ATOM     20  N   UNL     1      44.854 129.694  22.291  1.00  0.00    -0.324 NA
ATOM     21  H   UNL     1      45.331 129.598  23.217  1.00  0.00     0.119 HD
ATOM     22  H   UNL     1      45.432 129.178  21.587  1.00  0.00     0.119 HD
ENDBRANCH   7  20
TORSDOF 3
ENDMDL
MODEL 5
REMARK VINA RESULT:      -6.5      1.748      2.357
REMARK SMILES C=C[C@H]1CCC[C@](F)(c2ccc3c(c2)[C@H](N)CC3)[C@@H]1Cl
REMARK SMILES IDX 9 1 10 2 11 3 12 4 13 5 14 6 15 7 17 8 18 9 7 10 3 11 4 12
REMARK SMILES IDX 19 13 5 14 6 15 20 16 8 17 2 18 1 19 16 20
REMARK H PARENT 16 21 16 22
ROOT
ATOM      1  C   UNL     1      44.833 131.228  17.505  1.00  0.00    -0.009 A 
ATOM      2  C   UNL     1      43.504 131.670  17.262  1.00  0.00     0.007 A 
ATOM      3  C   UNL     1      42.648 131.984  18.327  1.00  0.00     0.004 A 
ATOM      4  C   UNL     1      43.122 131.870  19.632  1.00  0.00    -0.043 A 
ATOM      5  C   UNL     1      44.402 131.454  19.885  1.00  0.00    -0.028 A 
ATOM      6  C   UNL     1      45.278 131.138  18.844  1.00  0.00     0.012 A 
ATOM      7  C   UNL     1      44.693 131.407  21.344  1.00  0.00     0.081 C 
ATOM      8  C   UNL     1      43.419 131.999  21.991  1.00  0.00     0.028 C 
ATOM      9  C   UNL     1      42.371 132.162  20.875  1.00  0.00     0.038 C 
ENDROOT
BRANCH   1  10
ATOM     10  C   UNL     1      45.826 130.912  16.383  1.00  0.00     0.152 C 
ATOM     11  C   UNL     1      46.026 130.056  13.940  1.00  0.00     0.033 C 
ATOM     12  C   UNL     1      47.162 129.115  14.404  1.00  0.00     0.009 C 
ATOM     13  C   UNL     1      45.072 130.419  15.112  1.00  0.00     0.130 C 
ATOM     14  C   UNL     1      47.900 129.657  15.633  1.00  0.00     0.004 C 
ATOM     15  C   UNL     1      46.920 129.895  16.787  1.00  0.00     0.048 C 
ATOM     16  Cl  UNL     1      44.025 129.006  15.482  1.00  0.00    -0.118 Cl
ATOM     17  F   UNL     1      46.479 132.100  16.084  1.00  0.00    -0.237 F 
BRANCH  11  18
ATOM     18  C   UNL     1      46.568 131.293  13.248  1.00  0.00    -0.030 C 
ATOM     19  C   UNL     1      47.757 131.292  12.636  1.00  0.00     0.004 C 
ENDBRANCH  11  18
ENDBRANCH   1  10
BRANCH   7  20
ATOM     20  N   UNL     1      44.922 130.035  21.800  1.00  0.00    -0.324 NA
ATOM     21  H   UNL     1      45.899 129.962  22.163  1.00  0.00     0.119 HD
ATOM     22  H   UNL     1      44.840 129.378  20.988  1.00  0.00     0.119 HD
ENDBRANCH   7  20
TORSDOF 3
ENDMDL
MODEL 6
REMARK VINA RESULT:      -5.9      2.571      6.612
REMARK SMILES C=C[C@H]1CCC[C@](F)(c2ccc3c(c2)[C@H](N)CC3)[C@@H]1Cl
REMARK SMILES IDX 9 1 10 2 11 3 12 4 13 5 14 6 15 7 17 8 18 9 7 10 3 11 4 12
REMARK SMILES IDX 19 13 5 14 6 15 20 16 8 17 2 18 1 19 16 20
REMARK H PARENT 16 21 16 22
ROOT
ATOM      1  C   UNL     1      44.789 131.136  18.731  1.00  0.00    -0.009 A 
ATOM      2  C   UNL     1      43.830 131.950  18.069  1.00  0.00     0.007 A 
ATOM      3  C   UNL     1      43.713 131.925  16.672  1.00  0.00     0.004 A 
ATOM      4  C   UNL     1      44.543 131.081  15.938  1.00  0.00    -0.043 A 
ATOM      5  C   UNL     1      45.467 130.284  16.559  1.00  0.00    -0.028 A 
ATOM      6  C   UNL     1      45.604 130.284  17.949  1.00  0.00     0.012 A 
ATOM      7  C   UNL     1      46.240 129.466  15.585  1.00  0.00     0.081 C 
ATOM      8  C   UNL     1      45.561 129.770  14.230  1.00  0.00     0.028 C 
ATOM      9  C   UNL     1      44.559 130.916  14.466  1.00  0.00     0.038 C 
ENDROOT
BRANCH   1  10
ATOM     10  C   UNL     1      44.934 131.088  20.254  1.00  0.00     0.152 C 
ATOM     11  C   UNL     1      43.619 130.835  22.478  1.00  0.00     0.033 C 
ATOM     12  C   UNL     1      44.404 132.045  23.036  1.00  0.00     0.009 C 
ATOM     13  C   UNL     1      43.546 130.868  20.926  1.00  0.00     0.130 C 
ATOM     14  C   UNL     1      45.777 132.202  22.373  1.00  0.00     0.004 C 
ATOM     15  C   UNL     1      45.630 132.335  20.854  1.00  0.00     0.048 C 
ATOM     16  Cl  UNL     1      42.368 132.126  20.416  1.00  0.00    -0.118 Cl
ATOM     17  F   UNL     1      45.748 130.002  20.542  1.00  0.00    -0.237 F 
BRANCH  11  18
ATOM     18  C   UNL     1      44.175 129.519  22.990  1.00  0.00    -0.030 C 
ATOM     19  C   UNL     1      44.347 129.290  24.296  1.00  0.00     0.004 C 
ENDBRANCH  11  18
ENDBRANCH   1  10
BRANCH   7  20
ATOM     20  N   UNL     1      47.652 129.855  15.561  1.00  0.00    -0.324 NA
ATOM     21  H   UNL     1      47.842 130.468  16.386  1.00  0.00     0.119 HD
ATOM     22  H   UNL     1      47.844 130.420  14.700  1.00  0.00     0.119 HD
ENDBRANCH   7  20
TORSDOF 3
ENDMDL
MODEL 7
REMARK VINA RESULT:      -5.7      2.400      6.416
REMARK SMILES C=C[C@H]1CCC[C@](F)(c2ccc3c(c2)[C@H](N)CC3)[C@@H]1Cl
REMARK SMILES IDX 9 1 10 2 11 3 12 4 13 5 14 6 15 7 17 8 18 9 7 10 3 11 4 12
REMARK SMILES IDX 19 13 5 14 6 15 20 16 8 17 2 18 1 19 16 20
REMARK H PARENT 16 21 16 22
ROOT
ATOM      1  C   UNL     1      45.039 131.170  18.818  1.00  0.00    -0.009 A 
ATOM      2  C   UNL     1      46.022 130.145  18.756  1.00  0.00     0.007 A 
ATOM      3  C   UNL     1      46.569 129.752  17.526  1.00  0.00     0.004 A 
ATOM      4  C   UNL     1      46.144 130.389  16.362  1.00  0.00    -0.043 A 
ATOM      5  C   UNL     1      45.204 131.384  16.403  1.00  0.00    -0.028 A 
ATOM      6  C   UNL     1      44.645 131.799  17.614  1.00  0.00     0.012 A 
ATOM      7  C   UNL     1      44.904 131.921  15.048  1.00  0.00     0.081 C 
ATOM      8  C   UNL     1      45.916 131.195  14.133  1.00  0.00     0.028 C 
ATOM      9  C   UNL     1      46.610 130.115  14.983  1.00  0.00     0.038 C 
ENDROOT
BRANCH   1  10
ATOM     10  C   UNL     1      44.438 131.672  20.134  1.00  0.00     0.152 C 
ATOM     11  C   UNL     1      44.444 131.327  22.707  1.00  0.00     0.033 C 
ATOM     12  C   UNL     1      42.898 131.360  22.676  1.00  0.00     0.009 C 
ATOM     13  C   UNL     1      45.032 130.883  21.339  1.00  0.00     0.130 C 
ATOM     14  C   UNL     1      42.358 132.176  21.497  1.00  0.00     0.004 C 
ATOM     15  C   UNL     1      42.891 131.624  20.171  1.00  0.00     0.048 C 
ATOM     16  Cl  UNL     1      44.797 129.113  21.140  1.00  0.00    -0.118 Cl
ATOM     17  F   UNL     1      44.797 133.007  20.252  1.00  0.00    -0.237 F 
BRANCH  11  18
ATOM     18  C   UNL     1      45.025 132.649  23.171  1.00  0.00    -0.030 C 
ATOM     19  C   UNL     1      44.985 133.023  24.454  1.00  0.00     0.004 C 
ENDBRANCH  11  18
ENDBRANCH   1  10
BRANCH   7  20
ATOM     20  N   UNL     1      43.527 131.621  14.647  1.00  0.00    -0.324 NA
ATOM     21  H   UNL     1      42.953 132.489  14.752  1.00  0.00     0.119 HD
ATOM     22  H   UNL     1      43.125 130.900  15.291  1.00  0.00     0.119 HD
ENDBRANCH   7  20
TORSDOF 3
ENDMDL
MODEL 8
REMARK VINA RESULT:      -5.6      8.040      8.806
REMARK SMILES C=C[C@H]1CCC[C@](F)(c2ccc3c(c2)[C@H](N)CC3)[C@@H]1Cl
REMARK SMILES IDX 9 1 10 2 11 3 12 4 13 5 14 6 15 7 17 8 18 9 7 10 3 11 4 12
REMARK SMILES IDX 19 13 5 14 6 15 20 16 8 17 2 18 1 19 16 20
REMARK H PARENT 16 21 16 22
ROOT
ATOM      1  C   UNL     1      44.503 125.716  23.151  1.00  0.00    -0.009 A 
ATOM      2  C   UNL     1      44.117 126.905  23.829  1.00  0.00     0.007 A 
ATOM      3  C   UNL     1      42.773 127.144  24.145  1.00  0.00     0.004 A 
ATOM      4  C   UNL     1      41.816 126.193  23.796  1.00  0.00    -0.043 A 
ATOM      5  C   UNL     1      42.170 125.039  23.150  1.00  0.00    -0.028 A 
ATOM      6  C   UNL     1      43.502 124.772  22.826  1.00  0.00     0.012 A 
ATOM      7  C   UNL     1      40.992 124.170  22.878  1.00  0.00     0.081 C 
ATOM      8  C   UNL     1      39.827 124.901  23.585  1.00  0.00     0.028 C 
ATOM      9  C   UNL     1      40.359 126.268  24.052  1.00  0.00     0.038 C 
ENDROOT
BRANCH   1  10
ATOM     10  C   UNL     1      45.959 125.380  22.818  1.00  0.00     0.152 C 
ATOM     11  C   UNL     1      47.605 123.429  22.344  1.00  0.00     0.033 C 
ATOM     12  C   UNL     1      48.602 124.082  23.328  1.00  0.00     0.009 C 
ATOM     13  C   UNL     1      46.140 123.841  22.659  1.00  0.00     0.130 C 
ATOM     14  C   UNL     1      48.413 125.600  23.425  1.00  0.00     0.004 C 
ATOM     15  C   UNL     1      46.978 125.938  23.841  1.00  0.00     0.048 C 
ATOM     16  Cl  UNL     1      45.580 122.965  24.125  1.00  0.00    -0.118 Cl
ATOM     17  F   UNL     1      46.241 125.991  21.604  1.00  0.00    -0.237 F 
BRANCH  11  18
ATOM     18  C   UNL     1      47.973 123.711  20.899  1.00  0.00    -0.030 C 
ATOM     19  C   UNL     1      49.087 123.216  20.349  1.00  0.00     0.004 C 
ENDBRANCH  11  18
ENDBRANCH   1  10
BRANCH   7  20
ATOM     20  N   UNL     1      40.738 124.049  21.441  1.00  0.00    -0.324 NA
ATOM     21  H   UNL     1      40.498 123.054  21.228  1.00  0.00     0.119 HD
ATOM     22  H   UNL     1      41.610 124.281  20.911  1.00  0.00     0.119 HD
ENDBRANCH   7  20
TORSDOF 3
ENDMDL
MODEL 9
REMARK VINA RESULT:      -5.4      5.708      7.599
REMARK SMILES C=C[C@H]1CCC[C@](F)(c2ccc3c(c2)[C@H](N)CC3)[C@@H]1Cl
REMARK SMILES IDX 9 1 10 2 11 3 12 4 13 5 14 6 15 7 17 8 18 9 7 10 3 11 4 12
REMARK SMILES IDX 19 13 5 14 6 15 20 16 8 17 2 18 1 19 16 20
REMARK H PARENT 16 21 16 22
ROOT
ATOM      1  C   UNL     1      45.173 127.442  23.195  1.00  0.00    -0.009 A 
ATOM      2  C   UNL     1      44.298 127.921  24.207  1.00  0.00     0.007 A 
ATOM      3  C   UNL     1      43.690 129.179  24.090  1.00  0.00     0.004 A 
ATOM      4  C   UNL     1      43.945 129.951  22.960  1.00  0.00    -0.043 A 
ATOM      5  C   UNL     1      44.778 129.503  21.970  1.00  0.00    -0.028 A 
ATOM      6  C   UNL     1      45.395 128.253  22.058  1.00  0.00     0.012 A 
ATOM      7  C   UNL     1      44.904 130.487  20.860  1.00  0.00     0.081 C 
ATOM      8  C   UNL     1      43.896 131.597  21.238  1.00  0.00     0.028 C 
ATOM      9  C   UNL     1      43.392 131.293  22.661  1.00  0.00     0.038 C 
ENDROOT
BRANCH   1  10
ATOM     10  C   UNL     1      45.831 126.060  23.246  1.00  0.00     0.152 C 
ATOM     11  C   UNL     1      45.876 123.717  22.130  1.00  0.00     0.033 C 
ATOM     12  C   UNL     1      45.819 123.087  23.541  1.00  0.00     0.009 C 
ATOM     13  C   UNL     1      45.265 125.146  22.119  1.00  0.00     0.130 C 
ATOM     14  C   UNL     1      46.418 124.004  24.612  1.00  0.00     0.004 C 
ATOM     15  C   UNL     1      45.705 125.360  24.620  1.00  0.00     0.048 C 
ATOM     16  Cl  UNL     1      43.475 125.026  22.214  1.00  0.00    -0.118 Cl
ATOM     17  F   UNL     1      47.187 126.258  23.024  1.00  0.00    -0.237 F 
BRANCH  11  18
ATOM     18  C   UNL     1      47.282 123.698  21.562  1.00  0.00    -0.030 C 
ATOM     19  C   UNL     1      48.080 122.632  21.695  1.00  0.00     0.004 C 
ENDBRANCH  11  18
ENDBRANCH   1  10
BRANCH   7  20
ATOM     20  N   UNL     1      46.264 131.023  20.773  1.00  0.00    -0.324 NA
ATOM     21  H   UNL     1      46.705 130.968  21.719  1.00  0.00     0.119 HD
ATOM     22  H   UNL     1      46.224 132.035  20.505  1.00  0.00     0.119 HD
ENDBRANCH   7  20
TORSDOF 3
ENDMDL


