REMARK SMILES C#CC[NH2+][C@@H](C=C)C(=O)[N@@H+]1N[C@H](C)O[C@H]1c1ccc2cc(C)[nH]c2c1
REMARK SMILES IDX 5 1 4 2 3 5 2 6 1 7 6 8 7 9 8 10 9 11 10 12 11 13 15 14
REMARK SMILES IDX 12 15 14 16 13 19 16 20 17 21 25 22 18 23 24 24 19 25 23 26
REMARK SMILES IDX 20 27 21 28 22 30
REMARK H PARENT 4 3 4 4 10 17 11 18 23 29
ROOT
ATOM      1  C   UNL     1      -2.374  -0.168   0.146  1.00  0.00     0.339 C 
ENDROOT
BRANCH   1   2
ATOM      2  N   UNL     1      -3.706  -0.534   0.671  1.00  0.00    -0.319 N 
ATOM      3  H   UNL     1      -3.607  -0.809   1.678  1.00  0.00     0.348 HD
ATOM      4  H   UNL     1      -4.353   0.290   0.614  1.00  0.00     0.348 HD
BRANCH   2   5
ATOM      5  C   UNL     1      -4.289  -1.669  -0.063  1.00  0.00     0.353 C 
BRANCH   5   6
ATOM      6  C   UNL     1      -5.597  -2.030   0.502  1.00  0.00    -0.047 C 
ATOM      7  C   UNL     1      -6.670  -2.326   0.965  1.00  0.00     0.010 C 
ENDBRANCH   5   6
ENDBRANCH   2   5
ENDBRANCH   1   2
BRANCH   1   8
ATOM      8  C   UNL     1      -2.482   0.455  -1.230  1.00  0.00     0.044 C 
ATOM      9  C   UNL     1      -1.764   0.013  -2.266  1.00  0.00     0.011 C 
ENDBRANCH   1   8
BRANCH   1  10
ATOM     10  C   UNL     1      -1.699   0.821   1.075  1.00  0.00     0.395 C 
ATOM     11  O   UNL     1      -2.267   1.874   1.341  1.00  0.00    -0.221 OA
BRANCH  10  12
ATOM     12  N   UNL     1      -0.405   0.529   1.656  1.00  0.00    -0.158 N 
ATOM     13  N   UNL     1      -0.479   0.692   3.047  1.00  0.00    -0.130 NA
ATOM     14  C   UNL     1       0.623   1.485   1.230  1.00  0.00     0.384 C 
ATOM     15  C   UNL     1       0.836   1.197   3.438  1.00  0.00     0.240 C 
ATOM     16  O   UNL     1       1.521   1.648   2.294  1.00  0.00    -0.300 OA
ATOM     17  H   UNL     1      -0.108  -0.456   1.444  1.00  0.00     0.384 HD
ATOM     18  H   UNL     1      -0.644  -0.240   3.499  1.00  0.00     0.191 HD
ATOM     19  C   UNL     1       0.674   2.344   4.428  1.00  0.00     0.062 C 
BRANCH  14  20
ATOM     20  C   UNL     1       1.351   1.002  -0.005  1.00  0.00     0.043 A 
ATOM     21  C   UNL     1       1.049   1.568  -1.271  1.00  0.00     0.013 A 
ATOM     22  C   UNL     1       2.285  -0.056   0.082  1.00  0.00     0.039 A 
ATOM     23  C   UNL     1       1.676   1.097  -2.438  1.00  0.00     0.011 A 
ATOM     24  C   UNL     1       2.890  -0.497  -1.092  1.00  0.00     0.046 A 
ATOM     25  C   UNL     1       2.596   0.061  -2.308  1.00  0.00    -0.000 A 
ATOM     26  N   UNL     1       3.785  -1.490  -1.225  1.00  0.00    -0.359 N 
ATOM     27  C   UNL     1       3.335  -0.606  -3.261  1.00  0.00     0.031 A 
ATOM     28  C   UNL     1       4.066  -1.551  -2.548  1.00  0.00     0.013 A 
ATOM     29  H   UNL     1       4.171  -2.098  -0.468  1.00  0.00     0.166 HD
ATOM     30  C   UNL     1       4.970  -2.573  -3.156  1.00  0.00     0.064 C 
ENDBRANCH  14  20
ENDBRANCH  10  12
ENDBRANCH   1  10
TORSDOF 7


