MODEL 1
REMARK VINA RESULT:      -7.7      0.000      0.000
REMARK SMILES CC(C)c1ccc(/N=C(\O)N(N)c2ccccc2-c2[nH]c3ccccc3[nH+]2)cc1
REMARK SMILES IDX 9 1 10 2 8 4 7 5 6 6 28 7 5 8 29 9 4 10 2 11 1 12 3 13 11 14
REMARK SMILES IDX 13 15 14 16 18 17 15 18 17 19 16 20 19 21 20 22 27 23 21 24
REMARK SMILES IDX 26 25 22 26 25 27 23 28 24 29 12 32
REMARK H PARENT 10 3 20 30 27 31 12 33 12 34
ROOT
ATOM      1  C   UNL     1      45.075 131.434  20.383  1.00  0.00     0.309 C 
ENDROOT
BRANCH   1   2
ATOM      2  O   UNL     1      45.961 132.474  20.671  1.00  0.00    -0.479 OA
ATOM      3  H   UNL     1      46.640 132.416  21.418  1.00  0.00     0.297 HD
ENDBRANCH   1   2
BRANCH   1   4
ATOM      4  N   UNL     1      44.455 131.399  19.239  1.00  0.00    -0.196 NA
BRANCH   4   5
ATOM      5  C   UNL     1      45.039 131.099  17.961  1.00  0.00     0.069 A 
ATOM      6  C   UNL     1      45.893 130.000  17.770  1.00  0.00     0.029 A 
ATOM      7  C   UNL     1      44.792 131.967  16.893  1.00  0.00     0.029 A 
ATOM      8  C   UNL     1      46.453 129.752  16.513  1.00  0.00     0.006 A 
ATOM      9  C   UNL     1      45.345 131.719  15.633  1.00  0.00     0.006 A 
ATOM     10  C   UNL     1      46.179 130.604  15.429  1.00  0.00    -0.045 A 
BRANCH  10  11
ATOM     11  C   UNL     1      46.784 130.318  14.067  1.00  0.00     0.013 C 
ATOM     12  C   UNL     1      47.465 131.567  13.495  1.00  0.00     0.012 C 
ATOM     13  C   UNL     1      47.760 129.138  14.131  1.00  0.00     0.012 C 
ENDBRANCH  10  11
ENDBRANCH   4   5
ENDBRANCH   1   4
BRANCH   1  14
ATOM     14  N   UNL     1      44.878 130.367  21.336  1.00  0.00    -0.231 N 
BRANCH  14  15
ATOM     15  C   UNL     1      43.958 130.519  22.440  1.00  0.00     0.078 A 
ATOM     16  C   UNL     1      43.226 131.713  22.551  1.00  0.00     0.029 A 
ATOM     17  C   UNL     1      43.734 129.477  23.377  1.00  0.00     0.089 A 
ATOM     18  C   UNL     1      42.278 131.874  23.563  1.00  0.00     0.002 A 
ATOM     19  C   UNL     1      42.765 129.652  24.380  1.00  0.00     0.019 A 
ATOM     20  C   UNL     1      42.044 130.844  24.473  1.00  0.00     0.001 A 
BRANCH  17  21
ATOM     21  C   UNL     1      44.485 128.204  23.333  1.00  0.00     0.287 A 
ATOM     22  N   UNL     1      45.609 127.978  24.060  1.00  0.00    -0.236 N 
ATOM     23  N   UNL     1      44.122 127.130  22.582  1.00  0.00    -0.236 N 
ATOM     24  C   UNL     1      45.943 126.712  23.764  1.00  0.00     0.172 A 
ATOM     25  C   UNL     1      45.047 126.203  22.870  1.00  0.00     0.172 A 
ATOM     26  C   UNL     1      47.006 125.959  24.258  1.00  0.00     0.056 A 
ATOM     27  C   UNL     1      45.146 124.899  22.389  1.00  0.00     0.056 A 
ATOM     28  C   UNL     1      47.136 124.636  23.793  1.00  0.00     0.005 A 
ATOM     29  C   UNL     1      46.210 124.107  22.863  1.00  0.00     0.005 A 
ATOM     30  H   UNL     1      46.090 128.628  24.722  1.00  0.00     0.312 HD
ATOM     31  H   UNL     1      43.322 127.046  21.918  1.00  0.00     0.312 HD
ENDBRANCH  17  21
ENDBRANCH  14  15
BRANCH  14  32
ATOM     32  N   UNL     1      45.629 129.182  21.201  1.00  0.00    -0.239 NA
ATOM     33  H   UNL     1      46.639 129.449  21.225  1.00  0.00     0.144 HD
ATOM     34  H   UNL     1      45.461 128.765  20.256  1.00  0.00     0.144 HD
ENDBRANCH  14  32
ENDBRANCH   1  14
TORSDOF 8
ENDMDL
MODEL 2
REMARK VINA RESULT:      -6.6      3.999      7.360
REMARK SMILES CC(C)c1ccc(/N=C(\O)N(N)c2ccccc2-c2[nH]c3ccccc3[nH+]2)cc1
REMARK SMILES IDX 9 1 10 2 8 4 7 5 6 6 28 7 5 8 29 9 4 10 2 11 1 12 3 13 11 14
REMARK SMILES IDX 13 15 14 16 18 17 15 18 17 19 16 20 19 21 20 22 27 23 21 24
REMARK SMILES IDX 26 25 22 26 25 27 23 28 24 29 12 32
REMARK H PARENT 10 3 20 30 27 31 12 33 12 34
ROOT
ATOM      1  C   UNL     1      46.698 131.885  20.979  1.00  0.00     0.309 C 
ENDROOT
BRANCH   1   2
ATOM      2  O   UNL     1      47.891 131.507  20.359  1.00  0.00    -0.479 OA
ATOM      3  H   UNL     1      48.479 132.168  19.868  1.00  0.00     0.297 HD
ENDBRANCH   1   2
BRANCH   1   4
ATOM      4  N   UNL     1      46.614 133.029  21.596  1.00  0.00    -0.196 NA
BRANCH   4   5
ATOM      5  C   UNL     1      47.705 133.902  21.927  1.00  0.00     0.069 A 
ATOM      6  C   UNL     1      48.544 133.666  23.028  1.00  0.00     0.029 A 
ATOM      7  C   UNL     1      47.894 135.056  21.158  1.00  0.00     0.029 A 
ATOM      8  C   UNL     1      49.586 134.550  23.325  1.00  0.00     0.006 A 
ATOM      9  C   UNL     1      48.938 135.939  21.448  1.00  0.00     0.006 A 
ATOM     10  C   UNL     1      49.799 135.692  22.534  1.00  0.00    -0.045 A 
BRANCH  10  11
ATOM     11  C   UNL     1      50.939 136.639  22.859  1.00  0.00     0.013 C 
ATOM     12  C   UNL     1      52.291 135.919  22.783  1.00  0.00     0.012 C 
ATOM     13  C   UNL     1      50.918 137.868  21.944  1.00  0.00     0.012 C 
ENDBRANCH  10  11
ENDBRANCH   4   5
ENDBRANCH   1   4
BRANCH   1  14
ATOM     14  N   UNL     1      45.538 131.029  20.896  1.00  0.00    -0.231 N 
BRANCH  14  15
ATOM     15  C   UNL     1      44.231 131.578  20.615  1.00  0.00     0.078 A 
ATOM     16  C   UNL     1      43.378 131.882  21.689  1.00  0.00     0.029 A 
ATOM     17  C   UNL     1      43.811 131.868  19.291  1.00  0.00     0.089 A 
ATOM     18  C   UNL     1      42.135 132.475  21.465  1.00  0.00     0.002 A 
ATOM     19  C   UNL     1      42.561 132.479  19.085  1.00  0.00     0.019 A 
ATOM     20  C   UNL     1      41.729 132.777  20.166  1.00  0.00     0.001 A 
BRANCH  17  21
ATOM     21  C   UNL     1      44.647 131.554  18.112  1.00  0.00     0.287 A 
ATOM     22  N   UNL     1      45.291 130.369  17.953  1.00  0.00    -0.236 N 
ATOM     23  N   UNL     1      44.841 132.400  17.067  1.00  0.00    -0.236 N 
ATOM     24  C   UNL     1      45.890 130.479  16.756  1.00  0.00     0.172 A 
ATOM     25  C   UNL     1      45.620 131.707  16.224  1.00  0.00     0.172 A 
ATOM     26  C   UNL     1      46.665 129.536  16.085  1.00  0.00     0.056 A 
ATOM     27  C   UNL     1      46.111 132.095  14.979  1.00  0.00     0.056 A 
ATOM     28  C   UNL     1      47.178 129.895  14.824  1.00  0.00     0.005 A 
ATOM     29  C   UNL     1      46.902 131.168  14.272  1.00  0.00     0.005 A 
ATOM     30  H   UNL     1      45.298 129.547  18.597  1.00  0.00     0.312 HD
ATOM     31  H   UNL     1      44.486 133.375  16.949  1.00  0.00     0.312 HD
ENDBRANCH  17  21
ENDBRANCH  14  15
BRANCH  14  32
ATOM     32  N   UNL     1      45.688 129.649  21.135  1.00  0.00    -0.239 NA
ATOM     33  H   UNL     1      45.805 129.522  22.166  1.00  0.00     0.144 HD
ATOM     34  H   UNL     1      46.577 129.310  20.698  1.00  0.00     0.144 HD
ENDBRANCH  14  32
ENDBRANCH   1  14
TORSDOF 8
ENDMDL
MODEL 3
REMARK VINA RESULT:      -6.3      1.930      2.686
REMARK SMILES CC(C)c1ccc(/N=C(\O)N(N)c2ccccc2-c2[nH]c3ccccc3[nH+]2)cc1
REMARK SMILES IDX 9 1 10 2 8 4 7 5 6 6 28 7 5 8 29 9 4 10 2 11 1 12 3 13 11 14
REMARK SMILES IDX 13 15 14 16 18 17 15 18 17 19 16 20 19 21 20 22 27 23 21 24
REMARK SMILES IDX 26 25 22 26 25 27 23 28 24 29 12 32
REMARK H PARENT 10 3 20 30 27 31 12 33 12 34
ROOT
ATOM      1  C   UNL     1      44.213 131.424  19.848  1.00  0.00     0.309 C 
ENDROOT
BRANCH   1   2
ATOM      2  O   UNL     1      42.825 131.359  19.715  1.00  0.00    -0.479 OA
ATOM      3  H   UNL     1      42.253 132.184  19.595  1.00  0.00     0.297 HD
ENDBRANCH   1   2
BRANCH   1   4
ATOM      4  N   UNL     1      44.927 132.060  18.963  1.00  0.00    -0.196 NA
BRANCH   4   5
ATOM      5  C   UNL     1      45.411 131.532  17.718  1.00  0.00     0.069 A 
ATOM      6  C   UNL     1      45.886 130.215  17.600  1.00  0.00     0.029 A 
ATOM      7  C   UNL     1      45.466 132.381  16.608  1.00  0.00     0.029 A 
ATOM      8  C   UNL     1      46.364 129.746  16.373  1.00  0.00     0.006 A 
ATOM      9  C   UNL     1      45.937 131.914  15.378  1.00  0.00     0.006 A 
ATOM     10  C   UNL     1      46.388 130.587  15.246  1.00  0.00    -0.045 A 
BRANCH  10  11
ATOM     11  C   UNL     1      46.900 130.063  13.917  1.00  0.00     0.013 C 
ATOM     12  C   UNL     1      47.388 131.210  13.025  1.00  0.00     0.012 C 
ATOM     13  C   UNL     1      48.001 129.016  14.122  1.00  0.00     0.012 C 
ENDBRANCH  10  11
ENDBRANCH   4   5
ENDBRANCH   1   4
BRANCH   1  14
ATOM     14  N   UNL     1      44.860 130.827  20.993  1.00  0.00    -0.231 N 
BRANCH  14  15
ATOM     15  C   UNL     1      44.945 131.535  22.249  1.00  0.00     0.078 A 
ATOM     16  C   UNL     1      45.644 132.753  22.295  1.00  0.00     0.029 A 
ATOM     17  C   UNL     1      44.295 131.064  23.420  1.00  0.00     0.089 A 
ATOM     18  C   UNL     1      45.694 133.502  23.471  1.00  0.00     0.002 A 
ATOM     19  C   UNL     1      44.343 131.839  24.591  1.00  0.00     0.019 A 
ATOM     20  C   UNL     1      45.040 133.048  24.616  1.00  0.00     0.001 A 
BRANCH  17  21
ATOM     21  C   UNL     1      43.560 129.781  23.449  1.00  0.00     0.287 A 
ATOM     22  N   UNL     1      44.176 128.573  23.531  1.00  0.00    -0.236 N 
ATOM     23  N   UNL     1      42.205 129.677  23.419  1.00  0.00    -0.236 N 
ATOM     24  C   UNL     1      43.164 127.691  23.572  1.00  0.00     0.172 A 
ATOM     25  C   UNL     1      41.976 128.358  23.501  1.00  0.00     0.172 A 
ATOM     26  C   UNL     1      43.230 126.304  23.685  1.00  0.00     0.056 A 
ATOM     27  C   UNL     1      40.753 127.691  23.528  1.00  0.00     0.056 A 
ATOM     28  C   UNL     1      42.012 125.597  23.716  1.00  0.00     0.005 A 
ATOM     29  C   UNL     1      40.779 126.287  23.639  1.00  0.00     0.005 A 
ATOM     30  H   UNL     1      45.200 128.374  23.581  1.00  0.00     0.312 HD
ATOM     31  H   UNL     1      41.500 130.441  23.331  1.00  0.00     0.312 HD
ENDBRANCH  17  21
ENDBRANCH  14  15
BRANCH  14  32
ATOM     32  N   UNL     1      45.446 129.553  20.859  1.00  0.00    -0.239 NA
ATOM     33  H   UNL     1      46.002 129.558  19.974  1.00  0.00     0.144 HD
ATOM     34  H   UNL     1      44.699 128.832  20.729  1.00  0.00     0.144 HD
ENDBRANCH  14  32
ENDBRANCH   1  14
TORSDOF 8
ENDMDL
MODEL 4
REMARK VINA RESULT:      -5.8      1.996      7.625
REMARK SMILES CC(C)c1ccc(/N=C(\O)N(N)c2ccccc2-c2[nH]c3ccccc3[nH+]2)cc1
REMARK SMILES IDX 9 1 10 2 8 4 7 5 6 6 28 7 5 8 29 9 4 10 2 11 1 12 3 13 11 14
REMARK SMILES IDX 13 15 14 16 18 17 15 18 17 19 16 20 19 21 20 22 27 23 21 24
REMARK SMILES IDX 26 25 22 26 25 27 23 28 24 29 12 32
REMARK H PARENT 10 3 20 30 27 31 12 33 12 34
ROOT
ATOM      1  C   UNL     1      45.991 131.264  21.226  1.00  0.00     0.309 C 
ENDROOT
BRANCH   1   2
ATOM      2  O   UNL     1      47.145 132.050  21.187  1.00  0.00    -0.479 OA
ATOM      3  H   UNL     1      47.190 132.921  20.676  1.00  0.00     0.297 HD
ENDBRANCH   1   2
BRANCH   1   4
ATOM      4  N   UNL     1      45.491 130.891  22.369  1.00  0.00    -0.196 NA
BRANCH   4   5
ATOM      5  C   UNL     1      44.746 129.690  22.623  1.00  0.00     0.069 A 
ATOM      6  C   UNL     1      43.470 129.712  23.210  1.00  0.00     0.029 A 
ATOM      7  C   UNL     1      45.343 128.459  22.330  1.00  0.00     0.029 A 
ATOM      8  C   UNL     1      42.785 128.518  23.455  1.00  0.00     0.006 A 
ATOM      9  C   UNL     1      44.659 127.264  22.568  1.00  0.00     0.006 A 
ATOM     10  C   UNL     1      43.368 127.281  23.130  1.00  0.00    -0.045 A 
BRANCH  10  11
ATOM     11  C   UNL     1      42.611 125.992  23.391  1.00  0.00     0.013 C 
ATOM     12  C   UNL     1      43.209 125.236  24.583  1.00  0.00     0.012 C 
ATOM     13  C   UNL     1      41.117 126.260  23.601  1.00  0.00     0.012 C 
ENDBRANCH  10  11
ENDBRANCH   4   5
ENDBRANCH   1   4
BRANCH   1  14
ATOM     14  N   UNL     1      45.322 130.901  19.999  1.00  0.00    -0.231 N 
BRANCH  14  15
ATOM     15  C   UNL     1      44.030 131.456  19.668  1.00  0.00     0.078 A 
ATOM     16  C   UNL     1      43.167 131.834  20.710  1.00  0.00     0.029 A 
ATOM     17  C   UNL     1      43.634 131.680  18.323  1.00  0.00     0.089 A 
ATOM     18  C   UNL     1      41.938 132.436  20.434  1.00  0.00     0.002 A 
ATOM     19  C   UNL     1      42.399 132.301  18.065  1.00  0.00     0.019 A 
ATOM     20  C   UNL     1      41.557 132.673  19.115  1.00  0.00     0.001 A 
BRANCH  17  21
ATOM     21  C   UNL     1      44.481 131.286  17.177  1.00  0.00     0.287 A 
ATOM     22  N   UNL     1      45.105 132.184  16.371  1.00  0.00    -0.236 N 
ATOM     23  N   UNL     1      44.739 129.999  16.826  1.00  0.00    -0.236 N 
ATOM     24  C   UNL     1      45.789 131.424  15.501  1.00  0.00     0.172 A 
ATOM     25  C   UNL     1      45.565 130.106  15.774  1.00  0.00     0.172 A 
ATOM     26  C   UNL     1      46.627 131.834  14.467  1.00  0.00     0.056 A 
ATOM     27  C   UNL     1      46.156 129.087  15.029  1.00  0.00     0.056 A 
ATOM     28  C   UNL     1      47.242 130.830  13.693  1.00  0.00     0.005 A 
ATOM     29  C   UNL     1      47.008 129.463  13.973  1.00  0.00     0.005 A 
ATOM     30  H   UNL     1      45.083 133.227  16.429  1.00  0.00     0.312 HD
ATOM     31  H   UNL     1      44.368 129.124  17.257  1.00  0.00     0.312 HD
ENDBRANCH  17  21
ENDBRANCH  14  15
BRANCH  14  32
ATOM     32  N   UNL     1      45.928 129.962  19.141  1.00  0.00    -0.239 NA
ATOM     33  H   UNL     1      45.163 129.486  18.611  1.00  0.00     0.144 HD
ATOM     34  H   UNL     1      46.398 129.218  19.707  1.00  0.00     0.144 HD
ENDBRANCH  14  32
ENDBRANCH   1  14
TORSDOF 8
ENDMDL
MODEL 5
REMARK VINA RESULT:      -5.4      4.288      7.726
REMARK SMILES CC(C)c1ccc(/N=C(\O)N(N)c2ccccc2-c2[nH]c3ccccc3[nH+]2)cc1
REMARK SMILES IDX 9 1 10 2 8 4 7 5 6 6 28 7 5 8 29 9 4 10 2 11 1 12 3 13 11 14
REMARK SMILES IDX 13 15 14 16 18 17 15 18 17 19 16 20 19 21 20 22 27 23 21 24
REMARK SMILES IDX 26 25 22 26 25 27 23 28 24 29 12 32
REMARK H PARENT 10 3 20 30 27 31 12 33 12 34
ROOT
ATOM      1  C   UNL     1      46.490 132.835  20.815  1.00  0.00     0.309 C 
ENDROOT
BRANCH   1   2
ATOM      2  O   UNL     1      46.136 134.085  20.305  1.00  0.00    -0.479 OA
ATOM      3  H   UNL     1      45.872 134.221  19.338  1.00  0.00     0.297 HD
ENDBRANCH   1   2
BRANCH   1   4
ATOM      4  N   UNL     1      47.601 132.688  21.479  1.00  0.00    -0.196 NA
BRANCH   4   5
ATOM      5  C   UNL     1      48.450 133.740  21.963  1.00  0.00     0.069 A 
ATOM      6  C   UNL     1      48.694 134.906  21.219  1.00  0.00     0.029 A 
ATOM      7  C   UNL     1      49.101 133.563  23.189  1.00  0.00     0.029 A 
ATOM      8  C   UNL     1      49.541 135.899  21.721  1.00  0.00     0.006 A 
ATOM      9  C   UNL     1      49.943 134.556  23.696  1.00  0.00     0.006 A 
ATOM     10  C   UNL     1      50.169 135.739  22.968  1.00  0.00    -0.045 A 
BRANCH  10  11
ATOM     11  C   UNL     1      51.078 136.828  23.506  1.00  0.00     0.013 C 
ATOM     12  C   UNL     1      51.978 136.290  24.625  1.00  0.00     0.012 C 
ATOM     13  C   UNL     1      51.910 137.460  22.385  1.00  0.00     0.012 C 
ENDBRANCH  10  11
ENDBRANCH   4   5
ENDBRANCH   1   4
BRANCH   1  14
ATOM     14  N   UNL     1      45.602 131.708  20.648  1.00  0.00    -0.231 N 
BRANCH  14  15
ATOM     15  C   UNL     1      44.212 131.904  20.308  1.00  0.00     0.078 A 
ATOM     16  C   UNL     1      43.298 132.199  21.334  1.00  0.00     0.029 A 
ATOM     17  C   UNL     1      43.757 131.862  18.964  1.00  0.00     0.089 A 
ATOM     18  C   UNL     1      41.959 132.461  21.040  1.00  0.00     0.002 A 
ATOM     19  C   UNL     1      42.408 132.144  18.686  1.00  0.00     0.019 A 
ATOM     20  C   UNL     1      41.516 132.439  19.719  1.00  0.00     0.001 A 
BRANCH  17  21
ATOM     21  C   UNL     1      44.658 131.536  17.838  1.00  0.00     0.287 A 
ATOM     22  N   UNL     1      45.278 130.335  17.706  1.00  0.00    -0.236 N 
ATOM     23  N   UNL     1      44.942 132.387  16.817  1.00  0.00    -0.236 N 
ATOM     24  C   UNL     1      45.955 130.440  16.551  1.00  0.00     0.172 A 
ATOM     25  C   UNL     1      45.754 131.680  16.018  1.00  0.00     0.172 A 
ATOM     26  C   UNL     1      46.744 129.481  15.920  1.00  0.00     0.056 A 
ATOM     27  C   UNL     1      46.335 132.066  14.811  1.00  0.00     0.056 A 
ATOM     28  C   UNL     1      47.347 129.838  14.698  1.00  0.00     0.005 A 
ATOM     29  C   UNL     1      47.143 131.124  14.145  1.00  0.00     0.005 A 
ATOM     30  H   UNL     1      45.220 129.506  18.339  1.00  0.00     0.312 HD
ATOM     31  H   UNL     1      44.623 133.372  16.689  1.00  0.00     0.312 HD
ENDBRANCH  17  21
ENDBRANCH  14  15
BRANCH  14  32
ATOM     32  N   UNL     1      46.101 130.407  20.862  1.00  0.00    -0.239 NA
ATOM     33  H   UNL     1      46.802 130.466  21.635  1.00  0.00     0.144 HD
ATOM     34  H   UNL     1      46.627 130.088  20.015  1.00  0.00     0.144 HD
ENDBRANCH  14  32
ENDBRANCH   1  14
TORSDOF 8
ENDMDL
MODEL 6
REMARK VINA RESULT:      -5.1      4.201      7.600
REMARK SMILES CC(C)c1ccc(/N=C(\O)N(N)c2ccccc2-c2[nH]c3ccccc3[nH+]2)cc1
REMARK SMILES IDX 9 1 10 2 8 4 7 5 6 6 28 7 5 8 29 9 4 10 2 11 1 12 3 13 11 14
REMARK SMILES IDX 13 15 14 16 18 17 15 18 17 19 16 20 19 21 20 22 27 23 21 24
REMARK SMILES IDX 26 25 22 26 25 27 23 28 24 29 12 32
REMARK H PARENT 10 3 20 30 27 31 12 33 12 34
ROOT
ATOM      1  C   UNL     1      46.373 132.367  21.405  1.00  0.00     0.309 C 
ENDROOT
BRANCH   1   2
ATOM      2  O   UNL     1      45.667 132.955  22.456  1.00  0.00    -0.479 OA
ATOM      3  H   UNL     1      45.126 132.412  23.116  1.00  0.00     0.297 HD
ENDBRANCH   1   2
BRANCH   1   4
ATOM      4  N   UNL     1      47.671 132.459  21.355  1.00  0.00    -0.196 NA
BRANCH   4   5
ATOM      5  C   UNL     1      48.465 133.573  21.791  1.00  0.00     0.069 A 
ATOM      6  C   UNL     1      49.271 133.512  22.940  1.00  0.00     0.029 A 
ATOM      7  C   UNL     1      48.380 134.774  21.079  1.00  0.00     0.029 A 
ATOM      8  C   UNL     1      50.016 134.626  23.339  1.00  0.00     0.006 A 
ATOM      9  C   UNL     1      49.128 135.888  21.471  1.00  0.00     0.006 A 
ATOM     10  C   UNL     1      49.959 135.824  22.605  1.00  0.00    -0.045 A 
BRANCH  10  11
ATOM     11  C   UNL     1      50.781 137.022  23.042  1.00  0.00     0.013 C 
ATOM     12  C   UNL     1      52.191 136.596  23.467  1.00  0.00     0.012 C 
ATOM     13  C   UNL     1      50.835 138.088  21.943  1.00  0.00     0.012 C 
ENDBRANCH  10  11
ENDBRANCH   4   5
ENDBRANCH   1   4
BRANCH   1  14
ATOM     14  N   UNL     1      45.669 131.614  20.394  1.00  0.00    -0.231 N 
BRANCH  14  15
ATOM     15  C   UNL     1      44.269 131.853  20.131  1.00  0.00     0.078 A 
ATOM     16  C   UNL     1      43.426 132.188  21.204  1.00  0.00     0.029 A 
ATOM     17  C   UNL     1      43.737 131.814  18.816  1.00  0.00     0.089 A 
ATOM     18  C   UNL     1      42.081 132.493  20.984  1.00  0.00     0.002 A 
ATOM     19  C   UNL     1      42.384 132.139  18.612  1.00  0.00     0.019 A 
ATOM     20  C   UNL     1      41.563 132.473  19.691  1.00  0.00     0.001 A 
BRANCH  17  21
ATOM     21  C   UNL     1      44.560 131.448  17.644  1.00  0.00     0.287 A 
ATOM     22  N   UNL     1      45.155 132.364  16.837  1.00  0.00    -0.236 N 
ATOM     23  N   UNL     1      44.823 130.169  17.266  1.00  0.00    -0.236 N 
ATOM     24  C   UNL     1      45.826 131.625  15.939  1.00  0.00     0.172 A 
ATOM     25  C   UNL     1      45.622 130.301  16.197  1.00  0.00     0.172 A 
ATOM     26  C   UNL     1      46.635 132.060  14.892  1.00  0.00     0.056 A 
ATOM     27  C   UNL     1      46.205 129.301  15.422  1.00  0.00     0.056 A 
ATOM     28  C   UNL     1      47.242 131.075  14.088  1.00  0.00     0.005 A 
ATOM     29  C   UNL     1      47.029 129.702  14.352  1.00  0.00     0.005 A 
ATOM     30  H   UNL     1      45.124 133.406  16.912  1.00  0.00     0.312 HD
ATOM     31  H   UNL     1      44.471 129.283  17.692  1.00  0.00     0.312 HD
ENDBRANCH  17  21
ENDBRANCH  14  15
BRANCH  14  32
ATOM     32  N   UNL     1      46.358 130.607  19.688  1.00  0.00    -0.239 NA
ATOM     33  H   UNL     1      45.649 130.078  19.131  1.00  0.00     0.144 HD
ATOM     34  H   UNL     1      46.770 129.922  20.363  1.00  0.00     0.144 HD
ENDBRANCH  14  32
ENDBRANCH   1  14
TORSDOF 8
ENDMDL


