MODEL 1
REMARK VINA RESULT:      -9.0      0.000      0.000
REMARK SMILES c1nc2cc(-c3ncc([C@H]4CO4)c[nH+]3)c[nH+]c2o1
REMARK SMILES IDX 1 1 2 2 3 3 4 4 5 5 15 6 16 7 17 8 18 9 6 11 7 12 14 13 8 14
REMARK SMILES IDX 13 15 9 16 10 18 11 19 12 20
REMARK H PARENT 16 10 14 17
ROOT
ATOM      1  C   UNL     1      47.712 129.918  13.311  1.00  0.00     0.316 A 
ATOM      2  N   UNL     1      47.577 129.263  14.497  1.00  0.00    -0.209 NA
ATOM      3  C   UNL     1      46.883 130.150  15.229  1.00  0.00     0.180 A 
ATOM      4  C   UNL     1      46.449 130.041  16.543  1.00  0.00     0.062 A 
ATOM      5  C   UNL     1      45.729 131.133  17.089  1.00  0.00     0.134 A 
ATOM      6  C   UNL     1      45.505 132.280  16.275  1.00  0.00     0.326 A 
ATOM      7  N   UNL     1      45.960 132.325  14.985  1.00  0.00    -0.177 N 
ATOM      8  C   UNL     1      46.636 131.259  14.497  1.00  0.00     0.399 A 
ATOM      9  O   UNL     1      47.149 131.117  13.306  1.00  0.00    -0.391 OA
ATOM     10  H   UNL     1      45.790 133.166  14.391  1.00  0.00     0.457 HD
ENDROOT
BRANCH   5  11
ATOM     11  C   UNL     1      45.235 131.107  18.489  1.00  0.00     0.334 A 
ATOM     12  N   UNL     1      44.054 131.713  18.788  1.00  0.00    -0.049 NA
ATOM     13  N   UNL     1      45.938 130.480  19.479  1.00  0.00    -0.243 N 
ATOM     14  C   UNL     1      43.559 131.715  20.053  1.00  0.00     0.264 A 
ATOM     15  C   UNL     1      45.476 130.463  20.759  1.00  0.00     0.208 A 
ATOM     16  C   UNL     1      44.261 131.075  21.076  1.00  0.00     0.066 A 
ATOM     17  H   UNL     1      46.829 129.979  19.273  1.00  0.00     0.312 HD
BRANCH  16  18
ATOM     18  C   UNL     1      43.751 131.098  22.486  1.00  0.00     0.181 C 
ATOM     19  C   UNL     1      42.953 129.924  22.910  1.00  0.00     0.198 C 
ATOM     20  O   UNL     1      44.311 130.061  23.260  1.00  0.00    -0.368 OA
ENDBRANCH  16  18
ENDBRANCH   5  11
TORSDOF 2
ENDMDL
MODEL 2
REMARK VINA RESULT:      -8.8      0.284      1.152
REMARK SMILES c1nc2cc(-c3ncc([C@H]4CO4)c[nH+]3)c[nH+]c2o1
REMARK SMILES IDX 1 1 2 2 3 3 4 4 5 5 15 6 16 7 17 8 18 9 6 11 7 12 14 13 8 14
REMARK SMILES IDX 13 15 9 16 10 18 11 19 12 20
REMARK H PARENT 16 10 14 17
ROOT
ATOM      1  C   UNL     1      47.802 129.848  13.446  1.00  0.00     0.316 A 
ATOM      2  N   UNL     1      47.538 129.215  14.622  1.00  0.00    -0.209 NA
ATOM      3  C   UNL     1      46.842 130.149  15.292  1.00  0.00     0.180 A 
ATOM      4  C   UNL     1      46.301 130.080  16.569  1.00  0.00     0.062 A 
ATOM      5  C   UNL     1      45.606 131.218  17.049  1.00  0.00     0.134 A 
ATOM      6  C   UNL     1      45.513 132.366  16.212  1.00  0.00     0.326 A 
ATOM      7  N   UNL     1      46.068 132.371  14.961  1.00  0.00    -0.177 N 
ATOM      8  C   UNL     1      46.717 131.262  14.534  1.00  0.00     0.399 A 
ATOM      9  O   UNL     1      47.311 131.077  13.388  1.00  0.00    -0.391 OA
ATOM     10  H   UNL     1      45.994 133.213  14.350  1.00  0.00     0.457 HD
ENDROOT
BRANCH   5  11
ATOM     11  C   UNL     1      45.005 131.236  18.406  1.00  0.00     0.334 A 
ATOM     12  N   UNL     1      45.717 130.744  19.456  1.00  0.00    -0.049 NA
ATOM     13  N   UNL     1      43.755 131.745  18.623  1.00  0.00    -0.243 N 
ATOM     14  C   UNL     1      45.211 130.741  20.716  1.00  0.00     0.264 A 
ATOM     15  C   UNL     1      43.212 131.756  19.870  1.00  0.00     0.208 A 
ATOM     16  C   UNL     1      43.938 131.261  20.957  1.00  0.00     0.066 A 
ATOM     17  H   UNL     1      43.198 132.158  17.843  1.00  0.00     0.312 HD
BRANCH  16  18
ATOM     18  C   UNL     1      43.345 131.232  22.334  1.00  0.00     0.181 C 
ATOM     19  C   UNL     1      43.037 129.890  22.882  1.00  0.00     0.198 C 
ATOM     20  O   UNL     1      44.200 130.592  23.255  1.00  0.00    -0.368 OA
ENDBRANCH  16  18
ENDBRANCH   5  11
TORSDOF 2
ENDMDL
MODEL 3
REMARK VINA RESULT:      -8.8      1.493      7.120
REMARK SMILES c1nc2cc(-c3ncc([C@H]4CO4)c[nH+]3)c[nH+]c2o1
REMARK SMILES IDX 1 1 2 2 3 3 4 4 5 5 15 6 16 7 17 8 18 9 6 11 7 12 14 13 8 14
REMARK SMILES IDX 13 15 9 16 10 18 11 19 12 20
REMARK H PARENT 16 10 14 17
ROOT
ATOM      1  C   UNL     1      42.671 132.058  22.743  1.00  0.00     0.316 A 
ATOM      2  N   UNL     1      42.399 132.278  21.427  1.00  0.00    -0.209 NA
ATOM      3  C   UNL     1      43.478 131.750  20.826  1.00  0.00     0.180 A 
ATOM      4  C   UNL     1      43.772 131.683  19.471  1.00  0.00     0.062 A 
ATOM      5  C   UNL     1      44.993 131.070  19.094  1.00  0.00     0.134 A 
ATOM      6  C   UNL     1      45.852 130.573  20.115  1.00  0.00     0.326 A 
ATOM      7  N   UNL     1      45.504 130.669  21.434  1.00  0.00    -0.177 N 
ATOM      8  C   UNL     1      44.327 131.254  21.755  1.00  0.00     0.399 A 
ATOM      9  O   UNL     1      43.827 131.443  22.945  1.00  0.00    -0.391 OA
ATOM     10  H   UNL     1      46.136 130.300  22.179  1.00  0.00     0.457 HD
ENDROOT
BRANCH   5  11
ATOM     11  C   UNL     1      45.393 130.964  17.669  1.00  0.00     0.334 A 
ATOM     12  N   UNL     1      44.784 131.758  16.746  1.00  0.00    -0.049 NA
ATOM     13  N   UNL     1      46.365 130.092  17.266  1.00  0.00    -0.243 N 
ATOM     14  C   UNL     1      45.116 131.699  15.431  1.00  0.00     0.264 A 
ATOM     15  C   UNL     1      46.723 130.002  15.957  1.00  0.00     0.208 A 
ATOM     16  C   UNL     1      46.111 130.818  15.002  1.00  0.00     0.066 A 
ATOM     17  H   UNL     1      46.872 129.494  17.955  1.00  0.00     0.312 HD
BRANCH  16  18
ATOM     18  C   UNL     1      46.466 130.710  13.549  1.00  0.00     0.181 C 
ATOM     19  C   UNL     1      47.743 131.341  13.142  1.00  0.00     0.198 C 
ATOM     20  O   UNL     1      47.638 129.953  13.354  1.00  0.00    -0.368 OA
ENDBRANCH  16  18
ENDBRANCH   5  11
TORSDOF 2
ENDMDL
MODEL 4
REMARK VINA RESULT:      -8.7      1.509      7.179
REMARK SMILES c1nc2cc(-c3ncc([C@H]4CO4)c[nH+]3)c[nH+]c2o1
REMARK SMILES IDX 1 1 2 2 3 3 4 4 5 5 15 6 16 7 17 8 18 9 6 11 7 12 14 13 8 14
REMARK SMILES IDX 13 15 9 16 10 18 11 19 12 20
REMARK H PARENT 16 10 14 17
ROOT
ATOM      1  C   UNL     1      42.661 132.031  22.658  1.00  0.00     0.316 A 
ATOM      2  N   UNL     1      42.376 132.246  21.345  1.00  0.00    -0.209 NA
ATOM      3  C   UNL     1      43.469 131.754  20.737  1.00  0.00     0.180 A 
ATOM      4  C   UNL     1      43.758 131.700  19.380  1.00  0.00     0.062 A 
ATOM      5  C   UNL     1      44.995 131.126  18.995  1.00  0.00     0.134 A 
ATOM      6  C   UNL     1      45.875 130.653  20.010  1.00  0.00     0.326 A 
ATOM      7  N   UNL     1      45.530 130.734  21.332  1.00  0.00    -0.177 N 
ATOM      8  C   UNL     1      44.336 131.282  21.660  1.00  0.00     0.399 A 
ATOM      9  O   UNL     1      43.837 131.452  22.853  1.00  0.00    -0.391 OA
ATOM     10  H   UNL     1      46.176 130.383  22.072  1.00  0.00     0.457 HD
ENDROOT
BRANCH   5  11
ATOM     11  C   UNL     1      45.391 131.036  17.567  1.00  0.00     0.334 A 
ATOM     12  N   UNL     1      45.719 129.823  17.043  1.00  0.00    -0.049 NA
ATOM     13  N   UNL     1      45.424 132.144  16.768  1.00  0.00    -0.243 N 
ATOM     14  C   UNL     1      46.086 129.690  15.743  1.00  0.00     0.264 A 
ATOM     15  C   UNL     1      45.790 132.051  15.461  1.00  0.00     0.208 A 
ATOM     16  C   UNL     1      46.120 130.810  14.910  1.00  0.00     0.066 A 
ATOM     17  H   UNL     1      45.147 133.081  17.133  1.00  0.00     0.312 HD
BRANCH  16  18
ATOM     18  C   UNL     1      46.560 130.689  13.481  1.00  0.00     0.181 C 
ATOM     19  C   UNL     1      47.867 131.303  13.148  1.00  0.00     0.198 C 
ATOM     20  O   UNL     1      47.733 129.917  13.360  1.00  0.00    -0.368 OA
ENDBRANCH  16  18
ENDBRANCH   5  11
TORSDOF 2
ENDMDL
MODEL 5
REMARK VINA RESULT:      -8.4      1.744      7.019
REMARK SMILES c1nc2cc(-c3ncc([C@H]4CO4)c[nH+]3)c[nH+]c2o1
REMARK SMILES IDX 1 1 2 2 3 3 4 4 5 5 15 6 16 7 17 8 18 9 6 11 7 12 14 13 8 14
REMARK SMILES IDX 13 15 9 16 10 18 11 19 12 20
REMARK H PARENT 16 10 14 17
ROOT
ATOM      1  C   UNL     1      43.510 131.565  23.305  1.00  0.00     0.316 A 
ATOM      2  N   UNL     1      44.556 131.117  22.558  1.00  0.00    -0.209 NA
ATOM      3  C   UNL     1      44.130 131.357  21.307  1.00  0.00     0.180 A 
ATOM      4  C   UNL     1      44.775 131.102  20.104  1.00  0.00     0.062 A 
ATOM      5  C   UNL     1      44.099 131.453  18.909  1.00  0.00     0.134 A 
ATOM      6  C   UNL     1      42.800 132.029  19.002  1.00  0.00     0.326 A 
ATOM      7  N   UNL     1      42.218 132.256  20.219  1.00  0.00    -0.177 N 
ATOM      8  C   UNL     1      42.898 131.914  21.339  1.00  0.00     0.399 A 
ATOM      9  O   UNL     1      42.512 132.045  22.578  1.00  0.00    -0.391 OA
ATOM     10  H   UNL     1      41.267 132.681  20.283  1.00  0.00     0.457 HD
ENDROOT
BRANCH   5  11
ATOM     11  C   UNL     1      44.709 131.207  17.579  1.00  0.00     0.334 A 
ATOM     12  N   UNL     1      44.107 131.712  16.467  1.00  0.00    -0.049 NA
ATOM     13  N   UNL     1      45.867 130.492  17.449  1.00  0.00    -0.243 N 
ATOM     14  C   UNL     1      44.628 131.515  15.228  1.00  0.00     0.264 A 
ATOM     15  C   UNL     1      46.417 130.272  16.224  1.00  0.00     0.208 A 
ATOM     16  C   UNL     1      45.813 130.792  15.077  1.00  0.00     0.066 A 
ATOM     17  H   UNL     1      46.368 130.121  18.285  1.00  0.00     0.312 HD
BRANCH  16  18
ATOM     18  C   UNL     1      46.383 130.531  13.715  1.00  0.00     0.181 C 
ATOM     19  C   UNL     1      47.636 131.251  13.385  1.00  0.00     0.198 C 
ATOM     20  O   UNL     1      47.643 129.902  13.789  1.00  0.00    -0.368 OA
ENDBRANCH  16  18
ENDBRANCH   5  11
TORSDOF 2
ENDMDL
MODEL 6
REMARK VINA RESULT:      -8.1      1.733      7.043
REMARK SMILES c1nc2cc(-c3ncc([C@H]4CO4)c[nH+]3)c[nH+]c2o1
REMARK SMILES IDX 1 1 2 2 3 3 4 4 5 5 15 6 16 7 17 8 18 9 6 11 7 12 14 13 8 14
REMARK SMILES IDX 13 15 9 16 10 18 11 19 12 20
REMARK H PARENT 16 10 14 17
ROOT
ATOM      1  C   UNL     1      43.542 131.860  22.708  1.00  0.00     0.316 A 
ATOM      2  N   UNL     1      44.657 131.478  22.026  1.00  0.00    -0.209 NA
ATOM      3  C   UNL     1      44.251 131.573  20.749  1.00  0.00     0.180 A 
ATOM      4  C   UNL     1      44.964 131.302  19.589  1.00  0.00     0.062 A 
ATOM      5  C   UNL     1      44.296 131.482  18.352  1.00  0.00     0.134 A 
ATOM      6  C   UNL     1      42.938 131.913  18.364  1.00  0.00     0.326 A 
ATOM      7  N   UNL     1      42.292 132.164  19.543  1.00  0.00    -0.177 N 
ATOM      8  C   UNL     1      42.965 131.988  20.704  1.00  0.00     0.399 A 
ATOM      9  O   UNL     1      42.523 132.168  21.918  1.00  0.00    -0.391 OA
ATOM     10  H   UNL     1      41.298 132.483  19.547  1.00  0.00     0.457 HD
ENDROOT
BRANCH   5  11
ATOM     11  C   UNL     1      44.977 131.207  17.062  1.00  0.00     0.334 A 
ATOM     12  N   UNL     1      45.115 129.918  16.645  1.00  0.00    -0.049 NA
ATOM     13  N   UNL     1      45.460 132.220  16.282  1.00  0.00    -0.243 N 
ATOM     14  C   UNL     1      45.728 129.615  15.472  1.00  0.00     0.264 A 
ATOM     15  C   UNL     1      46.083 131.956  15.103  1.00  0.00     0.208 A 
ATOM     16  C   UNL     1      46.223 130.638  14.660  1.00  0.00     0.066 A 
ATOM     17  H   UNL     1      45.340 133.218  16.561  1.00  0.00     0.312 HD
BRANCH  16  18
ATOM     18  C   UNL     1      46.938 130.323  13.380  1.00  0.00     0.181 C 
ATOM     19  C   UNL     1      48.063 131.219  13.024  1.00  0.00     0.198 C 
ATOM     20  O   UNL     1      48.280 129.956  13.609  1.00  0.00    -0.368 OA
ENDBRANCH  16  18
ENDBRANCH   5  11
TORSDOF 2
ENDMDL
MODEL 7
REMARK VINA RESULT:      -8.1      1.101      1.113
REMARK SMILES c1nc2cc(-c3ncc([C@H]4CO4)c[nH+]3)c[nH+]c2o1
REMARK SMILES IDX 1 1 2 2 3 3 4 4 5 5 15 6 16 7 17 8 18 9 6 11 7 12 14 13 8 14
REMARK SMILES IDX 13 15 9 16 10 18 11 19 12 20
REMARK H PARENT 16 10 14 17
ROOT
ATOM      1  C   UNL     1      46.896 130.301  13.709  1.00  0.00     0.316 A 
ATOM      2  N   UNL     1      47.222 130.026  15.002  1.00  0.00    -0.209 NA
ATOM      3  C   UNL     1      46.184 130.556  15.670  1.00  0.00     0.180 A 
ATOM      4  C   UNL     1      45.958 130.589  17.040  1.00  0.00     0.062 A 
ATOM      5  C   UNL     1      44.772 131.219  17.494  1.00  0.00     0.134 A 
ATOM      6  C   UNL     1      43.891 131.791  16.534  1.00  0.00     0.326 A 
ATOM      7  N   UNL     1      44.170 131.725  15.196  1.00  0.00    -0.177 N 
ATOM      8  C   UNL     1      45.309 131.109  14.800  1.00  0.00     0.399 A 
ATOM      9  O   UNL     1      45.748 130.951  13.582  1.00  0.00    -0.391 OA
ATOM     10  H   UNL     1      43.520 132.143  14.495  1.00  0.00     0.457 HD
ENDROOT
BRANCH   5  11
ATOM     11  C   UNL     1      44.455 131.309  18.941  1.00  0.00     0.334 A 
ATOM     12  N   UNL     1      43.223 131.742  19.327  1.00  0.00    -0.049 NA
ATOM     13  N   UNL     1      45.371 130.958  19.894  1.00  0.00    -0.243 N 
ATOM     14  C   UNL     1      42.884 131.840  20.638  1.00  0.00     0.264 A 
ATOM     15  C   UNL     1      45.070 131.046  21.217  1.00  0.00     0.208 A 
ATOM     16  C   UNL     1      43.805 131.481  21.624  1.00  0.00     0.066 A 
ATOM     17  H   UNL     1      46.311 130.593  19.628  1.00  0.00     0.312 HD
BRANCH  16  18
ATOM     18  C   UNL     1      43.465 131.618  23.078  1.00  0.00     0.181 C 
ATOM     19  C   UNL     1      42.756 130.471  23.692  1.00  0.00     0.198 C 
ATOM     20  O   UNL     1      44.141 130.664  23.864  1.00  0.00    -0.368 OA
ENDBRANCH  16  18
ENDBRANCH   5  11
TORSDOF 2
ENDMDL
MODEL 8
REMARK VINA RESULT:      -7.9      1.253      1.708
REMARK SMILES c1nc2cc(-c3ncc([C@H]4CO4)c[nH+]3)c[nH+]c2o1
REMARK SMILES IDX 1 1 2 2 3 3 4 4 5 5 15 6 16 7 17 8 18 9 6 11 7 12 14 13 8 14
REMARK SMILES IDX 13 15 9 16 10 18 11 19 12 20
REMARK H PARENT 16 10 14 17
ROOT
ATOM      1  C   UNL     1      46.917 130.379  13.752  1.00  0.00     0.316 A 
ATOM      2  N   UNL     1      47.172 130.152  15.070  1.00  0.00    -0.209 NA
ATOM      3  C   UNL     1      46.082 130.671  15.660  1.00  0.00     0.180 A 
ATOM      4  C   UNL     1      45.775 130.738  17.012  1.00  0.00     0.062 A 
ATOM      5  C   UNL     1      44.548 131.346  17.377  1.00  0.00     0.134 A 
ATOM      6  C   UNL     1      43.710 131.866  16.350  1.00  0.00     0.326 A 
ATOM      7  N   UNL     1      44.070 131.768  15.033  1.00  0.00    -0.177 N 
ATOM      8  C   UNL     1      45.246 131.173  14.723  1.00  0.00     0.399 A 
ATOM      9  O   UNL     1      45.761 130.993  13.539  1.00  0.00    -0.391 OA
ATOM     10  H   UNL     1      43.452 132.147  14.283  1.00  0.00     0.457 HD
ENDROOT
BRANCH   5  11
ATOM     11  C   UNL     1      44.143 131.469  18.800  1.00  0.00     0.334 A 
ATOM     12  N   UNL     1      45.018 131.097  19.775  1.00  0.00    -0.049 NA
ATOM     13  N   UNL     1      42.916 131.957  19.150  1.00  0.00    -0.243 N 
ATOM     14  C   UNL     1      44.695 131.193  21.090  1.00  0.00     0.264 A 
ATOM     15  C   UNL     1      42.554 132.064  20.457  1.00  0.00     0.208 A 
ATOM     16  C   UNL     1      43.447 131.693  21.466  1.00  0.00     0.066 A 
ATOM     17  H   UNL     1      42.238 132.280  18.426  1.00  0.00     0.312 HD
BRANCH  16  18
ATOM     18  C   UNL     1      43.056 131.771  22.912  1.00  0.00     0.181 C 
ATOM     19  C   UNL     1      43.274 130.543  23.713  1.00  0.00     0.198 C 
ATOM     20  O   UNL     1      44.172 131.628  23.762  1.00  0.00    -0.368 OA
ENDBRANCH  16  18
ENDBRANCH   5  11
TORSDOF 2
ENDMDL
MODEL 9
REMARK VINA RESULT:      -7.8      1.762      7.168
REMARK SMILES c1nc2cc(-c3ncc([C@H]4CO4)c[nH+]3)c[nH+]c2o1
REMARK SMILES IDX 1 1 2 2 3 3 4 4 5 5 15 6 16 7 17 8 18 9 6 11 7 12 14 13 8 14
REMARK SMILES IDX 13 15 9 16 10 18 11 19 12 20
REMARK H PARENT 16 10 14 17
ROOT
ATOM      1  C   UNL     1      43.566 131.486  24.001  1.00  0.00     0.316 A 
ATOM      2  N   UNL     1      44.529 130.944  23.205  1.00  0.00    -0.209 NA
ATOM      3  C   UNL     1      44.094 131.273  21.977  1.00  0.00     0.180 A 
ATOM      4  C   UNL     1      44.668 130.984  20.747  1.00  0.00     0.062 A 
ATOM      5  C   UNL     1      44.001 131.450  19.586  1.00  0.00     0.134 A 
ATOM      6  C   UNL     1      42.782 132.169  19.740  1.00  0.00     0.326 A 
ATOM      7  N   UNL     1      42.268 132.422  20.983  1.00  0.00    -0.177 N 
ATOM      8  C   UNL     1      42.938 131.968  22.068  1.00  0.00     0.399 A 
ATOM      9  O   UNL     1      42.609 132.102  23.323  1.00  0.00    -0.391 OA
ATOM     10  H   UNL     1      41.376 132.953  21.092  1.00  0.00     0.457 HD
ENDROOT
BRANCH   5  11
ATOM     11  C   UNL     1      44.537 131.178  18.229  1.00  0.00     0.334 A 
ATOM     12  N   UNL     1      45.610 130.351  18.090  1.00  0.00    -0.049 NA
ATOM     13  N   UNL     1      43.970 131.733  17.116  1.00  0.00    -0.243 N 
ATOM     14  C   UNL     1      46.135 130.071  16.870  1.00  0.00     0.264 A 
ATOM     15  C   UNL     1      44.470 131.479  15.877  1.00  0.00     0.208 A 
ATOM     16  C   UNL     1      45.565 130.625  15.722  1.00  0.00     0.066 A 
ATOM     17  H   UNL     1      43.127 132.344  17.189  1.00  0.00     0.312 HD
BRANCH  16  18
ATOM     18  C   UNL     1      46.154 130.359  14.369  1.00  0.00     0.181 C 
ATOM     19  C   UNL     1      47.012 131.429  13.810  1.00  0.00     0.198 C 
ATOM     20  O   UNL     1      47.561 130.283  14.419  1.00  0.00    -0.368 OA
ENDBRANCH  16  18
ENDBRANCH   5  11
TORSDOF 2
ENDMDL


