REMARK SMILES C[C@@H]1CC[C@H](c2ccc3[nH+]cccc3c2)[C@@H](F)N1c1ncnc2c1CCC2
REMARK SMILES IDX 6 1 7 2 8 3 9 4 10 5 11 6 12 7 13 8 14 9 15 10 5 12 2 13
REMARK SMILES IDX 3 14 18 15 4 16 16 17 1 18 17 19 19 20 20 21 24 22 21 23
REMARK SMILES IDX 23 24 25 25 22 26 27 27 26 28
REMARK H PARENT 10 11
ROOT
ATOM      1  C   UNL     1       0.329  -1.435  -0.772  1.00  0.00    -0.039 A 
ATOM      2  C   UNL     1       0.038  -2.555   0.029  1.00  0.00     0.011 A 
ATOM      3  C   UNL     1       0.727  -3.757  -0.148  1.00  0.00     0.080 A 
ATOM      4  C   UNL     1       1.722  -3.863  -1.129  1.00  0.00     0.210 A 
ATOM      5  N   UNL     1       2.400  -5.035  -1.308  1.00  0.00    -0.211 N 
ATOM      6  C   UNL     1       3.370  -5.156  -2.256  1.00  0.00     0.306 A 
ATOM      7  C   UNL     1       3.696  -4.073  -3.074  1.00  0.00     0.071 A 
ATOM      8  C   UNL     1       3.021  -2.863  -2.915  1.00  0.00     0.021 A 
ATOM      9  C   UNL     1       2.024  -2.745  -1.938  1.00  0.00     0.047 A 
ATOM     10  C   UNL     1       1.328  -1.540  -1.756  1.00  0.00     0.019 A 
ATOM     11  H   UNL     1       2.181  -5.865  -0.712  1.00  0.00     0.453 HD
ENDROOT
BRANCH   1  12
ATOM     12  C   UNL     1      -0.412  -0.123  -0.584  1.00  0.00     0.074 C 
ATOM     13  C   UNL     1      -2.389   1.697   0.690  1.00  0.00     0.083 C 
ATOM     14  C   UNL     1      -2.657   1.046  -0.682  1.00  0.00     0.026 C 
ATOM     15  N   UNL     1      -0.946   1.703   0.974  1.00  0.00    -0.323 N 
ATOM     16  C   UNL     1      -1.920  -0.291  -0.847  1.00  0.00     0.015 C 
ATOM     17  C   UNL     1      -0.165   0.468   0.815  1.00  0.00     0.271 C 
ATOM     18  C   UNL     1      -3.163   1.005   1.820  1.00  0.00     0.031 C 
ATOM     19  F   UNL     1       1.190   0.719   0.975  1.00  0.00    -0.223 F 
BRANCH  15  20
ATOM     20  C   UNL     1      -0.368   2.843   1.622  1.00  0.00     0.137 A 
ATOM     21  N   UNL     1      -0.630   3.097   2.936  1.00  0.00    -0.219 NA
ATOM     22  C   UNL     1       0.451   3.728   0.921  1.00  0.00     0.016 A 
ATOM     23  C   UNL     1      -0.099   4.188   3.561  1.00  0.00     0.224 A 
ATOM     24  C   UNL     1       0.966   4.815   1.565  1.00  0.00     0.049 A 
ATOM     25  C   UNL     1       0.844   3.689  -0.507  1.00  0.00     0.042 C 
ATOM     26  N   UNL     1       0.701   5.052   2.874  1.00  0.00    -0.241 NA
ATOM     27  C   UNL     1       1.790   5.665   0.681  1.00  0.00     0.057 C 
ATOM     28  C   UNL     1       1.702   4.959  -0.689  1.00  0.00     0.011 C 
ENDBRANCH  15  20
ENDBRANCH   1  12
TORSDOF 2


