MODEL 1
REMARK VINA RESULT:     -10.0      0.000      0.000
REMARK SMILES C=Cc1ccc(-c2c(N)c(Nc3ccc(F)cc3)cc(F)c2F)[nH+]c1
REMARK SMILES IDX 7 1 8 2 10 3 19 4 20 5 21 6 22 7 23 8 6 9 3 10 4 11 25 12
REMARK SMILES IDX 5 13 24 14 2 16 1 17 9 18 11 21 12 23 13 24 18 25 14 26
REMARK SMILES IDX 17 27 15 28 16 29
REMARK H PARENT 24 15 9 19 9 20 11 22
ROOT
ATOM      1  C   UNL     1      44.433 131.327  17.981  1.00  0.00     0.110 A 
ATOM      2  C   UNL     1      44.890 130.990  19.279  1.00  0.00     0.073 A 
ATOM      3  C   UNL     1      44.066 131.264  20.397  1.00  0.00     0.066 A 
ATOM      4  C   UNL     1      42.782 131.786  20.205  1.00  0.00     0.070 A 
ATOM      5  C   UNL     1      42.324 132.086  18.924  1.00  0.00     0.161 A 
ATOM      6  F   UNL     1      41.083 132.608  18.757  1.00  0.00    -0.204 F 
ATOM      7  C   UNL     1      43.145 131.871  17.818  1.00  0.00     0.174 A 
ATOM      8  F   UNL     1      42.691 132.211  16.583  1.00  0.00    -0.203 F 
ENDROOT
BRANCH   1   9
ATOM      9  C   UNL     1      45.291 131.141  16.789  1.00  0.00     0.216 A 
ATOM     10  C   UNL     1      46.895 130.818  14.525  1.00  0.00     0.038 A 
ATOM     11  C   UNL     1      46.525 129.700  15.294  1.00  0.00     0.021 A 
ATOM     12  C   UNL     1      46.449 132.083  14.935  1.00  0.00     0.314 A 
ATOM     13  C   UNL     1      45.720 129.860  16.421  1.00  0.00     0.081 A 
ATOM     14  N   UNL     1      45.662 132.217  16.038  1.00  0.00    -0.210 N 
ATOM     15  H   UNL     1      45.337 133.174  16.305  1.00  0.00     0.453 HD
BRANCH  10  16
ATOM     16  C   UNL     1      47.757 130.721  13.320  1.00  0.00     0.006 C 
ATOM     17  C   UNL     1      48.520 129.668  13.024  1.00  0.00     0.009 C 
ENDBRANCH  10  16
ENDBRANCH   1   9
BRANCH   2  18
ATOM     18  N   UNL     1      46.144 130.308  19.459  1.00  0.00    -0.396 N 
ATOM     19  H   UNL     1      46.900 130.342  18.741  1.00  0.00     0.156 HD
ATOM     20  H   UNL     1      46.305 129.662  20.263  1.00  0.00     0.156 HD
ENDBRANCH   2  18
BRANCH   3  21
ATOM     21  N   UNL     1      44.504 130.997  21.737  1.00  0.00    -0.354 N 
ATOM     22  H   UNL     1      45.184 131.666  22.164  1.00  0.00     0.167 HD
BRANCH  21  23
ATOM     23  C   UNL     1      44.215 129.774  22.444  1.00  0.00     0.039 A 
ATOM     24  C   UNL     1      43.044 129.686  23.213  1.00  0.00     0.029 A 
ATOM     25  C   UNL     1      45.089 128.671  22.400  1.00  0.00     0.029 A 
ATOM     26  C   UNL     1      42.740 128.513  23.911  1.00  0.00     0.041 A 
ATOM     27  C   UNL     1      44.782 127.500  23.100  1.00  0.00     0.041 A 
ATOM     28  C   UNL     1      43.608 127.420  23.853  1.00  0.00     0.123 A 
ATOM     29  F   UNL     1      43.312 126.283  24.531  1.00  0.00    -0.207 F 
ENDBRANCH  21  23
ENDBRANCH   3  21
TORSDOF 5
ENDMDL
MODEL 2
REMARK VINA RESULT:      -9.6      0.751      1.435
REMARK SMILES C=Cc1ccc(-c2c(N)c(Nc3ccc(F)cc3)cc(F)c2F)[nH+]c1
REMARK SMILES IDX 7 1 8 2 10 3 19 4 20 5 21 6 22 7 23 8 6 9 3 10 4 11 25 12
REMARK SMILES IDX 5 13 24 14 2 16 1 17 9 18 11 21 12 23 13 24 18 25 14 26
REMARK SMILES IDX 17 27 15 28 16 29
REMARK H PARENT 24 15 9 19 9 20 11 22
ROOT
ATOM      1  C   UNL     1      44.564 131.342  17.925  1.00  0.00     0.110 A 
ATOM      2  C   UNL     1      45.068 131.119  19.232  1.00  0.00     0.073 A 
ATOM      3  C   UNL     1      44.247 131.410  20.348  1.00  0.00     0.066 A 
ATOM      4  C   UNL     1      42.927 131.831  20.153  1.00  0.00     0.070 A 
ATOM      5  C   UNL     1      42.427 132.018  18.867  1.00  0.00     0.161 A 
ATOM      6  F   UNL     1      41.151 132.444  18.696  1.00  0.00    -0.204 F 
ATOM      7  C   UNL     1      43.239 131.787  17.758  1.00  0.00     0.174 A 
ATOM      8  F   UNL     1      42.741 132.017  16.515  1.00  0.00    -0.203 F 
ENDROOT
BRANCH   1   9
ATOM      9  C   UNL     1      45.410 131.137  16.728  1.00  0.00     0.216 A 
ATOM     10  C   UNL     1      47.022 130.722  14.484  1.00  0.00     0.038 A 
ATOM     11  C   UNL     1      46.607 132.022  14.825  1.00  0.00     0.021 A 
ATOM     12  C   UNL     1      46.594 129.656  15.290  1.00  0.00     0.314 A 
ATOM     13  C   UNL     1      45.807 132.230  15.948  1.00  0.00     0.081 A 
ATOM     14  N   UNL     1      45.815 129.881  16.383  1.00  0.00    -0.210 N 
ATOM     15  H   UNL     1      45.528 129.064  16.967  1.00  0.00     0.453 HD
BRANCH  10  16
ATOM     16  C   UNL     1      47.864 130.428  13.298  1.00  0.00     0.006 C 
ATOM     17  C   UNL     1      47.721 131.014  12.109  1.00  0.00     0.009 C 
ENDBRANCH  10  16
ENDBRANCH   1   9
BRANCH   2  18
ATOM     18  N   UNL     1      46.368 130.535  19.425  1.00  0.00    -0.396 N 
ATOM     19  H   UNL     1      47.235 131.114  19.452  1.00  0.00     0.156 HD
ATOM     20  H   UNL     1      46.507 129.502  19.434  1.00  0.00     0.156 HD
ENDBRANCH   2  18
BRANCH   3  21
ATOM     21  N   UNL     1      44.727 131.258  21.693  1.00  0.00    -0.354 N 
ATOM     22  H   UNL     1      45.339 132.015  22.073  1.00  0.00     0.167 HD
BRANCH  21  23
ATOM     23  C   UNL     1      44.577 130.050  22.464  1.00  0.00     0.039 A 
ATOM     24  C   UNL     1      45.047 128.837  21.939  1.00  0.00     0.029 A 
ATOM     25  C   UNL     1      43.949 130.052  23.725  1.00  0.00     0.029 A 
ATOM     26  C   UNL     1      44.911 127.650  22.665  1.00  0.00     0.041 A 
ATOM     27  C   UNL     1      43.815 128.863  24.448  1.00  0.00     0.041 A 
ATOM     28  C   UNL     1      44.297 127.663  23.920  1.00  0.00     0.123 A 
ATOM     29  F   UNL     1      44.166 126.510  24.623  1.00  0.00    -0.207 F 
ENDBRANCH  21  23
ENDBRANCH   3  21
TORSDOF 5
ENDMDL
MODEL 3
REMARK VINA RESULT:      -9.6      0.667      1.059
REMARK SMILES C=Cc1ccc(-c2c(N)c(Nc3ccc(F)cc3)cc(F)c2F)[nH+]c1
REMARK SMILES IDX 7 1 8 2 10 3 19 4 20 5 21 6 22 7 23 8 6 9 3 10 4 11 25 12
REMARK SMILES IDX 5 13 24 14 2 16 1 17 9 18 11 21 12 23 13 24 18 25 14 26
REMARK SMILES IDX 17 27 15 28 16 29
REMARK H PARENT 24 15 9 19 9 20 11 22
ROOT
ATOM      1  C   UNL     1      44.495 131.256  18.130  1.00  0.00     0.110 A 
ATOM      2  C   UNL     1      44.936 130.836  19.410  1.00  0.00     0.073 A 
ATOM      3  C   UNL     1      44.146 131.136  20.546  1.00  0.00     0.066 A 
ATOM      4  C   UNL     1      42.907 131.767  20.388  1.00  0.00     0.070 A 
ATOM      5  C   UNL     1      42.464 132.149  19.124  1.00  0.00     0.161 A 
ATOM      6  F   UNL     1      41.268 132.775  18.991  1.00  0.00    -0.204 F 
ATOM      7  C   UNL     1      43.254 131.908  18.001  1.00  0.00     0.174 A 
ATOM      8  F   UNL     1      42.818 132.328  16.785  1.00  0.00    -0.203 F 
ENDROOT
BRANCH   1   9
ATOM      9  C   UNL     1      45.324 131.044  16.922  1.00  0.00     0.216 A 
ATOM     10  C   UNL     1      46.904 130.616  14.658  1.00  0.00     0.038 A 
ATOM     11  C   UNL     1      46.449 131.911  14.968  1.00  0.00     0.021 A 
ATOM     12  C   UNL     1      46.532 129.562  15.505  1.00  0.00     0.314 A 
ATOM     13  C   UNL     1      45.665 132.125  16.100  1.00  0.00     0.081 A 
ATOM     14  N   UNL     1      45.767 129.793  16.607  1.00  0.00    -0.210 N 
ATOM     15  H   UNL     1      45.522 128.985  17.222  1.00  0.00     0.453 HD
BRANCH  10  16
ATOM     16  C   UNL     1      47.733 130.315  13.464  1.00  0.00     0.006 C 
ATOM     17  C   UNL     1      47.992 131.187  12.489  1.00  0.00     0.009 C 
ENDBRANCH  10  16
ENDBRANCH   1   9
BRANCH   2  18
ATOM     18  N   UNL     1      46.131 130.049  19.551  1.00  0.00    -0.396 N 
ATOM     19  H   UNL     1      46.178 129.054  19.241  1.00  0.00     0.156 HD
ATOM     20  H   UNL     1      46.963 130.407  20.068  1.00  0.00     0.156 HD
ENDBRANCH   2  18
BRANCH   3  21
ATOM     21  N   UNL     1      44.573 130.786  21.871  1.00  0.00    -0.354 N 
ATOM     22  H   UNL     1      45.222 131.445  22.358  1.00  0.00     0.167 HD
BRANCH  21  23
ATOM     23  C   UNL     1      44.318 129.505  22.482  1.00  0.00     0.039 A 
ATOM     24  C   UNL     1      43.154 129.329  23.246  1.00  0.00     0.029 A 
ATOM     25  C   UNL     1      45.218 128.430  22.348  1.00  0.00     0.029 A 
ATOM     26  C   UNL     1      42.884 128.098  23.851  1.00  0.00     0.041 A 
ATOM     27  C   UNL     1      44.944 127.201  22.955  1.00  0.00     0.041 A 
ATOM     28  C   UNL     1      43.777 127.034  23.705  1.00  0.00     0.123 A 
ATOM     29  F   UNL     1      43.513 125.841  24.293  1.00  0.00    -0.207 F 
ENDBRANCH  21  23
ENDBRANCH   3  21
TORSDOF 5
ENDMDL
MODEL 4
REMARK VINA RESULT:      -7.9      1.076      1.666
REMARK SMILES C=Cc1ccc(-c2c(N)c(Nc3ccc(F)cc3)cc(F)c2F)[nH+]c1
REMARK SMILES IDX 7 1 8 2 10 3 19 4 20 5 21 6 22 7 23 8 6 9 3 10 4 11 25 12
REMARK SMILES IDX 5 13 24 14 2 16 1 17 9 18 11 21 12 23 13 24 18 25 14 26
REMARK SMILES IDX 17 27 15 28 16 29
REMARK H PARENT 24 15 9 19 9 20 11 22
ROOT
ATOM      1  C   UNL     1      44.546 131.194  18.618  1.00  0.00     0.110 A 
ATOM      2  C   UNL     1      45.205 130.706  19.774  1.00  0.00     0.073 A 
ATOM      3  C   UNL     1      44.590 130.860  21.039  1.00  0.00     0.066 A 
ATOM      4  C   UNL     1      43.308 131.414  21.128  1.00  0.00     0.070 A 
ATOM      5  C   UNL     1      42.650 131.864  19.985  1.00  0.00     0.161 A 
ATOM      6  F   UNL     1      41.415 132.415  20.091  1.00  0.00    -0.204 F 
ATOM      7  C   UNL     1      43.266 131.767  18.738  1.00  0.00     0.174 A 
ATOM      8  F   UNL     1      42.621 132.251  17.644  1.00  0.00    -0.203 F 
ENDROOT
BRANCH   1   9
ATOM      9  C   UNL     1      45.185 131.135  17.284  1.00  0.00     0.216 A 
ATOM     10  C   UNL     1      46.405 130.994  14.774  1.00  0.00     0.038 A 
ATOM     11  C   UNL     1      46.135 132.244  15.359  1.00  0.00     0.021 A 
ATOM     12  C   UNL     1      46.035 129.838  15.479  1.00  0.00     0.314 A 
ATOM     13  C   UNL     1      45.530 132.315  16.614  1.00  0.00     0.081 A 
ATOM     14  N   UNL     1      45.447 129.929  16.703  1.00  0.00    -0.210 N 
ATOM     15  H   UNL     1      45.199 129.046  17.204  1.00  0.00     0.453 HD
BRANCH  10  16
ATOM     16  C   UNL     1      47.036 130.845  13.440  1.00  0.00     0.006 C 
ATOM     17  C   UNL     1      48.309 130.499  13.244  1.00  0.00     0.009 C 
ENDBRANCH  10  16
ENDBRANCH   1   9
BRANCH   2  18
ATOM     18  N   UNL     1      46.451 129.994  19.660  1.00  0.00    -0.396 N 
ATOM     19  H   UNL     1      46.486 128.971  19.460  1.00  0.00     0.156 HD
ATOM     20  H   UNL     1      47.362 130.450  19.884  1.00  0.00     0.156 HD
ENDBRANCH   2  18
BRANCH   3  21
ATOM     21  N   UNL     1      45.239 130.437  22.247  1.00  0.00    -0.354 N 
ATOM     22  H   UNL     1      45.984 131.058  22.636  1.00  0.00     0.167 HD
BRANCH  21  23
ATOM     23  C   UNL     1      45.061 129.134  22.836  1.00  0.00     0.039 A 
ATOM     24  C   UNL     1      45.612 128.011  22.199  1.00  0.00     0.029 A 
ATOM     25  C   UNL     1      44.329 128.955  24.027  1.00  0.00     0.029 A 
ATOM     26  C   UNL     1      45.452 126.735  22.747  1.00  0.00     0.041 A 
ATOM     27  C   UNL     1      44.171 127.676  24.572  1.00  0.00     0.041 A 
ATOM     28  C   UNL     1      44.733 126.567  23.934  1.00  0.00     0.123 A 
ATOM     29  F   UNL     1      44.579 125.329  24.464  1.00  0.00    -0.207 F 
ENDBRANCH  21  23
ENDBRANCH   3  21
TORSDOF 5
ENDMDL
MODEL 5
REMARK VINA RESULT:      -7.8      0.950      1.031
REMARK SMILES C=Cc1ccc(-c2c(N)c(Nc3ccc(F)cc3)cc(F)c2F)[nH+]c1
REMARK SMILES IDX 7 1 8 2 10 3 19 4 20 5 21 6 22 7 23 8 6 9 3 10 4 11 25 12
REMARK SMILES IDX 5 13 24 14 2 16 1 17 9 18 11 21 12 23 13 24 18 25 14 26
REMARK SMILES IDX 17 27 15 28 16 29
REMARK H PARENT 24 15 9 19 9 20 11 22
ROOT
ATOM      1  C   UNL     1      44.543 131.231  18.645  1.00  0.00     0.110 A 
ATOM      2  C   UNL     1      45.023 130.758  19.892  1.00  0.00     0.073 A 
ATOM      3  C   UNL     1      44.273 131.015  21.065  1.00  0.00     0.066 A 
ATOM      4  C   UNL     1      43.033 131.657  20.974  1.00  0.00     0.070 A 
ATOM      5  C   UNL     1      42.551 132.093  19.742  1.00  0.00     0.161 A 
ATOM      6  F   UNL     1      41.355 132.729  19.674  1.00  0.00    -0.204 F 
ATOM      7  C   UNL     1      43.302 131.893  18.585  1.00  0.00     0.174 A 
ATOM      8  F   UNL     1      42.829 132.364  17.401  1.00  0.00    -0.203 F 
ENDROOT
BRANCH   1   9
ATOM      9  C   UNL     1      45.330 131.065  17.403  1.00  0.00     0.216 A 
ATOM     10  C   UNL     1      46.792 130.768  15.041  1.00  0.00     0.038 A 
ATOM     11  C   UNL     1      46.894 129.805  16.061  1.00  0.00     0.021 A 
ATOM     12  C   UNL     1      45.952 131.872  15.253  1.00  0.00     0.314 A 
ATOM     13  C   UNL     1      46.161 129.950  17.238  1.00  0.00     0.081 A 
ATOM     14  N   UNL     1      45.244 131.994  16.409  1.00  0.00    -0.210 N 
ATOM     15  H   UNL     1      44.618 132.823  16.524  1.00  0.00     0.453 HD
BRANCH  10  16
ATOM     16  C   UNL     1      47.550 130.681  13.768  1.00  0.00     0.006 C 
ATOM     17  C   UNL     1      47.305 131.432  12.694  1.00  0.00     0.009 C 
ENDBRANCH  10  16
ENDBRANCH   1   9
BRANCH   2  18
ATOM     18  N   UNL     1      46.218 129.960  19.962  1.00  0.00    -0.396 N 
ATOM     19  H   UNL     1      46.918 130.079  20.726  1.00  0.00     0.156 HD
ATOM     20  H   UNL     1      46.486 129.311  19.191  1.00  0.00     0.156 HD
ENDBRANCH   2  18
BRANCH   3  21
ATOM     21  N   UNL     1      44.741 130.610  22.360  1.00  0.00    -0.354 N 
ATOM     22  H   UNL     1      45.259 131.318  22.928  1.00  0.00     0.167 HD
BRANCH  21  23
ATOM     23  C   UNL     1      44.710 129.248  22.832  1.00  0.00     0.039 A 
ATOM     24  C   UNL     1      44.265 128.983  24.136  1.00  0.00     0.029 A 
ATOM     25  C   UNL     1      45.135 128.176  22.023  1.00  0.00     0.029 A 
ATOM     26  C   UNL     1      44.227 127.672  24.620  1.00  0.00     0.041 A 
ATOM     27  C   UNL     1      45.095 126.866  22.511  1.00  0.00     0.041 A 
ATOM     28  C   UNL     1      44.640 126.613  23.807  1.00  0.00     0.123 A 
ATOM     29  F   UNL     1      44.603 125.342  24.278  1.00  0.00    -0.207 F 
ENDBRANCH  21  23
ENDBRANCH   3  21
TORSDOF 5
ENDMDL


