MODEL 1
REMARK VINA RESULT:      -7.3      0.000      0.000
REMARK SMILES Cc1c(F)cc(Nc2cccc(N)c2[O-])c2cc(-c3[nH+]c[nH+]cc3F)[nH]c12
REMARK SMILES IDX 7 1 6 3 2 4 3 5 27 6 5 7 26 8 16 9 18 10 17 11 1 12 4 13
REMARK SMILES IDX 19 15 20 16 24 17 21 18 23 19 22 20 25 22 8 24 9 25 14 26
REMARK SMILES IDX 10 27 12 28 11 29 15 30 13 31
REMARK H PARENT 7 2 26 14 20 21 22 23 13 32 13 33
ROOT
ATOM      1  N   UNL     1      45.319 129.971  21.654  1.00  0.00    -0.355 N 
ATOM      2  H   UNL     1      46.340 130.029  21.441  1.00  0.00     0.167 HD
ENDROOT
BRANCH   1   3
ATOM      3  C   UNL     1      44.431 130.792  20.876  1.00  0.00     0.051 A 
ATOM      4  C   UNL     1      42.647 132.415  19.354  1.00  0.00     0.009 A 
ATOM      5  C   UNL     1      42.447 132.225  20.741  1.00  0.00     0.130 A 
ATOM      6  C   UNL     1      43.732 131.752  18.762  1.00  0.00     0.054 A 
ATOM      7  C   UNL     1      43.328 131.415  21.488  1.00  0.00     0.066 A 
ATOM      8  N   UNL     1      44.078 131.752  17.461  1.00  0.00    -0.349 N 
ATOM      9  C   UNL     1      44.590 130.968  19.494  1.00  0.00     0.024 A 
ATOM     10  C   UNL     1      45.163 130.946  17.364  1.00  0.00     0.116 A 
ATOM     11  C   UNL     1      45.509 130.437  18.611  1.00  0.00     0.045 A 
ATOM     12  C   UNL     1      41.715 133.257  18.531  1.00  0.00     0.050 C 
ATOM     13  F   UNL     1      41.403 132.814  21.375  1.00  0.00    -0.207 F 
ATOM     14  H   UNL     1      43.616 132.286  16.693  1.00  0.00     0.167 HD
BRANCH  10  15
ATOM     15  C   UNL     1      45.891 130.668  16.103  1.00  0.00     0.274 A 
ATOM     16  N   UNL     1      46.963 129.823  16.110  1.00  0.00    -0.151 N 
ATOM     17  C   UNL     1      45.490 131.251  14.890  1.00  0.00     0.260 A 
ATOM     18  C   UNL     1      47.651 129.550  14.970  1.00  0.00     0.629 A 
ATOM     19  C   UNL     1      46.212 130.954  13.734  1.00  0.00     0.358 A 
ATOM     20  N   UNL     1      47.277 130.115  13.793  1.00  0.00    -0.159 N 
ATOM     21  H   UNL     1      47.287 129.382  17.001  1.00  0.00     0.460 HD
ATOM     22  F   UNL     1      44.398 132.051  14.806  1.00  0.00    -0.193 F 
ATOM     23  H   UNL     1      47.812 129.898  12.923  1.00  0.00     0.459 HD
ENDBRANCH  10  15
ENDBRANCH   1   3
BRANCH   1  24
ATOM     24  C   UNL     1      44.876 128.996  22.614  1.00  0.00     0.032 A 
ATOM     25  C   UNL     1      44.018 129.359  23.668  1.00  0.00     0.025 A 
ATOM     26  C   UNL     1      45.271 127.652  22.481  1.00  0.00    -0.061 A 
ATOM     27  C   UNL     1      43.586 128.403  24.589  1.00  0.00     0.004 A 
ATOM     28  C   UNL     1      44.832 126.688  23.408  1.00  0.00     0.025 A 
ATOM     29  C   UNL     1      43.992 127.074  24.463  1.00  0.00     0.025 A 
ATOM     30  O   UNL     1      46.109 127.278  21.434  1.00  0.00    -0.870 OA
BRANCH  28  31
ATOM     31  N   UNL     1      45.237 125.320  23.288  1.00  0.00    -0.399 N 
ATOM     32  H   UNL     1      45.155 124.806  22.383  1.00  0.00     0.156 HD
ATOM     33  H   UNL     1      45.624 124.805  24.111  1.00  0.00     0.156 HD
ENDBRANCH  28  31
ENDBRANCH   1  24
TORSDOF 4
ENDMDL
MODEL 2
REMARK VINA RESULT:      -6.7      2.587      7.045
REMARK SMILES Cc1c(F)cc(Nc2cccc(N)c2[O-])c2cc(-c3[nH+]c[nH+]cc3F)[nH]c12
REMARK SMILES IDX 7 1 6 3 2 4 3 5 27 6 5 7 26 8 16 9 18 10 17 11 1 12 4 13
REMARK SMILES IDX 19 15 20 16 24 17 21 18 23 19 22 20 25 22 8 24 9 25 14 26
REMARK SMILES IDX 10 27 12 28 11 29 15 30 13 31
REMARK H PARENT 7 2 26 14 20 21 22 23 13 32 13 33
ROOT
ATOM      1  N   UNL     1      45.781 130.741  19.603  1.00  0.00    -0.355 N 
ATOM      2  H   UNL     1      46.820 130.837  19.636  1.00  0.00     0.167 HD
ENDROOT
BRANCH   1   3
ATOM      3  C   UNL     1      45.094 130.517  20.845  1.00  0.00     0.051 A 
ATOM      4  C   UNL     1      43.733 130.103  23.317  1.00  0.00     0.009 A 
ATOM      5  C   UNL     1      43.701 131.364  22.676  1.00  0.00     0.130 A 
ATOM      6  C   UNL     1      44.480 129.086  22.705  1.00  0.00     0.054 A 
ATOM      7  C   UNL     1      44.382 131.565  21.457  1.00  0.00     0.066 A 
ATOM      8  N   UNL     1      44.686 127.837  23.160  1.00  0.00    -0.349 N 
ATOM      9  C   UNL     1      45.138 129.286  21.516  1.00  0.00     0.024 A 
ATOM     10  C   UNL     1      45.497 127.239  22.254  1.00  0.00     0.116 A 
ATOM     11  C   UNL     1      45.802 128.113  21.216  1.00  0.00     0.045 A 
ATOM     12  C   UNL     1      43.032 129.865  24.624  1.00  0.00     0.050 C 
ATOM     13  F   UNL     1      43.020 132.400  23.225  1.00  0.00    -0.207 F 
ATOM     14  H   UNL     1      44.280 127.413  24.023  1.00  0.00     0.167 HD
BRANCH  10  15
ATOM     15  C   UNL     1      45.969 125.837  22.349  1.00  0.00     0.274 A 
ATOM     16  N   UNL     1      47.307 125.568  22.308  1.00  0.00    -0.151 N 
ATOM     17  C   UNL     1      45.064 124.773  22.493  1.00  0.00     0.260 A 
ATOM     18  C   UNL     1      47.771 124.293  22.391  1.00  0.00     0.629 A 
ATOM     19  C   UNL     1      45.565 123.474  22.578  1.00  0.00     0.358 A 
ATOM     20  N   UNL     1      46.903 123.256  22.523  1.00  0.00    -0.159 N 
ATOM     21  H   UNL     1      48.002 126.341  22.193  1.00  0.00     0.460 HD
ATOM     22  F   UNL     1      43.728 124.980  22.601  1.00  0.00    -0.193 F 
ATOM     23  H   UNL     1      47.271 122.281  22.587  1.00  0.00     0.459 HD
ENDBRANCH  10  15
ENDBRANCH   1   3
BRANCH   1  24
ATOM     24  C   UNL     1      45.115 130.960  18.346  1.00  0.00     0.032 A 
ATOM     25  C   UNL     1      43.914 131.689  18.283  1.00  0.00     0.025 A 
ATOM     26  C   UNL     1      45.688 130.473  17.156  1.00  0.00    -0.061 A 
ATOM     27  C   UNL     1      43.282 131.904  17.057  1.00  0.00     0.004 A 
ATOM     28  C   UNL     1      45.050 130.693  15.920  1.00  0.00     0.025 A 
ATOM     29  C   UNL     1      43.844 131.407  15.881  1.00  0.00     0.025 A 
ATOM     30  O   UNL     1      46.883 129.761  17.204  1.00  0.00    -0.870 OA
BRANCH  28  31
ATOM     31  N   UNL     1      45.619 130.194  14.705  1.00  0.00    -0.399 N 
ATOM     32  H   UNL     1      45.421 130.647  13.786  1.00  0.00     0.156 HD
ATOM     33  H   UNL     1      46.248 129.360  14.715  1.00  0.00     0.156 HD
ENDBRANCH  28  31
ENDBRANCH   1  24
TORSDOF 4
ENDMDL
MODEL 3
REMARK VINA RESULT:      -6.5      2.934      7.116
REMARK SMILES Cc1c(F)cc(Nc2cccc(N)c2[O-])c2cc(-c3[nH+]c[nH+]cc3F)[nH]c12
REMARK SMILES IDX 7 1 6 3 2 4 3 5 27 6 5 7 26 8 16 9 18 10 17 11 1 12 4 13
REMARK SMILES IDX 19 15 20 16 24 17 21 18 23 19 22 20 25 22 8 24 9 25 14 26
REMARK SMILES IDX 10 27 12 28 11 29 15 30 13 31
REMARK H PARENT 7 2 26 14 20 21 22 23 13 32 13 33
ROOT
ATOM      1  N   UNL     1      45.938 130.782  20.180  1.00  0.00    -0.355 N 
ATOM      2  H   UNL     1      46.898 131.124  20.411  1.00  0.00     0.167 HD
ENDROOT
BRANCH   1   3
ATOM      3  C   UNL     1      45.060 130.477  21.276  1.00  0.00     0.051 A 
ATOM      4  C   UNL     1      43.319 129.903  23.460  1.00  0.00     0.009 A 
ATOM      5  C   UNL     1      43.407 131.212  22.931  1.00  0.00     0.130 A 
ATOM      6  C   UNL     1      44.139 128.919  22.890  1.00  0.00     0.054 A 
ATOM      7  C   UNL     1      44.276 131.492  21.855  1.00  0.00     0.066 A 
ATOM      8  N   UNL     1      44.251 127.631  23.265  1.00  0.00    -0.349 N 
ATOM      9  C   UNL     1      44.979 129.196  21.840  1.00  0.00     0.024 A 
ATOM     10  C   UNL     1      45.186 127.086  22.450  1.00  0.00     0.116 A 
ATOM     11  C   UNL     1      45.665 128.033  21.550  1.00  0.00     0.045 A 
ATOM     12  C   UNL     1      42.415 129.580  24.617  1.00  0.00     0.050 C 
ATOM     13  F   UNL     1      42.663 132.219  23.451  1.00  0.00    -0.207 F 
ATOM     14  H   UNL     1      43.707 127.150  24.014  1.00  0.00     0.167 HD
BRANCH  10  15
ATOM     15  C   UNL     1      45.617 125.669  22.499  1.00  0.00     0.274 A 
ATOM     16  N   UNL     1      46.942 125.367  22.631  1.00  0.00    -0.151 N 
ATOM     17  C   UNL     1      44.684 124.622  22.425  1.00  0.00     0.260 A 
ATOM     18  C   UNL     1      47.368 124.077  22.678  1.00  0.00     0.629 A 
ATOM     19  C   UNL     1      45.146 123.307  22.477  1.00  0.00     0.358 A 
ATOM     20  N   UNL     1      46.474 123.057  22.599  1.00  0.00    -0.159 N 
ATOM     21  H   UNL     1      47.659 126.126  22.680  1.00  0.00     0.460 HD
ATOM     22  F   UNL     1      43.350 124.857  22.355  1.00  0.00    -0.193 F 
ATOM     23  H   UNL     1      46.812 122.070  22.637  1.00  0.00     0.459 HD
ENDBRANCH  10  15
ENDBRANCH   1   3
BRANCH   1  24
ATOM     24  C   UNL     1      45.536 130.759  18.800  1.00  0.00     0.032 A 
ATOM     25  C   UNL     1      46.247 129.998  17.853  1.00  0.00     0.025 A 
ATOM     26  C   UNL     1      44.396 131.475  18.390  1.00  0.00    -0.061 A 
ATOM     27  C   UNL     1      45.842 129.975  16.518  1.00  0.00     0.004 A 
ATOM     28  C   UNL     1      43.988 131.448  17.043  1.00  0.00     0.025 A 
ATOM     29  C   UNL     1      44.720 130.698  16.112  1.00  0.00     0.025 A 
ATOM     30  O   UNL     1      43.677 132.221  19.319  1.00  0.00    -0.870 OA
BRANCH  28  31
ATOM     31  N   UNL     1      42.835 132.181  16.614  1.00  0.00    -0.399 N 
ATOM     32  H   UNL     1      42.789 132.615  15.665  1.00  0.00     0.156 HD
ATOM     33  H   UNL     1      42.012 132.296  17.246  1.00  0.00     0.156 HD
ENDBRANCH  28  31
ENDBRANCH   1  24
TORSDOF 4
ENDMDL
MODEL 4
REMARK VINA RESULT:      -6.2      2.877      7.182
REMARK SMILES Cc1c(F)cc(Nc2cccc(N)c2[O-])c2cc(-c3[nH+]c[nH+]cc3F)[nH]c12
REMARK SMILES IDX 7 1 6 3 2 4 3 5 27 6 5 7 26 8 16 9 18 10 17 11 1 12 4 13
REMARK SMILES IDX 19 15 20 16 24 17 21 18 23 19 22 20 25 22 8 24 9 25 14 26
REMARK SMILES IDX 10 27 12 28 11 29 15 30 13 31
REMARK H PARENT 7 2 26 14 20 21 22 23 13 32 13 33
ROOT
ATOM      1  N   UNL     1      46.138 130.569  19.852  1.00  0.00    -0.355 N 
ATOM      2  H   UNL     1      47.136 130.825  20.025  1.00  0.00     0.167 HD
ENDROOT
BRANCH   1   3
ATOM      3  C   UNL     1      45.294 130.370  20.998  1.00  0.00     0.051 A 
ATOM      4  C   UNL     1      43.623 130.006  23.280  1.00  0.00     0.009 A 
ATOM      5  C   UNL     1      43.761 131.280  22.681  1.00  0.00     0.130 A 
ATOM      6  C   UNL     1      44.361 128.949  22.728  1.00  0.00     0.054 A 
ATOM      7  C   UNL     1      44.595 131.456  21.556  1.00  0.00     0.066 A 
ATOM      8  N   UNL     1      44.418 127.677  23.163  1.00  0.00    -0.349 N 
ATOM      9  C   UNL     1      45.167 129.125  21.630  1.00  0.00     0.024 A 
ATOM     10  C   UNL     1      45.284 127.039  22.339  1.00  0.00     0.116 A 
ATOM     11  C   UNL     1      45.774 127.911  21.372  1.00  0.00     0.045 A 
ATOM     12  C   UNL     1      42.756 129.793  24.489  1.00  0.00     0.050 C 
ATOM     13  F   UNL     1      43.098 132.353  23.180  1.00  0.00    -0.207 F 
ATOM     14  H   UNL     1      43.883 127.266  23.959  1.00  0.00     0.167 HD
BRANCH  10  15
ATOM     15  C   UNL     1      45.637 125.604  22.443  1.00  0.00     0.274 A 
ATOM     16  N   UNL     1      44.650 124.661  22.450  1.00  0.00    -0.151 N 
ATOM     17  C   UNL     1      46.977 125.189  22.522  1.00  0.00     0.260 A 
ATOM     18  C   UNL     1      44.943 123.337  22.546  1.00  0.00     0.629 A 
ATOM     19  C   UNL     1      47.252 123.825  22.619  1.00  0.00     0.358 A 
ATOM     20  N   UNL     1      46.235 122.926  22.631  1.00  0.00    -0.159 N 
ATOM     21  H   UNL     1      43.645 124.943  22.401  1.00  0.00     0.460 HD
ATOM     22  F   UNL     1      48.005 126.072  22.459  1.00  0.00    -0.193 F 
ATOM     23  H   UNL     1      46.449 121.906  22.704  1.00  0.00     0.459 HD
ENDBRANCH  10  15
ENDBRANCH   1   3
BRANCH   1  24
ATOM     24  C   UNL     1      45.663 130.556  18.494  1.00  0.00     0.032 A 
ATOM     25  C   UNL     1      46.241 129.704  17.536  1.00  0.00     0.025 A 
ATOM     26  C   UNL     1      44.581 131.377  18.122  1.00  0.00    -0.061 A 
ATOM     27  C   UNL     1      45.766 129.692  16.223  1.00  0.00     0.004 A 
ATOM     28  C   UNL     1      44.102 131.362  16.799  1.00  0.00     0.025 A 
ATOM     29  C   UNL     1      44.704 130.518  15.854  1.00  0.00     0.025 A 
ATOM     30  O   UNL     1      43.993 132.215  19.064  1.00  0.00    -0.870 OA
BRANCH  28  31
ATOM     31  N   UNL     1      43.009 132.199  16.407  1.00  0.00    -0.399 N 
ATOM     32  H   UNL     1      42.689 132.991  17.007  1.00  0.00     0.156 HD
ATOM     33  H   UNL     1      42.507 132.033  15.506  1.00  0.00     0.156 HD
ENDBRANCH  28  31
ENDBRANCH   1  24
TORSDOF 4
ENDMDL
MODEL 5
REMARK VINA RESULT:      -5.9      1.693      2.150
REMARK SMILES Cc1c(F)cc(Nc2cccc(N)c2[O-])c2cc(-c3[nH+]c[nH+]cc3F)[nH]c12
REMARK SMILES IDX 7 1 6 3 2 4 3 5 27 6 5 7 26 8 16 9 18 10 17 11 1 12 4 13
REMARK SMILES IDX 19 15 20 16 24 17 21 18 23 19 22 20 25 22 8 24 9 25 14 26
REMARK SMILES IDX 10 27 12 28 11 29 15 30 13 31
REMARK H PARENT 7 2 26 14 20 21 22 23 13 32 13 33
ROOT
ATOM      1  N   UNL     1      45.783 128.474  21.933  1.00  0.00    -0.355 N 
ATOM      2  H   UNL     1      46.793 128.584  21.690  1.00  0.00     0.167 HD
ENDROOT
BRANCH   1   3
ATOM      3  C   UNL     1      44.907 129.577  21.647  1.00  0.00     0.051 A 
ATOM      4  C   UNL     1      43.149 131.755  21.099  1.00  0.00     0.009 A 
ATOM      5  C   UNL     1      43.105 131.086  22.344  1.00  0.00     0.130 A 
ATOM      6  C   UNL     1      44.064 131.286  20.146  1.00  0.00     0.054 A 
ATOM      7  C   UNL     1      43.972 130.004  22.608  1.00  0.00     0.066 A 
ATOM      8  N   UNL     1      44.241 131.737  18.890  1.00  0.00    -0.349 N 
ATOM      9  C   UNL     1      44.909 130.235  20.408  1.00  0.00     0.024 A 
ATOM     10  C   UNL     1      45.201 130.954  18.343  1.00  0.00     0.116 A 
ATOM     11  C   UNL     1      45.640 130.004  19.260  1.00  0.00     0.045 A 
ATOM     12  C   UNL     1      42.227 132.899  20.785  1.00  0.00     0.050 C 
ATOM     13  F   UNL     1      42.226 131.470  23.304  1.00  0.00    -0.207 F 
ATOM     14  H   UNL     1      43.751 132.544  18.444  1.00  0.00     0.167 HD
BRANCH  10  15
ATOM     15  C   UNL     1      45.725 131.109  16.966  1.00  0.00     0.274 A 
ATOM     16  N   UNL     1      45.665 132.326  16.350  1.00  0.00    -0.151 N 
ATOM     17  C   UNL     1      46.300 130.026  16.281  1.00  0.00     0.260 A 
ATOM     18  C   UNL     1      46.137 132.499  15.087  1.00  0.00     0.629 A 
ATOM     19  C   UNL     1      46.777 130.229  14.986  1.00  0.00     0.358 A 
ATOM     20  N   UNL     1      46.686 131.456  14.412  1.00  0.00    -0.159 N 
ATOM     21  H   UNL     1      45.236 133.147  16.834  1.00  0.00     0.460 HD
ATOM     22  F   UNL     1      46.444 128.808  16.860  1.00  0.00    -0.193 F 
ATOM     23  H   UNL     1      47.046 131.600  13.443  1.00  0.00     0.459 HD
ENDBRANCH  10  15
ENDBRANCH   1   3
BRANCH   1  24
ATOM     24  C   UNL     1      45.332 127.197  22.417  1.00  0.00     0.032 A 
ATOM     25  C   UNL     1      44.010 127.020  22.865  1.00  0.00     0.025 A 
ATOM     26  C   UNL     1      46.209 126.096  22.410  1.00  0.00    -0.061 A 
ATOM     27  C   UNL     1      43.580 125.774  23.324  1.00  0.00     0.004 A 
ATOM     28  C   UNL     1      45.773 124.839  22.870  1.00  0.00     0.025 A 
ATOM     29  C   UNL     1      44.456 124.688  23.329  1.00  0.00     0.025 A 
ATOM     30  O   UNL     1      47.515 126.255  21.957  1.00  0.00    -0.870 OA
BRANCH  28  31
ATOM     31  N   UNL     1      46.659 123.715  22.876  1.00  0.00    -0.399 N 
ATOM     32  H   UNL     1      47.348 123.561  22.107  1.00  0.00     0.156 HD
ATOM     33  H   UNL     1      46.633 123.021  23.656  1.00  0.00     0.156 HD
ENDBRANCH  28  31
ENDBRANCH   1  24
TORSDOF 4
ENDMDL
MODEL 6
REMARK VINA RESULT:      -5.3      1.180      1.550
REMARK SMILES Cc1c(F)cc(Nc2cccc(N)c2[O-])c2cc(-c3[nH+]c[nH+]cc3F)[nH]c12
REMARK SMILES IDX 7 1 6 3 2 4 3 5 27 6 5 7 26 8 16 9 18 10 17 11 1 12 4 13
REMARK SMILES IDX 19 15 20 16 24 17 21 18 23 19 22 20 25 22 8 24 9 25 14 26
REMARK SMILES IDX 10 27 12 28 11 29 15 30 13 31
REMARK H PARENT 7 2 26 14 20 21 22 23 13 32 13 33
ROOT
ATOM      1  N   UNL     1      45.755 129.696  21.222  1.00  0.00    -0.355 N 
ATOM      2  H   UNL     1      46.768 129.945  21.159  1.00  0.00     0.167 HD
ENDROOT
BRANCH   1   3
ATOM      3  C   UNL     1      44.824 130.513  20.494  1.00  0.00     0.051 A 
ATOM      4  C   UNL     1      42.954 132.129  19.071  1.00  0.00     0.009 A 
ATOM      5  C   UNL     1      42.793 131.886  20.455  1.00  0.00     0.130 A 
ATOM      6  C   UNL     1      44.044 131.521  18.431  1.00  0.00     0.054 A 
ATOM      7  C   UNL     1      43.718 131.080  21.153  1.00  0.00     0.066 A 
ATOM      8  N   UNL     1      44.358 131.576  17.124  1.00  0.00    -0.349 N 
ATOM      9  C   UNL     1      44.943 130.741  19.116  1.00  0.00     0.024 A 
ATOM     10  C   UNL     1      45.465 130.809  16.973  1.00  0.00     0.116 A 
ATOM     11  C   UNL     1      45.857 130.269  18.194  1.00  0.00     0.045 A 
ATOM     12  C   UNL     1      41.976 132.969  18.299  1.00  0.00     0.050 C 
ATOM     13  F   UNL     1      41.747 132.420  21.133  1.00  0.00    -0.207 F 
ATOM     14  H   UNL     1      43.861 132.121  16.385  1.00  0.00     0.167 HD
BRANCH  10  15
ATOM     15  C   UNL     1      46.170 130.598  15.687  1.00  0.00     0.274 A 
ATOM     16  N   UNL     1      47.203 129.708  15.618  1.00  0.00    -0.151 N 
ATOM     17  C   UNL     1      45.786 131.288  14.526  1.00  0.00     0.260 A 
ATOM     18  C   UNL     1      47.870 129.494  14.453  1.00  0.00     0.629 A 
ATOM     19  C   UNL     1      46.485 131.050  13.343  1.00  0.00     0.358 A 
ATOM     20  N   UNL     1      47.512 130.163  13.326  1.00  0.00    -0.159 N 
ATOM     21  H   UNL     1      47.514 129.187  16.469  1.00  0.00     0.460 HD
ATOM     22  F   UNL     1      44.730 132.139  14.515  1.00  0.00    -0.193 F 
ATOM     23  H   UNL     1      48.031 129.991  12.436  1.00  0.00     0.459 HD
ENDBRANCH  10  15
ENDBRANCH   1   3
BRANCH   1  24
ATOM     24  C   UNL     1      45.390 128.495  21.925  1.00  0.00     0.032 A 
ATOM     25  C   UNL     1      46.043 127.277  21.660  1.00  0.00     0.025 A 
ATOM     26  C   UNL     1      44.394 128.539  22.918  1.00  0.00    -0.061 A 
ATOM     27  C   UNL     1      45.687 126.119  22.354  1.00  0.00     0.004 A 
ATOM     28  C   UNL     1      44.039 127.372  23.620  1.00  0.00     0.025 A 
ATOM     29  C   UNL     1      44.689 126.164  23.328  1.00  0.00     0.025 A 
ATOM     30  O   UNL     1      43.751 129.741  23.198  1.00  0.00    -0.870 OA
BRANCH  28  31
ATOM     31  N   UNL     1      43.020 127.404  24.625  1.00  0.00    -0.399 N 
ATOM     32  H   UNL     1      42.828 128.269  25.177  1.00  0.00     0.156 HD
ATOM     33  H   UNL     1      42.445 126.556  24.827  1.00  0.00     0.156 HD
ENDBRANCH  28  31
ENDBRANCH   1  24
TORSDOF 4
ENDMDL
MODEL 7
REMARK VINA RESULT:      -4.9      1.538      1.983
REMARK SMILES Cc1c(F)cc(Nc2cccc(N)c2[O-])c2cc(-c3[nH+]c[nH+]cc3F)[nH]c12
REMARK SMILES IDX 7 1 6 3 2 4 3 5 27 6 5 7 26 8 16 9 18 10 17 11 1 12 4 13
REMARK SMILES IDX 19 15 20 16 24 17 21 18 23 19 22 20 25 22 8 24 9 25 14 26
REMARK SMILES IDX 10 27 12 28 11 29 15 30 13 31
REMARK H PARENT 7 2 26 14 20 21 22 23 13 32 13 33
ROOT
ATOM      1  N   UNL     1      45.614 128.143  22.100  1.00  0.00    -0.355 N 
ATOM      2  H   UNL     1      46.609 128.127  21.779  1.00  0.00     0.167 HD
ENDROOT
BRANCH   1   3
ATOM      3  C   UNL     1      44.829 129.301  21.770  1.00  0.00     0.051 A 
ATOM      4  C   UNL     1      43.249 131.589  21.139  1.00  0.00     0.009 A 
ATOM      5  C   UNL     1      43.175 130.991  22.418  1.00  0.00     0.130 A 
ATOM      6  C   UNL     1      44.100 130.995  20.196  1.00  0.00     0.054 A 
ATOM      7  C   UNL     1      43.954 129.854  22.723  1.00  0.00     0.066 A 
ATOM      8  N   UNL     1      44.287 131.365  18.915  1.00  0.00    -0.349 N 
ATOM      9  C   UNL     1      44.859 129.891  20.499  1.00  0.00     0.024 A 
ATOM     10  C   UNL     1      45.166 130.475  18.394  1.00  0.00     0.116 A 
ATOM     11  C   UNL     1      45.543 129.540  19.352  1.00  0.00     0.045 A 
ATOM     12  C   UNL     1      42.419 132.789  20.780  1.00  0.00     0.050 C 
ATOM     13  F   UNL     1      42.353 131.497  23.371  1.00  0.00    -0.207 F 
ATOM     14  H   UNL     1      43.857 132.186  18.435  1.00  0.00     0.167 HD
BRANCH  10  15
ATOM     15  C   UNL     1      45.671 130.514  17.002  1.00  0.00     0.274 A 
ATOM     16  N   UNL     1      45.924 129.348  16.338  1.00  0.00    -0.151 N 
ATOM     17  C   UNL     1      45.885 131.734  16.340  1.00  0.00     0.260 A 
ATOM     18  C   UNL     1      46.389 129.352  15.061  1.00  0.00     0.629 A 
ATOM     19  C   UNL     1      46.362 131.712  15.030  1.00  0.00     0.358 A 
ATOM     20  N   UNL     1      46.608 130.527  14.416  1.00  0.00    -0.159 N 
ATOM     21  H   UNL     1      45.781 128.426  16.810  1.00  0.00     0.460 HD
ATOM     22  F   UNL     1      45.596 132.925  16.923  1.00  0.00    -0.193 F 
ATOM     23  H   UNL     1      46.965 130.518  13.434  1.00  0.00     0.459 HD
ENDBRANCH  10  15
ENDBRANCH   1   3
BRANCH   1  24
ATOM     24  C   UNL     1      45.083 126.966  22.733  1.00  0.00     0.032 A 
ATOM     25  C   UNL     1      43.704 126.689  22.700  1.00  0.00     0.025 A 
ATOM     26  C   UNL     1      45.952 126.055  23.362  1.00  0.00    -0.061 A 
ATOM     27  C   UNL     1      43.199 125.539  23.310  1.00  0.00     0.004 A 
ATOM     28  C   UNL     1      45.442 124.894  23.973  1.00  0.00     0.025 A 
ATOM     29  C   UNL     1      44.062 124.646  23.946  1.00  0.00     0.025 A 
ATOM     30  O   UNL     1      47.320 126.311  23.390  1.00  0.00    -0.870 OA
BRANCH  28  31
ATOM     31  N   UNL     1      46.316 123.966  24.625  1.00  0.00    -0.399 N 
ATOM     32  H   UNL     1      46.329 122.956  24.363  1.00  0.00     0.156 HD
ATOM     33  H   UNL     1      46.963 124.286  25.381  1.00  0.00     0.156 HD
ENDBRANCH  28  31
ENDBRANCH   1  24
TORSDOF 4
ENDMDL
MODEL 8
REMARK VINA RESULT:      -4.9      4.336      7.090
REMARK SMILES Cc1c(F)cc(Nc2cccc(N)c2[O-])c2cc(-c3[nH+]c[nH+]cc3F)[nH]c12
REMARK SMILES IDX 7 1 6 3 2 4 3 5 27 6 5 7 26 8 16 9 18 10 17 11 1 12 4 13
REMARK SMILES IDX 19 15 20 16 24 17 21 18 23 19 22 20 25 22 8 24 9 25 14 26
REMARK SMILES IDX 10 27 12 28 11 29 15 30 13 31
REMARK H PARENT 7 2 26 14 20 21 22 23 13 32 13 33
ROOT
ATOM      1  N   UNL     1      45.828 130.551  19.261  1.00  0.00    -0.355 N 
ATOM      2  H   UNL     1      46.739 130.042  19.223  1.00  0.00     0.167 HD
ENDROOT
BRANCH   1   3
ATOM      3  C   UNL     1      45.370 130.999  20.548  1.00  0.00     0.051 A 
ATOM      4  C   UNL     1      44.433 131.880  23.092  1.00  0.00     0.009 A 
ATOM      5  C   UNL     1      43.719 130.905  22.357  1.00  0.00     0.130 A 
ATOM      6  C   UNL     1      45.592 132.411  22.507  1.00  0.00     0.054 A 
ATOM      7  C   UNL     1      44.184 130.478  21.095  1.00  0.00     0.066 A 
ATOM      8  N   UNL     1      46.390 133.374  23.002  1.00  0.00    -0.349 N 
ATOM      9  C   UNL     1      46.042 131.988  21.280  1.00  0.00     0.024 A 
ATOM     10  C   UNL     1      47.353 133.576  22.071  1.00  0.00     0.116 A 
ATOM     11  C   UNL     1      47.167 132.732  20.981  1.00  0.00     0.045 A 
ATOM     12  C   UNL     1      43.953 132.366  24.431  1.00  0.00     0.050 C 
ATOM     13  F   UNL     1      42.576 130.368  22.851  1.00  0.00    -0.207 F 
ATOM     14  H   UNL     1      46.296 133.847  23.928  1.00  0.00     0.167 HD
BRANCH  10  15
ATOM     15  C   UNL     1      48.464 134.547  22.211  1.00  0.00     0.274 A 
ATOM     16  N   UNL     1      48.528 135.629  21.380  1.00  0.00    -0.151 N 
ATOM     17  C   UNL     1      49.452 134.384  23.195  1.00  0.00     0.260 A 
ATOM     18  C   UNL     1      49.535 136.536  21.483  1.00  0.00     0.629 A 
ATOM     19  C   UNL     1      50.474 135.329  23.281  1.00  0.00     0.358 A 
ATOM     20  N   UNL     1      50.500 136.383  22.427  1.00  0.00    -0.159 N 
ATOM     21  H   UNL     1      47.810 135.770  20.634  1.00  0.00     0.460 HD
ATOM     22  F   UNL     1      49.411 133.365  24.089  1.00  0.00    -0.193 F 
ATOM     23  H   UNL     1      51.270 137.086  22.497  1.00  0.00     0.459 HD
ENDBRANCH  10  15
ENDBRANCH   1   3
BRANCH   1  24
ATOM     24  C   UNL     1      45.170 130.866  18.021  1.00  0.00     0.032 A 
ATOM     25  C   UNL     1      43.968 131.597  18.007  1.00  0.00     0.025 A 
ATOM     26  C   UNL     1      45.752 130.474  16.800  1.00  0.00    -0.061 A 
ATOM     27  C   UNL     1      43.344 131.906  16.797  1.00  0.00     0.004 A 
ATOM     28  C   UNL     1      45.122 130.789  15.581  1.00  0.00     0.025 A 
ATOM     29  C   UNL     1      43.914 131.503  15.590  1.00  0.00     0.025 A 
ATOM     30  O   UNL     1      46.947 129.762  16.801  1.00  0.00    -0.870 OA
BRANCH  28  31
ATOM     31  N   UNL     1      45.699 130.387  14.335  1.00  0.00    -0.399 N 
ATOM     32  H   UNL     1      45.184 129.766  13.672  1.00  0.00     0.156 HD
ATOM     33  H   UNL     1      46.655 130.709  14.062  1.00  0.00     0.156 HD
ENDBRANCH  28  31
ENDBRANCH   1  24
TORSDOF 4
ENDMDL
MODEL 9
REMARK VINA RESULT:      -4.7      1.676      2.128
REMARK SMILES Cc1c(F)cc(Nc2cccc(N)c2[O-])c2cc(-c3[nH+]c[nH+]cc3F)[nH]c12
REMARK SMILES IDX 7 1 6 3 2 4 3 5 27 6 5 7 26 8 16 9 18 10 17 11 1 12 4 13
REMARK SMILES IDX 19 15 20 16 24 17 21 18 23 19 22 20 25 22 8 24 9 25 14 26
REMARK SMILES IDX 10 27 12 28 11 29 15 30 13 31
REMARK H PARENT 7 2 26 14 20 21 22 23 13 32 13 33
ROOT
ATOM      1  N   UNL     1      45.727 129.285  21.690  1.00  0.00    -0.355 N 
ATOM      2  H   UNL     1      46.723 129.443  21.415  1.00  0.00     0.167 HD
ENDROOT
BRANCH   1   3
ATOM      3  C   UNL     1      44.766 130.281  21.303  1.00  0.00     0.051 A 
ATOM      4  C   UNL     1      42.840 132.248  20.560  1.00  0.00     0.009 A 
ATOM      5  C   UNL     1      42.937 131.801  21.898  1.00  0.00     0.130 A 
ATOM      6  C   UNL     1      43.702 131.665  19.620  1.00  0.00     0.054 A 
ATOM      7  C   UNL     1      43.887 130.822  22.260  1.00  0.00     0.066 A 
ATOM      8  N   UNL     1      43.748 131.902  18.296  1.00  0.00    -0.349 N 
ATOM      9  C   UNL     1      44.627 130.715  19.977  1.00  0.00     0.024 A 
ATOM     10  C   UNL     1      44.707 131.082  17.804  1.00  0.00     0.116 A 
ATOM     11  C   UNL     1      45.276 130.324  18.822  1.00  0.00     0.045 A 
ATOM     12  C   UNL     1      41.827 133.277  20.144  1.00  0.00     0.050 C 
ATOM     13  F   UNL     1      42.118 132.303  22.855  1.00  0.00    -0.207 F 
ATOM     14  H   UNL     1      43.176 132.596  17.767  1.00  0.00     0.167 HD
BRANCH  10  15
ATOM     15  C   UNL     1      45.108 131.022  16.378  1.00  0.00     0.274 A 
ATOM     16  N   UNL     1      44.325 131.612  15.428  1.00  0.00    -0.151 N 
ATOM     17  C   UNL     1      46.291 130.377  15.982  1.00  0.00     0.260 A 
ATOM     18  C   UNL     1      44.666 131.573  14.112  1.00  0.00     0.629 A 
ATOM     19  C   UNL     1      46.619 130.352  14.627  1.00  0.00     0.358 A 
ATOM     20  N   UNL     1      45.804 130.945  13.719  1.00  0.00    -0.159 N 
ATOM     21  H   UNL     1      43.436 132.092  15.694  1.00  0.00     0.460 HD
ATOM     22  F   UNL     1      47.141 129.825  16.883  1.00  0.00    -0.193 F 
ATOM     23  H   UNL     1      46.057 130.922  12.705  1.00  0.00     0.459 HD
ENDBRANCH  10  15
ENDBRANCH   1   3
BRANCH   1  24
ATOM     24  C   UNL     1      45.382 128.039  22.320  1.00  0.00     0.032 A 
ATOM     25  C   UNL     1      46.185 126.896  22.147  1.00  0.00     0.025 A 
ATOM     26  C   UNL     1      44.249 127.964  23.152  1.00  0.00    -0.061 A 
ATOM     27  C   UNL     1      45.847 125.694  22.771  1.00  0.00     0.004 A 
ATOM     28  C   UNL     1      43.911 126.751  23.783  1.00  0.00     0.025 A 
ATOM     29  C   UNL     1      44.715 125.619  23.583  1.00  0.00     0.025 A 
ATOM     30  O   UNL     1      43.455 129.090  23.341  1.00  0.00    -0.870 OA
BRANCH  28  31
ATOM     31  N   UNL     1      42.756 126.661  24.623  1.00  0.00    -0.399 N 
ATOM     32  H   UNL     1      42.361 125.738  24.907  1.00  0.00     0.156 HD
ATOM     33  H   UNL     1      42.281 127.525  24.970  1.00  0.00     0.156 HD
ENDBRANCH  28  31
ENDBRANCH   1  24
TORSDOF 4
ENDMDL


