REMARK SMILES CCC[C@H](C)[N-]C(=O)N(c1ccc(C)cc1)c1ccc2cc[nH]c2c1[O-]
REMARK SMILES IDX 6 1 4 2 5 3 3 4 2 5 1 6 7 7 8 8 9 9 10 10 11 11 16 12 12 13
REMARK SMILES IDX 15 14 13 15 14 16 17 17 18 18 25 19 19 20 24 21 20 22 23 23
REMARK SMILES IDX 21 24 22 25 26 26
REMARK H PARENT 23 27
ROOT
ATOM      1  N   UNL     1       0.901   1.465   1.192  1.00  0.00    -0.427 NA
ENDROOT
BRANCH   1   2
ATOM      2  C   UNL     1       1.227   2.473   2.197  1.00  0.00    -0.009 C 
ATOM      3  C   UNL     1      -0.053   3.123   2.736  1.00  0.00     0.007 C 
BRANCH   2   4
ATOM      4  C   UNL     1       2.073   1.837   3.317  1.00  0.00     0.002 C 
BRANCH   4   5
ATOM      5  C   UNL     1       1.376   0.663   4.027  1.00  0.00    -0.003 C 
ATOM      6  C   UNL     1       2.305   0.010   5.047  1.00  0.00     0.004 C 
ENDBRANCH   4   5
ENDBRANCH   2   4
ENDBRANCH   1   2
BRANCH   1   7
ATOM      7  C   UNL     1       0.398   1.759  -0.117  1.00  0.00     0.162 C 
ATOM      8  O   UNL     1       0.318   2.957  -0.505  1.00  0.00    -0.298 OA
BRANCH   7   9
ATOM      9  N   UNL     1      -0.003   0.686  -0.991  1.00  0.00    -0.384 N 
BRANCH   9  10
ATOM     10  C   UNL     1      -0.266  -0.627  -0.455  1.00  0.00    -0.035 A 
ATOM     11  C   UNL     1      -1.055  -0.784   0.698  1.00  0.00     0.004 A 
ATOM     12  C   UNL     1       0.256  -1.769  -1.085  1.00  0.00     0.004 A 
ATOM     13  C   UNL     1      -1.307  -2.057   1.217  1.00  0.00     0.003 A 
ATOM     14  C   UNL     1       0.003  -3.042  -0.567  1.00  0.00     0.003 A 
ATOM     15  C   UNL     1      -0.790  -3.195   0.580  1.00  0.00    -0.051 A 
ATOM     16  C   UNL     1      -1.029  -4.556   1.163  1.00  0.00     0.044 C 
ENDBRANCH   9  10
BRANCH   9  17
ATOM     17  C   UNL     1      -0.090   0.911  -2.413  1.00  0.00    -0.041 A 
ATOM     18  C   UNL     1       0.998   1.506  -3.104  1.00  0.00     0.004 A 
ATOM     19  C   UNL     1      -1.247   0.524  -3.134  1.00  0.00    -0.080 A 
ATOM     20  C   UNL     1       0.942   1.713  -4.494  1.00  0.00     0.010 A 
ATOM     21  C   UNL     1      -1.267   0.741  -4.511  1.00  0.00     0.038 A 
ATOM     22  C   UNL     1      -0.210   1.314  -5.165  1.00  0.00    -0.001 A 
ATOM     23  N   UNL     1      -2.255   0.447  -5.373  1.00  0.00    -0.362 N 
ATOM     24  C   UNL     1      -0.539   1.387  -6.501  1.00  0.00     0.028 A 
ATOM     25  C   UNL     1      -1.814   0.840  -6.590  1.00  0.00     0.083 A 
ATOM     26  O   UNL     1      -2.342  -0.045  -2.493  1.00  0.00    -0.871 OA
ATOM     27  H   UNL     1      -3.176   0.007  -5.155  1.00  0.00     0.166 HD
ENDBRANCH   9  17
ENDBRANCH   7   9
ENDBRANCH   1   7
TORSDOF 7


