REMARK SMILES CC(=O)Nc1cc(C)cc(-n2nc3ccccc3n2)c1O
REMARK SMILES IDX 5 1 6 2 7 3 8 4 9 5 10 6 20 7 4 8 2 9 1 10 3 11 21 13 11 15
REMARK SMILES IDX 12 16 19 17 13 18 18 19 14 20 17 21 15 22 16 23
REMARK H PARENT 4 12 21 14
ROOT
ATOM      1  C   UNL     1       0.931  -1.086  -0.782  1.00  0.00     0.086 A 
ATOM      2  C   UNL     1      -0.287  -1.776  -0.701  1.00  0.00     0.033 A 
ATOM      3  C   UNL     1      -1.309  -1.325   0.140  1.00  0.00    -0.047 A 
ATOM      4  C   UNL     1      -2.622  -2.051   0.187  1.00  0.00     0.044 C 
ATOM      5  C   UNL     1      -1.120  -0.162   0.894  1.00  0.00     0.037 A 
ATOM      6  C   UNL     1       0.095   0.545   0.844  1.00  0.00     0.130 A 
ATOM      7  C   UNL     1       1.126   0.082  -0.009  1.00  0.00     0.167 A 
ENDROOT
BRANCH   1   8
ATOM      8  N   UNL     1       1.990  -1.604  -1.605  1.00  0.00    -0.323 N 
ATOM      9  C   UNL     1       1.785  -2.071  -2.946  1.00  0.00     0.221 C 
ATOM     10  C   UNL     1       2.905  -2.728  -3.685  1.00  0.00     0.114 C 
ATOM     11  O   UNL     1       0.686  -1.873  -3.532  1.00  0.00    -0.275 OA
ATOM     12  H   UNL     1       2.960  -1.631  -1.216  1.00  0.00     0.170 HD
ENDBRANCH   1   8
BRANCH   7  13
ATOM     13  O   UNL     1       2.319   0.802  -0.103  1.00  0.00    -0.504 OA
ATOM     14  H   UNL     1       3.060   0.570  -0.752  1.00  0.00     0.293 HD
ENDBRANCH   7  13
BRANCH   6  15
ATOM     15  N   UNL     1       0.257   1.732   1.651  1.00  0.00    -0.147 N 
ATOM     16  N   UNL     1       1.413   2.378   1.811  1.00  0.00    -0.148 NA
ATOM     17  N   UNL     1      -0.741   2.296   2.333  1.00  0.00    -0.148 NA
ATOM     18  C   UNL     1       1.130   3.400   2.632  1.00  0.00     0.113 A 
ATOM     19  C   UNL     1      -0.189   3.350   2.951  1.00  0.00     0.113 A 
ATOM     20  C   UNL     1       1.977   4.388   3.124  1.00  0.00     0.032 A 
ATOM     21  C   UNL     1      -0.786   4.282   3.794  1.00  0.00     0.032 A 
ATOM     22  C   UNL     1       1.412   5.354   3.981  1.00  0.00     0.002 A 
ATOM     23  C   UNL     1       0.037   5.302   4.314  1.00  0.00     0.002 A 
ENDBRANCH   6  15
TORSDOF 3


