MODEL 1
REMARK VINA RESULT:      -5.3      0.000      0.000
REMARK SMILES C=C[C@@H]1CN[C@@H](c2c[nH+]c3ocnc3c2)N(C(=S)[NH2+]c2cc(F)c(Cl)cc2F)C1
REMARK SMILES IDX 17 1 18 2 16 3 3 4 4 5 29 6 5 7 6 8 2 10 1 11 7 12 8 13
REMARK SMILES IDX 15 14 9 15 14 16 10 17 13 18 11 19 12 20 19 22 20 25 21 26
REMARK SMILES IDX 27 27 22 28 26 29 24 30 28 31 23 32 25 33
REMARK H PARENT 5 9 9 21 19 23 19 24
ROOT
ATOM      1  C   UNL     1      44.583 126.019  23.725  1.00  0.00     0.275 C 
ATOM      2  S   UNL     1      46.203 126.304  23.725  1.00  0.00     0.004 S 
ENDROOT
BRANCH   1   3
ATOM      3  N   UNL     1      44.066 124.848  23.062  1.00  0.00    -0.297 N 
ATOM      4  C   UNL     1      42.248 123.820  21.698  1.00  0.00     0.045 C 
ATOM      5  C   UNL     1      43.120 122.563  21.732  1.00  0.00     0.092 C 
ATOM      6  C   UNL     1      43.135 125.045  21.937  1.00  0.00     0.133 C 
ATOM      7  N   UNL     1      43.717 122.413  23.059  1.00  0.00    -0.292 NA
ATOM      8  C   UNL     1      44.621 123.523  23.420  1.00  0.00     0.193 C 
ATOM      9  H   UNL     1      44.236 121.504  23.093  1.00  0.00     0.125 HD
BRANCH   4  10
ATOM     10  C   UNL     1      41.137 123.748  22.724  1.00  0.00    -0.028 C 
ATOM     11  C   UNL     1      39.898 124.167  22.448  1.00  0.00     0.004 C 
ENDBRANCH   4  10
BRANCH   8  12
ATOM     12  C   UNL     1      46.023 123.315  22.866  1.00  0.00     0.056 A 
ATOM     13  C   UNL     1      46.255 123.510  21.474  1.00  0.00     0.317 A 
ATOM     14  C   UNL     1      47.122 122.986  23.697  1.00  0.00     0.053 A 
ATOM     15  N   UNL     1      47.506 123.364  20.942  1.00  0.00    -0.177 N 
ATOM     16  C   UNL     1      48.366 122.851  23.095  1.00  0.00     0.179 A 
ATOM     17  C   UNL     1      48.530 123.036  21.766  1.00  0.00     0.399 A 
ATOM     18  N   UNL     1      49.545 122.546  23.663  1.00  0.00    -0.209 NA
ATOM     19  O   UNL     1      49.782 122.860  21.454  1.00  0.00    -0.391 OA
ATOM     20  C   UNL     1      50.387 122.565  22.594  1.00  0.00     0.316 A 
ATOM     21  H   UNL     1      47.671 123.508  19.921  1.00  0.00     0.457 HD
ENDBRANCH   8  12
ENDBRANCH   1   3
BRANCH   1  22
ATOM     22  N   UNL     1      43.687 126.975  24.327  1.00  0.00    -0.254 N 
ATOM     23  H   UNL     1      43.988 127.195  25.305  1.00  0.00     0.360 HD
ATOM     24  H   UNL     1      42.732 126.556  24.389  1.00  0.00     0.360 HD
BRANCH  22  25
ATOM     25  C   UNL     1      43.689 128.201  23.563  1.00  0.00     0.175 A 
ATOM     26  C   UNL     1      44.747 128.472  22.674  1.00  0.00     0.112 A 
ATOM     27  C   UNL     1      42.634 129.131  23.672  1.00  0.00     0.185 A 
ATOM     28  C   UNL     1      44.742 129.632  21.895  1.00  0.00     0.147 A 
ATOM     29  C   UNL     1      42.635 130.291  22.891  1.00  0.00     0.069 A 
ATOM     30  C   UNL     1      43.683 130.541  22.000  1.00  0.00     0.080 A 
ATOM     31  F   UNL     1      41.606 128.921  24.532  1.00  0.00    -0.200 F 
ATOM     32  F   UNL     1      45.764 129.866  21.033  1.00  0.00    -0.205 F 
ATOM     33  Cl  UNL     1      43.658 131.993  21.014  1.00  0.00    -0.081 Cl
ENDBRANCH  22  25
ENDBRANCH   1  22
TORSDOF 5
ENDMDL
MODEL 2
REMARK VINA RESULT:      -3.5      5.628      8.219
REMARK SMILES C=C[C@@H]1CN[C@@H](c2c[nH+]c3ocnc3c2)N(C(=S)[NH2+]c2cc(F)c(Cl)cc2F)C1
REMARK SMILES IDX 17 1 18 2 16 3 3 4 4 5 29 6 5 7 6 8 2 10 1 11 7 12 8 13
REMARK SMILES IDX 15 14 9 15 14 16 10 17 13 18 11 19 12 20 19 22 20 25 21 26
REMARK SMILES IDX 27 27 22 28 26 29 24 30 28 31 23 32 25 33
REMARK H PARENT 5 9 9 21 19 23 19 24
ROOT
ATOM      1  C   UNL     1      45.253 130.939  20.310  1.00  0.00     0.275 C 
ATOM      2  S   UNL     1      46.377 130.116  19.438  1.00  0.00     0.004 S 
ENDROOT
BRANCH   1   3
ATOM      3  N   UNL     1      44.164 131.595  19.629  1.00  0.00    -0.297 N 
ATOM      4  C   UNL     1      42.327 133.281  19.711  1.00  0.00     0.045 C 
ATOM      5  C   UNL     1      42.088 132.890  18.251  1.00  0.00     0.092 C 
ATOM      6  C   UNL     1      43.773 132.940  20.084  1.00  0.00     0.133 C 
ATOM      7  N   UNL     1      42.246 131.443  18.096  1.00  0.00    -0.292 NA
ATOM      8  C   UNL     1      43.609 130.969  18.407  1.00  0.00     0.193 C 
ATOM      9  H   UNL     1      41.991 131.182  17.114  1.00  0.00     0.125 HD
BRANCH   4  10
ATOM     10  C   UNL     1      41.351 132.586  20.636  1.00  0.00    -0.028 C 
ATOM     11  C   UNL     1      40.672 133.255  21.572  1.00  0.00     0.004 C 
ENDBRANCH   4  10
BRANCH   8  12
ATOM     12  C   UNL     1      44.543 131.108  17.213  1.00  0.00     0.056 A 
ATOM     13  C   UNL     1      45.076 132.389  16.894  1.00  0.00     0.317 A 
ATOM     14  C   UNL     1      44.946 129.993  16.437  1.00  0.00     0.053 A 
ATOM     15  N   UNL     1      45.942 132.550  15.848  1.00  0.00    -0.177 N 
ATOM     16  C   UNL     1      45.827 130.222  15.389  1.00  0.00     0.179 A 
ATOM     17  C   UNL     1      46.295 131.462  15.122  1.00  0.00     0.399 A 
ATOM     18  N   UNL     1      46.347 129.340  14.520  1.00  0.00    -0.209 NA
ATOM     19  O   UNL     1      47.104 131.411  14.103  1.00  0.00    -0.391 OA
ATOM     20  C   UNL     1      47.132 130.136  13.744  1.00  0.00     0.316 A 
ATOM     21  H   UNL     1      46.330 133.491  15.618  1.00  0.00     0.457 HD
ENDBRANCH   8  12
ENDBRANCH   1   3
BRANCH   1  22
ATOM     22  N   UNL     1      45.401 131.059  21.740  1.00  0.00    -0.254 N 
ATOM     23  H   UNL     1      45.139 132.021  22.056  1.00  0.00     0.360 HD
ATOM     24  H   UNL     1      46.405 130.918  21.992  1.00  0.00     0.360 HD
BRANCH  22  25
ATOM     25  C   UNL     1      44.539 130.110  22.405  1.00  0.00     0.175 A 
ATOM     26  C   UNL     1      44.861 128.739  22.390  1.00  0.00     0.112 A 
ATOM     27  C   UNL     1      43.382 130.532  23.093  1.00  0.00     0.185 A 
ATOM     28  C   UNL     1      44.061 127.813  23.066  1.00  0.00     0.147 A 
ATOM     29  C   UNL     1      42.585 129.601  23.766  1.00  0.00     0.069 A 
ATOM     30  C   UNL     1      42.924 128.245  23.758  1.00  0.00     0.080 A 
ATOM     31  F   UNL     1      43.022 131.840  23.114  1.00  0.00    -0.200 F 
ATOM     32  F   UNL     1      44.399 126.499  23.052  1.00  0.00    -0.205 F 
ATOM     33  Cl  UNL     1      41.923 127.092  24.624  1.00  0.00    -0.081 Cl
ENDBRANCH  22  25
ENDBRANCH   1  22
TORSDOF 5
ENDMDL
MODEL 3
REMARK VINA RESULT:      -3.2      3.742      6.723
REMARK SMILES C=C[C@@H]1CN[C@@H](c2c[nH+]c3ocnc3c2)N(C(=S)[NH2+]c2cc(F)c(Cl)cc2F)C1
REMARK SMILES IDX 17 1 18 2 16 3 3 4 4 5 29 6 5 7 6 8 2 10 1 11 7 12 8 13
REMARK SMILES IDX 15 14 9 15 14 16 10 17 13 18 11 19 12 20 19 22 20 25 21 26
REMARK SMILES IDX 27 27 22 28 26 29 24 30 28 31 23 32 25 33
REMARK H PARENT 5 9 9 21 19 23 19 24
ROOT
ATOM      1  C   UNL     1      44.080 124.407  22.877  1.00  0.00     0.275 C 
ATOM      2  S   UNL     1      43.814 123.133  23.882  1.00  0.00     0.004 S 
ENDROOT
BRANCH   1   3
ATOM      3  N   UNL     1      45.432 124.808  22.579  1.00  0.00    -0.297 N 
ATOM      4  C   UNL     1      47.586 124.294  21.430  1.00  0.00     0.045 C 
ATOM      5  C   UNL     1      48.042 125.650  21.973  1.00  0.00     0.092 C 
ATOM      6  C   UNL     1      46.057 124.280  21.354  1.00  0.00     0.133 C 
ATOM      7  N   UNL     1      47.539 125.830  23.335  1.00  0.00    -0.292 NA
ATOM      8  C   UNL     1      46.065 125.856  23.413  1.00  0.00     0.193 C 
ATOM      9  H   UNL     1      47.933 126.720  23.723  1.00  0.00     0.125 HD
BRANCH   4  10
ATOM     10  C   UNL     1      48.096 123.157  22.289  1.00  0.00    -0.028 C 
ATOM     11  C   UNL     1      49.179 123.290  23.060  1.00  0.00     0.004 C 
ENDBRANCH   4  10
BRANCH   8  12
ATOM     12  C   UNL     1      45.506 127.241  23.121  1.00  0.00     0.056 A 
ATOM     13  C   UNL     1      44.680 127.875  24.092  1.00  0.00     0.317 A 
ATOM     14  C   UNL     1      45.824 127.948  21.936  1.00  0.00     0.053 A 
ATOM     15  N   UNL     1      44.184 129.132  23.881  1.00  0.00    -0.177 N 
ATOM     16  C   UNL     1      45.288 129.220  21.781  1.00  0.00     0.179 A 
ATOM     17  C   UNL     1      44.500 129.771  22.730  1.00  0.00     0.399 A 
ATOM     18  N   UNL     1      45.441 130.076  20.757  1.00  0.00    -0.209 NA
ATOM     19  O   UNL     1      44.134 130.963  22.352  1.00  0.00    -0.391 OA
ATOM     20  C   UNL     1      44.699 131.142  21.168  1.00  0.00     0.316 A 
ATOM     21  H   UNL     1      43.578 129.592  24.596  1.00  0.00     0.457 HD
ENDBRANCH   8  12
ENDBRANCH   1   3
BRANCH   1  22
ATOM     22  N   UNL     1      42.963 125.157  22.358  1.00  0.00    -0.254 N 
ATOM     23  H   UNL     1      42.907 125.057  21.318  1.00  0.00     0.360 HD
ATOM     24  H   UNL     1      43.110 126.172  22.560  1.00  0.00     0.360 HD
BRANCH  22  25
ATOM     25  C   UNL     1      41.732 124.666  22.931  1.00  0.00     0.175 A 
ATOM     26  C   UNL     1      40.832 125.564  23.537  1.00  0.00     0.112 A 
ATOM     27  C   UNL     1      41.397 123.297  22.878  1.00  0.00     0.185 A 
ATOM     28  C   UNL     1      39.616 125.111  24.058  1.00  0.00     0.147 A 
ATOM     29  C   UNL     1      40.180 122.849  23.402  1.00  0.00     0.069 A 
ATOM     30  C   UNL     1      39.288 123.752  23.986  1.00  0.00     0.080 A 
ATOM     31  F   UNL     1      42.244 122.393  22.324  1.00  0.00    -0.200 F 
ATOM     32  F   UNL     1      38.757 125.996  24.623  1.00  0.00    -0.205 F 
ATOM     33  Cl  UNL     1      37.757 123.176  24.621  1.00  0.00    -0.081 Cl
ENDBRANCH  22  25
ENDBRANCH   1  22
TORSDOF 5
ENDMDL


