MODEL 1
REMARK VINA RESULT:      -9.5      0.000      0.000
REMARK SMILES O=C(CCc1c(F)ccc(C2CC2)c1F)c1ccc(-c2ccc(O)cc2)c2c[n-]nc12
REMARK SMILES IDX 1 1 2 2 3 3 4 4 5 5 6 6 14 7 8 8 10 9 9 10 7 11 15 12 11 13
REMARK SMILES IDX 12 14 13 15 16 16 17 17 31 18 18 19 30 20 27 21 19 22 29 23
REMARK SMILES IDX 28 24 20 25 21 26 26 27 22 28 25 29 23 30 24 31
REMARK H PARENT 24 32
ROOT
ATOM      1  O   UNL     1      42.678 132.391  22.591  1.00  0.00    -0.294 OA
ATOM      2  C   UNL     1      43.571 131.519  22.408  1.00  0.00     0.165 C 
ENDROOT
BRANCH   2   3
ATOM      3  C   UNL     1      44.146 130.819  23.614  1.00  0.00     0.086 C 
BRANCH   3   4
ATOM      4  C   UNL     1      43.058 130.133  24.456  1.00  0.00     0.050 C 
BRANCH   4   5
ATOM      5  C   UNL     1      42.934 128.660  24.138  1.00  0.00     0.024 A 
ATOM      6  C   UNL     1      41.670 128.040  24.094  1.00  0.00     0.129 A 
ATOM      7  C   UNL     1      44.091 127.877  23.957  1.00  0.00     0.132 A 
ATOM      8  C   UNL     1      41.569 126.662  23.884  1.00  0.00     0.040 A 
ATOM      9  C   UNL     1      43.987 126.485  23.778  1.00  0.00    -0.009 A 
ATOM     10  C   UNL     1      42.719 125.889  23.721  1.00  0.00     0.010 A 
ATOM     11  F   UNL     1      40.535 128.762  24.276  1.00  0.00    -0.207 F 
ATOM     12  F   UNL     1      45.315 128.465  23.977  1.00  0.00    -0.206 F 
BRANCH   9  13
ATOM     13  C   UNL     1      45.224 125.651  23.570  1.00  0.00     0.022 C 
ATOM     14  C   UNL     1      44.976 124.151  23.473  1.00  0.00     0.009 C 
ATOM     15  C   UNL     1      45.318 124.942  22.225  1.00  0.00     0.009 C 
ENDBRANCH   9  13
ENDBRANCH   4   5
ENDBRANCH   3   4
ENDBRANCH   2   3
BRANCH   2  16
ATOM     16  C   UNL     1      44.082 131.280  21.033  1.00  0.00     0.042 A 
ATOM     17  C   UNL     1      45.385 130.780  20.789  1.00  0.00     0.015 A 
ATOM     18  C   UNL     1      43.315 131.613  19.908  1.00  0.00     0.058 A 
ATOM     19  C   UNL     1      45.885 130.667  19.475  1.00  0.00     0.010 A 
ATOM     20  N   UNL     1      42.082 132.151  19.880  1.00  0.00    -0.367 NA
ATOM     21  C   UNL     1      43.802 131.497  18.634  1.00  0.00    -0.014 A 
ATOM     22  C   UNL     1      45.095 131.033  18.366  1.00  0.00    -0.011 A 
ATOM     23  N   UNL     1      41.772 132.375  18.608  1.00  0.00    -0.581 NA
ATOM     24  C   UNL     1      42.804 131.992  17.823  1.00  0.00    -0.113 A 
BRANCH  22  25
ATOM     25  C   UNL     1      45.630 130.945  16.990  1.00  0.00    -0.018 A 
ATOM     26  C   UNL     1      45.724 132.091  16.183  1.00  0.00     0.012 A 
ATOM     27  C   UNL     1      46.036 129.704  16.469  1.00  0.00     0.012 A 
ATOM     28  C   UNL     1      46.226 131.997  14.881  1.00  0.00     0.047 A 
ATOM     29  C   UNL     1      46.536 129.614  15.167  1.00  0.00     0.047 A 
ATOM     30  C   UNL     1      46.633 130.762  14.370  1.00  0.00     0.115 A 
BRANCH  30  31
ATOM     31  O   UNL     1      47.129 130.684  13.070  1.00  0.00    -0.508 OA
ATOM     32  H   UNL     1      46.761 130.017  12.402  1.00  0.00     0.293 HD
ENDBRANCH  30  31
ENDBRANCH  22  25
ENDBRANCH   2  16
TORSDOF 7
ENDMDL


