REMARK SMILES Cn1n[nH+]c2cc([N-]C(=O)c3cc(F)c[nH]3)ccc21
REMARK SMILES IDX 8 1 7 2 2 3 3 4 19 5 4 6 18 7 5 8 17 9 6 10 1 11 9 13 10 14
REMARK SMILES IDX 11 15 12 16 16 17 13 18 15 19 14 21
REMARK H PARENT 4 12 16 20
ROOT
ATOM      1  N   UNL     1       0.604  -1.558  -0.674  1.00  0.00    -0.621 NA
ENDROOT
BRANCH   1   2
ATOM      2  C   UNL     1      -0.314  -0.456  -0.678  1.00  0.00    -0.129 A 
ATOM      3  N   UNL     1      -3.157   2.485  -0.466  1.00  0.00    -0.133 N 
ATOM      4  N   UNL     1      -3.904   1.974   0.509  1.00  0.00     0.088 NA
ATOM      5  C   UNL     1      -2.142   1.631  -0.683  1.00  0.00     0.197 A 
ATOM      6  N   UNL     1      -3.388   0.820   0.924  1.00  0.00    -0.143 N 
ATOM      7  C   UNL     1      -1.100   1.687  -1.605  1.00  0.00     0.057 A 
ATOM      8  C   UNL     1      -2.287   0.595   0.186  1.00  0.00     0.194 A 
ATOM      9  C   UNL     1      -0.180   0.621  -1.602  1.00  0.00    -0.011 A 
ATOM     10  C   UNL     1      -1.402  -0.477   0.221  1.00  0.00     0.042 A 
ATOM     11  C   UNL     1      -3.446   3.727  -1.171  1.00  0.00     0.327 C 
ATOM     12  H   UNL     1      -3.785   0.218   1.678  1.00  0.00     0.342 HD
ENDBRANCH   1   2
BRANCH   1  13
ATOM     13  C   UNL     1       1.953  -1.533  -1.156  1.00  0.00     0.102 C 
ATOM     14  O   UNL     1       2.419  -2.564  -1.707  1.00  0.00    -0.313 OA
BRANCH  13  15
ATOM     15  C   UNL     1       2.826  -0.356  -0.972  1.00  0.00     0.066 A 
ATOM     16  C   UNL     1       4.002  -0.122  -1.663  1.00  0.00     0.069 A 
ATOM     17  N   UNL     1       2.611   0.624  -0.068  1.00  0.00    -0.357 N 
ATOM     18  C   UNL     1       4.500   1.059  -1.157  1.00  0.00     0.141 A 
ATOM     19  C   UNL     1       3.630   1.494  -0.181  1.00  0.00     0.122 A 
ATOM     20  H   UNL     1       1.824   0.692   0.614  1.00  0.00     0.166 HD
ATOM     21  F   UNL     1       5.645   1.674  -1.540  1.00  0.00    -0.205 F 
ENDBRANCH  13  15
ENDBRANCH   1  13
TORSDOF 3


