REMARK SMILES C=Cc1cc(C2=CC=C[C@@]3(F)N=CO[C@@]23O)cc([O-])c1F
REMARK SMILES IDX 6 1 7 2 8 3 9 4 10 5 11 6 12 7 13 8 14 9 15 10 5 11 3 12
REMARK SMILES IDX 4 13 20 14 18 15 17 16 21 17 19 18 2 19 1 20 16 21
REMARK H PARENT 16 22
ROOT
ATOM      1  C   UNL     1      -0.910   0.187  -0.297  1.00  0.00     0.036 C 
ATOM      2  C   UNL     1      -1.578   0.715  -1.333  1.00  0.00     0.011 C 
ATOM      3  C   UNL     1      -2.600  -0.030  -2.070  1.00  0.00     0.002 C 
ATOM      4  C   UNL     1      -2.955  -1.265  -1.728  1.00  0.00     0.045 C 
ATOM      5  C   UNL     1      -2.313  -2.015  -0.594  1.00  0.00     0.291 C 
ATOM      6  F   UNL     1      -3.299  -2.378   0.310  1.00  0.00    -0.205 F 
ATOM      7  N   UNL     1      -1.697  -3.220  -1.135  1.00  0.00    -0.208 NA
ATOM      8  C   UNL     1      -0.426  -3.174  -0.947  1.00  0.00     0.304 C 
ATOM      9  O   UNL     1      -0.010  -2.045  -0.273  1.00  0.00    -0.442 OA
ATOM     10  C   UNL     1      -1.129  -1.267   0.117  1.00  0.00     0.295 C 
ENDROOT
BRANCH   1  11
ATOM     11  C   UNL     1       0.033   1.046   0.475  1.00  0.00    -0.015 A 
ATOM     12  C   UNL     1       2.185   1.383   1.600  1.00  0.00     0.010 A 
ATOM     13  C   UNL     1       1.302   0.573   0.858  1.00  0.00     0.019 A 
ATOM     14  C   UNL     1       1.768   2.670   1.984  1.00  0.00     0.122 A 
ATOM     15  C   UNL     1       0.508   3.145   1.612  1.00  0.00    -0.071 A 
ATOM     16  C   UNL     1      -0.353   2.342   0.863  1.00  0.00     0.003 A 
ATOM     17  F   UNL     1       2.590   3.473   2.709  1.00  0.00    -0.207 F 
ATOM     18  O   UNL     1       0.106   4.420   1.992  1.00  0.00    -0.870 OA
BRANCH  12  19
ATOM     19  C   UNL     1       3.527   0.905   2.019  1.00  0.00     0.003 C 
ATOM     20  C   UNL     1       4.199  -0.065   1.399  1.00  0.00     0.009 C 
ENDBRANCH  12  19
ENDBRANCH   1  11
BRANCH  10  21
ATOM     21  O   UNL     1      -1.262  -1.354   1.515  1.00  0.00    -0.348 OA
ATOM     22  H   UNL     1      -2.029  -0.778   1.776  1.00  0.00     0.215 HD
ENDBRANCH  10  21
TORSDOF 3


