REMARK SMILES Cc1cc(N)c(N[C@@H]2CC[C@H](C)N(c3cnc(CC#N)n3C)[C@H]2F)cc1F
REMARK SMILES IDX 8 1 9 2 10 3 11 4 12 5 13 6 23 7 24 8 7 9 6 11 2 12 3 13
REMARK SMILES IDX 26 14 4 15 25 16 1 17 27 18 5 19 14 22 15 23 21 24 16 25
REMARK SMILES IDX 17 26 22 27 18 28 19 29 20 30
REMARK H PARENT 7 10 5 20 5 21
ROOT
ATOM      1  C   UNL     1       0.099  -0.247   1.096  1.00  0.00     0.134 C 
ATOM      2  C   UNL     1       1.309  -0.395   2.027  1.00  0.00     0.032 C 
ATOM      3  C   UNL     1       2.487  -1.036   1.285  1.00  0.00     0.027 C 
ATOM      4  C   UNL     1       2.863  -0.261   0.006  1.00  0.00     0.083 C 
ATOM      5  C   UNL     1       3.640   1.025   0.317  1.00  0.00     0.031 C 
ATOM      6  N   UNL     1       1.664   0.047  -0.790  1.00  0.00    -0.322 N 
ATOM      7  C   UNL     1       0.466   0.595  -0.134  1.00  0.00     0.286 C 
ATOM      8  F   UNL     1      -0.611   0.592  -1.008  1.00  0.00    -0.221 F 
ENDROOT
BRANCH   1   9
ATOM      9  N   UNL     1      -1.008   0.385   1.819  1.00  0.00    -0.376 N 
ATOM     10  H   UNL     1      -0.898   1.383   2.108  1.00  0.00     0.161 HD
BRANCH   9  11
ATOM     11  C   UNL     1      -2.211  -0.313   2.185  1.00  0.00     0.061 A 
ATOM     12  C   UNL     1      -4.542  -1.670   3.012  1.00  0.00    -0.013 A 
ATOM     13  C   UNL     1      -4.613  -0.337   2.584  1.00  0.00     0.034 A 
ATOM     14  C   UNL     1      -3.301  -2.321   3.032  1.00  0.00     0.128 A 
ATOM     15  C   UNL     1      -3.461   0.346   2.163  1.00  0.00     0.055 A 
ATOM     16  C   UNL     1      -2.147  -1.648   2.623  1.00  0.00     0.067 A 
ATOM     17  C   UNL     1      -5.777  -2.392   3.468  1.00  0.00     0.047 C 
ATOM     18  F   UNL     1      -3.204  -3.606   3.458  1.00  0.00    -0.207 F 
BRANCH  15  19
ATOM     19  N   UNL     1      -3.587   1.691   1.683  1.00  0.00    -0.397 N 
ATOM     20  H   UNL     1      -2.796   2.191   1.220  1.00  0.00     0.156 HD
ATOM     21  H   UNL     1      -4.507   2.183   1.722  1.00  0.00     0.156 HD
ENDBRANCH  15  19
ENDBRANCH   9  11
ENDBRANCH   1   9
BRANCH   6  22
ATOM     22  C   UNL     1       1.766   0.031  -2.224  1.00  0.00     0.131 A 
ATOM     23  C   UNL     1       2.045  -1.078  -2.988  1.00  0.00     0.158 A 
ATOM     24  N   UNL     1       1.613   1.098  -3.031  1.00  0.00    -0.317 N 
ATOM     25  N   UNL     1       2.043  -0.724  -4.289  1.00  0.00    -0.238 NA
ATOM     26  C   UNL     1       1.764   0.600  -4.281  1.00  0.00     0.124 A 
ATOM     27  C   UNL     1       1.334   2.480  -2.643  1.00  0.00     0.153 C 
BRANCH  26  28
ATOM     28  C   UNL     1       1.692   1.413  -5.538  1.00  0.00     0.195 C 
BRANCH  28  29
ATOM     29  C   UNL     1       2.979   2.069  -5.782  1.00  0.00     0.070 C 
ATOM     30  N   UNL     1       3.995   2.587  -5.975  1.00  0.00    -0.198 NA
ENDBRANCH  28  29
ENDBRANCH  26  28
ENDBRANCH   6  22
TORSDOF 6


