REMARK SMILES Cc1cc(N=C=O)c(N)c(-n2[nH+]c3ccccc3[nH+]2)c1
REMARK SMILES IDX 3 1 4 2 8 3 10 4 20 5 2 6 1 7 5 8 6 9 7 10 9 11 11 14 12 15
REMARK SMILES IDX 19 16 13 17 18 18 14 19 17 20 15 21 16 22
REMARK H PARENT 9 12 9 13 12 23 19 24
ROOT
ATOM      1  C   UNL     1       1.551   2.446   2.120  1.00  0.00     0.035 A 
ATOM      2  C   UNL     1       0.307   1.833   2.371  1.00  0.00     0.102 A 
ATOM      3  C   UNL     1      -0.292   1.039   1.368  1.00  0.00     0.095 A 
ATOM      4  C   UNL     1       0.379   0.843   0.138  1.00  0.00     0.193 A 
ATOM      5  C   UNL     1       1.606   1.479  -0.095  1.00  0.00     0.044 A 
ATOM      6  C   UNL     1       2.187   2.292   0.883  1.00  0.00    -0.046 A 
ATOM      7  C   UNL     1       3.526   2.925   0.639  1.00  0.00     0.044 C 
ENDROOT
BRANCH   2   8
ATOM      8  N   UNL     1      -0.374   2.012   3.626  1.00  0.00    -0.166 NA
BRANCH   8   9
ATOM      9  C   UNL     1       0.074   2.710   4.592  1.00  0.00     0.240 C 
ATOM     10  O   UNL     1       0.510   3.388   5.531  1.00  0.00    -0.211 OA
ENDBRANCH   8   9
ENDBRANCH   2   8
BRANCH   3  11
ATOM     11  N   UNL     1      -1.598   0.481   1.583  1.00  0.00    -0.395 N 
ATOM     12  H   UNL     1      -2.059   0.516   2.518  1.00  0.00     0.156 HD
ATOM     13  H   UNL     1      -2.163   0.097   0.795  1.00  0.00     0.156 HD
ENDBRANCH   3  11
BRANCH   4  14
ATOM     14  N   UNL     1      -0.154  -0.026  -0.874  1.00  0.00     0.082 N 
ATOM     15  N   UNL     1      -0.228   0.292  -2.165  1.00  0.00    -0.062 N 
ATOM     16  N   UNL     1      -0.550  -1.279  -0.656  1.00  0.00    -0.062 N 
ATOM     17  C   UNL     1      -0.708  -0.796  -2.789  1.00  0.00     0.306 A 
ATOM     18  C   UNL     1      -0.906  -1.770  -1.854  1.00  0.00     0.306 A 
ATOM     19  C   UNL     1      -0.969  -0.999  -4.140  1.00  0.00     0.089 A 
ATOM     20  C   UNL     1      -1.381  -3.034  -2.188  1.00  0.00     0.089 A 
ATOM     21  C   UNL     1      -1.457  -2.267  -4.518  1.00  0.00     0.007 A 
ATOM     22  C   UNL     1      -1.661  -3.279  -3.548  1.00  0.00     0.007 A 
ATOM     23  H   UNL     1       0.040   1.208  -2.590  1.00  0.00     0.495 HD
ATOM     24  H   UNL     1      -0.545  -1.776   0.263  1.00  0.00     0.495 HD
ENDBRANCH   4  14
TORSDOF 4


