REMARK SMILES Cn1n[nH+]c2cc([N-]C(=O)c3cc(F)cn3/C(S)=N\[C@H]3CCCO3)ccc21
REMARK SMILES IDX 16 1 15 2 13 3 14 4 12 5 11 6 17 7 18 8 19 10 20 11 24 12
REMARK SMILES IDX 21 13 23 14 22 15 9 16 10 17 8 18 7 19 25 20 6 21 26 22 5 23
REMARK SMILES IDX 27 24 4 25 2 26 3 27 1 29
REMARK H PARENT 18 9 4 28
ROOT
ATOM      1  N   UNL     1      -2.580  -0.137   2.374  1.00  0.00    -0.292 N 
ATOM      2  C   UNL     1      -3.690  -0.612   2.970  1.00  0.00     0.133 A 
ATOM      3  C   UNL     1      -3.356  -1.690   3.758  1.00  0.00     0.142 A 
ATOM      4  F   UNL     1      -4.211  -2.426   4.509  1.00  0.00    -0.205 F 
ATOM      5  C   UNL     1      -1.995  -1.882   3.652  1.00  0.00     0.069 A 
ATOM      6  C   UNL     1      -1.538  -0.898   2.790  1.00  0.00     0.076 A 
ENDROOT
BRANCH   1   7
ATOM      7  C   UNL     1      -2.550   1.011   1.516  1.00  0.00     0.167 C 
BRANCH   7   8
ATOM      8  S   UNL     1      -2.417   2.641   2.238  1.00  0.00    -0.105 SA
ATOM      9  H   UNL     1      -1.013   2.639   2.153  1.00  0.00     0.111 HD
ENDBRANCH   7   8
BRANCH   7  10
ATOM     10  N   UNL     1      -2.679   0.898   0.228  1.00  0.00    -0.230 NA
BRANCH  10  11
ATOM     11  C   UNL     1      -2.846  -0.368  -0.488  1.00  0.00     0.237 C 
ATOM     12  O   UNL     1      -1.664  -1.133  -0.385  1.00  0.00    -0.356 OA
ATOM     13  C   UNL     1      -3.129  -0.094  -1.954  1.00  0.00     0.059 C 
ATOM     14  C   UNL     1      -1.061  -1.174  -1.659  1.00  0.00     0.163 C 
ATOM     15  C   UNL     1      -1.779  -0.217  -2.586  1.00  0.00     0.033 C 
ENDBRANCH  10  11
ENDBRANCH   7  10
ENDBRANCH   1   7
BRANCH   6  16
ATOM     16  C   UNL     1      -0.126  -0.734   2.385  1.00  0.00     0.103 C 
ATOM     17  O   UNL     1       0.749  -1.502   2.867  1.00  0.00    -0.313 OA
BRANCH  16  18
ATOM     18  N   UNL     1       0.251   0.311   1.481  1.00  0.00    -0.621 NA
BRANCH  18  19
ATOM     19  C   UNL     1       1.465   0.400   0.723  1.00  0.00    -0.129 A 
ATOM     20  C   UNL     1       1.841   1.664   0.201  1.00  0.00    -0.011 A 
ATOM     21  C   UNL     1       2.245  -0.746   0.422  1.00  0.00     0.042 A 
ATOM     22  C   UNL     1       2.999   1.808  -0.587  1.00  0.00     0.057 A 
ATOM     23  C   UNL     1       3.382  -0.560  -0.356  1.00  0.00     0.194 A 
ATOM     24  C   UNL     1       3.746   0.660  -0.835  1.00  0.00     0.197 A 
ATOM     25  N   UNL     1       4.271  -1.465  -0.799  1.00  0.00    -0.143 N 
ATOM     26  N   UNL     1       4.865   0.491  -1.561  1.00  0.00    -0.133 N 
ATOM     27  N   UNL     1       5.163  -0.806  -1.534  1.00  0.00     0.088 NA
ATOM     28  H   UNL     1       4.276  -2.494  -0.624  1.00  0.00     0.342 HD
ATOM     29  C   UNL     1       5.599   1.496  -2.319  1.00  0.00     0.327 C 
ENDBRANCH  18  19
ENDBRANCH  16  18
ENDBRANCH   6  16
TORSDOF 7


