REMARK SMILES CO[C@@H]1CCC[C@@H](c2cc3cc(F)ccc3[nH]2)N1C(=O)C(C)(F)F
REMARK SMILES IDX 3 1 4 2 5 3 6 4 7 5 18 6 2 7 1 8 19 9 20 10 21 11 22 12
REMARK SMILES IDX 23 13 24 14 8 15 9 16 17 17 10 18 16 19 11 20 15 21 12 22
REMARK SMILES IDX 14 23 13 25
REMARK H PARENT 17 24
ROOT
ATOM      1  C   UNL     1      -1.678  -0.769  -0.754  1.00  0.00     0.217 C 
ATOM      2  C   UNL     1      -1.768  -2.289  -0.549  1.00  0.00     0.055 C 
ATOM      3  C   UNL     1      -0.471  -2.845   0.035  1.00  0.00     0.007 C 
ATOM      4  C   UNL     1      -0.176  -2.175   1.375  1.00  0.00     0.032 C 
ATOM      5  C   UNL     1      -0.063  -0.646   1.230  1.00  0.00     0.135 C 
ATOM      6  N   UNL     1      -1.226  -0.106   0.490  1.00  0.00    -0.303 N 
ENDROOT
BRANCH   1   7
ATOM      7  O   UNL     1      -2.968  -0.292  -1.108  1.00  0.00    -0.362 OA
ATOM      8  C   UNL     1      -3.073  -0.117  -2.504  1.00  0.00     0.197 C 
ENDBRANCH   1   7
BRANCH   6   9
ATOM      9  C   UNL     1      -1.663   1.243   0.762  1.00  0.00     0.295 C 
ATOM     10  O   UNL     1      -1.726   2.075  -0.184  1.00  0.00    -0.268 OA
BRANCH   9  11
ATOM     11  C   UNL     1      -2.054   1.688   2.150  1.00  0.00     0.322 C 
ATOM     12  C   UNL     1      -2.922   0.641   2.848  1.00  0.00     0.098 C 
ATOM     13  F   UNL     1      -0.917   1.929   2.901  1.00  0.00    -0.196 F 
ATOM     14  F   UNL     1      -2.776   2.867   2.070  1.00  0.00    -0.196 F 
ENDBRANCH   9  11
ENDBRANCH   6   9
BRANCH   5  15
ATOM     15  C   UNL     1       1.254  -0.237   0.598  1.00  0.00     0.039 A 
ATOM     16  C   UNL     1       1.425   0.612  -0.500  1.00  0.00     0.034 A 
ATOM     17  N   UNL     1       2.458  -0.599   1.107  1.00  0.00    -0.357 N 
ATOM     18  C   UNL     1       2.787   0.734  -0.654  1.00  0.00     0.003 A 
ATOM     19  C   UNL     1       3.381  -0.008   0.331  1.00  0.00     0.046 A 
ATOM     20  C   UNL     1       3.534   1.460  -1.580  1.00  0.00     0.049 A 
ATOM     21  C   UNL     1       4.767  -0.078   0.461  1.00  0.00     0.029 A 
ATOM     22  C   UNL     1       4.936   1.406  -1.479  1.00  0.00     0.123 A 
ATOM     23  C   UNL     1       5.550   0.640  -0.462  1.00  0.00     0.041 A 
ATOM     24  H   UNL     1       2.639  -1.194   1.945  1.00  0.00     0.166 HD
ATOM     25  F   UNL     1       5.702   2.095  -2.360  1.00  0.00    -0.207 F 
ENDBRANCH   5  15
TORSDOF 4


