REMARK SMILES Cc1ccc(-c2ccc(O)cc2)c2cn[nH]c12
REMARK SMILES IDX 6 1 7 2 8 3 9 4 11 5 12 6 5 7 2 8 3 9 17 10 4 11 16 12 13 13
REMARK SMILES IDX 15 14 14 15 1 16 10 18
REMARK H PARENT 16 17 10 19
ROOT
ATOM      1  C   UNL     1       0.201   1.224  -0.211  1.00  0.00    -0.017 A 
ATOM      2  C   UNL     1      -0.007   1.357   1.173  1.00  0.00     0.012 A 
ATOM      3  C   UNL     1      -0.378   2.591   1.716  1.00  0.00     0.047 A 
ATOM      4  C   UNL     1      -0.539   3.707   0.885  1.00  0.00     0.115 A 
ATOM      5  C   UNL     1      -0.325   3.582  -0.491  1.00  0.00     0.047 A 
ATOM      6  C   UNL     1       0.046   2.350  -1.038  1.00  0.00     0.012 A 
ENDROOT
BRANCH   1   7
ATOM      7  C   UNL     1       0.604  -0.078  -0.791  1.00  0.00    -0.007 A 
ATOM      8  C   UNL     1       1.395  -2.591  -1.903  1.00  0.00    -0.025 A 
ATOM      9  C   UNL     1       2.079  -1.404  -2.244  1.00  0.00     0.006 A 
ATOM     10  C   UNL     1       0.321  -2.476  -1.015  1.00  0.00     0.069 A 
ATOM     11  C   UNL     1       1.687  -0.163  -1.696  1.00  0.00     0.010 A 
ATOM     12  N   UNL     1      -0.504  -3.441  -0.572  1.00  0.00    -0.278 N 
ATOM     13  C   UNL     1      -0.058  -1.275  -0.481  1.00  0.00     0.028 A 
ATOM     14  N   UNL     1      -1.410  -2.888   0.225  1.00  0.00    -0.183 NA
ATOM     15  C   UNL     1      -1.164  -1.559   0.298  1.00  0.00     0.144 A 
ATOM     16  C   UNL     1       1.787  -3.915  -2.489  1.00  0.00     0.046 C 
ATOM     17  H   UNL     1      -0.470  -4.457  -0.810  1.00  0.00     0.190 HD
ENDBRANCH   1   7
BRANCH   4  18
ATOM     18  O   UNL     1      -0.909   4.941   1.415  1.00  0.00    -0.508 OA
ATOM     19  H   UNL     1      -1.071   5.063   2.408  1.00  0.00     0.293 HD
ENDBRANCH   4  18
TORSDOF 2


