REMARK SMILES CO[C@H]1CCC[C@H](c2cc3cc(F)ccc3[nH]2)N1C(=O)C(C)(F)F
REMARK SMILES IDX 3 1 4 2 5 3 6 4 7 5 18 6 2 7 1 8 19 9 20 10 21 11 22 12
REMARK SMILES IDX 23 13 24 14 8 15 9 16 17 17 10 18 16 19 11 20 15 21 12 22
REMARK SMILES IDX 14 23 13 25
REMARK H PARENT 17 24
ROOT
ATOM      1  C   UNL     1      -1.463  -0.321   0.190  1.00  0.00     0.217 C 
ATOM      2  C   UNL     1      -0.866  -1.399   1.109  1.00  0.00     0.055 C 
ATOM      3  C   UNL     1       0.261  -2.230   0.455  1.00  0.00     0.007 C 
ATOM      4  C   UNL     1       0.600  -1.802  -0.982  1.00  0.00     0.032 C 
ATOM      5  C   UNL     1       0.736  -0.273  -1.118  1.00  0.00     0.135 C 
ATOM      6  N   UNL     1      -0.369   0.440  -0.446  1.00  0.00    -0.303 N 
ENDROOT
BRANCH   1   7
ATOM      7  O   UNL     1      -2.265  -0.949  -0.795  1.00  0.00    -0.362 OA
ATOM      8  C   UNL     1      -3.167  -0.025  -1.363  1.00  0.00     0.197 C 
ENDBRANCH   1   7
BRANCH   6   9
ATOM      9  C   UNL     1      -0.432   1.878  -0.553  1.00  0.00     0.295 C 
ATOM     10  O   UNL     1      -0.083   2.431  -1.632  1.00  0.00    -0.268 OA
BRANCH   9  11
ATOM     11  C   UNL     1      -0.923   2.732   0.593  1.00  0.00     0.322 C 
ATOM     12  C   UNL     1      -0.260   4.110   0.598  1.00  0.00     0.098 C 
ATOM     13  F   UNL     1      -0.632   2.112   1.797  1.00  0.00    -0.196 F 
ATOM     14  F   UNL     1      -2.293   2.891   0.487  1.00  0.00    -0.196 F 
ENDBRANCH   9  11
ENDBRANCH   6   9
BRANCH   5  15
ATOM     15  C   UNL     1       2.066   0.184  -0.572  1.00  0.00     0.039 A 
ATOM     16  C   UNL     1       3.232   0.310  -1.325  1.00  0.00     0.034 A 
ATOM     17  N   UNL     1       2.296   0.474   0.732  1.00  0.00    -0.357 N 
ATOM     18  C   UNL     1       4.195   0.708  -0.424  1.00  0.00     0.003 A 
ATOM     19  C   UNL     1       3.597   0.797   0.806  1.00  0.00     0.046 A 
ATOM     20  C   UNL     1       5.547   0.988  -0.607  1.00  0.00     0.049 A 
ATOM     21  C   UNL     1       4.312   1.175   1.942  1.00  0.00     0.029 A 
ATOM     22  C   UNL     1       6.296   1.374   0.520  1.00  0.00     0.123 A 
ATOM     23  C   UNL     1       5.680   1.466   1.789  1.00  0.00     0.041 A 
ATOM     24  H   UNL     1       1.611   0.451   1.519  1.00  0.00     0.166 HD
ATOM     25  F   UNL     1       7.615   1.657   0.389  1.00  0.00    -0.207 F 
ENDBRANCH   5  15
TORSDOF 4


