REMARK SMILES Cc1cc(N)c(N[C@@H]2CC[C@H](C)N(c3cnc(CC#N)n3C)[C@H]2F)cc1F
REMARK SMILES IDX 8 1 9 2 10 3 11 4 12 5 13 6 23 7 24 8 7 9 6 11 2 12 3 13
REMARK SMILES IDX 26 14 4 15 25 16 1 17 27 18 5 19 14 22 15 23 21 24 16 25
REMARK SMILES IDX 17 26 22 27 18 28 19 29 20 30
REMARK H PARENT 7 10 5 20 5 21
ROOT
ATOM      1  C   UNL     1       0.031  -1.460   0.796  1.00  0.00     0.134 C 
ATOM      2  C   UNL     1       1.264  -1.546   1.715  1.00  0.00     0.032 C 
ATOM      3  C   UNL     1       2.224  -0.368   1.502  1.00  0.00     0.027 C 
ATOM      4  C   UNL     1       2.634  -0.240   0.024  1.00  0.00     0.083 C 
ATOM      5  C   UNL     1       3.504   1.014  -0.165  1.00  0.00     0.031 C 
ATOM      6  N   UNL     1       1.427  -0.231  -0.827  1.00  0.00    -0.322 N 
ATOM      7  C   UNL     1       0.454  -1.318  -0.674  1.00  0.00     0.286 C 
ATOM      8  F   UNL     1       1.016  -2.504  -1.118  1.00  0.00    -0.221 F 
ENDROOT
BRANCH   1   9
ATOM      9  N   UNL     1      -0.823  -0.329   1.181  1.00  0.00    -0.376 N 
ATOM     10  H   UNL     1      -0.487   0.638   0.970  1.00  0.00     0.161 HD
BRANCH   9  11
ATOM     11  C   UNL     1      -2.087  -0.486   1.850  1.00  0.00     0.061 A 
ATOM     12  C   UNL     1      -4.520  -0.742   3.254  1.00  0.00    -0.013 A 
ATOM     13  C   UNL     1      -4.363   0.260   2.287  1.00  0.00     0.034 A 
ATOM     14  C   UNL     1      -3.452  -1.608   3.527  1.00  0.00     0.128 A 
ATOM     15  C   UNL     1      -3.161   0.390   1.574  1.00  0.00     0.055 A 
ATOM     16  C   UNL     1      -2.248  -1.481   2.830  1.00  0.00     0.067 A 
ATOM     17  C   UNL     1      -5.803  -0.860   4.026  1.00  0.00     0.047 C 
ATOM     18  F   UNL     1      -3.570  -2.569   4.479  1.00  0.00    -0.207 F 
BRANCH  15  19
ATOM     19  N   UNL     1      -3.065   1.390   0.550  1.00  0.00    -0.397 N 
ATOM     20  H   UNL     1      -3.843   2.071   0.401  1.00  0.00     0.156 HD
ATOM     21  H   UNL     1      -2.268   1.421  -0.122  1.00  0.00     0.156 HD
ENDBRANCH  15  19
ENDBRANCH   9  11
ENDBRANCH   1   9
BRANCH   6  22
ATOM     22  C   UNL     1       1.325   0.601  -1.992  1.00  0.00     0.131 A 
ATOM     23  C   UNL     1       0.584   1.754  -2.084  1.00  0.00     0.158 A 
ATOM     24  N   UNL     1       1.895   0.340  -3.182  1.00  0.00    -0.317 N 
ATOM     25  N   UNL     1       0.676   2.231  -3.342  1.00  0.00    -0.238 NA
ATOM     26  C   UNL     1       1.466   1.340  -3.986  1.00  0.00     0.124 A 
ATOM     27  C   UNL     1       2.672  -0.839  -3.558  1.00  0.00     0.153 C 
BRANCH  26  28
ATOM     28  C   UNL     1       1.841   1.490  -5.429  1.00  0.00     0.195 C 
BRANCH  28  29
ATOM     29  C   UNL     1       3.164   2.109  -5.538  1.00  0.00     0.070 C 
ATOM     30  N   UNL     1       4.210   2.597  -5.624  1.00  0.00    -0.198 NA
ENDBRANCH  28  29
ENDBRANCH  26  28
ENDBRANCH   6  22
TORSDOF 6


