REMARK SMILES Cc1[n-]nc2c1ccc1c([NH2+]N)cccc12
REMARK SMILES IDX 11 1 10 4 2 5 3 6 6 7 4 8 5 9 7 10 16 11 8 12 15 13 9 14
REMARK SMILES IDX 14 15 13 16 1 17 12 18
REMARK H PARENT 11 2 11 3 12 19 12 20
ROOT
ATOM      1  N   UNL     1       1.204  -1.579  -1.880  1.00  0.00    -0.239 N 
ATOM      2  H   UNL     1       0.383  -2.138  -1.552  1.00  0.00     0.376 HD
ATOM      3  H   UNL     1       1.868  -2.239  -2.352  1.00  0.00     0.376 HD
ENDROOT
BRANCH   1   4
ATOM      4  C   UNL     1       1.830  -0.910  -0.762  1.00  0.00     0.156 A 
ATOM      5  C   UNL     1      -0.756   1.996   3.198  1.00  0.00    -0.139 A 
ATOM      6  N   UNL     1       0.346   2.347   3.899  1.00  0.00    -0.578 NA
ATOM      7  C   UNL     1      -0.366   1.239   2.119  1.00  0.00    -0.019 A 
ATOM      8  N   UNL     1       1.417   1.829   3.303  1.00  0.00    -0.367 NA
ATOM      9  C   UNL     1       0.991   1.153   2.219  1.00  0.00     0.055 A 
ATOM     10  C   UNL     1      -1.075   0.645   1.082  1.00  0.00     0.009 A 
ATOM     11  C   UNL     1       1.755   0.452   1.281  1.00  0.00     0.012 A 
ATOM     12  C   UNL     1      -0.348  -0.072   0.116  1.00  0.00     0.016 A 
ATOM     13  C   UNL     1       3.149   0.376   1.383  1.00  0.00     0.011 A 
ATOM     14  C   UNL     1       1.071  -0.186   0.200  1.00  0.00     0.047 A 
ATOM     15  C   UNL     1       3.880  -0.321   0.424  1.00  0.00     0.007 A 
ATOM     16  C   UNL     1       3.232  -0.953  -0.637  1.00  0.00     0.070 A 
ATOM     17  C   UNL     1      -2.146   2.422   3.540  1.00  0.00     0.019 C 
ENDBRANCH   1   4
BRANCH   1  18
ATOM     18  N   UNL     1       0.777  -0.610  -2.810  1.00  0.00    -0.178 NA
ATOM     19  H   UNL     1       0.217  -1.097  -3.548  1.00  0.00     0.183 HD
ATOM     20  H   UNL     1       1.621  -0.218  -3.291  1.00  0.00     0.183 HD
ENDBRANCH   1  18
TORSDOF 2


