REMARK SMILES Cc1cc([NH2+]N)c(O)c(-n2nc3ccc(-c4ccc(O)cc4)cc3n2)c1
REMARK SMILES IDX 10 1 11 2 12 3 13 4 14 5 15 6 23 7 24 8 25 9 9 10 2 11 3 12
REMARK SMILES IDX 26 13 4 14 7 15 1 16 5 17 6 20 8 23 16 25 17 26 22 27 18 28
REMARK SMILES IDX 21 29 19 30 20 31
REMARK H PARENT 5 18 5 19 6 21 6 22 8 24 20 32
ROOT
ATOM      1  N   UNL     1       0.106   1.712  -0.421  1.00  0.00    -0.146 N 
ATOM      2  N   UNL     1       0.982   1.962   0.552  1.00  0.00    -0.148 NA
ATOM      3  C   UNL     1       1.281   0.761   1.069  1.00  0.00     0.113 A 
ATOM      4  C   UNL     1       2.147   0.449   2.108  1.00  0.00     0.033 A 
ATOM      5  C   UNL     1       2.283  -0.910   2.453  1.00  0.00     0.011 A 
ATOM      6  C   UNL     1       1.555  -1.917   1.754  1.00  0.00    -0.016 A 
ATOM      7  C   UNL     1       0.684  -1.541   0.701  1.00  0.00     0.041 A 
ATOM      8  C   UNL     1       0.582  -0.188   0.397  1.00  0.00     0.114 A 
ATOM      9  N   UNL     1      -0.158   0.410  -0.546  1.00  0.00    -0.148 NA
ENDROOT
BRANCH   1  10
ATOM     10  C   UNL     1      -0.482   2.725  -1.266  1.00  0.00     0.134 A 
ATOM     11  C   UNL     1      -1.795   3.284  -3.247  1.00  0.00    -0.043 A 
ATOM     12  C   UNL     1      -1.641   4.645  -2.966  1.00  0.00     0.077 A 
ATOM     13  C   UNL     1      -1.200   2.335  -2.410  1.00  0.00     0.038 A 
ATOM     14  C   UNL     1      -0.922   5.071  -1.837  1.00  0.00     0.193 A 
ATOM     15  C   UNL     1      -0.357   4.104  -0.966  1.00  0.00     0.207 A 
ATOM     16  C   UNL     1      -2.529   2.848  -4.481  1.00  0.00     0.044 C 
BRANCH  14  17
ATOM     17  N   UNL     1      -0.797   6.485  -1.573  1.00  0.00    -0.236 N 
ATOM     18  H   UNL     1      -1.050   7.057  -2.414  1.00  0.00     0.376 HD
ATOM     19  H   UNL     1       0.190   6.717  -1.315  1.00  0.00     0.376 HD
BRANCH  17  20
ATOM     20  N   UNL     1      -1.655   6.825  -0.508  1.00  0.00    -0.178 NA
ATOM     21  H   UNL     1      -1.461   7.819  -0.243  1.00  0.00     0.183 HD
ATOM     22  H   UNL     1      -2.643   6.800  -0.857  1.00  0.00     0.183 HD
ENDBRANCH  17  20
ENDBRANCH  14  17
BRANCH  15  23
ATOM     23  O   UNL     1       0.313   4.491   0.198  1.00  0.00    -0.501 OA
ATOM     24  H   UNL     1       0.405   5.451   0.502  1.00  0.00     0.293 HD
ENDBRANCH  15  23
ENDBRANCH   1  10
BRANCH   6  25
ATOM     25  C   UNL     1       1.707  -3.347   2.125  1.00  0.00    -0.018 A 
ATOM     26  C   UNL     1       2.971  -3.870   2.457  1.00  0.00     0.012 A 
ATOM     27  C   UNL     1       0.590  -4.203   2.149  1.00  0.00     0.012 A 
ATOM     28  C   UNL     1       3.112  -5.217   2.805  1.00  0.00     0.047 A 
ATOM     29  C   UNL     1       0.735  -5.549   2.498  1.00  0.00     0.047 A 
ATOM     30  C   UNL     1       1.994  -6.059   2.827  1.00  0.00     0.115 A 
BRANCH  30  31
ATOM     31  O   UNL     1       2.123  -7.403   3.173  1.00  0.00    -0.508 OA
ATOM     32  H   UNL     1       3.022  -7.803   3.416  1.00  0.00     0.293 HD
ENDBRANCH  30  31
ENDBRANCH   6  25
TORSDOF 6


