MODEL 1
REMARK VINA RESULT:      -5.5      0.000      0.000
REMARK SMILES C[C@H]1CC[C@H](c2ccc3ncccc3c2)[C@@H](F)N1C(=O)Oc1ccc([N+](=O)[O-])cc1
REMARK SMILES IDX 21 1 19 2 20 3 18 4 2 5 3 6 4 7 16 8 5 9 1 10 17 11 6 12
REMARK SMILES IDX 7 13 15 14 8 15 14 16 9 17 13 18 10 19 12 20 11 21 22 22
REMARK SMILES IDX 23 23 30 24 24 25 29 26 25 27 26 28 27 29 28 30
REMARK H PARENT
ROOT
ATOM      1  O   UNL     1      43.404 132.063  19.622  1.00  0.00    -0.410 OA
ENDROOT
BRANCH   1   2
ATOM      2  C   UNL     1      42.716 131.214  20.502  1.00  0.00     0.417 C 
ATOM      3  O   UNL     1      41.581 130.763  20.182  1.00  0.00    -0.224 OA
BRANCH   2   4
ATOM      4  N   UNL     1      43.328 130.822  21.750  1.00  0.00    -0.274 N 
ATOM      5  C   UNL     1      44.748 130.419  21.775  1.00  0.00     0.088 C 
ATOM      6  C   UNL     1      44.993 129.308  22.812  1.00  0.00     0.026 C 
ATOM      7  C   UNL     1      44.372 129.634  24.172  1.00  0.00     0.015 C 
ATOM      8  C   UNL     1      42.597 131.053  23.011  1.00  0.00     0.275 C 
ATOM      9  C   UNL     1      42.873 129.951  24.060  1.00  0.00     0.075 C 
ATOM     10  C   UNL     1      45.652 131.638  22.003  1.00  0.00     0.031 C 
ATOM     11  F   UNL     1      42.960 132.286  23.525  1.00  0.00    -0.223 F 
BRANCH   9  12
ATOM     12  C   UNL     1      42.040 128.687  23.866  1.00  0.00    -0.039 A 
ATOM     13  C   UNL     1      40.658 128.738  24.129  1.00  0.00     0.006 A 
ATOM     14  C   UNL     1      42.612 127.454  23.486  1.00  0.00     0.014 A 
ATOM     15  C   UNL     1      39.857 127.601  23.990  1.00  0.00     0.029 A 
ATOM     16  C   UNL     1      41.812 126.312  23.343  1.00  0.00     0.000 A 
ATOM     17  C   UNL     1      40.425 126.389  23.594  1.00  0.00     0.070 A 
ATOM     18  C   UNL     1      42.362 125.083  22.952  1.00  0.00     0.012 A 
ATOM     19  N   UNL     1      39.647 125.281  23.457  1.00  0.00    -0.256 NA
ATOM     20  C   UNL     1      41.537 123.965  22.820  1.00  0.00     0.021 A 
ATOM     21  C   UNL     1      40.170 124.084  23.078  1.00  0.00     0.112 A 
ENDBRANCH   9  12
ENDBRANCH   2   4
ENDBRANCH   1   2
BRANCH   1  22
ATOM     22  C   UNL     1      44.109 131.644  18.484  1.00  0.00     0.133 A 
ATOM     23  C   UNL     1      45.356 131.002  18.569  1.00  0.00     0.054 A 
ATOM     24  C   UNL     1      43.523 131.835  17.228  1.00  0.00     0.054 A 
ATOM     25  C   UNL     1      46.017 130.587  17.408  1.00  0.00     0.089 A 
ATOM     26  C   UNL     1      44.182 131.422  16.066  1.00  0.00     0.089 A 
ATOM     27  C   UNL     1      45.439 130.796  16.144  1.00  0.00     0.269 A 
BRANCH  27  28
ATOM     28  N   UNL     1      46.122 130.368  14.951  1.00  0.00     0.062 N 
ATOM     29  O   UNL     1      47.152 129.667  15.023  1.00  0.00    -0.258 OA
ATOM     30  O   UNL     1      45.648 130.722  13.708  1.00  0.00    -0.258 OA
ENDBRANCH  27  28
ENDBRANCH   1  22
TORSDOF 5
ENDMDL
MODEL 2
REMARK VINA RESULT:      -4.5      1.078      2.096
REMARK SMILES C[C@H]1CC[C@H](c2ccc3ncccc3c2)[C@@H](F)N1C(=O)Oc1ccc([N+](=O)[O-])cc1
REMARK SMILES IDX 21 1 19 2 20 3 18 4 2 5 3 6 4 7 16 8 5 9 1 10 17 11 6 12
REMARK SMILES IDX 7 13 15 14 8 15 14 16 9 17 13 18 10 19 12 20 11 21 22 22
REMARK SMILES IDX 23 23 30 24 24 25 29 26 25 27 26 28 27 29 28 30
REMARK H PARENT
ROOT
ATOM      1  O   UNL     1      42.332 131.162  19.960  1.00  0.00    -0.410 OA
ENDROOT
BRANCH   1   2
ATOM      2  C   UNL     1      42.465 131.853  21.173  1.00  0.00     0.417 C 
ATOM      3  O   UNL     1      41.861 132.948  21.342  1.00  0.00    -0.224 OA
BRANCH   2   4
ATOM      4  N   UNL     1      43.255 131.287  22.241  1.00  0.00    -0.274 N 
ATOM      5  C   UNL     1      44.641 130.853  21.977  1.00  0.00     0.088 C 
ATOM      6  C   UNL     1      45.004 129.611  22.811  1.00  0.00     0.026 C 
ATOM      7  C   UNL     1      44.629 129.769  24.285  1.00  0.00     0.015 C 
ATOM      8  C   UNL     1      42.751 131.366  23.626  1.00  0.00     0.275 C 
ATOM      9  C   UNL     1      43.147 130.131  24.468  1.00  0.00     0.075 C 
ATOM     10  C   UNL     1      45.622 132.012  22.201  1.00  0.00     0.031 C 
ATOM     11  F   UNL     1      43.246 132.514  24.223  1.00  0.00    -0.223 F 
BRANCH   9  12
ATOM     12  C   UNL     1      42.240 128.922  24.258  1.00  0.00    -0.039 A 
ATOM     13  C   UNL     1      42.809 127.719  23.796  1.00  0.00     0.006 A 
ATOM     14  C   UNL     1      40.844 128.978  24.456  1.00  0.00     0.014 A 
ATOM     15  C   UNL     1      42.017 126.591  23.565  1.00  0.00     0.029 A 
ATOM     16  C   UNL     1      40.046 127.848  24.228  1.00  0.00     0.000 A 
ATOM     17  C   UNL     1      40.638 126.647  23.782  1.00  0.00     0.070 A 
ATOM     18  C   UNL     1      38.660 127.883  24.434  1.00  0.00     0.012 A 
ATOM     19  N   UNL     1      39.866 125.550  23.558  1.00  0.00    -0.256 NA
ATOM     20  C   UNL     1      37.894 126.740  24.196  1.00  0.00     0.021 A 
ATOM     21  C   UNL     1      38.520 125.572  23.755  1.00  0.00     0.112 A 
ENDBRANCH   9  12
ENDBRANCH   2   4
ENDBRANCH   1   2
BRANCH   1  22
ATOM     22  C   UNL     1      43.247 131.215  18.897  1.00  0.00     0.133 A 
ATOM     23  C   UNL     1      42.876 131.636  17.609  1.00  0.00     0.054 A 
ATOM     24  C   UNL     1      44.581 130.878  19.148  1.00  0.00     0.054 A 
ATOM     25  C   UNL     1      43.824 131.688  16.583  1.00  0.00     0.089 A 
ATOM     26  C   UNL     1      45.531 130.928  18.124  1.00  0.00     0.089 A 
ATOM     27  C   UNL     1      45.161 131.331  16.828  1.00  0.00     0.269 A 
BRANCH  27  28
ATOM     28  N   UNL     1      46.136 131.386  15.769  1.00  0.00     0.062 N 
ATOM     29  O   UNL     1      46.259 132.412  15.069  1.00  0.00    -0.258 OA
ATOM     30  O   UNL     1      46.951 130.307  15.514  1.00  0.00    -0.258 OA
ENDBRANCH  27  28
ENDBRANCH   1  22
TORSDOF 5
ENDMDL
MODEL 3
REMARK VINA RESULT:      -4.2      2.035      2.800
REMARK SMILES C[C@H]1CC[C@H](c2ccc3ncccc3c2)[C@@H](F)N1C(=O)Oc1ccc([N+](=O)[O-])cc1
REMARK SMILES IDX 21 1 19 2 20 3 18 4 2 5 3 6 4 7 16 8 5 9 1 10 17 11 6 12
REMARK SMILES IDX 7 13 15 14 8 15 14 16 9 17 13 18 10 19 12 20 11 21 22 22
REMARK SMILES IDX 23 23 30 24 24 25 29 26 25 27 26 28 27 29 28 30
REMARK H PARENT
ROOT
ATOM      1  O   UNL     1      44.197 130.201  18.021  1.00  0.00    -0.410 OA
ENDROOT
BRANCH   1   2
ATOM      2  C   UNL     1      43.586 131.289  18.661  1.00  0.00     0.417 C 
ATOM      3  O   UNL     1      42.655 131.917  18.084  1.00  0.00    -0.224 OA
BRANCH   2   4
ATOM      4  N   UNL     1      43.991 131.659  19.997  1.00  0.00    -0.274 N 
ATOM      5  C   UNL     1      45.360 132.159  20.234  1.00  0.00     0.088 C 
ATOM      6  C   UNL     1      45.888 131.706  21.608  1.00  0.00     0.026 C 
ATOM      7  C   UNL     1      44.883 131.964  22.732  1.00  0.00     0.015 C 
ATOM      8  C   UNL     1      42.969 131.755  21.057  1.00  0.00     0.275 C 
ATOM      9  C   UNL     1      43.514 131.329  22.440  1.00  0.00     0.075 C 
ATOM     10  C   UNL     1      45.415 133.683  20.064  1.00  0.00     0.031 C 
ATOM     11  F   UNL     1      42.504 133.058  21.121  1.00  0.00    -0.223 F 
BRANCH   9  12
ATOM     12  C   UNL     1      43.533 129.820  22.661  1.00  0.00    -0.039 A 
ATOM     13  C   UNL     1      42.409 129.206  23.246  1.00  0.00     0.006 A 
ATOM     14  C   UNL     1      44.656 129.022  22.354  1.00  0.00     0.014 A 
ATOM     15  C   UNL     1      42.387 127.831  23.493  1.00  0.00     0.029 A 
ATOM     16  C   UNL     1      44.637 127.641  22.596  1.00  0.00     0.000 A 
ATOM     17  C   UNL     1      43.494 127.043  23.167  1.00  0.00     0.070 A 
ATOM     18  C   UNL     1      45.739 126.833  22.283  1.00  0.00     0.012 A 
ATOM     19  N   UNL     1      43.474 125.704  23.405  1.00  0.00    -0.256 NA
ATOM     20  C   UNL     1      45.688 125.462  22.538  1.00  0.00     0.021 A 
ATOM     21  C   UNL     1      44.537 124.910  23.105  1.00  0.00     0.112 A 
ENDBRANCH   9  12
ENDBRANCH   2   4
ENDBRANCH   1   2
BRANCH   1  22
ATOM     22  C   UNL     1      45.087 130.297  16.941  1.00  0.00     0.133 A 
ATOM     23  C   UNL     1      45.757 129.177  16.420  1.00  0.00     0.054 A 
ATOM     24  C   UNL     1      45.273 131.545  16.338  1.00  0.00     0.054 A 
ATOM     25  C   UNL     1      46.624 129.316  15.332  1.00  0.00     0.089 A 
ATOM     26  C   UNL     1      46.140 131.688  15.251  1.00  0.00     0.089 A 
ATOM     27  C   UNL     1      46.828 130.573  14.738  1.00  0.00     0.269 A 
BRANCH  27  28
ATOM     28  N   UNL     1      47.721 130.714  13.617  1.00  0.00     0.062 N 
ATOM     29  O   UNL     1      47.872 131.818  13.057  1.00  0.00    -0.258 OA
ATOM     30  O   UNL     1      48.428 129.630  13.146  1.00  0.00    -0.258 OA
ENDBRANCH  27  28
ENDBRANCH   1  22
TORSDOF 5
ENDMDL
MODEL 4
REMARK VINA RESULT:      -4.1      1.491      2.357
REMARK SMILES C[C@H]1CC[C@H](c2ccc3ncccc3c2)[C@@H](F)N1C(=O)Oc1ccc([N+](=O)[O-])cc1
REMARK SMILES IDX 21 1 19 2 20 3 18 4 2 5 3 6 4 7 16 8 5 9 1 10 17 11 6 12
REMARK SMILES IDX 7 13 15 14 8 15 14 16 9 17 13 18 10 19 12 20 11 21 22 22
REMARK SMILES IDX 23 23 30 24 24 25 29 26 25 27 26 28 27 29 28 30
REMARK H PARENT
ROOT
ATOM      1  O   UNL     1      43.175 131.991  17.664  1.00  0.00    -0.410 OA
ENDROOT
BRANCH   1   2
ATOM      2  C   UNL     1      42.784 131.357  18.852  1.00  0.00     0.417 C 
ATOM      3  O   UNL     1      41.839 130.519  18.836  1.00  0.00    -0.224 OA
BRANCH   2   4
ATOM      4  N   UNL     1      43.492 131.628  20.081  1.00  0.00    -0.274 N 
ATOM      5  C   UNL     1      44.949 131.863  20.050  1.00  0.00     0.088 C 
ATOM      6  C   UNL     1      45.630 131.301  21.311  1.00  0.00     0.026 C 
ATOM      7  C   UNL     1      44.917 131.727  22.596  1.00  0.00     0.015 C 
ATOM      8  C   UNL     1      42.720 131.898  21.309  1.00  0.00     0.275 C 
ATOM      9  C   UNL     1      43.425 131.361  22.576  1.00  0.00     0.075 C 
ATOM     10  C   UNL     1      45.252 133.352  19.839  1.00  0.00     0.031 C 
ATOM     11  F   UNL     1      42.524 133.263  21.430  1.00  0.00    -0.223 F 
BRANCH   9  12
ATOM     12  C   UNL     1      43.205 129.871  22.823  1.00  0.00    -0.039 A 
ATOM     13  C   UNL     1      44.297 128.992  22.684  1.00  0.00     0.006 A 
ATOM     14  C   UNL     1      41.937 129.332  23.131  1.00  0.00     0.014 A 
ATOM     15  C   UNL     1      44.141 127.616  22.875  1.00  0.00     0.029 A 
ATOM     16  C   UNL     1      41.778 127.953  23.326  1.00  0.00     0.000 A 
ATOM     17  C   UNL     1      42.888 127.092  23.199  1.00  0.00     0.070 A 
ATOM     18  C   UNL     1      40.528 127.404  23.647  1.00  0.00     0.012 A 
ATOM     19  N   UNL     1      42.735 125.753  23.387  1.00  0.00    -0.256 NA
ATOM     20  C   UNL     1      40.404 126.027  23.834  1.00  0.00     0.021 A 
ATOM     21  C   UNL     1      41.528 125.209  23.699  1.00  0.00     0.112 A 
ENDBRANCH   9  12
ENDBRANCH   2   4
ENDBRANCH   1   2
BRANCH   1  22
ATOM     22  C   UNL     1      44.174 131.529  16.794  1.00  0.00     0.133 A 
ATOM     23  C   UNL     1      45.193 132.368  16.310  1.00  0.00     0.054 A 
ATOM     24  C   UNL     1      44.175 130.177  16.437  1.00  0.00     0.054 A 
ATOM     25  C   UNL     1      46.178 131.861  15.456  1.00  0.00     0.089 A 
ATOM     26  C   UNL     1      45.157 129.668  15.583  1.00  0.00     0.089 A 
ATOM     27  C   UNL     1      46.169 130.507  15.081  1.00  0.00     0.269 A 
BRANCH  27  28
ATOM     28  N   UNL     1      47.185 129.987  14.202  1.00  0.00     0.062 N 
ATOM     29  O   UNL     1      47.603 128.819  14.331  1.00  0.00    -0.258 OA
ATOM     30  O   UNL     1      47.710 130.772  13.200  1.00  0.00    -0.258 OA
ENDBRANCH  27  28
ENDBRANCH   1  22
TORSDOF 5
ENDMDL
MODEL 5
REMARK VINA RESULT:      -3.9      1.555      2.596
REMARK SMILES C[C@H]1CC[C@H](c2ccc3ncccc3c2)[C@@H](F)N1C(=O)Oc1ccc([N+](=O)[O-])cc1
REMARK SMILES IDX 21 1 19 2 20 3 18 4 2 5 3 6 4 7 16 8 5 9 1 10 17 11 6 12
REMARK SMILES IDX 7 13 15 14 8 15 14 16 9 17 13 18 10 19 12 20 11 21 22 22
REMARK SMILES IDX 23 23 30 24 24 25 29 26 25 27 26 28 27 29 28 30
REMARK H PARENT
ROOT
ATOM      1  O   UNL     1      42.834 131.688  17.400  1.00  0.00    -0.410 OA
ENDROOT
BRANCH   1   2
ATOM      2  C   UNL     1      42.564 131.239  18.701  1.00  0.00     0.417 C 
ATOM      3  O   UNL     1      41.562 130.501  18.917  1.00  0.00    -0.224 OA
BRANCH   2   4
ATOM      4  N   UNL     1      43.457 131.584  19.782  1.00  0.00    -0.274 N 
ATOM      5  C   UNL     1      44.906 131.701  19.526  1.00  0.00     0.088 C 
ATOM      6  C   UNL     1      45.726 131.225  20.739  1.00  0.00     0.026 C 
ATOM      7  C   UNL     1      45.233 131.837  22.052  1.00  0.00     0.015 C 
ATOM      8  C   UNL     1      42.888 132.039  21.065  1.00  0.00     0.275 C 
ATOM      9  C   UNL     1      43.734 131.586  22.278  1.00  0.00     0.075 C 
ATOM     10  C   UNL     1      45.266 133.132  19.105  1.00  0.00     0.031 C 
ATOM     11  F   UNL     1      42.795 133.421  21.054  1.00  0.00    -0.223 F 
BRANCH   9  12
ATOM     12  C   UNL     1      43.462 130.152  22.722  1.00  0.00    -0.039 A 
ATOM     13  C   UNL     1      44.512 129.214  22.668  1.00  0.00     0.006 A 
ATOM     14  C   UNL     1      42.185 129.715  23.133  1.00  0.00     0.014 A 
ATOM     15  C   UNL     1      44.306 127.883  23.040  1.00  0.00     0.029 A 
ATOM     16  C   UNL     1      41.975 128.381  23.510  1.00  0.00     0.000 A 
ATOM     17  C   UNL     1      43.045 127.461  23.465  1.00  0.00     0.070 A 
ATOM     18  C   UNL     1      40.716 127.935  23.934  1.00  0.00     0.012 A 
ATOM     19  N   UNL     1      42.843 126.166  23.829  1.00  0.00    -0.256 NA
ATOM     20  C   UNL     1      40.541 126.600  24.302  1.00  0.00     0.021 A 
ATOM     21  C   UNL     1      41.626 125.722  24.243  1.00  0.00     0.112 A 
ENDBRANCH   9  12
ENDBRANCH   2   4
ENDBRANCH   1   2
BRANCH   1  22
ATOM     22  C   UNL     1      43.941 131.305  16.629  1.00  0.00     0.133 A 
ATOM     23  C   UNL     1      44.826 130.292  17.037  1.00  0.00     0.054 A 
ATOM     24  C   UNL     1      44.138 131.926  15.391  1.00  0.00     0.054 A 
ATOM     25  C   UNL     1      45.908 129.933  16.228  1.00  0.00     0.089 A 
ATOM     26  C   UNL     1      45.220 131.570  14.581  1.00  0.00     0.089 A 
ATOM     27  C   UNL     1      46.120 130.569  14.993  1.00  0.00     0.269 A 
BRANCH  27  28
ATOM     28  N   UNL     1      47.235 130.197  14.162  1.00  0.00     0.062 N 
ATOM     29  O   UNL     1      47.806 131.043  13.444  1.00  0.00    -0.258 OA
ATOM     30  O   UNL     1      47.694 128.899  14.149  1.00  0.00    -0.258 OA
ENDBRANCH  27  28
ENDBRANCH   1  22
TORSDOF 5
ENDMDL
MODEL 6
REMARK VINA RESULT:      -3.8      1.240      1.535
REMARK SMILES C[C@H]1CC[C@H](c2ccc3ncccc3c2)[C@@H](F)N1C(=O)Oc1ccc([N+](=O)[O-])cc1
REMARK SMILES IDX 21 1 19 2 20 3 18 4 2 5 3 6 4 7 16 8 5 9 1 10 17 11 6 12
REMARK SMILES IDX 7 13 15 14 8 15 14 16 9 17 13 18 10 19 12 20 11 21 22 22
REMARK SMILES IDX 23 23 30 24 24 25 29 26 25 27 26 28 27 29 28 30
REMARK H PARENT
ROOT
ATOM      1  O   UNL     1      45.132 131.186  19.791  1.00  0.00    -0.410 OA
ENDROOT
BRANCH   1   2
ATOM      2  C   UNL     1      43.836 131.233  20.323  1.00  0.00     0.417 C 
ATOM      3  O   UNL     1      42.838 131.230  19.549  1.00  0.00    -0.224 OA
BRANCH   2   4
ATOM      4  N   UNL     1      43.644 131.237  21.754  1.00  0.00    -0.274 N 
ATOM      5  C   UNL     1      44.780 131.545  22.644  1.00  0.00     0.088 C 
ATOM      6  C   UNL     1      44.701 130.732  23.950  1.00  0.00     0.026 C 
ATOM      7  C   UNL     1      43.315 130.801  24.595  1.00  0.00     0.015 C 
ATOM      8  C   UNL     1      42.273 131.165  22.295  1.00  0.00     0.275 C 
ATOM      9  C   UNL     1      42.204 130.376  23.623  1.00  0.00     0.075 C 
ATOM     10  C   UNL     1      44.870 133.055  22.903  1.00  0.00     0.031 C 
ATOM     11  F   UNL     1      41.796 132.450  22.493  1.00  0.00    -0.223 F 
BRANCH   9  12
ATOM     12  C   UNL     1      42.160 128.861  23.442  1.00  0.00    -0.039 A 
ATOM     13  C   UNL     1      40.934 128.192  23.619  1.00  0.00     0.006 A 
ATOM     14  C   UNL     1      43.313 128.098  23.160  1.00  0.00     0.014 A 
ATOM     15  C   UNL     1      40.847 126.804  23.490  1.00  0.00     0.029 A 
ATOM     16  C   UNL     1      43.230 126.705  23.026  1.00  0.00     0.000 A 
ATOM     17  C   UNL     1      41.988 126.056  23.190  1.00  0.00     0.070 A 
ATOM     18  C   UNL     1      44.363 125.934  22.731  1.00  0.00     0.012 A 
ATOM     19  N   UNL     1      41.905 124.704  23.062  1.00  0.00    -0.256 NA
ATOM     20  C   UNL     1      44.246 124.549  22.605  1.00  0.00     0.021 A 
ATOM     21  C   UNL     1      42.998 123.946  22.776  1.00  0.00     0.112 A 
ENDBRANCH   9  12
ENDBRANCH   2   4
ENDBRANCH   1   2
BRANCH   1  22
ATOM     22  C   UNL     1      45.443 130.959  18.442  1.00  0.00     0.133 A 
ATOM     23  C   UNL     1      46.147 129.819  18.017  1.00  0.00     0.054 A 
ATOM     24  C   UNL     1      44.994 131.880  17.490  1.00  0.00     0.054 A 
ATOM     25  C   UNL     1      46.422 129.625  16.659  1.00  0.00     0.089 A 
ATOM     26  C   UNL     1      45.268 131.689  16.132  1.00  0.00     0.089 A 
ATOM     27  C   UNL     1      45.989 130.559  15.703  1.00  0.00     0.269 A 
BRANCH  27  28
ATOM     28  N   UNL     1      46.273 130.357  14.306  1.00  0.00     0.062 N 
ATOM     29  O   UNL     1      46.786 129.291  13.907  1.00  0.00    -0.258 OA
ATOM     30  O   UNL     1      45.981 131.336  13.384  1.00  0.00    -0.258 OA
ENDBRANCH  27  28
ENDBRANCH   1  22
TORSDOF 5
ENDMDL
MODEL 7
REMARK VINA RESULT:      -3.8      1.667      2.757
REMARK SMILES C[C@H]1CC[C@H](c2ccc3ncccc3c2)[C@@H](F)N1C(=O)Oc1ccc([N+](=O)[O-])cc1
REMARK SMILES IDX 21 1 19 2 20 3 18 4 2 5 3 6 4 7 16 8 5 9 1 10 17 11 6 12
REMARK SMILES IDX 7 13 15 14 8 15 14 16 9 17 13 18 10 19 12 20 11 21 22 22
REMARK SMILES IDX 23 23 30 24 24 25 29 26 25 27 26 28 27 29 28 30
REMARK H PARENT
ROOT
ATOM      1  O   UNL     1      43.836 130.211  17.991  1.00  0.00    -0.410 OA
ENDROOT
BRANCH   1   2
ATOM      2  C   UNL     1      43.300 131.307  18.684  1.00  0.00     0.417 C 
ATOM      3  O   UNL     1      42.327 131.945  18.194  1.00  0.00    -0.224 OA
BRANCH   2   4
ATOM      4  N   UNL     1      43.831 131.673  19.976  1.00  0.00    -0.274 N 
ATOM      5  C   UNL     1      45.244 132.083  20.097  1.00  0.00     0.088 C 
ATOM      6  C   UNL     1      45.845 131.619  21.437  1.00  0.00     0.026 C 
ATOM      7  C   UNL     1      44.949 131.965  22.628  1.00  0.00     0.015 C 
ATOM      8  C   UNL     1      42.902 131.856  21.108  1.00  0.00     0.275 C 
ATOM      9  C   UNL     1      43.523 131.419  22.455  1.00  0.00     0.075 C 
ATOM     10  C   UNL     1      45.387 133.596  19.888  1.00  0.00     0.031 C 
ATOM     11  F   UNL     1      42.531 133.189  21.177  1.00  0.00    -0.223 F 
BRANCH   9  12
ATOM     12  C   UNL     1      43.458 129.916  22.709  1.00  0.00    -0.039 A 
ATOM     13  C   UNL     1      44.613 129.140  22.487  1.00  0.00     0.006 A 
ATOM     14  C   UNL     1      42.270 129.264  23.104  1.00  0.00     0.014 A 
ATOM     15  C   UNL     1      44.597 127.756  22.680  1.00  0.00     0.029 A 
ATOM     16  C   UNL     1      42.251 127.877  23.303  1.00  0.00     0.000 A 
ATOM     17  C   UNL     1      43.424 127.120  23.091  1.00  0.00     0.070 A 
ATOM     18  C   UNL     1      41.083 127.217  23.709  1.00  0.00     0.012 A 
ATOM     19  N   UNL     1      43.407 125.773  23.282  1.00  0.00    -0.256 NA
ATOM     20  C   UNL     1      41.099 125.834  23.897  1.00  0.00     0.021 A 
ATOM     21  C   UNL     1      42.280 125.122  23.677  1.00  0.00     0.112 A 
ENDBRANCH   9  12
ENDBRANCH   2   4
ENDBRANCH   1   2
BRANCH   1  22
ATOM     22  C   UNL     1      44.725 130.297  16.910  1.00  0.00     0.133 A 
ATOM     23  C   UNL     1      44.383 130.938  15.707  1.00  0.00     0.054 A 
ATOM     24  C   UNL     1      46.010 129.765  17.059  1.00  0.00     0.054 A 
ATOM     25  C   UNL     1      45.307 131.014  14.660  1.00  0.00     0.089 A 
ATOM     26  C   UNL     1      46.936 129.839  16.014  1.00  0.00     0.089 A 
ATOM     27  C   UNL     1      46.592 130.462  14.801  1.00  0.00     0.269 A 
BRANCH  27  28
ATOM     28  N   UNL     1      47.541 130.542  13.721  1.00  0.00     0.062 N 
ATOM     29  O   UNL     1      47.615 131.566  13.011  1.00  0.00    -0.258 OA
ATOM     30  O   UNL     1      48.388 129.490  13.456  1.00  0.00    -0.258 OA
ENDBRANCH  27  28
ENDBRANCH   1  22
TORSDOF 5
ENDMDL
MODEL 8
REMARK VINA RESULT:      -3.7      1.408      2.194
REMARK SMILES C[C@H]1CC[C@H](c2ccc3ncccc3c2)[C@@H](F)N1C(=O)Oc1ccc([N+](=O)[O-])cc1
REMARK SMILES IDX 21 1 19 2 20 3 18 4 2 5 3 6 4 7 16 8 5 9 1 10 17 11 6 12
REMARK SMILES IDX 7 13 15 14 8 15 14 16 9 17 13 18 10 19 12 20 11 21 22 22
REMARK SMILES IDX 23 23 30 24 24 25 29 26 25 27 26 28 27 29 28 30
REMARK H PARENT
ROOT
ATOM      1  O   UNL     1      43.113 132.744  20.825  1.00  0.00    -0.410 OA
ENDROOT
BRANCH   1   2
ATOM      2  C   UNL     1      42.674 131.903  21.859  1.00  0.00     0.417 C 
ATOM      3  O   UNL     1      41.471 131.949  22.239  1.00  0.00    -0.224 OA
BRANCH   2   4
ATOM      4  N   UNL     1      43.587 130.956  22.454  1.00  0.00    -0.274 N 
ATOM      5  C   UNL     1      44.672 130.373  21.638  1.00  0.00     0.088 C 
ATOM      6  C   UNL     1      44.952 128.915  22.046  1.00  0.00     0.026 C 
ATOM      7  C   UNL     1      45.099 128.751  23.560  1.00  0.00     0.015 C 
ATOM      8  C   UNL     1      43.569 130.762  23.916  1.00  0.00     0.275 C 
ATOM      9  C   UNL     1      43.884 129.303  24.320  1.00  0.00     0.075 C 
ATOM     10  C   UNL     1      45.930 131.249  21.707  1.00  0.00     0.031 C 
ATOM     11  F   UNL     1      44.492 131.615  24.497  1.00  0.00    -0.223 F 
BRANCH   9  12
ATOM     12  C   UNL     1      42.686 128.363  24.230  1.00  0.00    -0.039 A 
ATOM     13  C   UNL     1      42.901 127.025  23.845  1.00  0.00     0.006 A 
ATOM     14  C   UNL     1      41.363 128.796  24.463  1.00  0.00     0.014 A 
ATOM     15  C   UNL     1      41.833 126.132  23.722  1.00  0.00     0.029 A 
ATOM     16  C   UNL     1      40.289 127.901  24.344  1.00  0.00     0.000 A 
ATOM     17  C   UNL     1      40.528 126.561  23.974  1.00  0.00     0.070 A 
ATOM     18  C   UNL     1      38.971 128.312  24.587  1.00  0.00     0.012 A 
ATOM     19  N   UNL     1      39.488 125.692  23.857  1.00  0.00    -0.256 NA
ATOM     20  C   UNL     1      37.925 127.397  24.459  1.00  0.00     0.021 A 
ATOM     21  C   UNL     1      38.205 126.079  24.090  1.00  0.00     0.112 A 
ENDBRANCH   9  12
ENDBRANCH   2   4
ENDBRANCH   1   2
BRANCH   1  22
ATOM     22  C   UNL     1      43.453 132.322  19.532  1.00  0.00     0.133 A 
ATOM     23  C   UNL     1      44.788 132.222  19.102  1.00  0.00     0.054 A 
ATOM     24  C   UNL     1      42.425 131.945  18.661  1.00  0.00     0.054 A 
ATOM     25  C   UNL     1      45.082 131.782  17.808  1.00  0.00     0.089 A 
ATOM     26  C   UNL     1      42.716 131.506  17.366  1.00  0.00     0.089 A 
ATOM     27  C   UNL     1      44.050 131.422  16.925  1.00  0.00     0.269 A 
BRANCH  27  28
ATOM     28  N   UNL     1      44.355 130.969  15.592  1.00  0.00     0.062 N 
ATOM     29  O   UNL     1      44.451 131.781  14.649  1.00  0.00    -0.258 OA
ATOM     30  O   UNL     1      44.550 129.631  15.337  1.00  0.00    -0.258 OA
ENDBRANCH  27  28
ENDBRANCH   1  22
TORSDOF 5
ENDMDL
MODEL 9
REMARK VINA RESULT:      -3.0      2.000      3.065
REMARK SMILES C[C@H]1CC[C@H](c2ccc3ncccc3c2)[C@@H](F)N1C(=O)Oc1ccc([N+](=O)[O-])cc1
REMARK SMILES IDX 21 1 19 2 20 3 18 4 2 5 3 6 4 7 16 8 5 9 1 10 17 11 6 12
REMARK SMILES IDX 7 13 15 14 8 15 14 16 9 17 13 18 10 19 12 20 11 21 22 22
REMARK SMILES IDX 23 23 30 24 24 25 29 26 25 27 26 28 27 29 28 30
REMARK H PARENT
ROOT
ATOM      1  O   UNL     1      42.804 131.058  17.089  1.00  0.00    -0.410 OA
ENDROOT
BRANCH   1   2
ATOM      2  C   UNL     1      42.859 131.699  18.335  1.00  0.00     0.417 C 
ATOM      3  O   UNL     1      41.847 132.315  18.771  1.00  0.00    -0.224 OA
BRANCH   2   4
ATOM      4  N   UNL     1      44.057 131.612  19.137  1.00  0.00    -0.274 N 
ATOM      5  C   UNL     1      45.278 131.011  18.566  1.00  0.00     0.088 C 
ATOM      6  C   UNL     1      46.075 130.245  19.639  1.00  0.00     0.026 C 
ATOM      7  C   UNL     1      46.274 131.067  20.914  1.00  0.00     0.015 C 
ATOM      8  C   UNL     1      44.112 132.332  20.424  1.00  0.00     0.275 C 
ATOM      9  C   UNL     1      44.941 131.575  21.487  1.00  0.00     0.075 C 
ATOM     10  C   UNL     1      46.127 132.077  17.862  1.00  0.00     0.031 C 
ATOM     11  F   UNL     1      44.659 133.588  20.217  1.00  0.00    -0.223 F 
BRANCH   9  12
ATOM     12  C   UNL     1      44.172 130.464  22.197  1.00  0.00    -0.039 A 
ATOM     13  C   UNL     1      42.808 130.663  22.488  1.00  0.00     0.006 A 
ATOM     14  C   UNL     1      44.788 129.268  22.623  1.00  0.00     0.014 A 
ATOM     15  C   UNL     1      42.067 129.687  23.160  1.00  0.00     0.029 A 
ATOM     16  C   UNL     1      44.047 128.285  23.294  1.00  0.00     0.000 A 
ATOM     17  C   UNL     1      42.677 128.497  23.561  1.00  0.00     0.070 A 
ATOM     18  C   UNL     1      44.641 127.085  23.711  1.00  0.00     0.012 A 
ATOM     19  N   UNL     1      41.957 127.545  24.213  1.00  0.00    -0.256 NA
ATOM     20  C   UNL     1      43.874 126.128  24.377  1.00  0.00     0.021 A 
ATOM     21  C   UNL     1      42.522 126.376  24.621  1.00  0.00     0.112 A 
ENDBRANCH   9  12
ENDBRANCH   2   4
ENDBRANCH   1   2
BRANCH   1  22
ATOM     22  C   UNL     1      43.902 130.844  16.243  1.00  0.00     0.133 A 
ATOM     23  C   UNL     1      44.353 131.820  15.338  1.00  0.00     0.054 A 
ATOM     24  C   UNL     1      44.593 129.632  16.342  1.00  0.00     0.054 A 
ATOM     25  C   UNL     1      45.462 131.569  14.524  1.00  0.00     0.089 A 
ATOM     26  C   UNL     1      45.701 129.378  15.528  1.00  0.00     0.089 A 
ATOM     27  C   UNL     1      46.146 130.344  14.607  1.00  0.00     0.269 A 
BRANCH  27  28
ATOM     28  N   UNL     1      47.288 130.088  13.768  1.00  0.00     0.062 N 
ATOM     29  O   UNL     1      47.798 128.950  13.715  1.00  0.00    -0.258 OA
ATOM     30  O   UNL     1      47.836 131.095  13.007  1.00  0.00    -0.258 OA
ENDBRANCH  27  28
ENDBRANCH   1  22
TORSDOF 5
ENDMDL


