REMARK SMILES O=C(c1cscn1)N1C[C@@H]2CCCC[C@@H]2N[C@@H]1c1ccc2[nH]ccc2c1
REMARK SMILES IDX 8 1 9 2 10 3 11 4 12 5 13 6 14 7 15 8 16 9 17 10 2 12 1 13
REMARK SMILES IDX 3 14 4 15 7 16 5 17 6 18 18 19 19 20 26 21 20 22 25 23 21 24
REMARK SMILES IDX 24 25 22 26 23 27
REMARK H PARENT 16 11 22 28
ROOT
ATOM      1  N   UNL     1       0.937  -0.187   1.099  1.00  0.00    -0.317 N 
ATOM      2  C   UNL     1       0.370  -0.052   2.450  1.00  0.00     0.127 C 
ATOM      3  C   UNL     1      -0.125   1.386   2.762  1.00  0.00     0.026 C 
ATOM      4  C   UNL     1      -1.603   1.353   3.216  1.00  0.00     0.007 C 
ATOM      5  C   UNL     1      -2.155   2.757   3.467  1.00  0.00     0.000 C 
ATOM      6  C   UNL     1      -2.017   3.620   2.212  1.00  0.00     0.002 C 
ATOM      7  C   UNL     1      -0.549   3.711   1.786  1.00  0.00     0.019 C 
ATOM      8  C   UNL     1       0.078   2.321   1.549  1.00  0.00     0.060 C 
ATOM      9  N   UNL     1      -0.483   1.668   0.360  1.00  0.00    -0.290 NA
ATOM     10  C   UNL     1       0.372   0.543  -0.059  1.00  0.00     0.185 C 
ATOM     11  H   UNL     1      -0.513   2.355  -0.430  1.00  0.00     0.125 HD
ENDROOT
BRANCH   1  12
ATOM     12  C   UNL     1       1.869  -1.258   0.863  1.00  0.00     0.274 C 
ATOM     13  O   UNL     1       1.622  -2.407   1.319  1.00  0.00    -0.267 OA
BRANCH  12  14
ATOM     14  C   UNL     1       3.110  -1.043   0.099  1.00  0.00     0.139 A 
ATOM     15  C   UNL     1       3.719   0.202  -0.049  1.00  0.00     0.100 A 
ATOM     16  N   UNL     1       3.773  -2.079  -0.483  1.00  0.00    -0.240 NA
ATOM     17  S   UNL     1       5.116  -0.021  -0.956  1.00  0.00    -0.130 S 
ATOM     18  C   UNL     1       4.898  -1.679  -1.114  1.00  0.00     0.176 A 
ENDBRANCH  12  14
ENDBRANCH   1  12
BRANCH  10  19
ATOM     19  C   UNL     1      -0.430  -0.404  -0.920  1.00  0.00    -0.010 A 
ATOM     20  C   UNL     1       0.069  -0.812  -2.186  1.00  0.00     0.009 A 
ATOM     21  C   UNL     1      -1.655  -0.931  -0.450  1.00  0.00     0.017 A 
ATOM     22  C   UNL     1      -0.650  -1.721  -2.983  1.00  0.00     0.027 A 
ATOM     23  C   UNL     1      -2.339  -1.828  -1.265  1.00  0.00    -0.000 A 
ATOM     24  C   UNL     1      -1.856  -2.209  -2.488  1.00  0.00     0.045 A 
ATOM     25  C   UNL     1      -3.532  -2.488  -1.069  1.00  0.00     0.028 A 
ATOM     26  N   UNL     1      -2.688  -3.081  -3.079  1.00  0.00    -0.361 N 
ATOM     27  C   UNL     1      -3.715  -3.255  -2.215  1.00  0.00     0.083 A 
ATOM     28  H   UNL     1      -2.570  -3.536  -4.011  1.00  0.00     0.166 HD
ENDBRANCH  10  19
TORSDOF 3


