REMARK SMILES Cc1cc(F)c(C/C=C(\[O-])c2ccccc2)c(F)c1
REMARK SMILES IDX 8 1 9 2 10 3 11 4 12 5 16 6 13 7 15 8 14 9 7 10 6 11 4 12
REMARK SMILES IDX 17 13 3 14 19 15 2 16 5 17 18 18 1 19
REMARK H PARENT
ROOT
ATOM      1  C   UNL     1       0.699  -1.421   0.882  1.00  0.00    -0.030 C 
ENDROOT
BRANCH   1   2
ATOM      2  C   UNL     1       1.457  -0.829  -0.055  1.00  0.00    -0.105 C 
ATOM      3  O   UNL     1       1.093  -0.928  -1.395  1.00  0.00    -0.872 OA
BRANCH   2   4
ATOM      4  C   UNL     1       2.695  -0.085   0.291  1.00  0.00    -0.034 A 
ATOM      5  C   UNL     1       2.841   0.584   1.524  1.00  0.00     0.007 A 
ATOM      6  C   UNL     1       3.740  -0.009  -0.648  1.00  0.00     0.007 A 
ATOM      7  C   UNL     1       4.014   1.287   1.813  1.00  0.00     0.001 A 
ATOM      8  C   UNL     1       4.911   0.695  -0.353  1.00  0.00     0.001 A 
ATOM      9  C   UNL     1       5.049   1.341   0.877  1.00  0.00     0.000 A 
ENDBRANCH   2   4
ENDBRANCH   1   2
BRANCH   1  10
ATOM     10  C   UNL     1      -0.569  -2.159   0.550  1.00  0.00     0.068 C 
BRANCH  10  11
ATOM     11  C   UNL     1      -1.680  -1.196   0.206  1.00  0.00     0.027 A 
ATOM     12  C   UNL     1      -2.248  -0.389   1.210  1.00  0.00     0.129 A 
ATOM     13  C   UNL     1      -2.154  -1.082  -1.114  1.00  0.00     0.129 A 
ATOM     14  C   UNL     1      -3.266   0.516   0.897  1.00  0.00     0.043 A 
ATOM     15  C   UNL     1      -3.173  -0.175  -1.421  1.00  0.00     0.043 A 
ATOM     16  C   UNL     1      -3.723   0.641  -0.423  1.00  0.00    -0.045 A 
ATOM     17  F   UNL     1      -1.817  -0.481   2.494  1.00  0.00    -0.207 F 
ATOM     18  F   UNL     1      -1.640  -1.852  -2.107  1.00  0.00    -0.207 F 
ATOM     19  C   UNL     1      -4.842   1.585  -0.749  1.00  0.00     0.044 C 
ENDBRANCH  10  11
ENDBRANCH   1  10
TORSDOF 4


