REMARK SMILES N#Cc1[nH+]c2cnc(/N=C3\[CH]C=CC3)cc2cc1-c1ccc([O-])cc1
REMARK SMILES IDX 8 1 7 2 6 3 5 4 16 5 15 6 17 7 18 8 3 9 4 10 9 12 10 13
REMARK SMILES IDX 11 14 12 15 13 16 14 17 19 18 20 19 25 20 21 21 24 22 22 23
REMARK SMILES IDX 23 24 2 25 1 26
REMARK H PARENT 4 11
ROOT
ATOM      1  C   UNL     1      -2.619   1.078   0.269  1.00  0.00     0.152 A 
ATOM      2  N   UNL     1      -2.457   2.056   1.201  1.00  0.00    -0.230 NA
ATOM      3  C   UNL     1      -1.234   2.412   1.675  1.00  0.00     0.193 A 
ATOM      4  C   UNL     1      -0.081   1.778   1.193  1.00  0.00     0.230 A 
ATOM      5  C   UNL     1      -0.214   0.782   0.208  1.00  0.00     0.052 A 
ATOM      6  C   UNL     1      -1.487   0.437  -0.264  1.00  0.00     0.064 A 
ATOM      7  C   UNL     1       0.935   0.159  -0.287  1.00  0.00     0.031 A 
ATOM      8  C   UNL     1       2.201   0.523   0.193  1.00  0.00     0.066 A 
ATOM      9  C   UNL     1       2.288   1.520   1.193  1.00  0.00     0.290 A 
ATOM     10  N   UNL     1       1.154   2.119   1.660  1.00  0.00    -0.194 N 
ATOM     11  H   UNL     1       1.237   2.854   2.400  1.00  0.00     0.455 HD
ENDROOT
BRANCH   1  12
ATOM     12  N   UNL     1      -3.945   0.790  -0.202  1.00  0.00    -0.237 NA
BRANCH  12  13
ATOM     13  C   UNL     1      -4.418  -0.382  -0.515  1.00  0.00     0.032 C 
ATOM     14  C   UNL     1      -3.714  -1.684  -0.317  1.00  0.00     0.069 C 
ATOM     15  C   UNL     1      -4.761  -2.654  -0.747  1.00  0.00    -0.020 C 
ATOM     16  C   UNL     1      -5.887  -2.054  -1.122  1.00  0.00    -0.025 C 
ATOM     17  C   UNL     1      -5.806  -0.571  -1.014  1.00  0.00     0.079 C 
ENDBRANCH  12  13
ENDBRANCH   1  12
BRANCH   8  18
ATOM     18  C   UNL     1       3.403  -0.149  -0.360  1.00  0.00    -0.011 A 
ATOM     19  C   UNL     1       4.449   0.604  -0.922  1.00  0.00     0.008 A 
ATOM     20  C   UNL     1       3.491  -1.552  -0.358  1.00  0.00     0.008 A 
ATOM     21  C   UNL     1       5.572  -0.037  -1.454  1.00  0.00    -0.008 A 
ATOM     22  C   UNL     1       4.616  -2.189  -0.891  1.00  0.00    -0.008 A 
ATOM     23  C   UNL     1       5.657  -1.433  -1.438  1.00  0.00    -0.109 A 
ATOM     24  O   UNL     1       6.774  -2.068  -1.967  1.00  0.00    -0.872 OA
ENDBRANCH   8  18
BRANCH   9  25
ATOM     25  C   UNL     1       3.559   1.891   1.770  1.00  0.00     0.170 C 
ATOM     26  N   UNL     1       4.577   2.188   2.234  1.00  0.00    -0.186 NA
ENDBRANCH   9  25
TORSDOF 4


