REMARK SMILES CCOC(=O)N(c1ccc(C)c(F)c1)c1cccc(N)c1[O-]
REMARK SMILES IDX 4 1 5 2 3 3 2 4 1 5 6 6 7 7 8 8 14 9 9 10 12 11 10 12 13 13
REMARK SMILES IDX 11 14 15 15 16 16 21 17 17 18 19 19 18 20 22 21 20 22
REMARK H PARENT 20 23 20 24
ROOT
ATOM      1  C   UNL     1      -0.830  -1.342  -1.562  1.00  0.00     0.418 C 
ATOM      2  O   UNL     1      -1.869  -0.850  -2.084  1.00  0.00    -0.224 OA
ENDROOT
BRANCH   1   3
ATOM      3  O   UNL     1      -0.243  -2.487  -2.112  1.00  0.00    -0.449 OA
BRANCH   3   4
ATOM      4  C   UNL     1      -0.760  -3.138  -3.267  1.00  0.00     0.231 C 
ATOM      5  C   UNL     1       0.116  -4.331  -3.612  1.00  0.00     0.049 C 
ENDBRANCH   3   4
ENDBRANCH   1   3
BRANCH   1   6
ATOM      6  N   UNL     1      -0.235  -0.720  -0.407  1.00  0.00    -0.247 N 
BRANCH   6   7
ATOM      7  C   UNL     1      -0.984   0.214   0.400  1.00  0.00     0.055 A 
ATOM      8  C   UNL     1      -0.377   1.392   0.864  1.00  0.00     0.027 A 
ATOM      9  C   UNL     1      -2.315  -0.057   0.761  1.00  0.00     0.066 A 
ATOM     10  C   UNL     1      -1.092   2.292   1.659  1.00  0.00     0.008 A 
ATOM     11  C   UNL     1      -3.031   0.843   1.557  1.00  0.00     0.128 A 
ATOM     12  C   UNL     1      -2.428   2.031   2.000  1.00  0.00    -0.015 A 
ATOM     13  F   UNL     1      -4.311   0.551   1.901  1.00  0.00    -0.207 F 
ATOM     14  C   UNL     1      -3.186   2.983   2.878  1.00  0.00     0.047 C 
ENDBRANCH   6   7
BRANCH   6  15
ATOM     15  C   UNL     1       1.109  -1.070  -0.023  1.00  0.00     0.047 A 
ATOM     16  C   UNL     1       1.365  -1.525   1.280  1.00  0.00     0.026 A 
ATOM     17  C   UNL     1       2.176  -0.944  -0.935  1.00  0.00    -0.060 A 
ATOM     18  C   UNL     1       2.661  -1.870   1.665  1.00  0.00     0.004 A 
ATOM     19  C   UNL     1       3.482  -1.298  -0.546  1.00  0.00     0.025 A 
ATOM     20  C   UNL     1       3.715  -1.761   0.756  1.00  0.00     0.025 A 
ATOM     21  O   UNL     1       1.942  -0.453  -2.215  1.00  0.00    -0.870 OA
BRANCH  19  22
ATOM     22  N   UNL     1       4.575  -1.183  -1.464  1.00  0.00    -0.399 N 
ATOM     23  H   UNL     1       5.544  -1.441  -1.173  1.00  0.00     0.156 HD
ATOM     24  H   UNL     1       4.431  -0.842  -2.440  1.00  0.00     0.156 HD
ENDBRANCH  19  22
ENDBRANCH   6  15
ENDBRANCH   1   6
TORSDOF 6


