REMARK SMILES C=C/C(C)=C(/O)Nc1cccc(N[C@@H]2CCC(=C)[C@H](F)C2)c1[O-]
REMARK SMILES IDX 7 1 5 3 6 4 3 6 4 7 2 8 1 9 8 10 9 11 22 12 10 13 12 14
REMARK SMILES IDX 11 15 23 16 13 17 14 19 15 20 21 21 16 22 19 23 17 24 20 25
REMARK SMILES IDX 18 26
REMARK H PARENT 7 2 6 5 13 18
ROOT
ATOM      1  N   UNL     1      -0.363   3.457   0.179  1.00  0.00    -0.327 N 
ATOM      2  H   UNL     1      -0.305   4.341   0.733  1.00  0.00     0.170 HD
ENDROOT
BRANCH   1   3
ATOM      3  C   UNL     1      -0.694   3.547  -1.219  1.00  0.00     0.191 C 
BRANCH   3   4
ATOM      4  O   UNL     1      -0.008   2.748  -2.137  1.00  0.00    -0.494 OA
ATOM      5  H   UNL     1       0.744   2.133  -1.851  1.00  0.00     0.295 HD
ENDBRANCH   3   4
BRANCH   3   6
ATOM      6  C   UNL     1      -1.631   4.414  -1.662  1.00  0.00     0.008 C 
ATOM      7  C   UNL     1      -1.899   4.537  -3.144  1.00  0.00     0.050 C 
BRANCH   6   8
ATOM      8  C   UNL     1      -2.392   5.263  -0.707  1.00  0.00     0.001 C 
ATOM      9  C   UNL     1      -2.909   6.445  -1.040  1.00  0.00     0.009 C 
ENDBRANCH   6   8
ENDBRANCH   3   6
ENDBRANCH   1   3
BRANCH   1  10
ATOM     10  C   UNL     1       0.114   2.249   0.796  1.00  0.00     0.035 A 
ATOM     11  C   UNL     1       1.139   2.330   1.746  1.00  0.00     0.025 A 
ATOM     12  C   UNL     1      -0.459   0.994   0.499  1.00  0.00    -0.061 A 
ATOM     13  C   UNL     1       1.622   1.177   2.364  1.00  0.00     0.004 A 
ATOM     14  C   UNL     1       0.034  -0.176   1.111  1.00  0.00     0.028 A 
ATOM     15  C   UNL     1       1.079  -0.069   2.048  1.00  0.00     0.025 A 
ATOM     16  O   UNL     1      -1.523   0.909  -0.393  1.00  0.00    -0.870 OA
BRANCH  14  17
ATOM     17  N   UNL     1      -0.559  -1.452   0.790  1.00  0.00    -0.383 N 
ATOM     18  H   UNL     1      -1.530  -1.446   0.405  1.00  0.00     0.160 HD
BRANCH  17  19
ATOM     19  C   UNL     1       0.115  -2.748   0.973  1.00  0.00     0.082 C 
ATOM     20  C   UNL     1       1.390  -2.843   0.109  1.00  0.00     0.029 C 
ATOM     21  C   UNL     1      -0.833  -3.929   0.657  1.00  0.00     0.067 C 
ATOM     22  C   UNL     1       1.067  -2.864  -1.387  1.00  0.00     0.035 C 
ATOM     23  C   UNL     1      -1.158  -4.088  -0.841  1.00  0.00     0.194 C 
ATOM     24  C   UNL     1       0.083  -3.965  -1.694  1.00  0.00    -0.043 C 
ATOM     25  F   UNL     1      -2.081  -3.139  -1.242  1.00  0.00    -0.243 F 
ATOM     26  C   UNL     1       0.223  -4.711  -2.800  1.00  0.00     0.011 C 
ENDBRANCH  17  19
ENDBRANCH  14  17
ENDBRANCH   1  10
TORSDOF 7


