REMARK SMILES [NH3+]CCc1ccc(-c2cnc3cc[nH+]n3c2)cc1
REMARK SMILES IDX 3 1 2 2 1 3 4 7 5 8 18 9 6 10 17 11 7 12 8 13 9 14 16 15
REMARK SMILES IDX 10 16 15 17 11 18 14 19 12 20 13 21
REMARK H PARENT 1 4 1 5 1 6 14 22
ROOT
ATOM      1  C   UNL     1      -2.275  -3.406   1.729  1.00  0.00     0.096 C 
ENDROOT
BRANCH   1   2
ATOM      2  C   UNL     1      -1.722  -4.611   0.952  1.00  0.00     0.263 C 
BRANCH   2   3
ATOM      3  N   UNL     1      -2.014  -4.517  -0.479  1.00  0.00    -0.357 N 
ATOM      4  H   UNL     1      -1.708  -5.401  -0.947  1.00  0.00     0.344 HD
ATOM      5  H   UNL     1      -1.491  -3.719  -0.905  1.00  0.00     0.344 HD
ATOM      6  H   UNL     1      -3.041  -4.393  -0.633  1.00  0.00     0.344 HD
ENDBRANCH   2   3
ENDBRANCH   1   2
BRANCH   1   7
ATOM      7  C   UNL     1      -1.574  -2.125   1.355  1.00  0.00    -0.042 A 
ATOM      8  C   UNL     1      -2.158  -1.237   0.439  1.00  0.00     0.004 A 
ATOM      9  C   UNL     1      -0.313  -1.828   1.891  1.00  0.00     0.004 A 
ATOM     10  C   UNL     1      -1.494  -0.063   0.073  1.00  0.00     0.009 A 
ATOM     11  C   UNL     1       0.351  -0.653   1.527  1.00  0.00     0.009 A 
ATOM     12  C   UNL     1      -0.232   0.244   0.614  1.00  0.00    -0.015 A 
BRANCH  12  13
ATOM     13  C   UNL     1       0.474   1.491   0.225  1.00  0.00     0.022 A 
ATOM     14  C   UNL     1       1.209   2.244   1.176  1.00  0.00     0.124 A 
ATOM     15  C   UNL     1       0.434   1.963  -1.104  1.00  0.00     0.169 A 
ATOM     16  N   UNL     1       1.856   3.389   0.812  1.00  0.00    -0.233 NA
ATOM     17  N   UNL     1       1.101   3.106  -1.393  1.00  0.00    -0.111 N 
ATOM     18  C   UNL     1       1.786   3.796  -0.477  1.00  0.00     0.199 A 
ATOM     19  N   UNL     1       1.198   3.714  -2.561  1.00  0.00    -0.125 N 
ATOM     20  C   UNL     1       2.361   4.907  -1.054  1.00  0.00     0.126 A 
ATOM     21  C   UNL     1       1.961   4.818  -2.388  1.00  0.00     0.337 A 
ATOM     22  H   UNL     1       0.758   3.389  -3.451  1.00  0.00     0.488 HD
ENDBRANCH  12  13
ENDBRANCH   1   7
TORSDOF 4


