REMARK SMILES Cc1cc(N)c([O-])c(-n2[nH+]c3ccccc3[nH+]2)c1
REMARK SMILES IDX 1 1 2 2 3 3 4 4 6 5 7 6 8 7 18 8 5 9 9 12 10 13 17 14 11 15
REMARK SMILES IDX 16 16 12 17 15 18 13 19 14 20
REMARK H PARENT 5 10 5 11 10 21 17 22
ROOT
ATOM      1  C   UNL     1      -3.596   2.382  -0.776  1.00  0.00     0.044 C 
ATOM      2  C   UNL     1      -2.912   1.153  -0.255  1.00  0.00    -0.047 A 
ATOM      3  C   UNL     1      -3.668   0.057   0.181  1.00  0.00     0.028 A 
ATOM      4  C   UNL     1      -3.036  -1.110   0.633  1.00  0.00     0.026 A 
ATOM      5  C   UNL     1      -1.632  -1.185   0.637  1.00  0.00    -0.048 A 
ATOM      6  O   UNL     1      -1.005  -2.357   1.047  1.00  0.00    -0.869 OA
ATOM      7  C   UNL     1      -0.863  -0.088   0.198  1.00  0.00     0.162 A 
ATOM      8  C   UNL     1      -1.513   1.068  -0.262  1.00  0.00     0.041 A 
ENDROOT
BRANCH   4   9
ATOM      9  N   UNL     1      -3.828  -2.219   1.073  1.00  0.00    -0.399 N 
ATOM     10  H   UNL     1      -4.871  -2.165   1.064  1.00  0.00     0.156 HD
ATOM     11  H   UNL     1      -3.387  -3.101   1.414  1.00  0.00     0.156 HD
ENDBRANCH   4   9
BRANCH   7  12
ATOM     12  N   UNL     1       0.574  -0.143   0.202  1.00  0.00     0.079 N 
ATOM     13  N   UNL     1       1.343   0.364  -0.762  1.00  0.00    -0.062 N 
ATOM     14  N   UNL     1       1.308  -0.666   1.183  1.00  0.00    -0.062 N 
ATOM     15  C   UNL     1       2.611   0.146  -0.381  1.00  0.00     0.306 A 
ATOM     16  C   UNL     1       2.590  -0.491   0.824  1.00  0.00     0.306 A 
ATOM     17  C   UNL     1       3.799   0.482  -1.023  1.00  0.00     0.089 A 
ATOM     18  C   UNL     1       3.755  -0.844   1.499  1.00  0.00     0.089 A 
ATOM     19  C   UNL     1       5.002   0.137  -0.374  1.00  0.00     0.007 A 
ATOM     20  C   UNL     1       4.980  -0.522   0.881  1.00  0.00     0.007 A 
ATOM     21  H   UNL     1       1.011   0.827  -1.637  1.00  0.00     0.495 HD
ATOM     22  H   UNL     1       0.949  -1.086   2.069  1.00  0.00     0.495 HD
ENDBRANCH   7  12
TORSDOF 2


