REMARK SMILES Cc1ccc(-c2cc(N)c(NC3CC(=O)C3)c(Nc3ccc(C)c(F)c3)c2)cc1
REMARK SMILES IDX 6 1 7 2 8 3 10 4 17 5 27 6 5 7 2 8 3 9 29 10 4 11 28 12 1 13
REMARK SMILES IDX 9 14 18 17 19 19 20 20 26 21 21 22 24 23 22 24 25 25 23 26
REMARK SMILES IDX 11 27 12 29 13 30 16 31 14 32 15 33
REMARK H PARENT 9 15 9 16 18 18 11 28
ROOT
ATOM      1  C   UNL     1       1.323   1.517   2.187  1.00  0.00    -0.014 A 
ATOM      2  C   UNL     1       2.278   0.496   2.066  1.00  0.00     0.036 A 
ATOM      3  C   UNL     1       2.203  -0.444   1.030  1.00  0.00     0.058 A 
ATOM      4  C   UNL     1       1.143  -0.377   0.099  1.00  0.00     0.082 A 
ATOM      5  C   UNL     1       0.153   0.624   0.242  1.00  0.00     0.065 A 
ATOM      6  C   UNL     1       0.269   1.575   1.263  1.00  0.00     0.037 A 
ENDROOT
BRANCH   1   7
ATOM      7  C   UNL     1       1.422   2.519   3.279  1.00  0.00    -0.018 A 
ATOM      8  C   UNL     1       1.598   4.420   5.355  1.00  0.00    -0.051 A 
ATOM      9  C   UNL     1       1.882   3.071   5.606  1.00  0.00     0.004 A 
ATOM     10  C   UNL     1       1.249   4.820   4.057  1.00  0.00     0.004 A 
ATOM     11  C   UNL     1       1.789   2.127   4.580  1.00  0.00     0.009 A 
ATOM     12  C   UNL     1       1.155   3.877   3.029  1.00  0.00     0.009 A 
ATOM     13  C   UNL     1       1.736   5.439   6.448  1.00  0.00     0.044 C 
ENDBRANCH   1   7
BRANCH   3  14
ATOM     14  N   UNL     1       3.234  -1.434   0.914  1.00  0.00    -0.397 N 
ATOM     15  H   UNL     1       3.275  -2.104   0.116  1.00  0.00     0.156 HD
ATOM     16  H   UNL     1       4.001  -1.486   1.622  1.00  0.00     0.156 HD
ENDBRANCH   3  14
BRANCH   5  17
ATOM     17  N   UNL     1      -0.976   0.704  -0.644  1.00  0.00    -0.354 N 
ATOM     18  H   UNL     1      -1.232   1.647  -1.016  1.00  0.00     0.167 HD
BRANCH  17  19
ATOM     19  C   UNL     1      -1.835  -0.406  -0.961  1.00  0.00     0.041 A 
ATOM     20  C   UNL     1      -2.635  -0.349  -2.111  1.00  0.00     0.026 A 
ATOM     21  C   UNL     1      -1.906  -1.541  -0.133  1.00  0.00     0.065 A 
ATOM     22  C   UNL     1      -3.465  -1.419  -2.451  1.00  0.00     0.008 A 
ATOM     23  C   UNL     1      -2.737  -2.613  -0.472  1.00  0.00     0.128 A 
ATOM     24  C   UNL     1      -3.526  -2.557  -1.632  1.00  0.00    -0.015 A 
ATOM     25  F   UNL     1      -2.772  -3.706   0.332  1.00  0.00    -0.207 F 
ATOM     26  C   UNL     1      -4.395  -3.721  -2.011  1.00  0.00     0.047 C 
ENDBRANCH  17  19
ENDBRANCH   5  17
BRANCH   4  27
ATOM     27  N   UNL     1       1.076  -1.317  -0.984  1.00  0.00    -0.378 N 
ATOM     28  H   UNL     1       1.184  -2.334  -0.769  1.00  0.00     0.161 HD
BRANCH  27  29
ATOM     29  C   UNL     1       1.132  -0.875  -2.380  1.00  0.00     0.094 C 
ATOM     30  C   UNL     1       2.357  -1.370  -3.088  1.00  0.00     0.100 C 
ATOM     31  C   UNL     1       0.340  -1.760  -3.297  1.00  0.00     0.100 C 
ATOM     32  C   UNL     1       1.571  -2.273  -4.022  1.00  0.00     0.137 C 
ATOM     33  O   UNL     1       1.815  -3.047  -4.933  1.00  0.00    -0.300 OA
ENDBRANCH  27  29
ENDBRANCH   4  27
TORSDOF 6


