MODEL 1
REMARK VINA RESULT:      -9.8      0.000      0.000
REMARK SMILES Cc1cc(N)c([NH2+]c2cc(F)c(C)nc2F)cc1F
REMARK SMILES IDX 1 1 2 2 3 3 4 4 6 5 17 6 18 7 19 8 5 9 7 12 8 15 9 16 15 17
REMARK SMILES IDX 10 18 14 19 12 20 16 21 11 22 13 23
REMARK H PARENT 5 10 5 11 7 13 7 14
ROOT
ATOM      1  C   UNL     1      44.571 131.285  22.030  1.00  0.00     0.047 C 
ATOM      2  C   UNL     1      44.357 131.422  20.550  1.00  0.00    -0.013 A 
ATOM      3  C   UNL     1      43.139 131.901  20.049  1.00  0.00     0.038 A 
ATOM      4  C   UNL     1      42.921 132.020  18.668  1.00  0.00     0.094 A 
ATOM      5  C   UNL     1      43.938 131.618  17.760  1.00  0.00     0.160 A 
ATOM      6  C   UNL     1      45.158 131.143  18.279  1.00  0.00     0.110 A 
ATOM      7  C   UNL     1      45.365 131.039  19.655  1.00  0.00     0.132 A 
ATOM      8  F   UNL     1      46.549 130.562  20.116  1.00  0.00    -0.206 F 
ENDROOT
BRANCH   4   9
ATOM      9  N   UNL     1      41.672 132.560  18.216  1.00  0.00    -0.394 N 
ATOM     10  H   UNL     1      41.652 133.430  17.639  1.00  0.00     0.156 HD
ATOM     11  H   UNL     1      40.765 132.074  18.366  1.00  0.00     0.156 HD
ENDBRANCH   4   9
BRANCH   5  12
ATOM     12  N   UNL     1      43.749 131.663  16.324  1.00  0.00    -0.276 N 
ATOM     13  H   UNL     1      42.859 131.173  16.075  1.00  0.00     0.358 HD
ATOM     14  H   UNL     1      43.630 132.651  15.998  1.00  0.00     0.358 HD
BRANCH  12  15
ATOM     15  C   UNL     1      44.883 131.095  15.628  1.00  0.00     0.193 A 
ATOM     16  C   UNL     1      45.817 131.926  14.984  1.00  0.00     0.114 A 
ATOM     17  C   UNL     1      45.124 129.706  15.634  1.00  0.00     0.275 A 
ATOM     18  C   UNL     1      46.917 131.375  14.326  1.00  0.00     0.150 A 
ATOM     19  N   UNL     1      46.206 129.196  14.987  1.00  0.00    -0.217 NA
ATOM     20  C   UNL     1      47.095 129.987  14.328  1.00  0.00     0.077 A 
ATOM     21  F   UNL     1      44.297 128.861  16.296  1.00  0.00    -0.178 F 
ATOM     22  F   UNL     1      47.805 132.189  13.701  1.00  0.00    -0.205 F 
ATOM     23  C   UNL     1      48.270 129.366  13.640  1.00  0.00     0.070 C 
ENDBRANCH  12  15
ENDBRANCH   5  12
TORSDOF 3
ENDMDL
MODEL 2
REMARK VINA RESULT:      -9.1      1.134      1.963
REMARK SMILES Cc1cc(N)c([NH2+]c2cc(F)c(C)nc2F)cc1F
REMARK SMILES IDX 1 1 2 2 3 3 4 4 6 5 17 6 18 7 19 8 5 9 7 12 8 15 9 16 15 17
REMARK SMILES IDX 10 18 14 19 12 20 16 21 11 22 13 23
REMARK H PARENT 5 10 5 11 7 13 7 14
ROOT
ATOM      1  C   UNL     1      44.394 131.215  22.478  1.00  0.00     0.047 C 
ATOM      2  C   UNL     1      44.219 131.429  21.002  1.00  0.00    -0.013 A 
ATOM      3  C   UNL     1      43.016 131.937  20.496  1.00  0.00     0.038 A 
ATOM      4  C   UNL     1      42.834 132.128  19.117  1.00  0.00     0.094 A 
ATOM      5  C   UNL     1      43.873 131.770  18.216  1.00  0.00     0.160 A 
ATOM      6  C   UNL     1      45.079 131.265  18.742  1.00  0.00     0.110 A 
ATOM      7  C   UNL     1      45.249 131.090  20.116  1.00  0.00     0.132 A 
ATOM      8  F   UNL     1      46.420 130.585  20.581  1.00  0.00    -0.206 F 
ENDROOT
BRANCH   4   9
ATOM      9  N   UNL     1      41.598 132.695  18.662  1.00  0.00    -0.394 N 
ATOM     10  H   UNL     1      40.743 132.100  18.580  1.00  0.00     0.156 HD
ATOM     11  H   UNL     1      41.482 133.712  18.482  1.00  0.00     0.156 HD
ENDBRANCH   4   9
BRANCH   5  12
ATOM     12  N   UNL     1      43.722 131.890  16.780  1.00  0.00    -0.276 N 
ATOM     13  H   UNL     1      42.795 131.500  16.495  1.00  0.00     0.358 HD
ATOM     14  H   UNL     1      43.707 132.897  16.493  1.00  0.00     0.358 HD
BRANCH  12  15
ATOM     15  C   UNL     1      44.810 131.241  16.082  1.00  0.00     0.193 A 
ATOM     16  C   UNL     1      44.772 129.860  15.823  1.00  0.00     0.114 A 
ATOM     17  C   UNL     1      45.902 131.980  15.581  1.00  0.00     0.275 A 
ATOM     18  C   UNL     1      45.818 129.240  15.138  1.00  0.00     0.150 A 
ATOM     19  N   UNL     1      46.906 131.352  14.914  1.00  0.00    -0.217 NA
ATOM     20  C   UNL     1      46.899 130.010  14.692  1.00  0.00     0.077 A 
ATOM     21  F   UNL     1      45.960 133.325  15.739  1.00  0.00    -0.178 F 
ATOM     22  F   UNL     1      45.772 127.904  14.903  1.00  0.00    -0.205 F 
ATOM     23  C   UNL     1      48.030 129.377  13.944  1.00  0.00     0.070 C 
ENDBRANCH  12  15
ENDBRANCH   5  12
TORSDOF 3
ENDMDL
MODEL 3
REMARK VINA RESULT:      -8.8      1.329      5.817
REMARK SMILES Cc1cc(N)c([NH2+]c2cc(F)c(C)nc2F)cc1F
REMARK SMILES IDX 1 1 2 2 3 3 4 4 6 5 17 6 18 7 19 8 5 9 7 12 8 15 9 16 15 17
REMARK SMILES IDX 10 18 14 19 12 20 16 21 11 22 13 23
REMARK H PARENT 5 10 5 11 7 13 7 14
ROOT
ATOM      1  C   UNL     1      48.440 129.344  13.438  1.00  0.00     0.047 C 
ATOM      2  C   UNL     1      47.306 129.965  14.202  1.00  0.00    -0.013 A 
ATOM      3  C   UNL     1      46.411 129.164  14.923  1.00  0.00     0.038 A 
ATOM      4  C   UNL     1      45.339 129.731  15.629  1.00  0.00     0.094 A 
ATOM      5  C   UNL     1      45.136 131.137  15.586  1.00  0.00     0.160 A 
ATOM      6  C   UNL     1      46.047 131.929  14.860  1.00  0.00     0.110 A 
ATOM      7  C   UNL     1      47.114 131.353  14.171  1.00  0.00     0.132 A 
ATOM      8  F   UNL     1      47.961 132.149  13.470  1.00  0.00    -0.206 F 
ENDROOT
BRANCH   4   9
ATOM      9  N   UNL     1      44.484 128.865  16.388  1.00  0.00    -0.394 N 
ATOM     10  H   UNL     1      43.934 128.116  15.910  1.00  0.00     0.156 HD
ATOM     11  H   UNL     1      44.444 128.887  17.426  1.00  0.00     0.156 HD
ENDBRANCH   4   9
BRANCH   5  12
ATOM     12  N   UNL     1      44.013 131.773  16.247  1.00  0.00    -0.276 N 
ATOM     13  H   UNL     1      43.967 132.778  15.962  1.00  0.00     0.358 HD
ATOM     14  H   UNL     1      43.110 131.346  15.932  1.00  0.00     0.358 HD
BRANCH  12  15
ATOM     15  C   UNL     1      44.101 131.629  17.683  1.00  0.00     0.193 A 
ATOM     16  C   UNL     1      45.326 131.317  18.298  1.00  0.00     0.114 A 
ATOM     17  C   UNL     1      42.984 131.864  18.512  1.00  0.00     0.275 A 
ATOM     18  C   UNL     1      45.409 131.193  19.686  1.00  0.00     0.150 A 
ATOM     19  N   UNL     1      43.094 131.739  19.861  1.00  0.00    -0.217 NA
ATOM     20  C   UNL     1      44.264 131.400  20.464  1.00  0.00     0.077 A 
ATOM     21  F   UNL     1      41.793 132.235  17.981  1.00  0.00    -0.178 F 
ATOM     22  F   UNL     1      46.597 130.883  20.264  1.00  0.00    -0.205 F 
ATOM     23  C   UNL     1      44.323 131.284  21.955  1.00  0.00     0.070 C 
ENDBRANCH  12  15
ENDBRANCH   5  12
TORSDOF 3
ENDMDL
MODEL 4
REMARK VINA RESULT:      -8.3      1.858      5.659
REMARK SMILES Cc1cc(N)c([NH2+]c2cc(F)c(C)nc2F)cc1F
REMARK SMILES IDX 1 1 2 2 3 3 4 4 6 5 17 6 18 7 19 8 5 9 7 12 8 15 9 16 15 17
REMARK SMILES IDX 10 18 14 19 12 20 16 21 11 22 13 23
REMARK H PARENT 5 10 5 11 7 13 7 14
ROOT
ATOM      1  C   UNL     1      47.554 129.761  13.810  1.00  0.00     0.047 C 
ATOM      2  C   UNL     1      46.401 130.286  14.615  1.00  0.00    -0.013 A 
ATOM      3  C   UNL     1      45.317 130.908  13.981  1.00  0.00     0.038 A 
ATOM      4  C   UNL     1      44.239 131.417  14.723  1.00  0.00     0.094 A 
ATOM      5  C   UNL     1      44.261 131.330  16.141  1.00  0.00     0.160 A 
ATOM      6  C   UNL     1      45.355 130.697  16.763  1.00  0.00     0.110 A 
ATOM      7  C   UNL     1      46.415 130.187  16.012  1.00  0.00     0.132 A 
ATOM      8  F   UNL     1      47.459 129.600  16.650  1.00  0.00    -0.206 F 
ENDROOT
BRANCH   4   9
ATOM      9  N   UNL     1      43.137 132.000  14.016  1.00  0.00    -0.394 N 
ATOM     10  H   UNL     1      42.217 131.506  13.972  1.00  0.00     0.156 HD
ATOM     11  H   UNL     1      43.178 132.954  13.604  1.00  0.00     0.156 HD
ENDBRANCH   4   9
BRANCH   5  12
ATOM     12  N   UNL     1      43.205 131.888  16.963  1.00  0.00    -0.276 N 
ATOM     13  H   UNL     1      43.064 132.893  16.710  1.00  0.00     0.358 HD
ATOM     14  H   UNL     1      42.293 131.414  16.764  1.00  0.00     0.358 HD
BRANCH  12  15
ATOM     15  C   UNL     1      43.496 131.727  18.371  1.00  0.00     0.193 A 
ATOM     16  C   UNL     1      44.810 131.478  18.806  1.00  0.00     0.114 A 
ATOM     17  C   UNL     1      42.493 131.886  19.348  1.00  0.00     0.275 A 
ATOM     18  C   UNL     1      45.089 131.337  20.166  1.00  0.00     0.150 A 
ATOM     19  N   UNL     1      42.793 131.747  20.667  1.00  0.00    -0.217 NA
ATOM     20  C   UNL     1      44.052 131.466  21.097  1.00  0.00     0.077 A 
ATOM     21  F   UNL     1      41.222 132.196  18.994  1.00  0.00    -0.178 F 
ATOM     22  F   UNL     1      46.360 131.087  20.571  1.00  0.00    -0.205 F 
ATOM     23  C   UNL     1      44.321 131.332  22.563  1.00  0.00     0.070 C 
ENDBRANCH  12  15
ENDBRANCH   5  12
TORSDOF 3
ENDMDL
MODEL 5
REMARK VINA RESULT:      -8.2      1.504      1.720
REMARK SMILES Cc1cc(N)c([NH2+]c2cc(F)c(C)nc2F)cc1F
REMARK SMILES IDX 1 1 2 2 3 3 4 4 6 5 17 6 18 7 19 8 5 9 7 12 8 15 9 16 15 17
REMARK SMILES IDX 10 18 14 19 12 20 16 21 11 22 13 23
REMARK H PARENT 5 10 5 11 7 13 7 14
ROOT
ATOM      1  C   UNL     1      44.534 131.568  22.477  1.00  0.00     0.047 C 
ATOM      2  C   UNL     1      44.200 131.644  21.016  1.00  0.00    -0.013 A 
ATOM      3  C   UNL     1      42.941 132.094  20.597  1.00  0.00     0.038 A 
ATOM      4  C   UNL     1      42.610 132.157  19.234  1.00  0.00     0.094 A 
ATOM      5  C   UNL     1      43.554 131.725  18.263  1.00  0.00     0.160 A 
ATOM      6  C   UNL     1      44.817 131.279  18.700  1.00  0.00     0.110 A 
ATOM      7  C   UNL     1      45.135 131.232  20.058  1.00  0.00     0.132 A 
ATOM      8  F   UNL     1      46.357 130.781  20.439  1.00  0.00    -0.206 F 
ENDROOT
BRANCH   4   9
ATOM      9  N   UNL     1      41.324 132.670  18.865  1.00  0.00    -0.394 N 
ATOM     10  H   UNL     1      41.096 133.679  19.012  1.00  0.00     0.156 HD
ATOM     11  H   UNL     1      40.613 132.096  18.368  1.00  0.00     0.156 HD
ENDBRANCH   4   9
BRANCH   5  12
ATOM     12  N   UNL     1      43.248 131.711  16.847  1.00  0.00    -0.276 N 
ATOM     13  H   UNL     1      42.416 131.103  16.677  1.00  0.00     0.358 HD
ATOM     14  H   UNL     1      42.974 132.667  16.519  1.00  0.00     0.358 HD
BRANCH  12  15
ATOM     15  C   UNL     1      44.390 131.282  16.069  1.00  0.00     0.193 A 
ATOM     16  C   UNL     1      45.434 130.556  16.670  1.00  0.00     0.114 A 
ATOM     17  C   UNL     1      44.457 131.512  14.679  1.00  0.00     0.275 A 
ATOM     18  C   UNL     1      46.527 130.132  15.913  1.00  0.00     0.150 A 
ATOM     19  N   UNL     1      45.533 131.085  13.966  1.00  0.00    -0.217 NA
ATOM     20  C   UNL     1      46.567 130.417  14.544  1.00  0.00     0.077 A 
ATOM     21  F   UNL     1      43.449 132.145  14.031  1.00  0.00    -0.178 F 
ATOM     22  F   UNL     1      47.531 129.441  16.509  1.00  0.00    -0.205 F 
ATOM     23  C   UNL     1      47.719 129.966  13.703  1.00  0.00     0.070 C 
ENDBRANCH  12  15
ENDBRANCH   5  12
TORSDOF 3
ENDMDL
MODEL 6
REMARK VINA RESULT:      -8.1      1.722      5.768
REMARK SMILES Cc1cc(N)c([NH2+]c2cc(F)c(C)nc2F)cc1F
REMARK SMILES IDX 1 1 2 2 3 3 4 4 6 5 17 6 18 7 19 8 5 9 7 12 8 15 9 16 15 17
REMARK SMILES IDX 10 18 14 19 12 20 16 21 11 22 13 23
REMARK H PARENT 5 10 5 11 7 13 7 14
ROOT
ATOM      1  C   UNL     1      47.993 129.332  13.922  1.00  0.00     0.047 C 
ATOM      2  C   UNL     1      46.845 129.999  14.623  1.00  0.00    -0.013 A 
ATOM      3  C   UNL     1      46.832 131.388  14.803  1.00  0.00     0.038 A 
ATOM      4  C   UNL     1      45.771 132.022  15.469  1.00  0.00     0.094 A 
ATOM      5  C   UNL     1      44.709 131.241  15.999  1.00  0.00     0.160 A 
ATOM      6  C   UNL     1      44.734 129.846  15.806  1.00  0.00     0.110 A 
ATOM      7  C   UNL     1      45.790 129.230  15.133  1.00  0.00     0.132 A 
ATOM      8  F   UNL     1      45.786 127.882  14.982  1.00  0.00    -0.206 F 
ENDROOT
BRANCH   4   9
ATOM      9  N   UNL     1      45.791 133.451  15.581  1.00  0.00    -0.394 N 
ATOM     10  H   UNL     1      46.568 133.930  16.089  1.00  0.00     0.156 HD
ATOM     11  H   UNL     1      45.098 134.060  15.100  1.00  0.00     0.156 HD
ENDBRANCH   4   9
BRANCH   5  12
ATOM     12  N   UNL     1      43.618 131.833  16.747  1.00  0.00    -0.276 N 
ATOM     13  H   UNL     1      43.530 132.843  16.491  1.00  0.00     0.358 HD
ATOM     14  H   UNL     1      42.706 131.392  16.481  1.00  0.00     0.358 HD
BRANCH  12  15
ATOM     15  C   UNL     1      43.802 131.658  18.171  1.00  0.00     0.193 A 
ATOM     16  C   UNL     1      45.061 131.312  18.692  1.00  0.00     0.114 A 
ATOM     17  C   UNL     1      42.750 131.896  19.079  1.00  0.00     0.275 A 
ATOM     18  C   UNL     1      45.238 131.157  20.068  1.00  0.00     0.150 A 
ATOM     19  N   UNL     1      42.951 131.740  20.415  1.00  0.00    -0.217 NA
ATOM     20  C   UNL     1      44.154 131.368  20.928  1.00  0.00     0.077 A 
ATOM     21  F   UNL     1      41.532 132.298  18.641  1.00  0.00    -0.178 F 
ATOM     22  F   UNL     1      46.457 130.814  20.556  1.00  0.00    -0.205 F 
ATOM     23  C   UNL     1      44.314 131.220  22.408  1.00  0.00     0.070 C 
ENDBRANCH  12  15
ENDBRANCH   5  12
TORSDOF 3
ENDMDL
MODEL 7
REMARK VINA RESULT:      -7.8      3.367      5.466
REMARK SMILES Cc1cc(N)c([NH2+]c2cc(F)c(C)nc2F)cc1F
REMARK SMILES IDX 1 1 2 2 3 3 4 4 6 5 17 6 18 7 19 8 5 9 7 12 8 15 9 16 15 17
REMARK SMILES IDX 10 18 14 19 12 20 16 21 11 22 13 23
REMARK H PARENT 5 10 5 11 7 13 7 14
ROOT
ATOM      1  C   UNL     1      42.270 126.425  24.315  1.00  0.00     0.047 C 
ATOM      2  C   UNL     1      42.868 127.711  23.820  1.00  0.00    -0.013 A 
ATOM      3  C   UNL     1      42.162 128.915  23.939  1.00  0.00     0.038 A 
ATOM      4  C   UNL     1      42.703 130.122  23.467  1.00  0.00     0.094 A 
ATOM      5  C   UNL     1      43.973 130.118  22.829  1.00  0.00     0.160 A 
ATOM      6  C   UNL     1      44.673 128.900  22.722  1.00  0.00     0.110 A 
ATOM      7  C   UNL     1      44.126 127.710  23.204  1.00  0.00     0.132 A 
ATOM      8  F   UNL     1      44.824 126.554  23.067  1.00  0.00    -0.206 F 
ENDROOT
BRANCH   4   9
ATOM      9  N   UNL     1      41.955 131.329  23.659  1.00  0.00    -0.394 N 
ATOM     10  H   UNL     1      41.588 131.578  24.604  1.00  0.00     0.156 HD
ATOM     11  H   UNL     1      41.824 132.032  22.904  1.00  0.00     0.156 HD
ENDBRANCH   4   9
BRANCH   5  12
ATOM     12  N   UNL     1      44.557 131.321  22.270  1.00  0.00    -0.276 N 
ATOM     13  H   UNL     1      44.154 132.158  22.750  1.00  0.00     0.358 HD
ATOM     14  H   UNL     1      45.587 131.354  22.459  1.00  0.00     0.358 HD
BRANCH  12  15
ATOM     15  C   UNL     1      44.362 131.382  20.838  1.00  0.00     0.193 A 
ATOM     16  C   UNL     1      43.139 131.821  20.301  1.00  0.00     0.114 A 
ATOM     17  C   UNL     1      45.408 131.075  19.944  1.00  0.00     0.275 A 
ATOM     18  C   UNL     1      42.960 131.892  18.919  1.00  0.00     0.150 A 
ATOM     19  N   UNL     1      45.206 131.155  18.602  1.00  0.00    -0.217 NA
ATOM     20  C   UNL     1      44.015 131.540  18.070  1.00  0.00     0.077 A 
ATOM     21  F   UNL     1      46.630 130.712  20.403  1.00  0.00    -0.178 F 
ATOM     22  F   UNL     1      41.771 132.308  18.414  1.00  0.00    -0.205 F 
ATOM     23  C   UNL     1      43.858 131.616  16.583  1.00  0.00     0.070 C 
ENDBRANCH  12  15
ENDBRANCH   5  12
TORSDOF 3
ENDMDL
MODEL 8
REMARK VINA RESULT:      -7.8      2.573      6.364
REMARK SMILES Cc1cc(N)c([NH2+]c2cc(F)c(C)nc2F)cc1F
REMARK SMILES IDX 1 1 2 2 3 3 4 4 6 5 17 6 18 7 19 8 5 9 7 12 8 15 9 16 15 17
REMARK SMILES IDX 10 18 14 19 12 20 16 21 11 22 13 23
REMARK H PARENT 5 10 5 11 7 13 7 14
ROOT
ATOM      1  C   UNL     1      44.886 130.189  14.767  1.00  0.00     0.047 C 
ATOM      2  C   UNL     1      44.811 130.673  16.186  1.00  0.00    -0.013 A 
ATOM      3  C   UNL     1      43.677 131.354  16.646  1.00  0.00     0.038 A 
ATOM      4  C   UNL     1      43.600 131.825  17.966  1.00  0.00     0.094 A 
ATOM      5  C   UNL     1      44.703 131.637  18.843  1.00  0.00     0.160 A 
ATOM      6  C   UNL     1      45.835 130.946  18.367  1.00  0.00     0.110 A 
ATOM      7  C   UNL     1      45.893 130.475  17.054  1.00  0.00     0.132 A 
ATOM      8  F   UNL     1      47.007 129.828  16.629  1.00  0.00    -0.206 F 
ENDROOT
BRANCH   4   9
ATOM      9  N   UNL     1      42.395 132.473  18.393  1.00  0.00    -0.394 N 
ATOM     10  H   UNL     1      42.438 133.309  19.018  1.00  0.00     0.156 HD
ATOM     11  H   UNL     1      41.457 132.201  18.037  1.00  0.00     0.156 HD
ENDBRANCH   4   9
BRANCH   5  12
ATOM     12  N   UNL     1      44.705 132.151  20.198  1.00  0.00    -0.276 N 
ATOM     13  H   UNL     1      45.656 132.518  20.428  1.00  0.00     0.358 HD
ATOM     14  H   UNL     1      44.056 132.969  20.283  1.00  0.00     0.358 HD
BRANCH  12  15
ATOM     15  C   UNL     1      44.279 131.141  21.142  1.00  0.00     0.193 A 
ATOM     16  C   UNL     1      45.094 130.028  21.415  1.00  0.00     0.114 A 
ATOM     17  C   UNL     1      43.077 131.277  21.866  1.00  0.00     0.275 A 
ATOM     18  C   UNL     1      44.686 129.063  22.337  1.00  0.00     0.150 A 
ATOM     19  N   UNL     1      42.705 130.323  22.760  1.00  0.00    -0.217 NA
ATOM     20  C   UNL     1      43.466 129.222  23.004  1.00  0.00     0.077 A 
ATOM     21  F   UNL     1      42.283 132.362  21.696  1.00  0.00    -0.178 F 
ATOM     22  F   UNL     1      45.478 127.990  22.583  1.00  0.00    -0.205 F 
ATOM     23  C   UNL     1      43.005 128.211  24.006  1.00  0.00     0.070 C 
ENDBRANCH  12  15
ENDBRANCH   5  12
TORSDOF 3
ENDMDL
MODEL 9
REMARK VINA RESULT:      -7.8      3.311      5.250
REMARK SMILES Cc1cc(N)c([NH2+]c2cc(F)c(C)nc2F)cc1F
REMARK SMILES IDX 1 1 2 2 3 3 4 4 6 5 17 6 18 7 19 8 5 9 7 12 8 15 9 16 15 17
REMARK SMILES IDX 10 18 14 19 12 20 16 21 11 22 13 23
REMARK H PARENT 5 10 5 11 7 13 7 14
ROOT
ATOM      1  C   UNL     1      42.105 126.684  24.305  1.00  0.00     0.047 C 
ATOM      2  C   UNL     1      42.776 127.927  23.796  1.00  0.00    -0.013 A 
ATOM      3  C   UNL     1      42.159 129.177  23.937  1.00  0.00     0.038 A 
ATOM      4  C   UNL     1      42.768 130.345  23.451  1.00  0.00     0.094 A 
ATOM      5  C   UNL     1      44.015 130.256  22.776  1.00  0.00     0.160 A 
ATOM      6  C   UNL     1      44.626 128.992  22.647  1.00  0.00     0.110 A 
ATOM      7  C   UNL     1      44.013 127.841  23.143  1.00  0.00     0.132 A 
ATOM      8  F   UNL     1      44.625 126.641  22.984  1.00  0.00    -0.206 F 
ENDROOT
BRANCH   4   9
ATOM      9  N   UNL     1      42.110 131.600  23.667  1.00  0.00    -0.394 N 
ATOM     10  H   UNL     1      42.664 132.451  23.913  1.00  0.00     0.156 HD
ATOM     11  H   UNL     1      41.092 131.733  23.506  1.00  0.00     0.156 HD
ENDBRANCH   4   9
BRANCH   5  12
ATOM     12  N   UNL     1      44.664 131.418  22.203  1.00  0.00    -0.276 N 
ATOM     13  H   UNL     1      44.285 132.283  22.650  1.00  0.00     0.358 HD
ATOM     14  H   UNL     1      45.689 131.412  22.418  1.00  0.00     0.358 HD
BRANCH  12  15
ATOM     15  C   UNL     1      44.509 131.449  20.765  1.00  0.00     0.193 A 
ATOM     16  C   UNL     1      45.498 130.904  19.927  1.00  0.00     0.114 A 
ATOM     17  C   UNL     1      43.338 131.956  20.166  1.00  0.00     0.275 A 
ATOM     18  C   UNL     1      45.339 130.923  18.541  1.00  0.00     0.150 A 
ATOM     19  N   UNL     1      43.208 131.960  18.813  1.00  0.00    -0.217 NA
ATOM     20  C   UNL     1      44.175 131.472  17.990  1.00  0.00     0.077 A 
ATOM     21  F   UNL     1      42.321 132.432  20.925  1.00  0.00    -0.178 F 
ATOM     22  F   UNL     1      46.306 130.403  17.744  1.00  0.00    -0.205 F 
ATOM     23  C   UNL     1      43.969 131.497  16.509  1.00  0.00     0.070 C 
ENDBRANCH  12  15
ENDBRANCH   5  12
TORSDOF 3
ENDMDL


