REMARK SMILES C=C1CC[C@@H](c2ccc(C)c(F)c2)[C@@H]2[NH2+]C=C[C@H]12
REMARK SMILES IDX 1 1 2 2 3 3 4 4 5 5 14 6 15 7 16 8 17 9 18 10 6 13 7 14
REMARK SMILES IDX 13 15 8 16 11 17 9 18 12 19 10 20
REMARK H PARENT 15 11 15 12
ROOT
ATOM      1  C   UNL     1       0.446   2.293   4.020  1.00  0.00     0.008 C 
ATOM      2  C   UNL     1       0.379   1.613   2.864  1.00  0.00    -0.064 C 
ATOM      3  C   UNL     1       1.398   0.525   2.611  1.00  0.00     0.032 C 
ATOM      4  C   UNL     1       0.971  -0.436   1.507  1.00  0.00     0.019 C 
ATOM      5  C   UNL     1       0.528   0.339   0.262  1.00  0.00     0.079 C 
ATOM      6  C   UNL     1      -0.778   1.125   0.554  1.00  0.00     0.205 C 
ATOM      7  N   UNL     1      -1.068   2.090  -0.531  1.00  0.00    -0.317 N 
ATOM      8  C   UNL     1      -0.800   3.369   0.045  1.00  0.00     0.217 C 
ATOM      9  C   UNL     1      -0.584   3.344   1.346  1.00  0.00     0.046 C 
ATOM     10  C   UNL     1      -0.719   1.958   1.864  1.00  0.00     0.102 C 
ATOM     11  H   UNL     1      -2.079   2.048  -0.797  1.00  0.00     0.352 HD
ATOM     12  H   UNL     1      -0.470   1.962  -1.379  1.00  0.00     0.352 HD
ENDROOT
BRANCH   5  13
ATOM     13  C   UNL     1       0.363  -0.599  -0.923  1.00  0.00    -0.036 A 
ATOM     14  C   UNL     1      -0.551  -1.668  -0.886  1.00  0.00     0.005 A 
ATOM     15  C   UNL     1       1.134  -0.406  -2.083  1.00  0.00     0.043 A 
ATOM     16  C   UNL     1      -0.694  -2.519  -1.985  1.00  0.00     0.007 A 
ATOM     17  C   UNL     1       0.990  -1.257  -3.184  1.00  0.00     0.126 A 
ATOM     18  C   UNL     1       0.066  -2.313  -3.146  1.00  0.00    -0.015 A 
ATOM     19  F   UNL     1       1.754  -1.050  -4.287  1.00  0.00    -0.207 F 
ATOM     20  C   UNL     1      -0.069  -3.242  -4.317  1.00  0.00     0.047 C 
ENDBRANCH   5  13
TORSDOF 1


