REMARK SMILES Fc1c[nH]/c(=N\c2c[nH]c3[nH+]ccc-3c2)c(N=C=S)c1
REMARK SMILES IDX 5 1 16 2 20 3 2 4 1 5 3 6 4 7 6 9 7 10 15 11 14 12 8 13
REMARK SMILES IDX 13 14 10 15 9 16 12 17 11 18 17 21 18 22 19 23
REMARK H PARENT 4 8 9 19 11 20
ROOT
ATOM      1  C   UNL     1       0.076  -1.562  -0.628  1.00  0.00     0.157 A 
ATOM      2  C   UNL     1       1.058  -2.312  -1.305  1.00  0.00     0.120 A 
ATOM      3  C   UNL     1       1.124  -3.700  -1.083  1.00  0.00     0.074 A 
ATOM      4  C   UNL     1       0.223  -4.313  -0.216  1.00  0.00     0.141 A 
ATOM      5  F   UNL     1       0.282  -5.650  -0.001  1.00  0.00    -0.205 F 
ATOM      6  C   UNL     1      -0.749  -3.542   0.417  1.00  0.00     0.123 A 
ATOM      7  N   UNL     1      -0.811  -2.200   0.200  1.00  0.00    -0.342 N 
ATOM      8  H   UNL     1      -1.589  -1.683   0.664  1.00  0.00     0.168 HD
ENDROOT
BRANCH   1   9
ATOM      9  N   UNL     1       0.015  -0.275  -0.838  1.00  0.00    -0.225 NA
BRANCH   9  10
ATOM     10  C   UNL     1      -0.833   0.675  -0.176  1.00  0.00     0.105 A 
ATOM     11  C   UNL     1      -1.541   1.613  -0.954  1.00  0.00     0.049 A 
ATOM     12  C   UNL     1      -2.305   2.552  -0.282  1.00  0.00     0.070 A 
ATOM     13  C   UNL     1      -0.874   0.752   1.248  1.00  0.00     0.226 A 
ATOM     14  C   UNL     1      -3.105   3.592  -0.699  1.00  0.00     0.060 A 
ATOM     15  C   UNL     1      -2.344   2.571   1.142  1.00  0.00     0.284 A 
ATOM     16  N   UNL     1      -1.635   1.692   1.888  1.00  0.00    -0.245 N 
ATOM     17  C   UNL     1      -3.589   4.188   0.470  1.00  0.00     0.198 A 
ATOM     18  N   UNL     1      -3.123   3.567   1.583  1.00  0.00    -0.247 N 
ATOM     19  H   UNL     1      -1.660   1.735   2.931  1.00  0.00     0.312 HD
ATOM     20  H   UNL     1      -3.325   3.820   2.576  1.00  0.00     0.311 HD
ENDBRANCH   9  10
ENDBRANCH   1   9
BRANCH   2  21
ATOM     21  N   UNL     1       1.970  -1.642  -2.193  1.00  0.00    -0.191 NA
BRANCH  21  22
ATOM     22  C   UNL     1       2.890  -2.232  -2.848  1.00  0.00     0.064 C 
ATOM     23  S   UNL     1       4.054  -2.978  -3.675  1.00  0.00    -0.006 S 
ENDBRANCH  21  22
ENDBRANCH   2  21
TORSDOF 4


