MODEL 1
REMARK VINA RESULT:      -9.0      0.000      0.000
REMARK SMILES O/C(=C\Cc1c(F)ccc2[n-]c([NH2+]c3cn4ccccc4n3)cc12)c1ccccc1
REMARK SMILES IDX 3 1 2 2 1 3 25 5 26 6 30 7 27 8 29 9 28 10 4 11 5 12 6 13
REMARK SMILES IDX 24 14 8 15 23 16 10 17 9 18 12 19 11 20 7 21 13 22 14 25
REMARK SMILES IDX 22 26 15 27 21 28 16 29 20 30 17 31 19 32 18 33
REMARK H PARENT 1 4 13 23 13 24
ROOT
ATOM      1  C   UNL     1      45.183 130.473  17.929  1.00  0.00     0.024 C 
ENDROOT
BRANCH   1   2
ATOM      2  C   UNL     1      45.327 131.249  16.843  1.00  0.00     0.119 C 
BRANCH   2   3
ATOM      3  O   UNL     1      44.686 132.489  16.788  1.00  0.00    -0.508 OA
ATOM      4  H   UNL     1      45.112 133.295  16.347  1.00  0.00     0.293 HD
ENDBRANCH   2   3
BRANCH   2   5
ATOM      5  C   UNL     1      46.177 130.816  15.706  1.00  0.00     0.016 A 
ATOM      6  C   UNL     1      46.632 129.488  15.597  1.00  0.00     0.012 A 
ATOM      7  C   UNL     1      46.529 131.742  14.707  1.00  0.00     0.012 A 
ATOM      8  C   UNL     1      47.428 129.100  14.515  1.00  0.00     0.001 A 
ATOM      9  C   UNL     1      47.326 131.349  13.628  1.00  0.00     0.001 A 
ATOM     10  C   UNL     1      47.776 130.029  13.532  1.00  0.00     0.000 A 
ENDBRANCH   2   5
ENDBRANCH   1   2
BRANCH   1  11
ATOM     11  C   UNL     1      45.896 130.732  19.228  1.00  0.00     0.070 C 
BRANCH  11  12
ATOM     12  C   UNL     1      44.893 130.861  20.344  1.00  0.00    -0.002 A 
ATOM     13  C   UNL     1      43.952 131.918  20.375  1.00  0.00     0.127 A 
ATOM     14  C   UNL     1      44.815 129.906  21.368  1.00  0.00    -0.030 A 
ATOM     15  C   UNL     1      43.005 132.006  21.420  1.00  0.00     0.038 A 
ATOM     16  C   UNL     1      45.545 128.762  21.591  1.00  0.00     0.050 A 
ATOM     17  C   UNL     1      43.890 129.993  22.380  1.00  0.00    -0.125 A 
ATOM     18  C   UNL     1      42.972 131.039  22.439  1.00  0.00    -0.012 A 
ATOM     19  C   UNL     1      44.999 128.216  22.748  1.00  0.00     0.037 A 
ATOM     20  N   UNL     1      43.990 128.968  23.246  1.00  0.00    -0.610 NA
ATOM     21  F   UNL     1      43.947 132.863  19.400  1.00  0.00    -0.207 F 
BRANCH  19  22
ATOM     22  N   UNL     1      45.463 127.012  23.374  1.00  0.00    -0.282 N 
ATOM     23  H   UNL     1      46.411 126.765  23.013  1.00  0.00     0.358 HD
ATOM     24  H   UNL     1      45.524 127.158  24.407  1.00  0.00     0.358 HD
BRANCH  22  25
ATOM     25  C   UNL     1      44.548 125.947  23.087  1.00  0.00     0.246 A 
ATOM     26  N   UNL     1      44.887 124.830  22.395  1.00  0.00    -0.177 NA
ATOM     27  C   UNL     1      43.196 125.952  23.398  1.00  0.00     0.183 A 
ATOM     28  C   UNL     1      43.715 124.164  22.317  1.00  0.00     0.143 A 
ATOM     29  N   UNL     1      42.693 124.813  22.908  1.00  0.00    -0.301 N 
ATOM     30  C   UNL     1      43.516 122.933  21.696  1.00  0.00     0.048 A 
ATOM     31  C   UNL     1      41.422 124.336  22.947  1.00  0.00     0.093 A 
ATOM     32  C   UNL     1      42.216 122.399  21.713  1.00  0.00     0.005 A 
ATOM     33  C   UNL     1      41.164 123.099  22.340  1.00  0.00     0.018 A 
ENDBRANCH  22  25
ENDBRANCH  19  22
ENDBRANCH  11  12
ENDBRANCH   1  11
TORSDOF 7
ENDMDL
MODEL 2
REMARK VINA RESULT:      -8.4      4.910      8.057
REMARK SMILES O/C(=C\Cc1c(F)ccc2[n-]c([NH2+]c3cn4ccccc4n3)cc12)c1ccccc1
REMARK SMILES IDX 3 1 2 2 1 3 25 5 26 6 30 7 27 8 29 9 28 10 4 11 5 12 6 13
REMARK SMILES IDX 24 14 8 15 23 16 10 17 9 18 12 19 11 20 7 21 13 22 14 25
REMARK SMILES IDX 22 26 15 27 21 28 16 29 20 30 17 31 19 32 18 33
REMARK H PARENT 1 4 13 23 13 24
ROOT
ATOM      1  C   UNL     1      47.121 133.713  21.763  1.00  0.00     0.024 C 
ENDROOT
BRANCH   1   2
ATOM      2  C   UNL     1      48.361 134.069  22.137  1.00  0.00     0.119 C 
BRANCH   2   3
ATOM      3  O   UNL     1      49.141 133.183  22.884  1.00  0.00    -0.508 OA
ATOM      4  H   UNL     1      50.137 133.081  22.728  1.00  0.00     0.293 HD
ENDBRANCH   2   3
BRANCH   2   5
ATOM      5  C   UNL     1      48.922 135.388  21.751  1.00  0.00     0.016 A 
ATOM      6  C   UNL     1      50.118 135.867  22.318  1.00  0.00     0.012 A 
ATOM      7  C   UNL     1      48.258 136.175  20.793  1.00  0.00     0.012 A 
ATOM      8  C   UNL     1      50.632 137.111  21.937  1.00  0.00     0.001 A 
ATOM      9  C   UNL     1      48.775 137.418  20.416  1.00  0.00     0.001 A 
ATOM     10  C   UNL     1      49.961 137.886  20.988  1.00  0.00     0.000 A 
ENDBRANCH   2   5
ENDBRANCH   1   2
BRANCH   1  11
ATOM     11  C   UNL     1      46.824 132.458  20.989  1.00  0.00     0.070 C 
BRANCH  11  12
ATOM     12  C   UNL     1      45.376 132.081  21.165  1.00  0.00    -0.002 A 
ATOM     13  C   UNL     1      44.809 131.903  22.450  1.00  0.00     0.127 A 
ATOM     14  C   UNL     1      44.519 131.946  20.063  1.00  0.00    -0.030 A 
ATOM     15  C   UNL     1      43.443 131.571  22.592  1.00  0.00     0.038 A 
ATOM     16  C   UNL     1      44.752 132.096  18.716  1.00  0.00     0.050 A 
ATOM     17  C   UNL     1      43.190 131.628  20.206  1.00  0.00    -0.125 A 
ATOM     18  C   UNL     1      42.621 131.426  21.461  1.00  0.00    -0.012 A 
ATOM     19  C   UNL     1      43.519 131.857  18.118  1.00  0.00     0.037 A 
ATOM     20  N   UNL     1      42.556 131.560  19.021  1.00  0.00    -0.610 NA
ATOM     21  F   UNL     1      45.571 132.048  23.565  1.00  0.00    -0.207 F 
BRANCH  19  22
ATOM     22  N   UNL     1      43.285 131.886  16.703  1.00  0.00    -0.282 N 
ATOM     23  H   UNL     1      42.461 131.291  16.466  1.00  0.00     0.358 HD
ATOM     24  H   UNL     1      43.089 132.868  16.403  1.00  0.00     0.358 HD
BRANCH  22  25
ATOM     25  C   UNL     1      44.445 131.392  16.022  1.00  0.00     0.246 A 
ATOM     26  N   UNL     1      45.203 132.144  15.184  1.00  0.00    -0.177 NA
ATOM     27  C   UNL     1      44.893 130.080  16.061  1.00  0.00     0.183 A 
ATOM     28  C   UNL     1      46.119 131.257  14.741  1.00  0.00     0.143 A 
ATOM     29  N   UNL     1      45.956 130.020  15.249  1.00  0.00    -0.301 N 
ATOM     30  C   UNL     1      47.149 131.530  13.841  1.00  0.00     0.048 A 
ATOM     31  C   UNL     1      46.756 128.968  14.938  1.00  0.00     0.093 A 
ATOM     32  C   UNL     1      48.004 130.470  13.492  1.00  0.00     0.005 A 
ATOM     33  C   UNL     1      47.811 129.185  14.041  1.00  0.00     0.018 A 
ENDBRANCH  22  25
ENDBRANCH  19  22
ENDBRANCH  11  12
ENDBRANCH   1  11
TORSDOF 7
ENDMDL
MODEL 3
REMARK VINA RESULT:      -8.0      1.862      2.614
REMARK SMILES O/C(=C\Cc1c(F)ccc2[n-]c([NH2+]c3cn4ccccc4n3)cc12)c1ccccc1
REMARK SMILES IDX 3 1 2 2 1 3 25 5 26 6 30 7 27 8 29 9 28 10 4 11 5 12 6 13
REMARK SMILES IDX 24 14 8 15 23 16 10 17 9 18 12 19 11 20 7 21 13 22 14 25
REMARK SMILES IDX 22 26 15 27 21 28 16 29 20 30 17 31 19 32 18 33
REMARK H PARENT 1 4 13 23 13 24
ROOT
ATOM      1  C   UNL     1      45.818 131.221  17.577  1.00  0.00     0.024 C 
ENDROOT
BRANCH   1   2
ATOM      2  C   UNL     1      45.899 131.758  16.349  1.00  0.00     0.119 C 
BRANCH   2   3
ATOM      3  O   UNL     1      45.314 133.001  16.097  1.00  0.00    -0.508 OA
ATOM      4  H   UNL     1      44.498 133.100  15.505  1.00  0.00     0.293 HD
ENDBRANCH   2   3
BRANCH   2   5
ATOM      5  C   UNL     1      46.622 131.057  15.259  1.00  0.00     0.016 A 
ATOM      6  C   UNL     1      47.119 129.751  15.433  1.00  0.00     0.012 A 
ATOM      7  C   UNL     1      46.807 131.697  14.021  1.00  0.00     0.012 A 
ATOM      8  C   UNL     1      47.793 129.106  14.391  1.00  0.00     0.001 A 
ATOM      9  C   UNL     1      47.482 131.049  12.983  1.00  0.00     0.001 A 
ATOM     10  C   UNL     1      47.976 129.754  13.168  1.00  0.00     0.000 A 
ENDBRANCH   2   5
ENDBRANCH   1   2
BRANCH   1  11
ATOM     11  C   UNL     1      44.647 130.398  18.040  1.00  0.00     0.070 C 
BRANCH  11  12
ATOM     12  C   UNL     1      43.677 131.270  18.794  1.00  0.00    -0.002 A 
ATOM     13  C   UNL     1      42.691 132.032  18.122  1.00  0.00     0.127 A 
ATOM     14  C   UNL     1      43.677 131.318  20.196  1.00  0.00    -0.030 A 
ATOM     15  C   UNL     1      41.777 132.826  18.851  1.00  0.00     0.038 A 
ATOM     16  C   UNL     1      44.465 130.673  21.120  1.00  0.00     0.050 A 
ATOM     17  C   UNL     1      42.784 132.088  20.900  1.00  0.00    -0.125 A 
ATOM     18  C   UNL     1      41.822 132.862  20.255  1.00  0.00    -0.012 A 
ATOM     19  C   UNL     1      43.984 131.100  22.352  1.00  0.00     0.037 A 
ATOM     20  N   UNL     1      42.959 131.976  22.230  1.00  0.00    -0.610 NA
ATOM     21  F   UNL     1      42.610 132.011  16.767  1.00  0.00    -0.207 F 
BRANCH  19  22
ATOM     22  N   UNL     1      44.522 130.695  23.618  1.00  0.00    -0.282 N 
ATOM     23  H   UNL     1      45.559 130.821  23.622  1.00  0.00     0.358 HD
ATOM     24  H   UNL     1      44.109 131.285  24.377  1.00  0.00     0.358 HD
BRANCH  22  25
ATOM     25  C   UNL     1      44.206 129.317  23.847  1.00  0.00     0.246 A 
ATOM     26  N   UNL     1      45.095 128.304  23.686  1.00  0.00    -0.177 NA
ATOM     27  C   UNL     1      42.949 128.832  24.178  1.00  0.00     0.183 A 
ATOM     28  C   UNL     1      44.346 127.211  23.944  1.00  0.00     0.143 A 
ATOM     29  N   UNL     1      43.063 127.500  24.240  1.00  0.00    -0.301 N 
ATOM     30  C   UNL     1      44.792 125.891  23.915  1.00  0.00     0.048 A 
ATOM     31  C   UNL     1      42.128 126.558  24.526  1.00  0.00     0.093 A 
ATOM     32  C   UNL     1      43.858 124.882  24.207  1.00  0.00     0.005 A 
ATOM     33  C   UNL     1      42.522 125.213  24.515  1.00  0.00     0.018 A 
ENDBRANCH  22  25
ENDBRANCH  19  22
ENDBRANCH  11  12
ENDBRANCH   1  11
TORSDOF 7
ENDMDL
MODEL 4
REMARK VINA RESULT:      -8.0      2.791      3.988
REMARK SMILES O/C(=C\Cc1c(F)ccc2[n-]c([NH2+]c3cn4ccccc4n3)cc12)c1ccccc1
REMARK SMILES IDX 3 1 2 2 1 3 25 5 26 6 30 7 27 8 29 9 28 10 4 11 5 12 6 13
REMARK SMILES IDX 24 14 8 15 23 16 10 17 9 18 12 19 11 20 7 21 13 22 14 25
REMARK SMILES IDX 22 26 15 27 21 28 16 29 20 30 17 31 19 32 18 33
REMARK H PARENT 1 4 13 23 13 24
ROOT
ATOM      1  C   UNL     1      45.191 130.298  18.436  1.00  0.00     0.024 C 
ENDROOT
BRANCH   1   2
ATOM      2  C   UNL     1      45.186 131.173  17.417  1.00  0.00     0.119 C 
BRANCH   2   3
ATOM      3  O   UNL     1      44.511 132.388  17.552  1.00  0.00    -0.508 OA
ATOM      4  H   UNL     1      44.492 133.078  16.810  1.00  0.00     0.293 HD
ENDBRANCH   2   3
BRANCH   2   5
ATOM      5  C   UNL     1      45.906 130.874  16.155  1.00  0.00     0.016 A 
ATOM      6  C   UNL     1      46.312 129.564  15.836  1.00  0.00     0.012 A 
ATOM      7  C   UNL     1      46.183 131.913  15.248  1.00  0.00     0.012 A 
ATOM      8  C   UNL     1      46.985 129.304  14.638  1.00  0.00     0.001 A 
ATOM      9  C   UNL     1      46.858 131.648  14.052  1.00  0.00     0.001 A 
ATOM     10  C   UNL     1      47.260 130.344  13.748  1.00  0.00     0.000 A 
ENDBRANCH   2   5
ENDBRANCH   1   2
BRANCH   1  11
ATOM     11  C   UNL     1      46.108 130.420  19.622  1.00  0.00     0.070 C 
BRANCH  11  12
ATOM     12  C   UNL     1      45.303 130.387  20.894  1.00  0.00    -0.002 A 
ATOM     13  C   UNL     1      44.594 131.525  21.351  1.00  0.00     0.127 A 
ATOM     14  C   UNL     1      45.178 129.211  21.649  1.00  0.00    -0.030 A 
ATOM     15  C   UNL     1      43.827 131.465  22.536  1.00  0.00     0.038 A 
ATOM     16  C   UNL     1      45.698 127.954  21.450  1.00  0.00     0.050 A 
ATOM     17  C   UNL     1      44.428 129.157  22.798  1.00  0.00    -0.125 A 
ATOM     18  C   UNL     1      43.743 130.272  23.274  1.00  0.00    -0.012 A 
ATOM     19  C   UNL     1      45.213 127.201  22.515  1.00  0.00     0.037 A 
ATOM     20  N   UNL     1      44.441 127.931  23.353  1.00  0.00    -0.610 NA
ATOM     21  F   UNL     1      44.643 132.690  20.656  1.00  0.00    -0.207 F 
BRANCH  19  22
ATOM     22  N   UNL     1      45.515 125.816  22.732  1.00  0.00    -0.282 N 
ATOM     23  H   UNL     1      44.976 125.458  23.552  1.00  0.00     0.358 HD
ATOM     24  H   UNL     1      45.246 125.264  21.886  1.00  0.00     0.358 HD
BRANCH  22  25
ATOM     25  C   UNL     1      46.919 125.671  22.981  1.00  0.00     0.246 A 
ATOM     26  N   UNL     1      47.560 126.247  24.030  1.00  0.00    -0.177 NA
ATOM     27  C   UNL     1      47.810 125.006  22.153  1.00  0.00     0.183 A 
ATOM     28  C   UNL     1      48.846 125.895  23.818  1.00  0.00     0.143 A 
ATOM     29  N   UNL     1      49.020 125.154  22.705  1.00  0.00    -0.301 N 
ATOM     30  C   UNL     1      49.929 126.238  24.624  1.00  0.00     0.048 A 
ATOM     31  C   UNL     1      50.229 124.695  22.290  1.00  0.00     0.093 A 
ATOM     32  C   UNL     1      51.201 125.782  24.235  1.00  0.00     0.005 A 
ATOM     33  C   UNL     1      51.354 125.007  23.066  1.00  0.00     0.018 A 
ENDBRANCH  22  25
ENDBRANCH  19  22
ENDBRANCH  11  12
ENDBRANCH   1  11
TORSDOF 7
ENDMDL
MODEL 5
REMARK VINA RESULT:      -7.8      4.910      7.988
REMARK SMILES O/C(=C\Cc1c(F)ccc2[n-]c([NH2+]c3cn4ccccc4n3)cc12)c1ccccc1
REMARK SMILES IDX 3 1 2 2 1 3 25 5 26 6 30 7 27 8 29 9 28 10 4 11 5 12 6 13
REMARK SMILES IDX 24 14 8 15 23 16 10 17 9 18 12 19 11 20 7 21 13 22 14 25
REMARK SMILES IDX 22 26 15 27 21 28 16 29 20 30 17 31 19 32 18 33
REMARK H PARENT 1 4 13 23 13 24
ROOT
ATOM      1  C   UNL     1      47.030 133.741  21.764  1.00  0.00     0.024 C 
ENDROOT
BRANCH   1   2
ATOM      2  C   UNL     1      48.278 134.092  22.114  1.00  0.00     0.119 C 
BRANCH   2   3
ATOM      3  O   UNL     1      49.059 133.211  22.867  1.00  0.00    -0.508 OA
ATOM      4  H   UNL     1      50.065 133.159  22.759  1.00  0.00     0.293 HD
ENDBRANCH   2   3
BRANCH   2   5
ATOM      5  C   UNL     1      48.848 135.396  21.695  1.00  0.00     0.016 A 
ATOM      6  C   UNL     1      48.146 136.256  20.828  1.00  0.00     0.012 A 
ATOM      7  C   UNL     1      50.107 135.795  22.179  1.00  0.00     0.012 A 
ATOM      8  C   UNL     1      48.700 137.483  20.449  1.00  0.00     0.001 A 
ATOM      9  C   UNL     1      50.656 137.022  21.796  1.00  0.00     0.001 A 
ATOM     10  C   UNL     1      49.953 137.866  20.931  1.00  0.00     0.000 A 
ENDBRANCH   2   5
ENDBRANCH   1   2
BRANCH   1  11
ATOM     11  C   UNL     1      46.711 132.481  21.008  1.00  0.00     0.070 C 
BRANCH  11  12
ATOM     12  C   UNL     1      45.271 132.101  21.236  1.00  0.00    -0.002 A 
ATOM     13  C   UNL     1      44.750 131.922  22.539  1.00  0.00     0.127 A 
ATOM     14  C   UNL     1      44.375 131.963  20.165  1.00  0.00    -0.030 A 
ATOM     15  C   UNL     1      43.390 131.588  22.730  1.00  0.00     0.038 A 
ATOM     16  C   UNL     1      44.560 132.113  18.810  1.00  0.00     0.050 A 
ATOM     17  C   UNL     1      43.053 131.642  20.355  1.00  0.00    -0.125 A 
ATOM     18  C   UNL     1      42.529 131.440  21.629  1.00  0.00    -0.012 A 
ATOM     19  C   UNL     1      43.308 131.871  18.256  1.00  0.00     0.037 A 
ATOM     20  N   UNL     1      42.378 131.572  19.193  1.00  0.00    -0.610 NA
ATOM     21  F   UNL     1      45.551 132.069  23.627  1.00  0.00    -0.207 F 
BRANCH  19  22
ATOM     22  N   UNL     1      43.024 131.898  16.850  1.00  0.00    -0.282 N 
ATOM     23  H   UNL     1      42.178 131.320  16.646  1.00  0.00     0.358 HD
ATOM     24  H   UNL     1      42.838 132.883  16.552  1.00  0.00     0.358 HD
BRANCH  22  25
ATOM     25  C   UNL     1      44.147 131.376  16.131  1.00  0.00     0.246 A 
ATOM     26  N   UNL     1      45.006 130.456  16.641  1.00  0.00    -0.177 NA
ATOM     27  C   UNL     1      44.550 131.793  14.871  1.00  0.00     0.183 A 
ATOM     28  C   UNL     1      45.915 130.323  15.652  1.00  0.00     0.143 A 
ATOM     29  N   UNL     1      45.665 131.110  14.587  1.00  0.00    -0.301 N 
ATOM     30  C   UNL     1      47.027 129.483  15.675  1.00  0.00     0.048 A 
ATOM     31  C   UNL     1      46.451 131.147  13.480  1.00  0.00     0.093 A 
ATOM     32  C   UNL     1      47.868 129.486  14.548  1.00  0.00     0.005 A 
ATOM     33  C   UNL     1      47.581 130.319  13.445  1.00  0.00     0.018 A 
ENDBRANCH  22  25
ENDBRANCH  19  22
ENDBRANCH  11  12
ENDBRANCH   1  11
TORSDOF 7
ENDMDL
MODEL 6
REMARK VINA RESULT:      -7.2      4.265      7.786
REMARK SMILES O/C(=C\Cc1c(F)ccc2[n-]c([NH2+]c3cn4ccccc4n3)cc12)c1ccccc1
REMARK SMILES IDX 3 1 2 2 1 3 25 5 26 6 30 7 27 8 29 9 28 10 4 11 5 12 6 13
REMARK SMILES IDX 24 14 8 15 23 16 10 17 9 18 12 19 11 20 7 21 13 22 14 25
REMARK SMILES IDX 22 26 15 27 21 28 16 29 20 30 17 31 19 32 18 33
REMARK H PARENT 1 4 13 23 13 24
ROOT
ATOM      1  C   UNL     1      47.098 125.948  22.813  1.00  0.00     0.024 C 
ENDROOT
BRANCH   1   2
ATOM      2  C   UNL     1      47.800 124.848  23.132  1.00  0.00     0.119 C 
BRANCH   2   3
ATOM      3  O   UNL     1      47.618 124.250  24.381  1.00  0.00    -0.508 OA
ATOM      4  H   UNL     1      46.698 124.030  24.743  1.00  0.00     0.293 HD
ENDBRANCH   2   3
BRANCH   2   5
ATOM      5  C   UNL     1      48.753 124.247  22.166  1.00  0.00     0.016 A 
ATOM      6  C   UNL     1      50.142 124.278  22.395  1.00  0.00     0.012 A 
ATOM      7  C   UNL     1      48.267 123.623  21.003  1.00  0.00     0.012 A 
ATOM      8  C   UNL     1      51.023 123.702  21.474  1.00  0.00     0.001 A 
ATOM      9  C   UNL     1      49.151 123.049  20.085  1.00  0.00     0.001 A 
ATOM     10  C   UNL     1      50.529 123.090  20.320  1.00  0.00     0.000 A 
ENDBRANCH   2   5
ENDBRANCH   1   2
BRANCH   1  11
ATOM     11  C   UNL     1      45.770 125.902  22.108  1.00  0.00     0.070 C 
BRANCH  11  12
ATOM     12  C   UNL     1      44.745 126.667  22.903  1.00  0.00    -0.002 A 
ATOM     13  C   UNL     1      43.931 126.029  23.870  1.00  0.00     0.127 A 
ATOM     14  C   UNL     1      44.594 128.054  22.755  1.00  0.00    -0.030 A 
ATOM     15  C   UNL     1      42.991 126.772  24.620  1.00  0.00     0.038 A 
ATOM     16  C   UNL     1      45.252 128.951  21.947  1.00  0.00     0.050 A 
ATOM     17  C   UNL     1      43.681 128.772  23.490  1.00  0.00    -0.125 A 
ATOM     18  C   UNL     1      42.857 128.157  24.429  1.00  0.00    -0.012 A 
ATOM     19  C   UNL     1      44.685 130.183  22.255  1.00  0.00     0.037 A 
ATOM     20  N   UNL     1      43.714 130.084  23.193  1.00  0.00    -0.610 NA
ATOM     21  F   UNL     1      44.042 124.694  24.090  1.00  0.00    -0.207 F 
BRANCH  19  22
ATOM     22  N   UNL     1      45.052 131.423  21.634  1.00  0.00    -0.282 N 
ATOM     23  H   UNL     1      44.434 132.191  21.979  1.00  0.00     0.358 HD
ATOM     24  H   UNL     1      46.043 131.653  21.878  1.00  0.00     0.358 HD
BRANCH  22  25
ATOM     25  C   UNL     1      44.917 131.299  20.214  1.00  0.00     0.246 A 
ATOM     26  N   UNL     1      45.901 130.834  19.402  1.00  0.00    -0.177 NA
ATOM     27  C   UNL     1      43.813 131.707  19.480  1.00  0.00     0.183 A 
ATOM     28  C   UNL     1      45.353 130.958  18.175  1.00  0.00     0.143 A 
ATOM     29  N   UNL     1      44.109 131.476  18.195  1.00  0.00    -0.301 N 
ATOM     30  C   UNL     1      45.964 130.613  16.970  1.00  0.00     0.048 A 
ATOM     31  C   UNL     1      43.369 131.697  17.078  1.00  0.00     0.093 A 
ATOM     32  C   UNL     1      45.233 130.823  15.787  1.00  0.00     0.005 A 
ATOM     33  C   UNL     1      43.932 131.365  15.838  1.00  0.00     0.018 A 
ENDBRANCH  22  25
ENDBRANCH  19  22
ENDBRANCH  11  12
ENDBRANCH   1  11
TORSDOF 7
ENDMDL
MODEL 7
REMARK VINA RESULT:      -6.2      4.962      7.890
REMARK SMILES O/C(=C\Cc1c(F)ccc2[n-]c([NH2+]c3cn4ccccc4n3)cc12)c1ccccc1
REMARK SMILES IDX 3 1 2 2 1 3 25 5 26 6 30 7 27 8 29 9 28 10 4 11 5 12 6 13
REMARK SMILES IDX 24 14 8 15 23 16 10 17 9 18 12 19 11 20 7 21 13 22 14 25
REMARK SMILES IDX 22 26 15 27 21 28 16 29 20 30 17 31 19 32 18 33
REMARK H PARENT 1 4 13 23 13 24
ROOT
ATOM      1  C   UNL     1      49.280 125.319  22.656  1.00  0.00     0.024 C 
ENDROOT
BRANCH   1   2
ATOM      2  C   UNL     1      50.278 124.462  22.388  1.00  0.00     0.119 C 
BRANCH   2   3
ATOM      3  O   UNL     1      50.945 123.827  23.438  1.00  0.00    -0.508 OA
ATOM      4  H   UNL     1      51.539 124.334  24.083  1.00  0.00     0.293 HD
ENDBRANCH   2   3
BRANCH   2   5
ATOM      5  C   UNL     1      50.671 124.166  20.988  1.00  0.00     0.016 A 
ATOM      6  C   UNL     1      49.835 123.419  20.136  1.00  0.00     0.012 A 
ATOM      7  C   UNL     1      51.896 124.647  20.491  1.00  0.00     0.012 A 
ATOM      8  C   UNL     1      50.223 123.155  18.819  1.00  0.00     0.001 A 
ATOM      9  C   UNL     1      52.280 124.379  19.174  1.00  0.00     0.001 A 
ATOM     10  C   UNL     1      51.444 123.633  18.338  1.00  0.00     0.000 A 
ENDBRANCH   2   5
ENDBRANCH   1   2
BRANCH   1  11
ATOM     11  C   UNL     1      48.338 125.150  23.816  1.00  0.00     0.070 C 
BRANCH  11  12
ATOM     12  C   UNL     1      46.975 124.755  23.314  1.00  0.00    -0.002 A 
ATOM     13  C   UNL     1      46.736 123.481  22.745  1.00  0.00     0.127 A 
ATOM     14  C   UNL     1      45.874 125.616  23.439  1.00  0.00    -0.030 A 
ATOM     15  C   UNL     1      45.442 123.124  22.300  1.00  0.00     0.038 A 
ATOM     16  C   UNL     1      45.773 126.878  23.976  1.00  0.00     0.050 A 
ATOM     17  C   UNL     1      44.618 125.263  23.009  1.00  0.00    -0.125 A 
ATOM     18  C   UNL     1      44.369 124.022  22.427  1.00  0.00    -0.012 A 
ATOM     19  C   UNL     1      44.430 127.213  23.836  1.00  0.00     0.037 A 
ATOM     20  N   UNL     1      43.714 126.234  23.236  1.00  0.00    -0.610 NA
ATOM     21  F   UNL     1      47.747 122.583  22.620  1.00  0.00    -0.207 F 
BRANCH  19  22
ATOM     22  N   UNL     1      43.860 128.463  24.246  1.00  0.00    -0.282 N 
ATOM     23  H   UNL     1      42.862 128.326  24.523  1.00  0.00     0.358 HD
ATOM     24  H   UNL     1      44.389 128.834  25.068  1.00  0.00     0.358 HD
BRANCH  22  25
ATOM     25  C   UNL     1      43.932 129.395  23.160  1.00  0.00     0.246 A 
ATOM     26  N   UNL     1      42.935 130.260  22.844  1.00  0.00    -0.177 NA
ATOM     27  C   UNL     1      44.976 129.480  22.252  1.00  0.00     0.183 A 
ATOM     28  C   UNL     1      43.416 130.872  21.741  1.00  0.00     0.143 A 
ATOM     29  N   UNL     1      44.631 130.424  21.368  1.00  0.00    -0.301 N 
ATOM     30  C   UNL     1      42.766 131.866  21.011  1.00  0.00     0.048 A 
ATOM     31  C   UNL     1      45.303 130.889  20.284  1.00  0.00     0.093 A 
ATOM     32  C   UNL     1      43.427 132.379  19.881  1.00  0.00     0.005 A 
ATOM     33  C   UNL     1      44.699 131.893  19.515  1.00  0.00     0.018 A 
ENDBRANCH  22  25
ENDBRANCH  19  22
ENDBRANCH  11  12
ENDBRANCH   1  11
TORSDOF 7
ENDMDL
MODEL 8
REMARK VINA RESULT:      -6.0      5.016      7.631
REMARK SMILES O/C(=C\Cc1c(F)ccc2[n-]c([NH2+]c3cn4ccccc4n3)cc12)c1ccccc1
REMARK SMILES IDX 3 1 2 2 1 3 25 5 26 6 30 7 27 8 29 9 28 10 4 11 5 12 6 13
REMARK SMILES IDX 24 14 8 15 23 16 10 17 9 18 12 19 11 20 7 21 13 22 14 25
REMARK SMILES IDX 22 26 15 27 21 28 16 29 20 30 17 31 19 32 18 33
REMARK H PARENT 1 4 13 23 13 24
ROOT
ATOM      1  C   UNL     1      45.671 132.102  16.477  1.00  0.00     0.024 C 
ENDROOT
BRANCH   1   2
ATOM      2  C   UNL     1      45.494 131.732  15.199  1.00  0.00     0.119 C 
BRANCH   2   3
ATOM      3  O   UNL     1      44.320 132.090  14.530  1.00  0.00    -0.508 OA
ATOM      4  H   UNL     1      44.302 132.825  13.833  1.00  0.00     0.293 HD
ENDBRANCH   2   3
BRANCH   2   5
ATOM      5  C   UNL     1      46.538 130.963  14.478  1.00  0.00     0.016 A 
ATOM      6  C   UNL     1      47.058 131.411  13.248  1.00  0.00     0.012 A 
ATOM      7  C   UNL     1      47.031 129.767  15.032  1.00  0.00     0.012 A 
ATOM      8  C   UNL     1      48.046 130.672  12.587  1.00  0.00     0.001 A 
ATOM      9  C   UNL     1      48.017 129.033  14.367  1.00  0.00     0.001 A 
ATOM     10  C   UNL     1      48.523 129.485  13.144  1.00  0.00     0.000 A 
ENDBRANCH   2   5
ENDBRANCH   1   2
BRANCH   1  11
ATOM     11  C   UNL     1      45.644 131.132  17.626  1.00  0.00     0.070 C 
BRANCH  11  12
ATOM     12  C   UNL     1      44.594 131.550  18.622  1.00  0.00    -0.002 A 
ATOM     13  C   UNL     1      43.215 131.504  18.307  1.00  0.00     0.127 A 
ATOM     14  C   UNL     1      44.940 131.952  19.921  1.00  0.00    -0.030 A 
ATOM     15  C   UNL     1      42.246 131.880  19.265  1.00  0.00     0.038 A 
ATOM     16  C   UNL     1      46.166 132.059  20.535  1.00  0.00     0.050 A 
ATOM     17  C   UNL     1      43.995 132.313  20.850  1.00  0.00    -0.125 A 
ATOM     18  C   UNL     1      42.635 132.294  20.550  1.00  0.00    -0.012 A 
ATOM     19  C   UNL     1      45.876 132.484  21.827  1.00  0.00     0.037 A 
ATOM     20  N   UNL     1      44.548 132.652  22.029  1.00  0.00    -0.610 NA
ATOM     21  F   UNL     1      42.803 131.095  17.079  1.00  0.00    -0.207 F 
BRANCH  19  22
ATOM     22  N   UNL     1      46.862 132.751  22.834  1.00  0.00    -0.282 N 
ATOM     23  H   UNL     1      46.395 133.006  23.732  1.00  0.00     0.358 HD
ATOM     24  H   UNL     1      47.442 131.895  22.987  1.00  0.00     0.358 HD
BRANCH  22  25
ATOM     25  C   UNL     1      47.697 133.833  22.403  1.00  0.00     0.246 A 
ATOM     26  N   UNL     1      48.932 134.079  22.911  1.00  0.00    -0.177 NA
ATOM     27  C   UNL     1      47.329 134.806  21.486  1.00  0.00     0.183 A 
ATOM     28  C   UNL     1      49.296 135.207  22.265  1.00  0.00     0.143 A 
ATOM     29  N   UNL     1      48.358 135.659  21.410  1.00  0.00    -0.301 N 
ATOM     30  C   UNL     1      50.502 135.887  22.428  1.00  0.00     0.048 A 
ATOM     31  C   UNL     1      48.504 136.781  20.659  1.00  0.00     0.093 A 
ATOM     32  C   UNL     1      50.698 137.053  21.668  1.00  0.00     0.005 A 
ATOM     33  C   UNL     1      49.700 137.503  20.779  1.00  0.00     0.018 A 
ENDBRANCH  22  25
ENDBRANCH  19  22
ENDBRANCH  11  12
ENDBRANCH   1  11
TORSDOF 7
ENDMDL


