MODEL 1
REMARK VINA RESULT:      -4.9      0.000      0.000
REMARK SMILES C[C@@H](CO)[N-]C(=O)C[N+]1=C(O)c2cc(-c3ccc4[nH]ccc4c3)cnc2C1
REMARK SMILES IDX 5 1 2 2 1 3 3 4 4 5 6 7 7 8 8 9 9 10 27 11 10 12 26 13 12 14
REMARK SMILES IDX 25 15 13 16 24 17 14 18 11 19 15 21 16 22 23 23 17 24 22 25
REMARK SMILES IDX 18 26 21 27 19 28 20 29
REMARK H PARENT 4 6 11 20 19 30
ROOT
ATOM      1  N   UNL     1      44.316 129.770  23.211  1.00  0.00    -0.644 NA
ENDROOT
BRANCH   1   2
ATOM      2  C   UNL     1      43.951 128.796  24.239  1.00  0.00    -0.084 C 
ATOM      3  C   UNL     1      42.477 128.962  24.623  1.00  0.00    -0.011 C 
BRANCH   2   4
ATOM      4  C   UNL     1      44.232 127.377  23.726  1.00  0.00     0.140 C 
BRANCH   4   5
ATOM      5  O   UNL     1      45.272 127.370  22.784  1.00  0.00    -0.398 OA
ATOM      6  H   UNL     1      45.012 128.003  22.064  1.00  0.00     0.210 HD
ENDBRANCH   4   5
ENDBRANCH   2   4
ENDBRANCH   1   2
BRANCH   1   7
ATOM      7  C   UNL     1      43.958 131.158  23.204  1.00  0.00     0.117 C 
ATOM      8  O   UNL     1      44.600 131.952  23.939  1.00  0.00    -0.313 OA
BRANCH   7   9
ATOM      9  C   UNL     1      42.799 131.682  22.401  1.00  0.00     0.410 C 
BRANCH   9  10
ATOM     10  N   UNL     1      43.088 131.603  20.966  1.00  0.00    -0.186 N 
ATOM     11  C   UNL     1      42.168 132.062  19.913  1.00  0.00     0.412 C 
ATOM     12  C   UNL     1      44.220 131.219  20.449  1.00  0.00     0.370 C 
ATOM     13  C   UNL     1      42.971 131.838  18.680  1.00  0.00     0.122 A 
ATOM     14  C   UNL     1      44.195 131.335  19.006  1.00  0.00     0.115 A 
ATOM     15  N   UNL     1      42.615 132.069  17.393  1.00  0.00    -0.253 NA
ATOM     16  C   UNL     1      45.137 131.035  18.028  1.00  0.00     0.031 A 
ATOM     17  C   UNL     1      43.499 131.792  16.389  1.00  0.00     0.120 A 
ATOM     18  C   UNL     1      44.787 131.266  16.679  1.00  0.00     0.001 A 
BRANCH  12  19
ATOM     19  O   UNL     1      45.302 130.768  21.203  1.00  0.00    -0.460 OA
ATOM     20  H   UNL     1      46.192 130.562  20.769  1.00  0.00     0.300 HD
ENDBRANCH  12  19
BRANCH  18  21
ATOM     21  C   UNL     1      45.746 130.964  15.587  1.00  0.00    -0.016 A 
ATOM     22  C   UNL     1      45.633 131.619  14.329  1.00  0.00     0.011 A 
ATOM     23  C   UNL     1      46.784 130.022  15.786  1.00  0.00     0.019 A 
ATOM     24  C   UNL     1      46.537 131.342  13.288  1.00  0.00     0.027 A 
ATOM     25  C   UNL     1      47.660 129.774  14.734  1.00  0.00    -0.000 A 
ATOM     26  C   UNL     1      47.542 130.410  13.528  1.00  0.00     0.045 A 
ATOM     27  C   UNL     1      48.744 128.928  14.649  1.00  0.00     0.028 A 
ATOM     28  N   UNL     1      48.501 130.006  12.680  1.00  0.00    -0.361 N 
ATOM     29  C   UNL     1      49.239 129.100  13.360  1.00  0.00     0.083 A 
ATOM     30  H   UNL     1      48.651 130.324  11.696  1.00  0.00     0.166 HD
ENDBRANCH  18  21
ENDBRANCH   9  10
ENDBRANCH   7   9
ENDBRANCH   1   7
TORSDOF 8
ENDMDL
MODEL 2
REMARK VINA RESULT:      -4.5      1.134      1.361
REMARK SMILES C[C@@H](CO)[N-]C(=O)C[N+]1=C(O)c2cc(-c3ccc4[nH]ccc4c3)cnc2C1
REMARK SMILES IDX 5 1 2 2 1 3 3 4 4 5 6 7 7 8 8 9 9 10 27 11 10 12 26 13 12 14
REMARK SMILES IDX 25 15 13 16 24 17 14 18 11 19 15 21 16 22 23 23 17 24 22 25
REMARK SMILES IDX 18 26 21 27 19 28 20 29
REMARK H PARENT 4 6 11 20 19 30
ROOT
ATOM      1  N   UNL     1      44.379 128.693  22.554  1.00  0.00    -0.644 NA
ENDROOT
BRANCH   1   2
ATOM      2  C   UNL     1      44.267 127.245  22.725  1.00  0.00    -0.084 C 
ATOM      3  C   UNL     1      45.193 126.775  23.852  1.00  0.00    -0.011 C 
BRANCH   2   4
ATOM      4  C   UNL     1      42.806 126.874  23.019  1.00  0.00     0.140 C 
BRANCH   4   5
ATOM      5  O   UNL     1      42.485 127.087  24.369  1.00  0.00    -0.398 OA
ATOM      6  H   UNL     1      41.754 126.455  24.594  1.00  0.00     0.210 HD
ENDBRANCH   4   5
ENDBRANCH   2   4
ENDBRANCH   1   2
BRANCH   1   7
ATOM      7  C   UNL     1      43.749 129.688  23.372  1.00  0.00     0.117 C 
ATOM      8  O   UNL     1      43.677 129.492  24.613  1.00  0.00    -0.313 OA
BRANCH   7   9
ATOM      9  C   UNL     1      43.112 130.919  22.789  1.00  0.00     0.410 C 
BRANCH   9  10
ATOM     10  N   UNL     1      43.340 130.982  21.343  1.00  0.00    -0.186 N 
ATOM     11  C   UNL     1      42.323 131.401  20.365  1.00  0.00     0.412 C 
ATOM     12  C   UNL     1      44.484 130.781  20.754  1.00  0.00     0.370 C 
ATOM     13  C   UNL     1      43.087 131.369  19.088  1.00  0.00     0.122 A 
ATOM     14  C   UNL     1      44.377 130.999  19.327  1.00  0.00     0.115 A 
ATOM     15  N   UNL     1      42.645 131.649  17.838  1.00  0.00    -0.253 NA
ATOM     16  C   UNL     1      45.300 130.891  18.293  1.00  0.00     0.031 A 
ATOM     17  C   UNL     1      43.507 131.558  16.782  1.00  0.00     0.120 A 
ATOM     18  C   UNL     1      44.861 131.175  16.981  1.00  0.00     0.001 A 
BRANCH  12  19
ATOM     19  O   UNL     1      45.647 130.413  21.428  1.00  0.00    -0.460 OA
ATOM     20  H   UNL     1      45.937 130.891  22.270  1.00  0.00     0.300 HD
ENDBRANCH  12  19
BRANCH  18  21
ATOM     21  C   UNL     1      45.797 131.076  15.832  1.00  0.00    -0.016 A 
ATOM     22  C   UNL     1      45.984 132.183  14.959  1.00  0.00     0.011 A 
ATOM     23  C   UNL     1      46.514 129.878  15.595  1.00  0.00     0.019 A 
ATOM     24  C   UNL     1      46.869 132.101  13.868  1.00  0.00     0.027 A 
ATOM     25  C   UNL     1      47.380 129.834  14.507  1.00  0.00    -0.000 A 
ATOM     26  C   UNL     1      47.553 130.905  13.673  1.00  0.00     0.045 A 
ATOM     27  C   UNL     1      48.194 128.820  14.049  1.00  0.00     0.028 A 
ATOM     28  N   UNL     1      48.437 130.619  12.705  1.00  0.00    -0.361 N 
ATOM     29  C   UNL     1      48.833 129.345  12.930  1.00  0.00     0.083 A 
ATOM     30  H   UNL     1      48.758 131.247  11.935  1.00  0.00     0.166 HD
ENDBRANCH  18  21
ENDBRANCH   9  10
ENDBRANCH   7   9
ENDBRANCH   1   7
TORSDOF 8
ENDMDL
MODEL 3
REMARK VINA RESULT:      -4.4      2.225      3.704
REMARK SMILES C[C@@H](CO)[N-]C(=O)C[N+]1=C(O)c2cc(-c3ccc4[nH]ccc4c3)cnc2C1
REMARK SMILES IDX 5 1 2 2 1 3 3 4 4 5 6 7 7 8 8 9 9 10 27 11 10 12 26 13 12 14
REMARK SMILES IDX 25 15 13 16 24 17 14 18 11 19 15 21 16 22 23 23 17 24 22 25
REMARK SMILES IDX 18 26 21 27 19 28 20 29
REMARK H PARENT 4 6 11 20 19 30
ROOT
ATOM      1  N   UNL     1      45.432 125.773  22.982  1.00  0.00    -0.644 NA
ENDROOT
BRANCH   1   2
ATOM      2  C   UNL     1      46.139 124.524  23.260  1.00  0.00    -0.084 C 
ATOM      3  C   UNL     1      47.147 124.229  22.144  1.00  0.00    -0.011 C 
BRANCH   2   4
ATOM      4  C   UNL     1      46.839 124.622  24.624  1.00  0.00     0.140 C 
BRANCH   4   5
ATOM      5  O   UNL     1      48.062 123.935  24.622  1.00  0.00    -0.398 OA
ATOM      6  H   UNL     1      48.259 123.696  25.565  1.00  0.00     0.210 HD
ENDBRANCH   4   5
ENDBRANCH   2   4
ENDBRANCH   1   2
BRANCH   1   7
ATOM      7  C   UNL     1      44.641 126.517  23.918  1.00  0.00     0.117 C 
ATOM      8  O   UNL     1      43.632 125.966  24.430  1.00  0.00    -0.313 OA
BRANCH   7   9
ATOM      9  C   UNL     1      44.936 127.954  24.253  1.00  0.00     0.410 C 
BRANCH   9  10
ATOM     10  N   UNL     1      44.887 128.785  23.047  1.00  0.00    -0.186 N 
ATOM     11  C   UNL     1      44.537 130.215  23.044  1.00  0.00     0.412 C 
ATOM     12  C   UNL     1      45.242 128.399  21.855  1.00  0.00     0.370 C 
ATOM     13  C   UNL     1      44.723 130.578  21.613  1.00  0.00     0.122 A 
ATOM     14  C   UNL     1      45.144 129.490  20.907  1.00  0.00     0.115 A 
ATOM     15  N   UNL     1      44.524 131.780  21.019  1.00  0.00    -0.253 NA
ATOM     16  C   UNL     1      45.390 129.566  19.541  1.00  0.00     0.031 A 
ATOM     17  C   UNL     1      44.748 131.914  19.678  1.00  0.00     0.120 A 
ATOM     18  C   UNL     1      45.187 130.809  18.901  1.00  0.00     0.001 A 
BRANCH  12  19
ATOM     19  O   UNL     1      45.665 127.106  21.554  1.00  0.00    -0.460 OA
ATOM     20  H   UNL     1      45.708 126.391  22.267  1.00  0.00     0.300 HD
ENDBRANCH  12  19
BRANCH  18  21
ATOM     21  C   UNL     1      45.428 130.956  17.443  1.00  0.00    -0.016 A 
ATOM     22  C   UNL     1      44.601 131.806  16.659  1.00  0.00     0.011 A 
ATOM     23  C   UNL     1      46.487 130.253  16.819  1.00  0.00     0.019 A 
ATOM     24  C   UNL     1      44.821 131.955  15.277  1.00  0.00     0.027 A 
ATOM     25  C   UNL     1      46.676 130.424  15.451  1.00  0.00    -0.000 A 
ATOM     26  C   UNL     1      45.873 131.245  14.706  1.00  0.00     0.045 A 
ATOM     27  C   UNL     1      47.612 129.880  14.599  1.00  0.00     0.028 A 
ATOM     28  N   UNL     1      46.254 131.246  13.419  1.00  0.00    -0.361 N 
ATOM     29  C   UNL     1      47.317 130.413  13.348  1.00  0.00     0.083 A 
ATOM     30  H   UNL     1      45.823 131.780  12.632  1.00  0.00     0.166 HD
ENDBRANCH  18  21
ENDBRANCH   9  10
ENDBRANCH   7   9
ENDBRANCH   1   7
TORSDOF 8
ENDMDL
MODEL 4
REMARK VINA RESULT:      -4.1      1.703      2.164
REMARK SMILES C[C@@H](CO)[N-]C(=O)C[N+]1=C(O)c2cc(-c3ccc4[nH]ccc4c3)cnc2C1
REMARK SMILES IDX 5 1 2 2 1 3 3 4 4 5 6 7 7 8 8 9 9 10 27 11 10 12 26 13 12 14
REMARK SMILES IDX 25 15 13 16 24 17 14 18 11 19 15 21 16 22 23 23 17 24 22 25
REMARK SMILES IDX 18 26 21 27 19 28 20 29
REMARK H PARENT 4 6 11 20 19 30
ROOT
ATOM      1  N   UNL     1      41.788 130.665  24.452  1.00  0.00    -0.644 NA
ENDROOT
BRANCH   1   2
ATOM      2  C   UNL     1      41.848 129.279  23.992  1.00  0.00    -0.084 C 
ATOM      3  C   UNL     1      40.867 129.064  22.834  1.00  0.00    -0.011 C 
BRANCH   2   4
ATOM      4  C   UNL     1      43.285 128.940  23.568  1.00  0.00     0.140 C 
BRANCH   4   5
ATOM      5  O   UNL     1      44.189 129.138  24.623  1.00  0.00    -0.398 OA
ATOM      6  H   UNL     1      43.719 128.878  25.458  1.00  0.00     0.210 HD
ENDBRANCH   4   5
ENDBRANCH   2   4
ENDBRANCH   1   2
BRANCH   1   7
ATOM      7  C   UNL     1      42.271 131.810  23.738  1.00  0.00     0.117 C 
ATOM      8  O   UNL     1      43.046 132.607  24.328  1.00  0.00    -0.313 OA
BRANCH   7   9
ATOM      9  C   UNL     1      41.829 132.126  22.335  1.00  0.00     0.410 C 
BRANCH   9  10
ATOM     10  N   UNL     1      42.879 131.780  21.374  1.00  0.00    -0.186 N 
ATOM     11  C   UNL     1      44.002 130.875  21.669  1.00  0.00     0.412 C 
ATOM     12  C   UNL     1      42.898 132.139  20.122  1.00  0.00     0.370 C 
ATOM     13  C   UNL     1      44.698 130.805  20.355  1.00  0.00     0.122 A 
ATOM     14  C   UNL     1      44.035 131.562  19.435  1.00  0.00     0.115 A 
ATOM     15  N   UNL     1      45.825 130.121  20.037  1.00  0.00    -0.253 NA
ATOM     16  C   UNL     1      44.486 131.666  18.125  1.00  0.00     0.031 A 
ATOM     17  C   UNL     1      46.316 130.187  18.764  1.00  0.00     0.120 A 
ATOM     18  C   UNL     1      45.660 130.963  17.771  1.00  0.00     0.001 A 
BRANCH  12  19
ATOM     19  O   UNL     1      41.938 132.964  19.539  1.00  0.00    -0.460 OA
ATOM     20  H   UNL     1      40.951 132.799  19.682  1.00  0.00     0.300 HD
ENDBRANCH  12  19
BRANCH  18  21
ATOM     21  C   UNL     1      46.196 131.034  16.389  1.00  0.00    -0.016 A 
ATOM     22  C   UNL     1      46.078 132.233  15.632  1.00  0.00     0.011 A 
ATOM     23  C   UNL     1      46.832 129.909  15.809  1.00  0.00     0.019 A 
ATOM     24  C   UNL     1      46.584 132.312  14.322  1.00  0.00     0.027 A 
ATOM     25  C   UNL     1      47.321 130.025  14.511  1.00  0.00    -0.000 A 
ATOM     26  C   UNL     1      47.202 131.183  13.792  1.00  0.00     0.045 A 
ATOM     27  C   UNL     1      47.976 129.111  13.715  1.00  0.00     0.028 A 
ATOM     28  N   UNL     1      47.750 131.047  12.575  1.00  0.00    -0.361 N 
ATOM     29  C   UNL     1      48.225 129.782  12.522  1.00  0.00     0.083 A 
ATOM     30  H   UNL     1      47.802 131.768  11.821  1.00  0.00     0.166 HD
ENDBRANCH  18  21
ENDBRANCH   9  10
ENDBRANCH   7   9
ENDBRANCH   1   7
TORSDOF 8
ENDMDL
MODEL 5
REMARK VINA RESULT:      -4.0      1.985      2.382
REMARK SMILES C[C@@H](CO)[N-]C(=O)C[N+]1=C(O)c2cc(-c3ccc4[nH]ccc4c3)cnc2C1
REMARK SMILES IDX 5 1 2 2 1 3 3 4 4 5 6 7 7 8 8 9 9 10 27 11 10 12 26 13 12 14
REMARK SMILES IDX 25 15 13 16 24 17 14 18 11 19 15 21 16 22 23 23 17 24 22 25
REMARK SMILES IDX 18 26 21 27 19 28 20 29
REMARK H PARENT 4 6 11 20 19 30
ROOT
ATOM      1  N   UNL     1      42.544 130.626  23.854  1.00  0.00    -0.644 NA
ENDROOT
BRANCH   1   2
ATOM      2  C   UNL     1      42.311 129.415  23.068  1.00  0.00    -0.084 C 
ATOM      3  C   UNL     1      43.646 128.822  22.605  1.00  0.00    -0.011 C 
BRANCH   2   4
ATOM      4  C   UNL     1      41.519 128.402  23.908  1.00  0.00     0.140 C 
BRANCH   4   5
ATOM      5  O   UNL     1      40.255 128.904  24.257  1.00  0.00    -0.398 OA
ATOM      6  H   UNL     1      39.995 129.547  23.547  1.00  0.00     0.210 HD
ENDBRANCH   4   5
ENDBRANCH   2   4
ENDBRANCH   1   2
BRANCH   1   7
ATOM      7  C   UNL     1      41.936 131.904  23.627  1.00  0.00     0.117 C 
ATOM      8  O   UNL     1      41.604 132.601  24.621  1.00  0.00    -0.313 OA
BRANCH   7   9
ATOM      9  C   UNL     1      41.621 132.408  22.245  1.00  0.00     0.410 C 
BRANCH   9  10
ATOM     10  N   UNL     1      42.697 132.063  21.312  1.00  0.00    -0.186 N 
ATOM     11  C   UNL     1      43.956 131.412  21.710  1.00  0.00     0.412 C 
ATOM     12  C   UNL     1      42.637 132.188  20.018  1.00  0.00     0.370 C 
ATOM     13  C   UNL     1      44.633 131.216  20.399  1.00  0.00     0.122 A 
ATOM     14  C   UNL     1      43.840 131.681  19.392  1.00  0.00     0.115 A 
ATOM     15  N   UNL     1      45.849 130.670  20.156  1.00  0.00    -0.253 NA
ATOM     16  C   UNL     1      44.247 131.615  18.064  1.00  0.00     0.031 A 
ATOM     17  C   UNL     1      46.302 130.580  18.870  1.00  0.00     0.120 A 
ATOM     18  C   UNL     1      45.513 131.052  17.787  1.00  0.00     0.001 A 
BRANCH  12  19
ATOM     19  O   UNL     1      41.547 132.733  19.343  1.00  0.00    -0.460 OA
ATOM     20  H   UNL     1      41.430 133.735  19.261  1.00  0.00     0.300 HD
ENDBRANCH  12  19
BRANCH  18  21
ATOM     21  C   UNL     1      46.007 130.954  16.391  1.00  0.00    -0.016 A 
ATOM     22  C   UNL     1      45.539 131.857  15.397  1.00  0.00     0.011 A 
ATOM     23  C   UNL     1      46.952 129.961  16.034  1.00  0.00     0.019 A 
ATOM     24  C   UNL     1      46.001 131.775  14.071  1.00  0.00     0.027 A 
ATOM     25  C   UNL     1      47.387 129.910  14.713  1.00  0.00    -0.000 A 
ATOM     26  C   UNL     1      46.930 130.785  13.765  1.00  0.00     0.045 A 
ATOM     27  C   UNL     1      48.288 129.069  14.097  1.00  0.00     0.028 A 
ATOM     28  N   UNL     1      47.497 130.537  12.574  1.00  0.00    -0.361 N 
ATOM     29  C   UNL     1      48.328 129.489  12.771  1.00  0.00     0.083 A 
ATOM     30  H   UNL     1      47.334 131.047  11.677  1.00  0.00     0.166 HD
ENDBRANCH  18  21
ENDBRANCH   9  10
ENDBRANCH   7   9
ENDBRANCH   1   7
TORSDOF 8
ENDMDL
MODEL 6
REMARK VINA RESULT:      -3.3      2.728      3.781
REMARK SMILES C[C@@H](CO)[N-]C(=O)C[N+]1=C(O)c2cc(-c3ccc4[nH]ccc4c3)cnc2C1
REMARK SMILES IDX 5 1 2 2 1 3 3 4 4 5 6 7 7 8 8 9 9 10 27 11 10 12 26 13 12 14
REMARK SMILES IDX 25 15 13 16 24 17 14 18 11 19 15 21 16 22 23 23 17 24 22 25
REMARK SMILES IDX 18 26 21 27 19 28 20 29
REMARK H PARENT 4 6 11 20 19 30
ROOT
ATOM      1  N   UNL     1      47.195 133.351  23.441  1.00  0.00    -0.644 NA
ENDROOT
BRANCH   1   2
ATOM      2  C   UNL     1      48.139 134.465  23.370  1.00  0.00    -0.084 C 
ATOM      3  C   UNL     1      49.487 134.053  23.970  1.00  0.00    -0.011 C 
BRANCH   2   4
ATOM      4  C   UNL     1      48.297 134.913  21.910  1.00  0.00     0.140 C 
BRANCH   4   5
ATOM      5  O   UNL     1      47.352 135.893  21.570  1.00  0.00    -0.398 OA
ATOM      6  H   UNL     1      47.679 136.333  20.742  1.00  0.00     0.210 HD
ENDBRANCH   4   5
ENDBRANCH   2   4
ENDBRANCH   1   2
BRANCH   1   7
ATOM      7  C   UNL     1      45.853 133.416  23.940  1.00  0.00     0.117 C 
ATOM      8  O   UNL     1      45.502 134.429  24.599  1.00  0.00    -0.313 OA
BRANCH   7   9
ATOM      9  C   UNL     1      44.876 132.286  23.763  1.00  0.00     0.410 C 
BRANCH   9  10
ATOM     10  N   UNL     1      44.560 132.096  22.345  1.00  0.00    -0.186 N 
ATOM     11  C   UNL     1      43.210 132.234  21.774  1.00  0.00     0.412 C 
ATOM     12  C   UNL     1      45.435 131.887  21.403  1.00  0.00     0.370 C 
ATOM     13  C   UNL     1      43.464 132.029  20.322  1.00  0.00     0.122 A 
ATOM     14  C   UNL     1      44.795 131.822  20.106  1.00  0.00     0.115 A 
ATOM     15  N   UNL     1      42.568 132.029  19.305  1.00  0.00    -0.253 NA
ATOM     16  C   UNL     1      45.293 131.602  18.827  1.00  0.00     0.031 A 
ATOM     17  C   UNL     1      43.000 131.817  18.026  1.00  0.00     0.120 A 
ATOM     18  C   UNL     1      44.377 131.596  17.752  1.00  0.00     0.001 A 
BRANCH  12  19
ATOM     19  O   UNL     1      46.803 131.753  21.633  1.00  0.00    -0.460 OA
ATOM     20  H   UNL     1      47.166 131.000  22.202  1.00  0.00     0.300 HD
ENDBRANCH  12  19
BRANCH  18  21
ATOM     21  C   UNL     1      44.844 131.364  16.362  1.00  0.00    -0.016 A 
ATOM     22  C   UNL     1      43.930 131.434  15.274  1.00  0.00     0.011 A 
ATOM     23  C   UNL     1      46.206 131.071  16.105  1.00  0.00     0.019 A 
ATOM     24  C   UNL     1      44.362 131.217  13.953  1.00  0.00     0.027 A 
ATOM     25  C   UNL     1      46.597 130.863  14.786  1.00  0.00    -0.000 A 
ATOM     26  C   UNL     1      45.709 130.933  13.747  1.00  0.00     0.045 A 
ATOM     27  C   UNL     1      47.833 130.572  14.252  1.00  0.00     0.028 A 
ATOM     28  N   UNL     1      46.324 130.698  12.577  1.00  0.00    -0.361 N 
ATOM     29  C   UNL     1      47.623 130.477  12.880  1.00  0.00     0.083 A 
ATOM     30  H   UNL     1      45.892 130.689  11.626  1.00  0.00     0.166 HD
ENDBRANCH  18  21
ENDBRANCH   9  10
ENDBRANCH   7   9
ENDBRANCH   1   7
TORSDOF 8
ENDMDL
MODEL 7
REMARK VINA RESULT:      -3.3      2.057      2.943
REMARK SMILES C[C@@H](CO)[N-]C(=O)C[N+]1=C(O)c2cc(-c3ccc4[nH]ccc4c3)cnc2C1
REMARK SMILES IDX 5 1 2 2 1 3 3 4 4 5 6 7 7 8 8 9 9 10 27 11 10 12 26 13 12 14
REMARK SMILES IDX 25 15 13 16 24 17 14 18 11 19 15 21 16 22 23 23 17 24 22 25
REMARK SMILES IDX 18 26 21 27 19 28 20 29
REMARK H PARENT 4 6 11 20 19 30
ROOT
ATOM      1  N   UNL     1      40.930 129.290  23.667  1.00  0.00    -0.644 NA
ENDROOT
BRANCH   1   2
ATOM      2  C   UNL     1      40.800 128.191  24.623  1.00  0.00    -0.084 C 
ATOM      3  C   UNL     1      39.363 127.660  24.624  1.00  0.00    -0.011 C 
BRANCH   2   4
ATOM      4  C   UNL     1      41.799 127.080  24.267  1.00  0.00     0.140 C 
BRANCH   4   5
ATOM      5  O   UNL     1      43.123 127.544  24.328  1.00  0.00    -0.398 OA
ATOM      6  H   UNL     1      43.284 127.832  25.264  1.00  0.00     0.210 HD
ENDBRANCH   4   5
ENDBRANCH   2   4
ENDBRANCH   1   2
BRANCH   1   7
ATOM      7  C   UNL     1      41.415 130.606  23.961  1.00  0.00     0.117 C 
ATOM      8  O   UNL     1      40.604 131.569  23.936  1.00  0.00    -0.313 OA
BRANCH   7   9
ATOM      9  C   UNL     1      42.869 130.884  24.230  1.00  0.00     0.410 C 
BRANCH   9  10
ATOM     10  N   UNL     1      43.663 130.694  23.013  1.00  0.00    -0.186 N 
ATOM     11  C   UNL     1      44.764 129.725  22.889  1.00  0.00     0.412 C 
ATOM     12  C   UNL     1      43.433 131.273  21.869  1.00  0.00     0.370 C 
ATOM     13  C   UNL     1      45.154 129.879  21.461  1.00  0.00     0.122 A 
ATOM     14  C   UNL     1      44.356 130.804  20.857  1.00  0.00     0.115 A 
ATOM     15  N   UNL     1      46.140 129.238  20.787  1.00  0.00    -0.253 NA
ATOM     16  C   UNL     1      44.519 131.133  19.516  1.00  0.00     0.031 A 
ATOM     17  C   UNL     1      46.348 129.522  19.466  1.00  0.00     0.120 A 
ATOM     18  C   UNL     1      45.542 130.479  18.794  1.00  0.00     0.001 A 
BRANCH  12  19
ATOM     19  O   UNL     1      42.423 132.211  21.666  1.00  0.00    -0.460 OA
ATOM     20  H   UNL     1      41.449 131.937  21.650  1.00  0.00     0.300 HD
ENDBRANCH  12  19
BRANCH  18  21
ATOM     21  C   UNL     1      45.770 130.787  17.359  1.00  0.00    -0.016 A 
ATOM     22  C   UNL     1      45.203 131.954  16.775  1.00  0.00     0.011 A 
ATOM     23  C   UNL     1      46.555 129.923  16.558  1.00  0.00     0.019 A 
ATOM     24  C   UNL     1      45.414 132.256  15.417  1.00  0.00     0.027 A 
ATOM     25  C   UNL     1      46.742 130.254  15.220  1.00  0.00    -0.000 A 
ATOM     26  C   UNL     1      46.193 131.379  14.668  1.00  0.00     0.045 A 
ATOM     27  C   UNL     1      47.450 129.612  14.227  1.00  0.00     0.028 A 
ATOM     28  N   UNL     1      46.517 131.481  13.369  1.00  0.00    -0.361 N 
ATOM     29  C   UNL     1      47.286 130.404  13.095  1.00  0.00     0.083 A 
ATOM     30  H   UNL     1      46.236 132.237  12.705  1.00  0.00     0.166 HD
ENDBRANCH  18  21
ENDBRANCH   9  10
ENDBRANCH   7   9
ENDBRANCH   1   7
TORSDOF 8
ENDMDL
MODEL 8
REMARK VINA RESULT:      -3.0      2.351      3.057
REMARK SMILES C[C@@H](CO)[N-]C(=O)C[N+]1=C(O)c2cc(-c3ccc4[nH]ccc4c3)cnc2C1
REMARK SMILES IDX 5 1 2 2 1 3 3 4 4 5 6 7 7 8 8 9 9 10 27 11 10 12 26 13 12 14
REMARK SMILES IDX 25 15 13 16 24 17 14 18 11 19 15 21 16 22 23 23 17 24 22 25
REMARK SMILES IDX 18 26 21 27 19 28 20 29
REMARK H PARENT 4 6 11 20 19 30
ROOT
ATOM      1  N   UNL     1      41.950 129.302  23.778  1.00  0.00    -0.644 NA
ENDROOT
BRANCH   1   2
ATOM      2  C   UNL     1      41.092 128.130  23.611  1.00  0.00    -0.084 C 
ATOM      3  C   UNL     1      41.912 126.847  23.783  1.00  0.00    -0.011 C 
BRANCH   2   4
ATOM      4  C   UNL     1      39.939 128.189  24.625  1.00  0.00     0.140 C 
BRANCH   4   5
ATOM      5  O   UNL     1      39.110 129.297  24.393  1.00  0.00    -0.398 OA
ATOM      6  H   UNL     1      39.707 130.074  24.229  1.00  0.00     0.210 HD
ENDBRANCH   4   5
ENDBRANCH   2   4
ENDBRANCH   1   2
BRANCH   1   7
ATOM      7  C   UNL     1      41.511 130.623  24.121  1.00  0.00     0.117 C 
ATOM      8  O   UNL     1      40.367 130.768  24.624  1.00  0.00    -0.313 OA
BRANCH   7   9
ATOM      9  C   UNL     1      42.343 131.843  23.837  1.00  0.00     0.410 C 
BRANCH   9  10
ATOM     10  N   UNL     1      43.194 131.625  22.663  1.00  0.00    -0.186 N 
ATOM     11  C   UNL     1      44.515 130.977  22.711  1.00  0.00     0.412 C 
ATOM     12  C   UNL     1      42.853 131.876  21.432  1.00  0.00     0.370 C 
ATOM     13  C   UNL     1      44.891 130.932  21.272  1.00  0.00     0.122 A 
ATOM     14  C   UNL     1      43.895 131.471  20.513  1.00  0.00     0.115 A 
ATOM     15  N   UNL     1      46.030 130.451  20.717  1.00  0.00    -0.253 NA
ATOM     16  C   UNL     1      44.004 131.549  19.129  1.00  0.00     0.031 A 
ATOM     17  C   UNL     1      46.194 130.503  19.361  1.00  0.00     0.120 A 
ATOM     18  C   UNL     1      45.183 131.055  18.529  1.00  0.00     0.001 A 
BRANCH  12  19
ATOM     19  O   UNL     1      41.637 132.453  21.068  1.00  0.00    -0.460 OA
ATOM     20  H   UNL     1      41.178 133.126  21.667  1.00  0.00     0.300 HD
ENDBRANCH  12  19
BRANCH  18  21
ATOM     21  C   UNL     1      45.363 131.112  17.056  1.00  0.00    -0.016 A 
ATOM     22  C   UNL     1      44.386 131.740  16.236  1.00  0.00     0.011 A 
ATOM     23  C   UNL     1      46.511 130.543  16.453  1.00  0.00     0.019 A 
ATOM     24  C   UNL     1      44.547 131.802  14.839  1.00  0.00     0.027 A 
ATOM     25  C   UNL     1      46.637 130.623  15.070  1.00  0.00    -0.000 A 
ATOM     26  C   UNL     1      45.690 131.230  14.290  1.00  0.00     0.045 A 
ATOM     27  C   UNL     1      47.632 130.169  14.231  1.00  0.00     0.028 A 
ATOM     28  N   UNL     1      46.036 131.181  12.994  1.00  0.00    -0.361 N 
ATOM     29  C   UNL     1      47.223 130.534  12.952  1.00  0.00     0.083 A 
ATOM     30  H   UNL     1      45.503 131.564  12.182  1.00  0.00     0.166 HD
ENDBRANCH  18  21
ENDBRANCH   9  10
ENDBRANCH   7   9
ENDBRANCH   1   7
TORSDOF 8
ENDMDL
MODEL 9
REMARK VINA RESULT:      -2.9      1.209      1.709
REMARK SMILES C[C@@H](CO)[N-]C(=O)C[N+]1=C(O)c2cc(-c3ccc4[nH]ccc4c3)cnc2C1
REMARK SMILES IDX 5 1 2 2 1 3 3 4 4 5 6 7 7 8 8 9 9 10 27 11 10 12 26 13 12 14
REMARK SMILES IDX 25 15 13 16 24 17 14 18 11 19 15 21 16 22 23 23 17 24 22 25
REMARK SMILES IDX 18 26 21 27 19 28 20 29
REMARK H PARENT 4 6 11 20 19 30
ROOT
ATOM      1  N   UNL     1      43.279 130.262  24.035  1.00  0.00    -0.644 NA
ENDROOT
BRANCH   1   2
ATOM      2  C   UNL     1      44.437 129.390  23.845  1.00  0.00    -0.084 C 
ATOM      3  C   UNL     1      44.245 128.082  24.620  1.00  0.00    -0.011 C 
BRANCH   2   4
ATOM      4  C   UNL     1      44.637 129.120  22.346  1.00  0.00     0.140 C 
BRANCH   4   5
ATOM      5  O   UNL     1      44.070 127.893  21.968  1.00  0.00    -0.398 OA
ATOM      6  H   UNL     1      43.373 127.677  22.642  1.00  0.00     0.210 HD
ENDBRANCH   4   5
ENDBRANCH   2   4
ENDBRANCH   1   2
BRANCH   1   7
ATOM      7  C   UNL     1      42.978 131.439  23.273  1.00  0.00     0.117 C 
ATOM      8  O   UNL     1      41.772 131.732  23.064  1.00  0.00    -0.313 OA
BRANCH   7   9
ATOM      9  C   UNL     1      44.054 132.293  22.659  1.00  0.00     0.410 C 
BRANCH   9  10
ATOM     10  N   UNL     1      44.172 132.020  21.224  1.00  0.00    -0.186 N 
ATOM     11  C   UNL     1      43.131 132.341  20.235  1.00  0.00     0.412 C 
ATOM     12  C   UNL     1      45.239 131.563  20.633  1.00  0.00     0.370 C 
ATOM     13  C   UNL     1      43.784 131.949  18.957  1.00  0.00     0.122 A 
ATOM     14  C   UNL     1      45.043 131.485  19.201  1.00  0.00     0.115 A 
ATOM     15  N   UNL     1      43.276 132.009  17.702  1.00  0.00    -0.253 NA
ATOM     16  C   UNL     1      45.865 131.051  18.167  1.00  0.00     0.031 A 
ATOM     17  C   UNL     1      44.038 131.594  16.646  1.00  0.00     0.120 A 
ATOM     18  C   UNL     1      45.356 131.102  16.850  1.00  0.00     0.001 A 
BRANCH  12  19
ATOM     19  O   UNL     1      46.406 131.209  21.307  1.00  0.00    -0.460 OA
ATOM     20  H   UNL     1      46.746 130.257  21.299  1.00  0.00     0.300 HD
ENDBRANCH  12  19
BRANCH  18  21
ATOM     21  C   UNL     1      46.182 130.651  15.702  1.00  0.00    -0.016 A 
ATOM     22  C   UNL     1      46.690 129.323  15.659  1.00  0.00     0.011 A 
ATOM     23  C   UNL     1      46.471 131.538  14.637  1.00  0.00     0.019 A 
ATOM     24  C   UNL     1      47.473 128.884  14.576  1.00  0.00     0.027 A 
ATOM     25  C   UNL     1      47.248 131.069  13.582  1.00  0.00    -0.000 A 
ATOM     26  C   UNL     1      47.732 129.790  13.550  1.00  0.00     0.045 A 
ATOM     27  C   UNL     1      47.674 131.698  12.432  1.00  0.00     0.028 A 
ATOM     28  N   UNL     1      48.447 129.576  12.435  1.00  0.00    -0.361 N 
ATOM     29  C   UNL     1      48.415 130.740  11.747  1.00  0.00     0.083 A 
ATOM     30  H   UNL     1      48.930 128.695  12.151  1.00  0.00     0.166 HD
ENDBRANCH  18  21
ENDBRANCH   9  10
ENDBRANCH   7   9
ENDBRANCH   1   7
TORSDOF 8
ENDMDL


