MODEL 1
REMARK VINA RESULT:      -8.6      0.000      0.000
REMARK SMILES C/C=C/C(O)=N/c1ccc(-c2ccc(C)cc2)cc1C=O
REMARK SMILES IDX 4 1 5 2 6 4 7 5 8 6 19 7 9 8 18 9 10 10 20 11 21 12 11 13
REMARK SMILES IDX 12 14 17 15 13 16 16 17 14 18 15 19 3 20 2 21 1 22
REMARK H PARENT 5 3
ROOT
ATOM      1  C   UNL     1      43.244 130.053  22.986  1.00  0.00     0.210 C 
ENDROOT
BRANCH   1   2
ATOM      2  O   UNL     1      41.856 129.911  23.043  1.00  0.00    -0.493 OA
ATOM      3  H   UNL     1      41.234 130.653  23.336  1.00  0.00     0.295 HD
ENDBRANCH   1   2
BRANCH   1   4
ATOM      4  N   UNL     1      43.809 131.050  22.364  1.00  0.00    -0.214 NA
BRANCH   4   5
ATOM      5  C   UNL     1      44.329 131.041  21.024  1.00  0.00     0.078 A 
ATOM      6  C   UNL     1      45.433 130.237  20.699  1.00  0.00     0.030 A 
ATOM      7  C   UNL     1      43.662 131.751  20.004  1.00  0.00     0.041 A 
ATOM      8  C   UNL     1      45.910 130.179  19.390  1.00  0.00     0.011 A 
ATOM      9  C   UNL     1      44.152 131.688  18.686  1.00  0.00     0.022 A 
ATOM     10  C   UNL     1      45.280 130.909  18.370  1.00  0.00    -0.018 A 
BRANCH   7  11
ATOM     11  C   UNL     1      42.467 132.568  20.311  1.00  0.00     0.262 C 
ATOM     12  O   UNL     1      41.601 132.813  19.429  1.00  0.00    -0.298 OA
ENDBRANCH   7  11
BRANCH  10  13
ATOM     13  C   UNL     1      45.789 130.850  16.975  1.00  0.00    -0.018 A 
ATOM     14  C   UNL     1      45.606 131.935  16.101  1.00  0.00     0.009 A 
ATOM     15  C   UNL     1      46.454 129.703  16.507  1.00  0.00     0.009 A 
ATOM     16  C   UNL     1      46.084 131.878  14.788  1.00  0.00     0.004 A 
ATOM     17  C   UNL     1      46.932 129.647  15.194  1.00  0.00     0.004 A 
ATOM     18  C   UNL     1      46.764 130.740  14.332  1.00  0.00    -0.051 A 
ATOM     19  C   UNL     1      47.242 130.662  12.912  1.00  0.00     0.044 C 
ENDBRANCH  10  13
ENDBRANCH   4   5
ENDBRANCH   1   4
BRANCH   1  20
ATOM     20  C   UNL     1      44.070 129.012  23.623  1.00  0.00     0.063 C 
BRANCH  20  21
ATOM     21  C   UNL     1      44.168 127.768  23.144  1.00  0.00    -0.025 C 
ATOM     22  C   UNL     1      43.839 126.588  24.003  1.00  0.00     0.036 C 
ENDBRANCH  20  21
ENDBRANCH   1  20
TORSDOF 7
ENDMDL
MODEL 2
REMARK VINA RESULT:      -8.4      1.123      1.283
REMARK SMILES C/C=C/C(O)=N/c1ccc(-c2ccc(C)cc2)cc1C=O
REMARK SMILES IDX 4 1 5 2 6 4 7 5 8 6 19 7 9 8 18 9 10 10 20 11 21 12 11 13
REMARK SMILES IDX 12 14 17 15 13 16 16 17 14 18 15 19 3 20 2 21 1 22
REMARK H PARENT 5 3
ROOT
ATOM      1  C   UNL     1      43.482 131.292  22.840  1.00  0.00     0.210 C 
ENDROOT
BRANCH   1   2
ATOM      2  O   UNL     1      44.657 131.888  23.304  1.00  0.00    -0.493 OA
ATOM      3  H   UNL     1      45.119 132.649  22.824  1.00  0.00     0.295 HD
ENDBRANCH   1   2
BRANCH   1   4
ATOM      4  N   UNL     1      43.011 131.533  21.648  1.00  0.00    -0.214 NA
BRANCH   4   5
ATOM      5  C   UNL     1      43.736 131.457  20.409  1.00  0.00     0.078 A 
ATOM      6  C   UNL     1      44.992 130.832  20.361  1.00  0.00     0.030 A 
ATOM      7  C   UNL     1      43.139 131.909  19.213  1.00  0.00     0.041 A 
ATOM      8  C   UNL     1      45.678 130.706  19.154  1.00  0.00     0.011 A 
ATOM      9  C   UNL     1      43.840 131.777  18.000  1.00  0.00     0.022 A 
ATOM     10  C   UNL     1      45.114 131.183  17.960  1.00  0.00    -0.018 A 
BRANCH   7  11
ATOM     11  C   UNL     1      41.794 132.527  19.229  1.00  0.00     0.262 C 
ATOM     12  O   UNL     1      41.358 133.110  20.258  1.00  0.00    -0.298 OA
ENDBRANCH   7  11
BRANCH  10  13
ATOM     13  C   UNL     1      45.844 131.050  16.674  1.00  0.00    -0.018 A 
ATOM     14  C   UNL     1      45.899 132.124  15.768  1.00  0.00     0.009 A 
ATOM     15  C   UNL     1      46.486 129.844  16.339  1.00  0.00     0.009 A 
ATOM     16  C   UNL     1      46.586 131.997  14.557  1.00  0.00     0.004 A 
ATOM     17  C   UNL     1      47.173 129.719  15.128  1.00  0.00     0.004 A 
ATOM     18  C   UNL     1      47.240 130.800  14.236  1.00  0.00    -0.051 A 
ATOM     19  C   UNL     1      47.943 130.651  12.919  1.00  0.00     0.044 C 
ENDBRANCH  10  13
ENDBRANCH   4   5
ENDBRANCH   1   4
BRANCH   1  20
ATOM     20  C   UNL     1      42.754 130.398  23.758  1.00  0.00     0.063 C 
BRANCH  20  21
ATOM     21  C   UNL     1      43.250 129.232  24.184  1.00  0.00    -0.025 C 
ATOM     22  C   UNL     1      44.301 128.513  23.398  1.00  0.00     0.036 C 
ENDBRANCH  20  21
ENDBRANCH   1  20
TORSDOF 7
ENDMDL
MODEL 3
REMARK VINA RESULT:      -8.2      1.266      1.723
REMARK SMILES C/C=C/C(O)=N/c1ccc(-c2ccc(C)cc2)cc1C=O
REMARK SMILES IDX 4 1 5 2 6 4 7 5 8 6 19 7 9 8 18 9 10 10 20 11 21 12 11 13
REMARK SMILES IDX 12 14 17 15 13 16 16 17 14 18 15 19 3 20 2 21 1 22
REMARK H PARENT 5 3
ROOT
ATOM      1  C   UNL     1      43.953 130.270  23.766  1.00  0.00     0.210 C 
ENDROOT
BRANCH   1   2
ATOM      2  O   UNL     1      45.135 130.261  24.511  1.00  0.00    -0.493 OA
ATOM      3  H   UNL     1      45.976 129.787  24.209  1.00  0.00     0.295 HD
ENDBRANCH   1   2
BRANCH   1   4
ATOM      4  N   UNL     1      43.723 131.168  22.849  1.00  0.00    -0.214 NA
BRANCH   4   5
ATOM      5  C   UNL     1      44.216 131.159  21.499  1.00  0.00     0.078 A 
ATOM      6  C   UNL     1      45.415 130.500  21.188  1.00  0.00     0.030 A 
ATOM      7  C   UNL     1      43.439 131.715  20.460  1.00  0.00     0.041 A 
ATOM      8  C   UNL     1      45.874 130.439  19.873  1.00  0.00     0.011 A 
ATOM      9  C   UNL     1      43.911 131.650  19.136  1.00  0.00     0.022 A 
ATOM     10  C   UNL     1      45.131 131.019  18.832  1.00  0.00    -0.018 A 
BRANCH   7  11
ATOM     11  C   UNL     1      42.146 132.373  20.756  1.00  0.00     0.262 C 
ATOM     12  O   UNL     1      41.723 133.323  20.045  1.00  0.00    -0.298 OA
ENDBRANCH   7  11
BRANCH  10  13
ATOM     13  C   UNL     1      45.619 130.957  17.431  1.00  0.00    -0.018 A 
ATOM     14  C   UNL     1      46.215 129.786  16.932  1.00  0.00     0.009 A 
ATOM     15  C   UNL     1      45.499 132.074  16.584  1.00  0.00     0.009 A 
ATOM     16  C   UNL     1      46.675 129.730  15.613  1.00  0.00     0.004 A 
ATOM     17  C   UNL     1      45.959 132.016  15.265  1.00  0.00     0.004 A 
ATOM     18  C   UNL     1      46.536 130.839  14.767  1.00  0.00    -0.051 A 
ATOM     19  C   UNL     1      47.065 130.792  13.364  1.00  0.00     0.044 C 
ENDBRANCH  10  13
ENDBRANCH   4   5
ENDBRANCH   1   4
BRANCH   1  20
ATOM     20  C   UNL     1      42.937 129.247  24.075  1.00  0.00     0.063 C 
BRANCH  20  21
ATOM     21  C   UNL     1      41.749 129.194  23.463  1.00  0.00    -0.025 C 
ATOM     22  C   UNL     1      40.925 127.946  23.495  1.00  0.00     0.036 C 
ENDBRANCH  20  21
ENDBRANCH   1  20
TORSDOF 7
ENDMDL
MODEL 4
REMARK VINA RESULT:      -7.9      1.094      1.197
REMARK SMILES C/C=C/C(O)=N/c1ccc(-c2ccc(C)cc2)cc1C=O
REMARK SMILES IDX 4 1 5 2 6 4 7 5 8 6 19 7 9 8 18 9 10 10 20 11 21 12 11 13
REMARK SMILES IDX 12 14 17 15 13 16 16 17 14 18 15 19 3 20 2 21 1 22
REMARK H PARENT 5 3
ROOT
ATOM      1  C   UNL     1      43.522 130.180  22.770  1.00  0.00     0.210 C 
ENDROOT
BRANCH   1   2
ATOM      2  O   UNL     1      44.163 128.967  22.507  1.00  0.00    -0.493 OA
ATOM      3  H   UNL     1      44.091 128.160  23.112  1.00  0.00     0.295 HD
ENDBRANCH   1   2
BRANCH   1   4
ATOM      4  N   UNL     1      43.633 131.205  21.973  1.00  0.00    -0.214 NA
BRANCH   4   5
ATOM      5  C   UNL     1      44.210 131.208  20.656  1.00  0.00     0.078 A 
ATOM      6  C   UNL     1      45.493 130.680  20.446  1.00  0.00     0.030 A 
ATOM      7  C   UNL     1      43.445 131.638  19.551  1.00  0.00     0.041 A 
ATOM      8  C   UNL     1      46.040 130.629  19.164  1.00  0.00     0.011 A 
ATOM      9  C   UNL     1      44.006 131.583  18.262  1.00  0.00     0.022 A 
ATOM     10  C   UNL     1      45.306 131.086  18.058  1.00  0.00    -0.018 A 
BRANCH   7  11
ATOM     11  C   UNL     1      42.071 132.153  19.741  1.00  0.00     0.262 C 
ATOM     12  O   UNL     1      41.863 133.364  20.019  1.00  0.00    -0.298 OA
ENDBRANCH   7  11
BRANCH  10  13
ATOM     13  C   UNL     1      45.888 131.034  16.692  1.00  0.00    -0.018 A 
ATOM     14  C   UNL     1      45.862 132.167  15.860  1.00  0.00     0.009 A 
ATOM     15  C   UNL     1      46.466 129.847  16.208  1.00  0.00     0.009 A 
ATOM     16  C   UNL     1      46.409 132.116  14.574  1.00  0.00     0.004 A 
ATOM     17  C   UNL     1      47.013 129.798  14.922  1.00  0.00     0.004 A 
ATOM     18  C   UNL     1      47.001 130.936  14.103  1.00  0.00    -0.051 A 
ATOM     19  C   UNL     1      47.552 130.870  12.709  1.00  0.00     0.044 C 
ENDBRANCH  10  13
ENDBRANCH   4   5
ENDBRANCH   1   4
BRANCH   1  20
ATOM     20  C   UNL     1      42.735 130.288  24.012  1.00  0.00     0.063 C 
BRANCH  20  21
ATOM     21  C   UNL     1      41.735 129.453  24.315  1.00  0.00    -0.025 C 
ATOM     22  C   UNL     1      42.004 128.015  24.625  1.00  0.00     0.036 C 
ENDBRANCH  20  21
ENDBRANCH   1  20
TORSDOF 7
ENDMDL
MODEL 5
REMARK VINA RESULT:      -7.4      0.881      1.386
REMARK SMILES C/C=C/C(O)=N/c1ccc(-c2ccc(C)cc2)cc1C=O
REMARK SMILES IDX 4 1 5 2 6 4 7 5 8 6 19 7 9 8 18 9 10 10 20 11 21 12 11 13
REMARK SMILES IDX 12 14 17 15 13 16 16 17 14 18 15 19 3 20 2 21 1 22
REMARK H PARENT 5 3
ROOT
ATOM      1  C   UNL     1      43.111 130.862  23.296  1.00  0.00     0.210 C 
ENDROOT
BRANCH   1   2
ATOM      2  O   UNL     1      42.775 131.133  24.625  1.00  0.00    -0.493 OA
ATOM      3  H   UNL     1      43.462 131.320  25.343  1.00  0.00     0.295 HD
ENDBRANCH   1   2
BRANCH   1   4
ATOM      4  N   UNL     1      43.346 131.814  22.437  1.00  0.00    -0.214 NA
BRANCH   4   5
ATOM      5  C   UNL     1      43.938 131.667  21.135  1.00  0.00     0.078 A 
ATOM      6  C   UNL     1      45.087 130.879  20.966  1.00  0.00     0.030 A 
ATOM      7  C   UNL     1      43.302 132.221  20.004  1.00  0.00     0.041 A 
ATOM      8  C   UNL     1      45.636 130.686  19.699  1.00  0.00     0.011 A 
ATOM      9  C   UNL     1      43.865 132.022  18.730  1.00  0.00     0.022 A 
ATOM     10  C   UNL     1      45.036 131.260  18.567  1.00  0.00    -0.018 A 
BRANCH   7  11
ATOM     11  C   UNL     1      42.062 133.016  20.151  1.00  0.00     0.262 C 
ATOM     12  O   UNL     1      40.929 132.468  20.099  1.00  0.00    -0.298 OA
ENDBRANCH   7  11
BRANCH  10  13
ATOM     13  C   UNL     1      45.622 131.057  17.217  1.00  0.00    -0.018 A 
ATOM     14  C   UNL     1      46.143 129.806  16.844  1.00  0.00     0.009 A 
ATOM     15  C   UNL     1      45.671 132.117  16.294  1.00  0.00     0.009 A 
ATOM     16  C   UNL     1      46.694 129.617  15.573  1.00  0.00     0.004 A 
ATOM     17  C   UNL     1      46.223 131.927  15.024  1.00  0.00     0.004 A 
ATOM     18  C   UNL     1      46.724 130.671  14.650  1.00  0.00    -0.051 A 
ATOM     19  C   UNL     1      47.352 130.479  13.301  1.00  0.00     0.044 C 
ENDBRANCH  10  13
ENDBRANCH   4   5
ENDBRANCH   1   4
BRANCH   1  20
ATOM     20  C   UNL     1      43.156 129.452  22.871  1.00  0.00     0.063 C 
BRANCH  20  21
ATOM     21  C   UNL     1      43.235 128.434  23.734  1.00  0.00    -0.025 C 
ATOM     22  C   UNL     1      44.540 128.062  24.364  1.00  0.00     0.036 C 
ENDBRANCH  20  21
ENDBRANCH   1  20
TORSDOF 7
ENDMDL
MODEL 6
REMARK VINA RESULT:      -7.1      1.673      2.250
REMARK SMILES C/C=C/C(O)=N/c1ccc(-c2ccc(C)cc2)cc1C=O
REMARK SMILES IDX 4 1 5 2 6 4 7 5 8 6 19 7 9 8 18 9 10 10 20 11 21 12 11 13
REMARK SMILES IDX 12 14 17 15 13 16 16 17 14 18 15 19 3 20 2 21 1 22
REMARK H PARENT 5 3
ROOT
ATOM      1  C   UNL     1      42.819 131.609  22.471  1.00  0.00     0.210 C 
ENDROOT
BRANCH   1   2
ATOM      2  O   UNL     1      43.163 132.343  23.608  1.00  0.00    -0.493 OA
ATOM      3  H   UNL     1      44.085 132.732  23.759  1.00  0.00     0.295 HD
ENDBRANCH   1   2
BRANCH   1   4
ATOM      4  N   UNL     1      42.671 132.174  21.305  1.00  0.00    -0.214 NA
BRANCH   4   5
ATOM      5  C   UNL     1      43.406 131.874  20.107  1.00  0.00     0.078 A 
ATOM      6  C   UNL     1      42.744 131.794  18.872  1.00  0.00     0.030 A 
ATOM      7  C   UNL     1      44.812 131.769  20.150  1.00  0.00     0.041 A 
ATOM      8  C   UNL     1      43.457 131.557  17.697  1.00  0.00     0.011 A 
ATOM      9  C   UNL     1      45.522 131.529  18.959  1.00  0.00     0.022 A 
ATOM     10  C   UNL     1      44.853 131.415  17.727  1.00  0.00    -0.018 A 
BRANCH   7  11
ATOM     11  C   UNL     1      45.539 131.898  21.433  1.00  0.00     0.262 C 
ATOM     12  O   UNL     1      46.783 132.091  21.460  1.00  0.00    -0.298 OA
ENDBRANCH   7  11
BRANCH  10  13
ATOM     13  C   UNL     1      45.613 131.161  16.477  1.00  0.00    -0.018 A 
ATOM     14  C   UNL     1      45.839 132.196  15.553  1.00  0.00     0.009 A 
ATOM     15  C   UNL     1      46.113 129.877  16.194  1.00  0.00     0.009 A 
ATOM     16  C   UNL     1      46.553 131.955  14.376  1.00  0.00     0.004 A 
ATOM     17  C   UNL     1      46.828 129.637  15.017  1.00  0.00     0.004 A 
ATOM     18  C   UNL     1      47.065 130.678  14.108  1.00  0.00    -0.051 A 
ATOM     19  C   UNL     1      47.798 130.410  12.826  1.00  0.00     0.044 C 
ENDBRANCH  10  13
ENDBRANCH   4   5
ENDBRANCH   1   4
BRANCH   1  20
ATOM     20  C   UNL     1      42.587 130.162  22.629  1.00  0.00     0.063 C 
BRANCH  20  21
ATOM     21  C   UNL     1      43.041 129.462  23.673  1.00  0.00    -0.025 C 
ATOM     22  C   UNL     1      44.509 129.322  23.922  1.00  0.00     0.036 C 
ENDBRANCH  20  21
ENDBRANCH   1  20
TORSDOF 7
ENDMDL
MODEL 7
REMARK VINA RESULT:      -6.9      1.405      2.366
REMARK SMILES C/C=C/C(O)=N/c1ccc(-c2ccc(C)cc2)cc1C=O
REMARK SMILES IDX 4 1 5 2 6 4 7 5 8 6 19 7 9 8 18 9 10 10 20 11 21 12 11 13
REMARK SMILES IDX 12 14 17 15 13 16 16 17 14 18 15 19 3 20 2 21 1 22
REMARK H PARENT 5 3
ROOT
ATOM      1  C   UNL     1      42.969 130.692  23.093  1.00  0.00     0.210 C 
ENDROOT
BRANCH   1   2
ATOM      2  O   UNL     1      41.826 131.490  23.182  1.00  0.00    -0.493 OA
ATOM      3  H   UNL     1      41.856 132.481  23.378  1.00  0.00     0.295 HD
ENDBRANCH   1   2
BRANCH   1   4
ATOM      4  N   UNL     1      44.080 131.135  22.574  1.00  0.00    -0.214 NA
BRANCH   4   5
ATOM      5  C   UNL     1      44.469 131.063  21.192  1.00  0.00     0.078 A 
ATOM      6  C   UNL     1      44.078 132.069  20.294  1.00  0.00     0.030 A 
ATOM      7  C   UNL     1      45.340 130.042  20.756  1.00  0.00     0.041 A 
ATOM      8  C   UNL     1      44.496 132.036  18.964  1.00  0.00     0.011 A 
ATOM      9  C   UNL     1      45.755 130.018  19.412  1.00  0.00     0.022 A 
ATOM     10  C   UNL     1      45.333 131.007  18.505  1.00  0.00    -0.018 A 
BRANCH   7  11
ATOM     11  C   UNL     1      45.806 128.998  21.695  1.00  0.00     0.262 C 
ATOM     12  O   UNL     1      45.249 127.869  21.742  1.00  0.00    -0.298 OA
ENDBRANCH   7  11
BRANCH  10  13
ATOM     13  C   UNL     1      45.777 130.970  17.089  1.00  0.00    -0.018 A 
ATOM     14  C   UNL     1      45.737 132.131  16.296  1.00  0.00     0.009 A 
ATOM     15  C   UNL     1      46.237 129.771  16.516  1.00  0.00     0.009 A 
ATOM     16  C   UNL     1      46.154 132.094  14.962  1.00  0.00     0.004 A 
ATOM     17  C   UNL     1      46.655 129.735  15.182  1.00  0.00     0.004 A 
ATOM     18  C   UNL     1      46.630 130.900  14.401  1.00  0.00    -0.051 A 
ATOM     19  C   UNL     1      47.040 130.852  12.959  1.00  0.00     0.044 C 
ENDBRANCH  10  13
ENDBRANCH   4   5
ENDBRANCH   1   4
BRANCH   1  20
ATOM     20  C   UNL     1      42.877 129.301  23.572  1.00  0.00     0.063 C 
BRANCH  20  21
ATOM     21  C   UNL     1      42.127 128.940  24.618  1.00  0.00    -0.025 C 
ATOM     22  C   UNL     1      40.775 128.331  24.418  1.00  0.00     0.036 C 
ENDBRANCH  20  21
ENDBRANCH   1  20
TORSDOF 7
ENDMDL
MODEL 8
REMARK VINA RESULT:      -6.8      1.690      2.432
REMARK SMILES C/C=C/C(O)=N/c1ccc(-c2ccc(C)cc2)cc1C=O
REMARK SMILES IDX 4 1 5 2 6 4 7 5 8 6 19 7 9 8 18 9 10 10 20 11 21 12 11 13
REMARK SMILES IDX 12 14 17 15 13 16 16 17 14 18 15 19 3 20 2 21 1 22
REMARK H PARENT 5 3
ROOT
ATOM      1  C   UNL     1      43.031 131.564  22.781  1.00  0.00     0.210 C 
ENDROOT
BRANCH   1   2
ATOM      2  O   UNL     1      43.306 132.378  23.883  1.00  0.00    -0.493 OA
ATOM      3  H   UNL     1      43.779 132.045  24.713  1.00  0.00     0.295 HD
ENDBRANCH   1   2
BRANCH   1   4
ATOM      4  N   UNL     1      42.758 132.063  21.608  1.00  0.00    -0.214 NA
BRANCH   4   5
ATOM      5  C   UNL     1      43.447 131.787  20.377  1.00  0.00     0.078 A 
ATOM      6  C   UNL     1      42.739 131.734  19.166  1.00  0.00     0.030 A 
ATOM      7  C   UNL     1      44.854 131.680  20.365  1.00  0.00     0.041 A 
ATOM      8  C   UNL     1      43.407 131.521  17.961  1.00  0.00     0.011 A 
ATOM      9  C   UNL     1      45.518 131.464  19.143  1.00  0.00     0.022 A 
ATOM     10  C   UNL     1      44.803 131.376  17.935  1.00  0.00    -0.018 A 
BRANCH   7  11
ATOM     11  C   UNL     1      45.628 131.781  21.622  1.00  0.00     0.262 C 
ATOM     12  O   UNL     1      46.491 132.684  21.784  1.00  0.00    -0.298 OA
ENDBRANCH   7  11
BRANCH  10  13
ATOM     13  C   UNL     1      45.515 131.147  16.652  1.00  0.00    -0.018 A 
ATOM     14  C   UNL     1      46.105 129.901  16.374  1.00  0.00     0.009 A 
ATOM     15  C   UNL     1      45.617 132.176  15.699  1.00  0.00     0.009 A 
ATOM     16  C   UNL     1      46.776 129.688  15.166  1.00  0.00     0.004 A 
ATOM     17  C   UNL     1      46.288 131.961  14.492  1.00  0.00     0.004 A 
ATOM     18  C   UNL     1      46.858 130.710  14.211  1.00  0.00    -0.051 A 
ATOM     19  C   UNL     1      47.612 130.493  12.933  1.00  0.00     0.044 C 
ENDBRANCH  10  13
ENDBRANCH   4   5
ENDBRANCH   1   4
BRANCH   1  20
ATOM     20  C   UNL     1      43.019 130.105  22.987  1.00  0.00     0.063 C 
BRANCH  20  21
ATOM     21  C   UNL     1      41.937 129.438  23.401  1.00  0.00    -0.025 C 
ATOM     22  C   UNL     1      42.069 128.212  24.248  1.00  0.00     0.036 C 
ENDBRANCH  20  21
ENDBRANCH   1  20
TORSDOF 7
ENDMDL
MODEL 9
REMARK VINA RESULT:      -6.8      1.241      1.745
REMARK SMILES C/C=C/C(O)=N/c1ccc(-c2ccc(C)cc2)cc1C=O
REMARK SMILES IDX 4 1 5 2 6 4 7 5 8 6 19 7 9 8 18 9 10 10 20 11 21 12 11 13
REMARK SMILES IDX 12 14 17 15 13 16 16 17 14 18 15 19 3 20 2 21 1 22
REMARK H PARENT 5 3
ROOT
ATOM      1  C   UNL     1      42.884 131.748  22.600  1.00  0.00     0.210 C 
ENDROOT
BRANCH   1   2
ATOM      2  O   UNL     1      41.761 131.696  23.431  1.00  0.00    -0.493 OA
ATOM      3  H   UNL     1      40.924 131.177  23.199  1.00  0.00     0.295 HD
ENDBRANCH   1   2
BRANCH   1   4
ATOM      4  N   UNL     1      42.899 132.459  21.507  1.00  0.00    -0.214 NA
BRANCH   4   5
ATOM      5  C   UNL     1      43.600 132.146  20.292  1.00  0.00     0.078 A 
ATOM      6  C   UNL     1      44.948 131.757  20.333  1.00  0.00     0.030 A 
ATOM      7  C   UNL     1      42.906 132.120  19.064  1.00  0.00     0.041 A 
ATOM      8  C   UNL     1      45.621 131.399  19.165  1.00  0.00     0.011 A 
ATOM      9  C   UNL     1      43.594 131.759  17.890  1.00  0.00     0.022 A 
ATOM     10  C   UNL     1      44.954 131.403  17.929  1.00  0.00    -0.018 A 
BRANCH   7  11
ATOM     11  C   UNL     1      41.471 132.480  19.001  1.00  0.00     0.262 C 
ATOM     12  O   UNL     1      40.913 133.096  19.947  1.00  0.00    -0.298 OA
ENDBRANCH   7  11
BRANCH  10  13
ATOM     13  C   UNL     1      45.670 131.024  16.684  1.00  0.00    -0.018 A 
ATOM     14  C   UNL     1      45.940 129.675  16.396  1.00  0.00     0.009 A 
ATOM     15  C   UNL     1      46.097 132.012  15.778  1.00  0.00     0.009 A 
ATOM     16  C   UNL     1      46.615 129.321  15.224  1.00  0.00     0.004 A 
ATOM     17  C   UNL     1      46.772 131.657  14.607  1.00  0.00     0.004 A 
ATOM     18  C   UNL     1      47.021 130.308  14.315  1.00  0.00    -0.051 A 
ATOM     19  C   UNL     1      47.781 129.930  13.078  1.00  0.00     0.044 C 
ENDBRANCH  10  13
ENDBRANCH   4   5
ENDBRANCH   1   4
BRANCH   1  20
ATOM     20  C   UNL     1      44.056 130.937  22.974  1.00  0.00     0.063 C 
BRANCH  20  21
ATOM     21  C   UNL     1      44.020 129.603  23.060  1.00  0.00    -0.025 C 
ATOM     22  C   UNL     1      44.791 128.752  22.102  1.00  0.00     0.036 C 
ENDBRANCH  20  21
ENDBRANCH   1  20
TORSDOF 7
ENDMDL


