REMARK SMILES Cc1ccc2ccc(-c3cccnc3F)[nH+]c2c1F
REMARK SMILES IDX 1 1 2 2 3 3 4 4 5 5 6 6 7 7 8 8 16 9 17 10 18 11 19 12 9 14
REMARK SMILES IDX 10 15 14 16 11 17 13 18 12 19 15 20
REMARK H PARENT 16 13
ROOT
ATOM      1  C   UNL     1       1.247   4.116  -2.923  1.00  0.00     0.048 C 
ATOM      2  C   UNL     1       0.447   3.053  -2.226  1.00  0.00    -0.008 A 
ATOM      3  C   UNL     1      -0.948   3.169  -2.127  1.00  0.00     0.007 A 
ATOM      4  C   UNL     1      -1.698   2.174  -1.497  1.00  0.00     0.015 A 
ATOM      5  C   UNL     1      -1.062   1.044  -0.964  1.00  0.00     0.050 A 
ATOM      6  C   UNL     1      -1.799   0.041  -0.327  1.00  0.00     0.022 A 
ATOM      7  C   UNL     1      -1.147  -1.076   0.192  1.00  0.00     0.081 A 
ATOM      8  C   UNL     1       0.246  -1.191   0.070  1.00  0.00     0.216 A 
ATOM      9  N   UNL     1       0.954  -0.199  -0.550  1.00  0.00    -0.202 N 
ATOM     10  C   UNL     1       0.340   0.908  -1.068  1.00  0.00     0.247 A 
ATOM     11  C   UNL     1       1.089   1.916  -1.704  1.00  0.00     0.197 A 
ATOM     12  F   UNL     1       2.438   1.794  -1.818  1.00  0.00    -0.199 F 
ATOM     13  H   UNL     1       1.994  -0.281  -0.606  1.00  0.00     0.454 HD
ENDROOT
BRANCH   8  14
ATOM     14  C   UNL     1       0.945  -2.379   0.617  1.00  0.00     0.101 A 
ATOM     15  C   UNL     1       0.640  -2.855   1.903  1.00  0.00     0.021 A 
ATOM     16  C   UNL     1       1.925  -3.057  -0.133  1.00  0.00     0.226 A 
ATOM     17  C   UNL     1       1.307  -3.969   2.415  1.00  0.00     0.021 A 
ATOM     18  N   UNL     1       2.556  -4.142   0.391  1.00  0.00    -0.228 NA
ATOM     19  C   UNL     1       2.274  -4.605   1.637  1.00  0.00     0.114 A 
ATOM     20  F   UNL     1       2.226  -2.667  -1.397  1.00  0.00    -0.184 F 
ENDBRANCH   8  14
TORSDOF 1


