REMARK SMILES C[NH2+]/C=C(/O)N1CCC[C@H](Cc2cc3ccccc3[nH]2)C1
REMARK SMILES IDX 6 1 7 2 8 3 9 4 10 5 21 6 4 7 5 8 3 10 2 11 1 14 11 15 12 16
REMARK SMILES IDX 13 17 20 18 14 19 19 20 15 21 18 22 16 23 17 24
REMARK H PARENT 5 9 2 12 2 13 20 25
ROOT
ATOM      1  N   UNL     1       1.615  -0.902  -0.652  1.00  0.00    -0.338 N 
ATOM      2  C   UNL     1       3.069  -1.048  -0.761  1.00  0.00     0.120 C 
ATOM      3  C   UNL     1       3.772  -0.103   0.218  1.00  0.00     0.022 C 
ATOM      4  C   UNL     1       3.213  -0.265   1.637  1.00  0.00     0.007 C 
ATOM      5  C   UNL     1       1.688  -0.047   1.656  1.00  0.00     0.014 C 
ATOM      6  C   UNL     1       1.012  -1.028   0.678  1.00  0.00     0.123 C 
ENDROOT
BRANCH   1   7
ATOM      7  C   UNL     1       0.811  -1.185  -1.806  1.00  0.00     0.242 C 
BRANCH   7   8
ATOM      8  O   UNL     1       0.927  -2.435  -2.413  1.00  0.00    -0.491 OA
ATOM      9  H   UNL     1       0.386  -2.687  -3.233  1.00  0.00     0.295 HD
ENDBRANCH   7   8
BRANCH   7  10
ATOM     10  C   UNL     1      -0.038  -0.270  -2.307  1.00  0.00     0.286 C 
BRANCH  10  11
ATOM     11  N   UNL     1      -0.160   1.065  -1.779  1.00  0.00    -0.318 N 
ATOM     12  H   UNL     1      -1.055   1.477  -2.131  1.00  0.00     0.351 HD
ATOM     13  H   UNL     1      -0.196   1.060  -0.735  1.00  0.00     0.351 HD
ATOM     14  C   UNL     1       0.945   1.906  -2.242  1.00  0.00     0.336 C 
ENDBRANCH  10  11
ENDBRANCH   7  10
ENDBRANCH   1   7
BRANCH   5  15
ATOM     15  C   UNL     1       1.141  -0.207   3.089  1.00  0.00     0.059 C 
BRANCH  15  16
ATOM     16  C   UNL     1      -0.304   0.188   3.174  1.00  0.00     0.016 A 
ATOM     17  C   UNL     1      -1.375  -0.700   3.242  1.00  0.00     0.031 A 
ATOM     18  N   UNL     1      -0.735   1.470   3.113  1.00  0.00    -0.358 N 
ATOM     19  C   UNL     1      -2.497   0.099   3.227  1.00  0.00    -0.000 A 
ATOM     20  C   UNL     1      -2.075   1.401   3.148  1.00  0.00     0.046 A 
ATOM     21  C   UNL     1      -3.849  -0.236   3.261  1.00  0.00     0.010 A 
ATOM     22  C   UNL     1      -2.979   2.462   3.099  1.00  0.00     0.026 A 
ATOM     23  C   UNL     1      -4.785   0.814   3.216  1.00  0.00     0.001 A 
ATOM     24  C   UNL     1      -4.352   2.157   3.135  1.00  0.00     0.002 A 
ATOM     25  H   UNL     1      -0.148   2.330   3.036  1.00  0.00     0.166 HD
ENDBRANCH  15  16
ENDBRANCH   5  15
TORSDOF 6


