REMARK SMILES Cc1cc2cc3ccccc3cc2cc1NN
REMARK SMILES IDX 16 1 15 3 2 4 3 5 4 6 14 7 5 8 13 9 6 10 12 11 7 12 11 13
REMARK SMILES IDX 8 14 10 15 9 16 1 17 17 18
REMARK H PARENT 16 2 17 19 17 20
ROOT
ATOM      1  N   UNL     1       2.008  -2.139  -1.680  1.00  0.00    -0.324 N 
ATOM      2  H   UNL     1       2.532  -1.836  -2.531  1.00  0.00     0.181 HD
ENDROOT
BRANCH   1   3
ATOM      3  C   UNL     1       1.051  -1.262  -1.051  1.00  0.00     0.052 A 
ATOM      4  C   UNL     1       0.797   0.032  -1.570  1.00  0.00    -0.026 A 
ATOM      5  C   UNL     1      -0.141   0.864  -0.935  1.00  0.00     0.014 A 
ATOM      6  C   UNL     1      -0.830   0.430   0.205  1.00  0.00    -0.017 A 
ATOM      7  C   UNL     1       0.356  -1.691   0.095  1.00  0.00     0.036 A 
ATOM      8  C   UNL     1      -1.765   1.268   0.833  1.00  0.00     0.017 A 
ATOM      9  C   UNL     1      -0.579  -0.858   0.725  1.00  0.00    -0.016 A 
ATOM     10  C   UNL     1      -2.452   0.832   1.974  1.00  0.00    -0.018 A 
ATOM     11  C   UNL     1      -1.266  -1.296   1.868  1.00  0.00     0.017 A 
ATOM     12  C   UNL     1      -3.389   1.665   2.606  1.00  0.00     0.009 A 
ATOM     13  C   UNL     1      -2.201  -0.461   2.496  1.00  0.00    -0.018 A 
ATOM     14  C   UNL     1      -4.069   1.221   3.744  1.00  0.00     0.001 A 
ATOM     15  C   UNL     1      -2.892  -0.894   3.639  1.00  0.00     0.009 A 
ATOM     16  C   UNL     1      -3.822  -0.054   4.258  1.00  0.00     0.001 A 
ATOM     17  C   UNL     1       1.512   0.541  -2.793  1.00  0.00     0.046 C 
ENDBRANCH   1   3
BRANCH   1  18
ATOM     18  N   UNL     1       2.265  -3.422  -1.172  1.00  0.00    -0.250 NA
ATOM     19  H   UNL     1       2.072  -4.102  -1.942  1.00  0.00     0.143 HD
ATOM     20  H   UNL     1       3.289  -3.472  -0.968  1.00  0.00     0.143 HD
ENDBRANCH   1  18
TORSDOF 2


