REMARK SMILES C=CCOC(=O)Oc1c([NH2+]c2ccc(C)c(F)c2)ccc([C@@H]2O[C@H]2c2ccccc2)c1N
REMARK SMILES IDX 5 1 6 2 4 3 3 4 2 5 1 6 7 7 8 8 9 9 31 10 19 11 21 12 20 13
REMARK SMILES IDX 10 14 11 17 12 18 18 19 13 20 16 21 14 22 17 23 15 24 32 25
REMARK SMILES IDX 22 28 23 29 24 30 25 31 26 32 30 33 27 34 29 35 28 36
REMARK H PARENT 10 15 10 16 32 26 32 27
ROOT
ATOM      1  C   UNL     1       0.005   1.531  -3.152  1.00  0.00     0.514 C 
ATOM      2  O   UNL     1      -0.752   1.111  -2.233  1.00  0.00    -0.203 OA
ENDROOT
BRANCH   1   3
ATOM      3  O   UNL     1      -0.520   2.245  -4.234  1.00  0.00    -0.430 OA
BRANCH   3   4
ATOM      4  C   UNL     1      -1.914   2.497  -4.402  1.00  0.00     0.264 C 
BRANCH   4   5
ATOM      5  C   UNL     1      -2.645   1.232  -4.752  1.00  0.00     0.006 C 
ATOM      6  C   UNL     1      -2.347   0.538  -5.853  1.00  0.00     0.007 C 
ENDBRANCH   4   5
ENDBRANCH   3   4
ENDBRANCH   1   3
BRANCH   1   7
ATOM      7  O   UNL     1       1.377   1.264  -3.123  1.00  0.00    -0.386 OA
BRANCH   7   8
ATOM      8  C   UNL     1       2.016   0.623  -2.053  1.00  0.00     0.218 A 
ATOM      9  C   UNL     1       2.711  -0.584  -2.295  1.00  0.00     0.180 A 
ATOM     10  C   UNL     1       1.997   1.183  -0.752  1.00  0.00     0.087 A 
ATOM     11  C   UNL     1       3.340  -1.239  -1.225  1.00  0.00     0.073 A 
ATOM     12  C   UNL     1       2.582   0.472   0.322  1.00  0.00     0.011 A 
ATOM     13  C   UNL     1       3.270  -0.723   0.066  1.00  0.00     0.015 A 
BRANCH   9  14
ATOM     14  N   UNL     1       2.755  -1.171  -3.616  1.00  0.00    -0.278 N 
ATOM     15  H   UNL     1       2.618  -0.445  -4.357  1.00  0.00     0.358 HD
ATOM     16  H   UNL     1       3.703  -1.582  -3.785  1.00  0.00     0.358 HD
BRANCH  14  17
ATOM     17  C   UNL     1       1.747  -2.197  -3.734  1.00  0.00     0.137 A 
ATOM     18  C   UNL     1       2.035  -3.524  -3.363  1.00  0.00     0.068 A 
ATOM     19  C   UNL     1       0.453  -1.881  -4.183  1.00  0.00     0.107 A 
ATOM     20  C   UNL     1       1.049  -4.510  -3.439  1.00  0.00     0.012 A 
ATOM     21  C   UNL     1      -0.535  -2.867  -4.258  1.00  0.00     0.132 A 
ATOM     22  C   UNL     1      -0.238  -4.194  -3.900  1.00  0.00    -0.015 A 
ATOM     23  F   UNL     1      -1.783  -2.526  -4.673  1.00  0.00    -0.206 F 
ATOM     24  C   UNL     1      -1.301  -5.252  -3.934  1.00  0.00     0.047 C 
ENDBRANCH  14  17
ENDBRANCH   9  14
BRANCH  10  25
ATOM     25  N   UNL     1       1.452   2.497  -0.541  1.00  0.00    -0.395 N 
ATOM     26  H   UNL     1       1.509   2.969   0.385  1.00  0.00     0.156 HD
ATOM     27  H   UNL     1       1.091   3.076  -1.329  1.00  0.00     0.156 HD
ENDBRANCH  10  25
BRANCH  12  28
ATOM     28  C   UNL     1       2.520   0.998   1.733  1.00  0.00     0.185 C 
ATOM     29  O   UNL     1       2.337  -0.040   2.671  1.00  0.00    -0.359 OA
ATOM     30  C   UNL     1       1.224   0.793   2.435  1.00  0.00     0.183 C 
BRANCH  30  31
ATOM     31  C   UNL     1       0.952   1.693   3.606  1.00  0.00    -0.016 A 
ATOM     32  C   UNL     1       0.498   3.004   3.390  1.00  0.00     0.006 A 
ATOM     33  C   UNL     1       1.065   1.213   4.923  1.00  0.00     0.006 A 
ATOM     34  C   UNL     1       0.198   3.834   4.475  1.00  0.00     0.000 A 
ATOM     35  C   UNL     1       0.763   2.046   6.005  1.00  0.00     0.000 A 
ATOM     36  C   UNL     1       0.328   3.355   5.781  1.00  0.00     0.000 A 
ENDBRANCH  30  31
ENDBRANCH  12  28
ENDBRANCH   7   8
ENDBRANCH   1   7
TORSDOF 10


