REMARK SMILES C=c1cc(Nc2ccc3cc[nH]c3c2)/c(=C(\O)C(=O)c2ccc(C)cc2)cc1[O-]
REMARK SMILES IDX 15 1 27 2 28 3 29 4 2 5 1 6 3 7 4 8 16 9 17 10 18 12 19 13
REMARK SMILES IDX 20 14 21 15 26 16 22 17 25 18 23 19 24 20 5 21 6 23 7 24
REMARK SMILES IDX 14 25 8 26 13 27 9 28 12 29 10 30 11 31
REMARK H PARENT 17 11 5 22 12 32
ROOT
ATOM      1  C   UNL     1       1.341  -0.944  -1.051  1.00  0.00     0.043 A 
ATOM      2  C   UNL     1       2.395  -0.291  -1.737  1.00  0.00     0.006 A 
ATOM      3  C   UNL     1       2.536  -0.380  -3.123  1.00  0.00    -0.101 A 
ATOM      4  O   UNL     1       3.587   0.296  -3.735  1.00  0.00    -0.872 OA
ATOM      5  C   UNL     1       1.626  -1.135  -3.880  1.00  0.00    -0.039 A 
ATOM      6  C   UNL     1       1.746  -1.238  -5.210  1.00  0.00     0.016 C 
ATOM      7  C   UNL     1       0.582  -1.797  -3.222  1.00  0.00     0.033 A 
ATOM      8  C   UNL     1       0.425  -1.714  -1.829  1.00  0.00     0.050 A 
ENDROOT
BRANCH   1   9
ATOM      9  C   UNL     1       1.195  -0.785   0.297  1.00  0.00     0.173 C 
BRANCH   9  10
ATOM     10  O   UNL     1       0.046  -1.236   0.949  1.00  0.00    -0.504 OA
ATOM     11  H   UNL     1      -0.067  -1.149   1.952  1.00  0.00     0.293 HD
ENDBRANCH   9  10
BRANCH   9  12
ATOM     12  C   UNL     1       2.226  -0.127   1.138  1.00  0.00     0.228 C 
ATOM     13  O   UNL     1       3.402  -0.584   1.121  1.00  0.00    -0.285 OA
BRANCH  12  14
ATOM     14  C   UNL     1       1.897   1.021   2.022  1.00  0.00     0.026 A 
ATOM     15  C   UNL     1       2.806   1.430   3.015  1.00  0.00     0.012 A 
ATOM     16  C   UNL     1       0.696   1.739   1.867  1.00  0.00     0.012 A 
ATOM     17  C   UNL     1       2.515   2.517   3.843  1.00  0.00     0.004 A 
ATOM     18  C   UNL     1       0.406   2.825   2.698  1.00  0.00     0.004 A 
ATOM     19  C   UNL     1       1.306   3.212   3.701  1.00  0.00    -0.051 A 
ATOM     20  C   UNL     1       1.006   4.403   4.561  1.00  0.00     0.044 C 
ENDBRANCH  12  14
ENDBRANCH   9  12
ENDBRANCH   1   9
BRANCH   8  21
ATOM     21  N   UNL     1      -0.608  -2.508  -1.222  1.00  0.00    -0.355 N 
ATOM     22  H   UNL     1      -0.318  -3.224  -0.518  1.00  0.00     0.167 HD
BRANCH  21  23
ATOM     23  C   UNL     1      -1.988  -2.452  -1.622  1.00  0.00     0.041 A 
ATOM     24  C   UNL     1      -2.853  -3.525  -1.287  1.00  0.00     0.027 A 
ATOM     25  C   UNL     1      -2.505  -1.330  -2.313  1.00  0.00     0.052 A 
ATOM     26  C   UNL     1      -4.210  -3.499  -1.655  1.00  0.00     0.012 A 
ATOM     27  C   UNL     1      -3.855  -1.336  -2.661  1.00  0.00     0.047 A 
ATOM     28  C   UNL     1      -4.675  -2.384  -2.345  1.00  0.00    -0.001 A 
ATOM     29  N   UNL     1      -4.533  -0.379  -3.315  1.00  0.00    -0.361 N 
ATOM     30  C   UNL     1      -5.933  -2.082  -2.821  1.00  0.00     0.028 A 
ATOM     31  C   UNL     1      -5.805  -0.831  -3.416  1.00  0.00     0.083 A 
ATOM     32  H   UNL     1      -4.161   0.528  -3.672  1.00  0.00     0.166 HD
ENDBRANCH  21  23
ENDBRANCH   8  21
TORSDOF 6


