REMARK SMILES C=Cc1ccc(-c2cnc3oc[nH+]c3c2)c([NH2+]C[C@@H](C)C(C)C)c1F
REMARK SMILES IDX 17 1 16 4 3 5 4 6 24 7 5 8 6 9 25 10 2 11 1 12 7 13 8 14
REMARK SMILES IDX 15 15 9 16 14 17 10 18 13 19 11 20 12 21 18 23 19 24 20 25
REMARK SMILES IDX 21 26 22 27 23 28
REMARK H PARENT 17 2 17 3 13 22
ROOT
ATOM      1  N   UNL     1       0.743   0.233  -0.476  1.00  0.00    -0.311 N 
ATOM      2  H   UNL     1       1.017  -0.300  -1.331  1.00  0.00     0.352 HD
ATOM      3  H   UNL     1       1.193   1.167  -0.593  1.00  0.00     0.352 HD
ENDROOT
BRANCH   1   4
ATOM      4  C   UNL     1      -0.703   0.346  -0.423  1.00  0.00     0.174 A 
ATOM      5  C   UNL     1      -2.694   1.687   0.092  1.00  0.00     0.016 A 
ATOM      6  C   UNL     1      -3.501   0.581  -0.196  1.00  0.00     0.012 A 
ATOM      7  C   UNL     1      -1.296   1.574  -0.047  1.00  0.00     0.191 A 
ATOM      8  C   UNL     1      -2.934  -0.630  -0.583  1.00  0.00     0.016 A 
ATOM      9  C   UNL     1      -1.544  -0.764  -0.705  1.00  0.00     0.048 A 
ATOM     10  F   UNL     1      -0.508   2.663   0.145  1.00  0.00    -0.200 F 
BRANCH   5  11
ATOM     11  C   UNL     1      -3.354   2.949   0.500  1.00  0.00     0.003 C 
ATOM     12  C   UNL     1      -2.840   3.787   1.399  1.00  0.00     0.009 C 
ENDBRANCH   5  11
BRANCH   9  13
ATOM     13  C   UNL     1      -1.010  -2.071  -1.137  1.00  0.00     0.013 A 
ATOM     14  C   UNL     1      -0.434  -2.226  -2.427  1.00  0.00     0.124 A 
ATOM     15  C   UNL     1      -1.118  -3.193  -0.286  1.00  0.00     0.096 A 
ATOM     16  N   UNL     1       0.042  -3.442  -2.838  1.00  0.00    -0.215 NA
ATOM     17  C   UNL     1      -0.615  -4.397  -0.761  1.00  0.00     0.270 A 
ATOM     18  C   UNL     1      -0.058  -4.496  -1.993  1.00  0.00     0.297 A 
ATOM     19  N   UNL     1      -0.574  -5.598  -0.168  1.00  0.00    -0.175 N 
ATOM     20  O   UNL     1       0.336  -5.726  -2.201  1.00  0.00    -0.384 OA
ATOM     21  C   UNL     1       0.023  -6.389  -1.096  1.00  0.00     0.522 A 
ATOM     22  H   UNL     1      -0.918  -5.864   0.781  1.00  0.00     0.457 HD
ENDBRANCH   9  13
ENDBRANCH   1   4
BRANCH   1  23
ATOM     23  C   UNL     1       1.301  -0.465   0.702  1.00  0.00     0.269 C 
BRANCH  23  24
ATOM     24  C   UNL     1       1.082   0.278   2.053  1.00  0.00     0.044 C 
ATOM     25  C   UNL     1       1.329  -0.700   3.217  1.00  0.00     0.014 C 
BRANCH  24  26
ATOM     26  C   UNL     1       1.921   1.593   2.182  1.00  0.00    -0.009 C 
ATOM     27  C   UNL     1       1.358   2.516   3.275  1.00  0.00     0.008 C 
ATOM     28  C   UNL     1       3.422   1.355   2.419  1.00  0.00     0.008 C 
ENDBRANCH  24  26
ENDBRANCH  23  24
ENDBRANCH   1  23
TORSDOF 6


