MODEL 1
REMARK VINA RESULT:      -9.1      0.000      0.000
REMARK SMILES [NH3+]CC(=O)c1ccc(-c2cnc3ccnn3c2)c2c[n-]nc12
REMARK SMILES IDX 2 1 1 2 3 6 4 7 5 8 6 9 22 10 7 11 21 12 18 13 8 14 20 15
REMARK SMILES IDX 19 16 9 17 10 18 17 19 11 20 16 21 12 22 15 23 13 24 14 25
REMARK H PARENT 1 3 1 4 1 5
ROOT
ATOM      1  C   UNL     1      43.218 130.048  23.822  1.00  0.00     0.341 C 
ENDROOT
BRANCH   1   2
ATOM      2  N   UNL     1      41.769 130.231  23.718  1.00  0.00    -0.351 N 
ATOM      3  H   UNL     1      41.455 130.894  24.462  1.00  0.00     0.344 HD
ATOM      4  H   UNL     1      41.521 130.634  22.785  1.00  0.00     0.344 HD
ATOM      5  H   UNL     1      41.280 129.315  23.853  1.00  0.00     0.344 HD
ENDBRANCH   1   2
BRANCH   1   6
ATOM      6  C   UNL     1      43.976 131.168  23.152  1.00  0.00     0.218 C 
ATOM      7  O   UNL     1      44.388 132.137  23.849  1.00  0.00    -0.288 OA
BRANCH   6   8
ATOM      8  C   UNL     1      44.276 131.151  21.696  1.00  0.00     0.048 A 
ATOM      9  C   UNL     1      45.446 130.514  21.220  1.00  0.00     0.015 A 
ATOM     10  C   UNL     1      43.434 131.726  20.730  1.00  0.00     0.058 A 
ATOM     11  C   UNL     1      45.749 130.480  19.842  1.00  0.00     0.010 A 
ATOM     12  N   UNL     1      42.239 132.315  20.915  1.00  0.00    -0.367 NA
ATOM     13  C   UNL     1      43.731 131.691  19.393  1.00  0.00    -0.014 A 
ATOM     14  C   UNL     1      44.890 131.081  18.897  1.00  0.00    -0.008 A 
ATOM     15  N   UNL     1      41.770 132.661  19.721  1.00  0.00    -0.581 NA
ATOM     16  C   UNL     1      42.657 132.289  18.771  1.00  0.00    -0.113 A 
BRANCH  14  17
ATOM     17  C   UNL     1      45.214 131.051  17.452  1.00  0.00     0.019 A 
ATOM     18  C   UNL     1      44.477 131.820  16.518  1.00  0.00     0.124 A 
ATOM     19  C   UNL     1      46.288 130.275  16.972  1.00  0.00     0.125 A 
ATOM     20  N   UNL     1      44.792 131.794  15.191  1.00  0.00    -0.236 NA
ATOM     21  N   UNL     1      46.543 130.294  15.643  1.00  0.00    -0.222 N 
ATOM     22  C   UNL     1      45.826 131.021  14.783  1.00  0.00     0.154 A 
ATOM     23  N   UNL     1      47.493 129.636  15.002  1.00  0.00    -0.175 NA
ATOM     24  C   UNL     1      46.309 130.848  13.508  1.00  0.00     0.071 A 
ATOM     25  C   UNL     1      47.367 129.961  13.692  1.00  0.00     0.138 A 
ENDBRANCH  14  17
ENDBRANCH   6   8
ENDBRANCH   1   6
TORSDOF 4
ENDMDL
MODEL 2
REMARK VINA RESULT:      -8.4      1.214      1.382
REMARK SMILES [NH3+]CC(=O)c1ccc(-c2cnc3ccnn3c2)c2c[n-]nc12
REMARK SMILES IDX 2 1 1 2 3 6 4 7 5 8 6 9 22 10 7 11 21 12 18 13 8 14 20 15
REMARK SMILES IDX 19 16 9 17 10 18 17 19 11 20 16 21 12 22 15 23 13 24 14 25
REMARK H PARENT 1 3 1 4 1 5
ROOT
ATOM      1  C   UNL     1      43.818 130.812  23.133  1.00  0.00     0.341 C 
ENDROOT
BRANCH   1   2
ATOM      2  N   UNL     1      42.970 129.730  23.638  1.00  0.00    -0.351 N 
ATOM      3  H   UNL     1      42.140 130.145  24.120  1.00  0.00     0.344 HD
ATOM      4  H   UNL     1      42.634 129.133  22.848  1.00  0.00     0.344 HD
ATOM      5  H   UNL     1      43.501 129.147  24.327  1.00  0.00     0.344 HD
ENDBRANCH   1   2
BRANCH   1   6
ATOM      6  C   UNL     1      43.209 131.488  21.929  1.00  0.00     0.218 C 
ATOM      7  O   UNL     1      42.143 132.150  22.067  1.00  0.00    -0.288 OA
BRANCH   6   8
ATOM      8  C   UNL     1      43.845 131.420  20.587  1.00  0.00     0.048 A 
ATOM      9  C   UNL     1      45.166 130.933  20.450  1.00  0.00     0.015 A 
ATOM     10  C   UNL     1      43.189 131.801  19.404  1.00  0.00     0.058 A 
ATOM     11  C   UNL     1      45.787 130.854  19.186  1.00  0.00     0.010 A 
ATOM     12  N   UNL     1      41.918 132.219  19.258  1.00  0.00    -0.367 NA
ATOM     13  C   UNL     1      43.795 131.723  18.179  1.00  0.00    -0.014 A 
ATOM     14  C   UNL     1      45.107 131.260  18.018  1.00  0.00    -0.008 A 
ATOM     15  N   UNL     1      41.704 132.414  17.960  1.00  0.00    -0.581 NA
ATOM     16  C   UNL     1      42.831 132.115  17.275  1.00  0.00    -0.113 A 
BRANCH  14  17
ATOM     17  C   UNL     1      45.765 131.183  16.693  1.00  0.00     0.019 A 
ATOM     18  C   UNL     1      45.802 132.304  15.827  1.00  0.00     0.124 A 
ATOM     19  C   UNL     1      46.398 129.998  16.272  1.00  0.00     0.125 A 
ATOM     20  N   UNL     1      46.421 132.226  14.613  1.00  0.00    -0.236 NA
ATOM     21  N   UNL     1      46.991 129.990  15.055  1.00  0.00    -0.222 N 
ATOM     22  C   UNL     1      47.004 131.058  14.254  1.00  0.00     0.154 A 
ATOM     23  N   UNL     1      47.626 128.983  14.482  1.00  0.00    -0.175 NA
ATOM     24  C   UNL     1      47.673 130.763  13.091  1.00  0.00     0.071 A 
ATOM     25  C   UNL     1      48.051 129.435  13.277  1.00  0.00     0.138 A 
ENDBRANCH  14  17
ENDBRANCH   6   8
ENDBRANCH   1   6
TORSDOF 4
ENDMDL
MODEL 3
REMARK VINA RESULT:      -8.3      1.249      1.281
REMARK SMILES [NH3+]CC(=O)c1ccc(-c2cnc3ccnn3c2)c2c[n-]nc12
REMARK SMILES IDX 2 1 1 2 3 6 4 7 5 8 6 9 22 10 7 11 21 12 18 13 8 14 20 15
REMARK SMILES IDX 19 16 9 17 10 18 17 19 11 20 16 21 12 22 15 23 13 24 14 25
REMARK H PARENT 1 3 1 4 1 5
ROOT
ATOM      1  C   UNL     1      43.933 131.678  24.342  1.00  0.00     0.341 C 
ENDROOT
BRANCH   1   2
ATOM      2  N   UNL     1      45.215 132.361  24.158  1.00  0.00    -0.351 N 
ATOM      3  H   UNL     1      45.877 131.717  23.668  1.00  0.00     0.344 HD
ATOM      4  H   UNL     1      45.089 133.218  23.573  1.00  0.00     0.344 HD
ATOM      5  H   UNL     1      45.623 132.618  25.088  1.00  0.00     0.344 HD
ENDBRANCH   1   2
BRANCH   1   6
ATOM      6  C   UNL     1      43.730 130.579  23.328  1.00  0.00     0.218 C 
ATOM      7  O   UNL     1      43.151 129.514  23.680  1.00  0.00    -0.288 OA
BRANCH   6   8
ATOM      8  C   UNL     1      44.170 130.725  21.915  1.00  0.00     0.048 A 
ATOM      9  C   UNL     1      45.308 130.026  21.450  1.00  0.00     0.015 A 
ATOM     10  C   UNL     1      43.492 131.521  20.977  1.00  0.00     0.058 A 
ATOM     11  C   UNL     1      45.741 130.145  20.113  1.00  0.00     0.010 A 
ATOM     12  N   UNL     1      42.352 132.215  21.146  1.00  0.00    -0.367 NA
ATOM     13  C   UNL     1      43.914 131.634  19.679  1.00  0.00    -0.014 A 
ATOM     14  C   UNL     1      45.047 130.966  19.197  1.00  0.00    -0.008 A 
ATOM     15  N   UNL     1      42.042 132.773  19.980  1.00  0.00    -0.581 NA
ATOM     16  C   UNL     1      42.976 132.432  19.064  1.00  0.00    -0.113 A 
BRANCH  14  17
ATOM     17  C   UNL     1      45.509 131.095  17.795  1.00  0.00     0.019 A 
ATOM     18  C   UNL     1      45.440 132.334  17.112  1.00  0.00     0.124 A 
ATOM     19  C   UNL     1      46.056 129.990  17.114  1.00  0.00     0.125 A 
ATOM     20  N   UNL     1      45.879 132.445  15.824  1.00  0.00    -0.236 NA
ATOM     21  N   UNL     1      46.469 130.170  15.838  1.00  0.00    -0.222 N 
ATOM     22  C   UNL     1      46.385 131.347  15.213  1.00  0.00     0.154 A 
ATOM     23  N   UNL     1      46.999 129.265  15.034  1.00  0.00    -0.175 NA
ATOM     24  C   UNL     1      46.877 131.236  13.936  1.00  0.00     0.071 A 
ATOM     25  C   UNL     1      47.256 129.897  13.863  1.00  0.00     0.138 A 
ENDBRANCH  14  17
ENDBRANCH   6   8
ENDBRANCH   1   6
TORSDOF 4
ENDMDL
MODEL 4
REMARK VINA RESULT:      -8.0      1.847      2.684
REMARK SMILES [NH3+]CC(=O)c1ccc(-c2cnc3ccnn3c2)c2c[n-]nc12
REMARK SMILES IDX 2 1 1 2 3 6 4 7 5 8 6 9 22 10 7 11 21 12 18 13 8 14 20 15
REMARK SMILES IDX 19 16 9 17 10 18 17 19 11 20 16 21 12 22 15 23 13 24 14 25
REMARK H PARENT 1 3 1 4 1 5
ROOT
ATOM      1  C   UNL     1      42.406 131.940  22.661  1.00  0.00     0.341 C 
ENDROOT
BRANCH   1   2
ATOM      2  N   UNL     1      42.229 130.490  22.761  1.00  0.00    -0.351 N 
ATOM      3  H   UNL     1      41.466 130.286  23.445  1.00  0.00     0.344 HD
ATOM      4  H   UNL     1      41.959 130.093  21.832  1.00  0.00     0.344 HD
ATOM      5  H   UNL     1      43.113 130.042  23.098  1.00  0.00     0.344 HD
ENDBRANCH   1   2
BRANCH   1   6
ATOM      6  C   UNL     1      42.141 132.444  21.262  1.00  0.00     0.218 C 
ATOM      7  O   UNL     1      41.208 133.273  21.073  1.00  0.00    -0.288 OA
BRANCH   6   8
ATOM      8  C   UNL     1      42.965 132.012  20.104  1.00  0.00     0.048 A 
ATOM      9  C   UNL     1      42.426 132.044  18.796  1.00  0.00     0.015 A 
ATOM     10  C   UNL     1      44.297 131.581  20.225  1.00  0.00     0.058 A 
ATOM     11  C   UNL     1      43.192 131.644  17.682  1.00  0.00     0.010 A 
ATOM     12  N   UNL     1      45.057 131.534  21.335  1.00  0.00    -0.367 NA
ATOM     13  C   UNL     1      45.038 131.193  19.141  1.00  0.00    -0.014 A 
ATOM     14  C   UNL     1      44.522 131.200  17.838  1.00  0.00    -0.008 A 
ATOM     15  N   UNL     1      46.268 131.118  20.978  1.00  0.00    -0.581 NA
ATOM     16  C   UNL     1      46.288 130.907  19.643  1.00  0.00    -0.113 A 
BRANCH  14  17
ATOM     17  C   UNL     1      45.322 130.773  16.666  1.00  0.00     0.019 A 
ATOM     18  C   UNL     1      45.457 129.404  16.330  1.00  0.00     0.124 A 
ATOM     19  C   UNL     1      45.945 131.725  15.836  1.00  0.00     0.125 A 
ATOM     20  N   UNL     1      46.186 129.022  15.242  1.00  0.00    -0.236 NA
ATOM     21  N   UNL     1      46.655 131.277  14.775  1.00  0.00    -0.222 N 
ATOM     22  C   UNL     1      46.775 129.979  14.485  1.00  0.00     0.154 A 
ATOM     23  N   UNL     1      47.313 132.003  13.889  1.00  0.00    -0.175 NA
ATOM     24  C   UNL     1      47.545 129.819  13.359  1.00  0.00     0.071 A 
ATOM     25  C   UNL     1      47.867 131.130  13.012  1.00  0.00     0.138 A 
ENDBRANCH  14  17
ENDBRANCH   6   8
ENDBRANCH   1   6
TORSDOF 4
ENDMDL
MODEL 5
REMARK VINA RESULT:      -7.5      1.086      1.097
REMARK SMILES [NH3+]CC(=O)c1ccc(-c2cnc3ccnn3c2)c2c[n-]nc12
REMARK SMILES IDX 2 1 1 2 3 6 4 7 5 8 6 9 22 10 7 11 21 12 18 13 8 14 20 15
REMARK SMILES IDX 19 16 9 17 10 18 17 19 11 20 16 21 12 22 15 23 13 24 14 25
REMARK H PARENT 1 3 1 4 1 5
ROOT
ATOM      1  C   UNL     1      44.337 129.645  24.445  1.00  0.00     0.341 C 
ENDROOT
BRANCH   1   2
ATOM      2  N   UNL     1      43.982 128.225  24.501  1.00  0.00    -0.351 N 
ATOM      3  H   UNL     1      44.798 127.657  24.177  1.00  0.00     0.344 HD
ATOM      4  H   UNL     1      43.750 127.947  25.482  1.00  0.00     0.344 HD
ATOM      5  H   UNL     1      43.168 128.033  23.872  1.00  0.00     0.344 HD
ENDBRANCH   1   2
BRANCH   1   6
ATOM      6  C   UNL     1      43.514 130.390  23.422  1.00  0.00     0.218 C 
ATOM      7  O   UNL     1      42.411 130.898  23.770  1.00  0.00    -0.288 OA
BRANCH   6   8
ATOM      8  C   UNL     1      43.977 130.569  22.022  1.00  0.00     0.048 A 
ATOM      9  C   UNL     1      45.073 129.817  21.535  1.00  0.00     0.015 A 
ATOM     10  C   UNL     1      43.363 131.448  21.114  1.00  0.00     0.058 A 
ATOM     11  C   UNL     1      45.527 129.966  20.208  1.00  0.00     0.010 A 
ATOM     12  N   UNL     1      42.269 132.207  21.305  1.00  0.00    -0.367 NA
ATOM     13  C   UNL     1      43.807 131.589  19.826  1.00  0.00    -0.014 A 
ATOM     14  C   UNL     1      44.899 130.870  19.324  1.00  0.00    -0.008 A 
ATOM     15  N   UNL     1      42.010 132.835  20.162  1.00  0.00    -0.581 NA
ATOM     16  C   UNL     1      42.929 132.474  19.239  1.00  0.00    -0.113 A 
BRANCH  14  17
ATOM     17  C   UNL     1      45.383 131.029  17.933  1.00  0.00     0.019 A 
ATOM     18  C   UNL     1      45.233 132.256  17.240  1.00  0.00     0.124 A 
ATOM     19  C   UNL     1      46.033 129.969  17.272  1.00  0.00     0.125 A 
ATOM     20  N   UNL     1      45.693 132.396  15.963  1.00  0.00    -0.236 NA
ATOM     21  N   UNL     1      46.462 130.176  16.005  1.00  0.00    -0.222 N 
ATOM     22  C   UNL     1      46.300 131.340  15.371  1.00  0.00     0.154 A 
ATOM     23  N   UNL     1      47.082 129.312  15.221  1.00  0.00    -0.175 NA
ATOM     24  C   UNL     1      46.831 131.262  14.107  1.00  0.00     0.071 A 
ATOM     25  C   UNL     1      47.317 129.958  14.052  1.00  0.00     0.138 A 
ENDBRANCH  14  17
ENDBRANCH   6   8
ENDBRANCH   1   6
TORSDOF 4
ENDMDL
MODEL 6
REMARK VINA RESULT:      -7.1      1.698      2.358
REMARK SMILES [NH3+]CC(=O)c1ccc(-c2cnc3ccnn3c2)c2c[n-]nc12
REMARK SMILES IDX 2 1 1 2 3 6 4 7 5 8 6 9 22 10 7 11 21 12 18 13 8 14 20 15
REMARK SMILES IDX 19 16 9 17 10 18 17 19 11 20 16 21 12 22 15 23 13 24 14 25
REMARK H PARENT 1 3 1 4 1 5
ROOT
ATOM      1  C   UNL     1      42.692 131.415  23.038  1.00  0.00     0.341 C 
ENDROOT
BRANCH   1   2
ATOM      2  N   UNL     1      43.725 132.119  23.799  1.00  0.00    -0.351 N 
ATOM      3  H   UNL     1      43.958 133.014  23.312  1.00  0.00     0.344 HD
ATOM      4  H   UNL     1      43.379 132.343  24.760  1.00  0.00     0.344 HD
ATOM      5  H   UNL     1      44.591 131.533  23.859  1.00  0.00     0.344 HD
ENDBRANCH   1   2
BRANCH   1   6
ATOM      6  C   UNL     1      42.302 132.168  21.789  1.00  0.00     0.218 C 
ATOM      7  O   UNL     1      41.397 133.045  21.855  1.00  0.00    -0.288 OA
BRANCH   6   8
ATOM      8  C   UNL     1      42.974 131.925  20.486  1.00  0.00     0.048 A 
ATOM      9  C   UNL     1      42.294 132.194  19.275  1.00  0.00     0.015 A 
ATOM     10  C   UNL     1      44.292 131.451  20.376  1.00  0.00     0.058 A 
ATOM     11  C   UNL     1      42.914 131.976  18.026  1.00  0.00     0.010 A 
ATOM     12  N   UNL     1      45.168 131.197  21.365  1.00  0.00    -0.367 NA
ATOM     13  C   UNL     1      44.891 131.241  19.162  1.00  0.00    -0.014 A 
ATOM     14  C   UNL     1      44.234 131.483  17.949  1.00  0.00    -0.008 A 
ATOM     15  N   UNL     1      46.314 130.824  20.804  1.00  0.00    -0.581 NA
ATOM     16  C   UNL     1      46.177 130.846  19.459  1.00  0.00    -0.113 A 
BRANCH  14  17
ATOM     17  C   UNL     1      44.879 131.248  16.636  1.00  0.00     0.019 A 
ATOM     18  C   UNL     1      44.331 131.781  15.444  1.00  0.00     0.124 A 
ATOM     19  C   UNL     1      46.076 130.510  16.546  1.00  0.00     0.125 A 
ATOM     20  N   UNL     1      44.941 131.568  14.241  1.00  0.00    -0.236 NA
ATOM     21  N   UNL     1      46.625 130.336  15.321  1.00  0.00    -0.222 N 
ATOM     22  C   UNL     1      46.083 130.841  14.210  1.00  0.00     0.154 A 
ATOM     23  N   UNL     1      47.731 129.675  15.028  1.00  0.00    -0.175 NA
ATOM     24  C   UNL     1      46.851 130.509  13.121  1.00  0.00     0.071 A 
ATOM     25  C   UNL     1      47.888 129.768  13.684  1.00  0.00     0.138 A 
ENDBRANCH  14  17
ENDBRANCH   6   8
ENDBRANCH   1   6
TORSDOF 4
ENDMDL
MODEL 7
REMARK VINA RESULT:      -7.1      0.986      1.316
REMARK SMILES [NH3+]CC(=O)c1ccc(-c2cnc3ccnn3c2)c2c[n-]nc12
REMARK SMILES IDX 2 1 1 2 3 6 4 7 5 8 6 9 22 10 7 11 21 12 18 13 8 14 20 15
REMARK SMILES IDX 19 16 9 17 10 18 17 19 11 20 16 21 12 22 15 23 13 24 14 25
REMARK H PARENT 1 3 1 4 1 5
ROOT
ATOM      1  C   UNL     1      42.502 132.138  23.369  1.00  0.00     0.341 C 
ENDROOT
BRANCH   1   2
ATOM      2  N   UNL     1      41.834 130.902  23.784  1.00  0.00    -0.351 N 
ATOM      3  H   UNL     1      41.855 130.837  24.827  1.00  0.00     0.344 HD
ATOM      4  H   UNL     1      40.837 130.906  23.469  1.00  0.00     0.344 HD
ATOM      5  H   UNL     1      42.333 130.073  23.385  1.00  0.00     0.344 HD
ENDBRANCH   1   2
BRANCH   1   6
ATOM      6  C   UNL     1      43.940 131.896  22.980  1.00  0.00     0.218 C 
ATOM      7  O   UNL     1      44.834 131.932  23.871  1.00  0.00    -0.288 OA
BRANCH   6   8
ATOM      8  C   UNL     1      44.333 131.591  21.580  1.00  0.00     0.048 A 
ATOM      9  C   UNL     1      45.561 130.941  21.312  1.00  0.00     0.015 A 
ATOM     10  C   UNL     1      43.527 131.895  20.470  1.00  0.00     0.058 A 
ATOM     11  C   UNL     1      45.952 130.636  19.992  1.00  0.00     0.010 A 
ATOM     12  N   UNL     1      42.294 132.435  20.463  1.00  0.00    -0.367 NA
ATOM     13  C   UNL     1      43.909 131.597  19.189  1.00  0.00    -0.014 A 
ATOM     14  C   UNL     1      45.127 130.969  18.896  1.00  0.00    -0.008 A 
ATOM     15  N   UNL     1      41.886 132.491  19.199  1.00  0.00    -0.581 NA
ATOM     16  C   UNL     1      42.849 131.982  18.399  1.00  0.00    -0.113 A 
BRANCH  14  17
ATOM     17  C   UNL     1      45.544 130.655  17.510  1.00  0.00     0.019 A 
ATOM     18  C   UNL     1      45.416 129.345  16.985  1.00  0.00     0.124 A 
ATOM     19  C   UNL     1      46.052 131.662  16.666  1.00  0.00     0.125 A 
ATOM     20  N   UNL     1      45.792 129.068  15.703  1.00  0.00    -0.236 NA
ATOM     21  N   UNL     1      46.407 131.317  15.407  1.00  0.00    -0.222 N 
ATOM     22  C   UNL     1      46.286 130.072  14.939  1.00  0.00     0.154 A 
ATOM     23  N   UNL     1      46.906 132.107  14.472  1.00  0.00    -0.175 NA
ATOM     24  C   UNL     1      46.720 130.016  13.637  1.00  0.00     0.071 A 
ATOM     25  C   UNL     1      47.106 131.330  13.380  1.00  0.00     0.138 A 
ENDBRANCH  14  17
ENDBRANCH   6   8
ENDBRANCH   1   6
TORSDOF 4
ENDMDL
MODEL 8
REMARK VINA RESULT:      -6.4      1.392      1.748
REMARK SMILES [NH3+]CC(=O)c1ccc(-c2cnc3ccnn3c2)c2c[n-]nc12
REMARK SMILES IDX 2 1 1 2 3 6 4 7 5 8 6 9 22 10 7 11 21 12 18 13 8 14 20 15
REMARK SMILES IDX 19 16 9 17 10 18 17 19 11 20 16 21 12 22 15 23 13 24 14 25
REMARK H PARENT 1 3 1 4 1 5
ROOT
ATOM      1  C   UNL     1      44.065 132.566  23.659  1.00  0.00     0.341 C 
ENDROOT
BRANCH   1   2
ATOM      2  N   UNL     1      45.487 132.794  23.394  1.00  0.00    -0.351 N 
ATOM      3  H   UNL     1      46.014 131.910  23.577  1.00  0.00     0.344 HD
ATOM      4  H   UNL     1      45.631 133.067  22.395  1.00  0.00     0.344 HD
ATOM      5  H   UNL     1      45.856 133.543  24.026  1.00  0.00     0.344 HD
ENDBRANCH   1   2
BRANCH   1   6
ATOM      6  C   UNL     1      43.497 131.477  22.781  1.00  0.00     0.218 C 
ATOM      7  O   UNL     1      42.558 130.758  23.221  1.00  0.00    -0.288 OA
BRANCH   6   8
ATOM      8  C   UNL     1      43.993 131.246  21.399  1.00  0.00     0.048 A 
ATOM      9  C   UNL     1      45.203 130.544  21.187  1.00  0.00     0.015 A 
ATOM     10  C   UNL     1      43.305 131.674  20.252  1.00  0.00     0.058 A 
ATOM     11  C   UNL     1      45.691 130.308  19.885  1.00  0.00     0.010 A 
ATOM     12  N   UNL     1      42.108 132.286  20.182  1.00  0.00    -0.367 NA
ATOM     13  C   UNL     1      43.781 131.443  18.989  1.00  0.00    -0.014 A 
ATOM     14  C   UNL     1      44.984 130.765  18.752  1.00  0.00    -0.008 A 
ATOM     15  N   UNL     1      41.815 132.454  18.897  1.00  0.00    -0.581 NA
ATOM     16  C   UNL     1      42.816 131.944  18.143  1.00  0.00    -0.113 A 
BRANCH  14  17
ATOM     17  C   UNL     1      45.502 130.522  17.386  1.00  0.00     0.019 A 
ATOM     18  C   UNL     1      45.413 129.243  16.784  1.00  0.00     0.124 A 
ATOM     19  C   UNL     1      46.073 131.570  16.637  1.00  0.00     0.125 A 
ATOM     20  N   UNL     1      45.883 129.033  15.520  1.00  0.00    -0.236 NA
ATOM     21  N   UNL     1      46.521 131.291  15.391  1.00  0.00    -0.222 N 
ATOM     22  C   UNL     1      46.433 130.073  14.850  1.00  0.00     0.154 A 
ATOM     23  N   UNL     1      47.089 132.127  14.540  1.00  0.00    -0.175 NA
ATOM     24  C   UNL     1      46.963 130.084  13.583  1.00  0.00     0.071 A 
ATOM     25  C   UNL     1      47.368 131.408  13.425  1.00  0.00     0.138 A 
ENDBRANCH  14  17
ENDBRANCH   6   8
ENDBRANCH   1   6
TORSDOF 4
ENDMDL


