REMARK SMILES NNc1cc(C(=O)[C@H]2O[C@@H]2c2ccc(Cl)c(F)c2)ccc1F
REMARK SMILES IDX 3 1 4 2 5 3 19 4 20 5 21 6 22 7 2 8 1 10 6 13 7 14 8 15 9 16
REMARK SMILES IDX 10 17 11 18 12 19 18 20 13 21 16 22 14 23 17 24 15 25
REMARK H PARENT 2 9 1 11 1 12
ROOT
ATOM      1  C   UNL     1       1.573  -3.795   1.927  1.00  0.00     0.085 A 
ATOM      2  C   UNL     1       0.648  -2.938   1.302  1.00  0.00     0.042 A 
ATOM      3  C   UNL     1      -0.683  -2.856   1.755  1.00  0.00     0.023 A 
ATOM      4  C   UNL     1      -1.081  -3.660   2.838  1.00  0.00     0.015 A 
ATOM      5  C   UNL     1      -0.170  -4.516   3.458  1.00  0.00     0.042 A 
ATOM      6  C   UNL     1       1.151  -4.585   3.009  1.00  0.00     0.147 A 
ATOM      7  F   UNL     1       2.018  -5.422   3.632  1.00  0.00    -0.205 F 
ENDROOT
BRANCH   1   8
ATOM      8  N   UNL     1       2.933  -3.875   1.468  1.00  0.00    -0.321 N 
ATOM      9  H   UNL     1       3.579  -4.579   1.895  1.00  0.00     0.181 HD
BRANCH   8  10
ATOM     10  N   UNL     1       3.413  -3.049   0.438  1.00  0.00    -0.250 NA
ATOM     11  H   UNL     1       3.475  -2.079   0.824  1.00  0.00     0.143 HD
ATOM     12  H   UNL     1       4.392  -3.345   0.221  1.00  0.00     0.143 HD
ENDBRANCH   8  10
ENDBRANCH   1   8
BRANCH   3  13
ATOM     13  C   UNL     1      -1.659  -1.944   1.106  1.00  0.00     0.194 C 
ATOM     14  O   UNL     1      -2.889  -2.063   1.354  1.00  0.00    -0.291 OA
BRANCH  13  15
ATOM     15  C   UNL     1      -1.219  -0.887   0.137  1.00  0.00     0.224 C 
ATOM     16  O   UNL     1      -1.982   0.289   0.280  1.00  0.00    -0.356 OA
ATOM     17  C   UNL     1      -0.652   0.343   0.746  1.00  0.00     0.186 C 
BRANCH  17  18
ATOM     18  C   UNL     1       0.208   1.186  -0.149  1.00  0.00    -0.013 A 
ATOM     19  C   UNL     1       1.470   0.724  -0.552  1.00  0.00     0.008 A 
ATOM     20  C   UNL     1      -0.213   2.468  -0.537  1.00  0.00     0.047 A 
ATOM     21  C   UNL     1       2.287   1.521  -1.359  1.00  0.00     0.024 A 
ATOM     22  C   UNL     1       0.605   3.265  -1.345  1.00  0.00     0.142 A 
ATOM     23  C   UNL     1       1.856   2.790  -1.760  1.00  0.00     0.076 A 
ATOM     24  F   UNL     1       0.182   4.498  -1.718  1.00  0.00    -0.205 F 
ATOM     25  Cl  UNL     1       2.892   3.782  -2.772  1.00  0.00    -0.081 Cl
ENDBRANCH  17  18
ENDBRANCH  13  15
ENDBRANCH   3  13
TORSDOF 5


