REMARK SMILES CC(=O)c1ncc(N2CC[C@@H](C)[C@H](c3cc4cc(F)ccc4[nH]3)[C@H]2F)[n-]1
REMARK SMILES IDX 8 1 9 2 10 3 11 4 12 5 13 6 24 7 25 8 7 9 4 10 5 11 26 12
REMARK SMILES IDX 6 13 2 14 1 15 3 16 14 17 15 18 23 19 16 20 22 21 17 22
REMARK SMILES IDX 21 23 18 24 20 25 19 27
REMARK H PARENT 23 26
ROOT
ATOM      1  N   UNL     1      -0.437  -0.181  -2.654  1.00  0.00    -0.398 N 
ATOM      2  C   UNL     1       0.921  -0.263  -3.208  1.00  0.00     0.044 C 
ATOM      3  C   UNL     1       1.793   0.869  -2.665  1.00  0.00     0.010 C 
ATOM      4  C   UNL     1       1.780   0.884  -1.127  1.00  0.00    -0.001 C 
ATOM      5  C   UNL     1       2.669   2.028  -0.615  1.00  0.00     0.008 C 
ATOM      6  C   UNL     1       0.323   1.018  -0.616  1.00  0.00     0.079 C 
ATOM      7  C   UNL     1      -0.577  -0.096  -1.190  1.00  0.00     0.213 C 
ATOM      8  F   UNL     1      -1.891   0.183  -0.842  1.00  0.00    -0.239 F 
ENDROOT
BRANCH   1   9
ATOM      9  C   UNL     1      -1.547  -0.635  -3.454  1.00  0.00     0.005 A 
ATOM     10  C   UNL     1      -3.367  -1.532  -4.054  1.00  0.00     0.054 A 
ATOM     11  N   UNL     1      -2.879  -0.979  -5.186  1.00  0.00    -0.365 NA
ATOM     12  N   UNL     1      -2.584  -1.342  -2.970  1.00  0.00    -0.356 NA
ATOM     13  C   UNL     1      -1.723  -0.410  -4.802  1.00  0.00     0.034 A 
BRANCH  10  14
ATOM     14  C   UNL     1      -4.638  -2.269  -4.008  1.00  0.00     0.165 C 
ATOM     15  C   UNL     1      -5.134  -2.857  -2.725  1.00  0.00     0.094 C 
ATOM     16  O   UNL     1      -5.318  -2.408  -5.060  1.00  0.00    -0.294 OA
ENDBRANCH  10  14
ENDBRANCH   1   9
BRANCH   6  17
ATOM     17  C   UNL     1       0.260   0.998   0.892  1.00  0.00     0.023 A 
ATOM     18  C   UNL     1      -0.260   2.023   1.681  1.00  0.00     0.032 A 
ATOM     19  N   UNL     1       0.707  -0.027   1.658  1.00  0.00    -0.358 N 
ATOM     20  C   UNL     1      -0.110   1.582   2.978  1.00  0.00     0.003 A 
ATOM     21  C   UNL     1       0.475   0.344   2.928  1.00  0.00     0.046 A 
ATOM     22  C   UNL     1      -0.449   2.188   4.186  1.00  0.00     0.049 A 
ATOM     23  C   UNL     1       0.763  -0.377   4.086  1.00  0.00     0.029 A 
ATOM     24  C   UNL     1      -0.171   1.485   5.373  1.00  0.00     0.123 A 
ATOM     25  C   UNL     1       0.433   0.208   5.323  1.00  0.00     0.041 A 
ATOM     26  H   UNL     1       1.143  -0.918   1.333  1.00  0.00     0.166 HD
ATOM     27  F   UNL     1      -0.483   2.036   6.571  1.00  0.00    -0.207 F 
ENDBRANCH   6  17
TORSDOF 3


