REMARK SMILES CCOC(=O)N(c1ccc(C)c(F)c1)c1cccc(N)c1O
REMARK SMILES IDX 4 1 5 2 3 3 2 4 1 5 6 6 7 7 8 8 14 9 9 10 12 11 10 12 13 13
REMARK SMILES IDX 11 14 15 15 16 16 21 17 17 18 19 19 18 20 22 21 20 23
REMARK H PARENT 22 22 20 24 20 25
ROOT
ATOM      1  C   UNL     1       0.719   1.349   1.982  1.00  0.00     0.419 C 
ATOM      2  O   UNL     1       0.403   1.651   3.167  1.00  0.00    -0.224 OA
ENDROOT
BRANCH   1   3
ATOM      3  O   UNL     1       1.905   1.843   1.424  1.00  0.00    -0.449 OA
BRANCH   3   4
ATOM      4  C   UNL     1       2.839   2.645   2.143  1.00  0.00     0.231 C 
ATOM      5  C   UNL     1       3.655   1.789   3.104  1.00  0.00     0.049 C 
ENDBRANCH   3   4
ENDBRANCH   1   3
BRANCH   1   6
ATOM      6  N   UNL     1      -0.141   0.495   1.203  1.00  0.00    -0.242 N 
BRANCH   6   7
ATOM      7  C   UNL     1       0.028   0.405  -0.227  1.00  0.00     0.055 A 
ATOM      8  C   UNL     1       0.185   1.566  -1.002  1.00  0.00     0.027 A 
ATOM      9  C   UNL     1       0.009  -0.846  -0.867  1.00  0.00     0.066 A 
ATOM     10  C   UNL     1       0.331   1.478  -2.389  1.00  0.00     0.008 A 
ATOM     11  C   UNL     1       0.155  -0.936  -2.254  1.00  0.00     0.128 A 
ATOM     12  C   UNL     1       0.311   0.227  -3.026  1.00  0.00    -0.015 A 
ATOM     13  F   UNL     1       0.146  -2.158  -2.846  1.00  0.00    -0.207 F 
ATOM     14  C   UNL     1       0.485   0.128  -4.513  1.00  0.00     0.047 C 
ENDBRANCH   6   7
BRANCH   6  15
ATOM     15  C   UNL     1      -1.131  -0.323   1.861  1.00  0.00     0.096 A 
ATOM     16  C   UNL     1      -0.747  -1.165   2.916  1.00  0.00     0.031 A 
ATOM     17  C   UNL     1      -2.479  -0.289   1.446  1.00  0.00     0.163 A 
ATOM     18  C   UNL     1      -1.687  -1.971   3.553  1.00  0.00     0.005 A 
ATOM     19  C   UNL     1      -3.429  -1.129   2.082  1.00  0.00     0.076 A 
ATOM     20  C   UNL     1      -3.018  -1.955   3.139  1.00  0.00     0.029 A 
BRANCH  17  21
ATOM     21  O   UNL     1      -2.836   0.600   0.429  1.00  0.00    -0.504 OA
ATOM     22  H   UNL     1      -3.784   0.757   0.119  1.00  0.00     0.293 HD
ENDBRANCH  17  21
BRANCH  19  23
ATOM     23  N   UNL     1      -4.803  -1.173   1.671  1.00  0.00    -0.396 N 
ATOM     24  H   UNL     1      -5.149  -0.724   0.797  1.00  0.00     0.156 HD
ATOM     25  H   UNL     1      -5.494  -1.741   2.210  1.00  0.00     0.156 HD
ENDBRANCH  19  23
ENDBRANCH   6  15
ENDBRANCH   1   6
TORSDOF 7


