MODEL 1
REMARK VINA RESULT:      -9.3      0.000      0.000
REMARK SMILES [H]/N=c1\[n-]cccc1[NH2+]c1ccc2c(c1)[nH+]nn2C
REMARK SMILES IDX 3 1 4 2 5 3 6 4 7 5 8 6 2 7 1 8 9 9 10 12 11 13 15 14 12 15
REMARK SMILES IDX 14 16 13 17 16 18 18 19 17 20 19 22
REMARK H PARENT 9 10 9 11 16 21
ROOT
ATOM      1  C   UNL     1      45.998 129.349  14.824  1.00  0.00    -0.002 A 
ATOM      2  N   UNL     1      47.220 128.915  14.408  1.00  0.00    -0.438 NA
ATOM      3  C   UNL     1      48.085 129.723  13.741  1.00  0.00    -0.022 A 
ATOM      4  C   UNL     1      47.734 131.042  13.462  1.00  0.00     0.002 A 
ATOM      5  C   UNL     1      46.490 131.520  13.874  1.00  0.00     0.067 A 
ATOM      6  C   UNL     1      45.596 130.678  14.559  1.00  0.00     0.133 A 
ENDROOT
BRANCH   1   7
ATOM      7  N   UNL     1      45.214 128.536  15.457  1.00  0.00    -0.477 NA
ATOM      8  H   UNL     1      45.367 128.300  16.463  1.00  0.00     0.020 HD
ENDBRANCH   1   7
BRANCH   6   9
ATOM      9  N   UNL     1      44.322 131.191  15.009  1.00  0.00    -0.282 N 
ATOM     10  H   UNL     1      43.544 130.561  14.703  1.00  0.00     0.358 HD
ATOM     11  H   UNL     1      44.135 132.124  14.570  1.00  0.00     0.358 HD
BRANCH   9  12
ATOM     12  C   UNL     1      44.327 131.326  16.444  1.00  0.00     0.139 A 
ATOM     13  C   UNL     1      45.515 131.056  17.184  1.00  0.00     0.073 A 
ATOM     14  C   UNL     1      43.145 131.700  17.132  1.00  0.00     0.126 A 
ATOM     15  C   UNL     1      45.531 131.157  18.589  1.00  0.00     0.065 A 
ATOM     16  C   UNL     1      43.208 131.788  18.518  1.00  0.00     0.201 A 
ATOM     17  C   UNL     1      44.345 131.529  19.214  1.00  0.00     0.198 A 
ATOM     18  N   UNL     1      42.244 132.114  19.397  1.00  0.00    -0.143 N 
ATOM     19  N   UNL     1      44.067 131.701  20.519  1.00  0.00    -0.133 N 
ATOM     20  N   UNL     1      42.788 132.053  20.610  1.00  0.00     0.088 NA
ATOM     21  H   UNL     1      41.251 132.367  19.194  1.00  0.00     0.342 HD
ATOM     22  C   UNL     1      44.967 131.531  21.653  1.00  0.00     0.327 C 
ENDBRANCH   9  12
ENDBRANCH   6   9
TORSDOF 3
ENDMDL
MODEL 2
REMARK VINA RESULT:      -8.9      0.896      1.762
REMARK SMILES [H]/N=c1\[n-]cccc1[NH2+]c1ccc2c(c1)[nH+]nn2C
REMARK SMILES IDX 3 1 4 2 5 3 6 4 7 5 8 6 2 7 1 8 9 9 10 12 11 13 15 14 12 15
REMARK SMILES IDX 14 16 13 17 16 18 18 19 17 20 19 22
REMARK H PARENT 9 10 9 11 16 21
ROOT
ATOM      1  C   UNL     1      45.865 129.405  14.885  1.00  0.00    -0.002 A 
ATOM      2  N   UNL     1      47.080 128.997  14.424  1.00  0.00    -0.438 NA
ATOM      3  C   UNL     1      47.943 129.849  13.813  1.00  0.00    -0.022 A 
ATOM      4  C   UNL     1      47.598 131.189  13.642  1.00  0.00     0.002 A 
ATOM      5  C   UNL     1      46.361 131.640  14.102  1.00  0.00     0.067 A 
ATOM      6  C   UNL     1      45.469 130.753  14.729  1.00  0.00     0.133 A 
ENDROOT
BRANCH   1   7
ATOM      7  N   UNL     1      45.081 128.549  15.460  1.00  0.00    -0.477 NA
ATOM      8  H   UNL     1      44.124 128.350  15.093  1.00  0.00     0.020 HD
ENDBRANCH   1   7
BRANCH   6   9
ATOM      9  N   UNL     1      44.203 131.236  15.230  1.00  0.00    -0.282 N 
ATOM     10  H   UNL     1      43.418 130.631  14.891  1.00  0.00     0.358 HD
ATOM     11  H   UNL     1      44.013 132.198  14.860  1.00  0.00     0.358 HD
BRANCH   9  12
ATOM     12  C   UNL     1      44.227 131.272  16.671  1.00  0.00     0.139 A 
ATOM     13  C   UNL     1      43.086 131.725  17.395  1.00  0.00     0.073 A 
ATOM     14  C   UNL     1      45.395 130.886  17.376  1.00  0.00     0.126 A 
ATOM     15  C   UNL     1      43.103 131.792  18.802  1.00  0.00     0.065 A 
ATOM     16  C   UNL     1      45.366 130.967  18.764  1.00  0.00     0.201 A 
ATOM     17  C   UNL     1      44.272 131.399  19.445  1.00  0.00     0.198 A 
ATOM     18  N   UNL     1      46.325 130.669  19.657  1.00  0.00    -0.143 N 
ATOM     19  N   UNL     1      44.573 131.361  20.756  1.00  0.00    -0.133 N 
ATOM     20  N   UNL     1      45.822 130.917  20.864  1.00  0.00     0.088 NA
ATOM     21  H   UNL     1      47.288 130.313  19.467  1.00  0.00     0.342 HD
ATOM     22  C   UNL     1      43.723 131.737  21.878  1.00  0.00     0.327 C 
ENDBRANCH   9  12
ENDBRANCH   6   9
TORSDOF 3
ENDMDL
MODEL 3
REMARK VINA RESULT:      -8.8      1.653      2.652
REMARK SMILES [H]/N=c1\[n-]cccc1[NH2+]c1ccc2c(c1)[nH+]nn2C
REMARK SMILES IDX 3 1 4 2 5 3 6 4 7 5 8 6 2 7 1 8 9 9 10 12 11 13 15 14 12 15
REMARK SMILES IDX 14 16 13 17 16 18 18 19 17 20 19 22
REMARK H PARENT 9 10 9 11 16 21
ROOT
ATOM      1  C   UNL     1      46.012 131.597  15.317  1.00  0.00    -0.002 A 
ATOM      2  N   UNL     1      47.005 130.808  14.821  1.00  0.00    -0.438 NA
ATOM      3  C   UNL     1      46.894 129.455  14.771  1.00  0.00    -0.022 A 
ATOM      4  C   UNL     1      45.737 128.831  15.234  1.00  0.00     0.002 A 
ATOM      5  C   UNL     1      44.701 129.610  15.749  1.00  0.00     0.067 A 
ATOM      6  C   UNL     1      44.821 131.009  15.804  1.00  0.00     0.133 A 
ENDROOT
BRANCH   1   7
ATOM      7  N   UNL     1      46.170 132.882  15.340  1.00  0.00    -0.477 NA
ATOM      8  H   UNL     1      45.358 133.535  15.275  1.00  0.00     0.020 HD
ENDBRANCH   1   7
BRANCH   6   9
ATOM      9  N   UNL     1      43.730 131.809  16.310  1.00  0.00    -0.282 N 
ATOM     10  H   UNL     1      42.821 131.494  15.896  1.00  0.00     0.358 HD
ATOM     11  H   UNL     1      43.853 132.809  16.020  1.00  0.00     0.358 HD
BRANCH   9  12
ATOM     12  C   UNL     1      43.687 131.727  17.748  1.00  0.00     0.139 A 
ATOM     13  C   UNL     1      42.453 131.907  18.438  1.00  0.00     0.073 A 
ATOM     14  C   UNL     1      44.875 131.495  18.487  1.00  0.00     0.126 A 
ATOM     15  C   UNL     1      42.397 131.856  19.845  1.00  0.00     0.065 A 
ATOM     16  C   UNL     1      44.772 131.452  19.873  1.00  0.00     0.201 A 
ATOM     17  C   UNL     1      43.591 131.624  20.522  1.00  0.00     0.198 A 
ATOM     18  N   UNL     1      45.730 131.254  20.794  1.00  0.00    -0.143 N 
ATOM     19  N   UNL     1      43.838 131.529  21.841  1.00  0.00    -0.133 N 
ATOM     20  N   UNL     1      45.141 131.306  21.986  1.00  0.00     0.088 NA
ATOM     21  H   UNL     1      46.750 131.092  20.633  1.00  0.00     0.342 HD
ATOM     22  C   UNL     1      42.887 131.652  22.938  1.00  0.00     0.327 C 
ENDBRANCH   9  12
ENDBRANCH   6   9
TORSDOF 3
ENDMDL
MODEL 4
REMARK VINA RESULT:      -8.5      1.486      2.111
REMARK SMILES [H]/N=c1\[n-]cccc1[NH2+]c1ccc2c(c1)[nH+]nn2C
REMARK SMILES IDX 3 1 4 2 5 3 6 4 7 5 8 6 2 7 1 8 9 9 10 12 11 13 15 14 12 15
REMARK SMILES IDX 14 16 13 17 16 18 18 19 17 20 19 22
REMARK H PARENT 9 10 9 11 16 21
ROOT
ATOM      1  C   UNL     1      46.013 131.586  15.314  1.00  0.00    -0.002 A 
ATOM      2  N   UNL     1      47.013 130.832  14.776  1.00  0.00    -0.438 NA
ATOM      3  C   UNL     1      46.945 129.476  14.722  1.00  0.00    -0.022 A 
ATOM      4  C   UNL     1      45.827 128.812  15.225  1.00  0.00     0.002 A 
ATOM      5  C   UNL     1      44.785 129.554  15.782  1.00  0.00     0.067 A 
ATOM      6  C   UNL     1      44.862 130.956  15.841  1.00  0.00     0.133 A 
ENDROOT
BRANCH   1   7
ATOM      7  N   UNL     1      46.131 132.875  15.338  1.00  0.00    -0.477 NA
ATOM      8  H   UNL     1      46.669 133.390  14.606  1.00  0.00     0.020 HD
ENDBRANCH   1   7
BRANCH   6   9
ATOM      9  N   UNL     1      43.765 131.718  16.392  1.00  0.00    -0.282 N 
ATOM     10  H   UNL     1      42.849 131.343  16.050  1.00  0.00     0.358 HD
ATOM     11  H   UNL     1      43.816 132.711  16.063  1.00  0.00     0.358 HD
BRANCH   9  12
ATOM     12  C   UNL     1      43.819 131.684  17.831  1.00  0.00     0.139 A 
ATOM     13  C   UNL     1      44.998 131.232  18.493  1.00  0.00     0.073 A 
ATOM     14  C   UNL     1      42.691 132.072  18.599  1.00  0.00     0.126 A 
ATOM     15  C   UNL     1      45.059 131.168  19.899  1.00  0.00     0.065 A 
ATOM     16  C   UNL     1      42.797 131.992  19.983  1.00  0.00     0.201 A 
ATOM     17  C   UNL     1      43.926 131.561  20.605  1.00  0.00     0.198 A 
ATOM     18  N   UNL     1      41.889 132.292  20.927  1.00  0.00    -0.143 N 
ATOM     19  N   UNL     1      43.697 131.602  21.930  1.00  0.00    -0.133 N 
ATOM     20  N   UNL     1      42.456 132.046  22.105  1.00  0.00     0.088 NA
ATOM     21  H   UNL     1      40.916 132.648  20.790  1.00  0.00     0.342 HD
ATOM     22  C   UNL     1      44.608 131.228  23.004  1.00  0.00     0.327 C 
ENDBRANCH   9  12
ENDBRANCH   6   9
TORSDOF 3
ENDMDL
MODEL 5
REMARK VINA RESULT:      -8.3      2.400      6.987
REMARK SMILES [H]/N=c1\[n-]cccc1[NH2+]c1ccc2c(c1)[nH+]nn2C
REMARK SMILES IDX 3 1 4 2 5 3 6 4 7 5 8 6 2 7 1 8 9 9 10 12 11 13 15 14 12 15
REMARK SMILES IDX 14 16 13 17 16 18 18 19 17 20 19 22
REMARK H PARENT 9 10 9 11 16 21
ROOT
ATOM      1  C   UNL     1      42.777 130.514  23.045  1.00  0.00    -0.002 A 
ATOM      2  N   UNL     1      42.189 129.419  23.602  1.00  0.00    -0.438 NA
ATOM      3  C   UNL     1      42.810 128.212  23.649  1.00  0.00    -0.022 A 
ATOM      4  C   UNL     1      44.091 128.064  23.119  1.00  0.00     0.002 A 
ATOM      5  C   UNL     1      44.722 129.165  22.541  1.00  0.00     0.067 A 
ATOM      6  C   UNL     1      44.073 130.411  22.489  1.00  0.00     0.133 A 
ENDROOT
BRANCH   1   7
ATOM      7  N   UNL     1      42.139 131.640  23.027  1.00  0.00    -0.477 NA
ATOM      8  H   UNL     1      42.147 132.287  23.847  1.00  0.00     0.020 HD
ENDBRANCH   1   7
BRANCH   6   9
ATOM      9  N   UNL     1      44.747 131.554  21.916  1.00  0.00    -0.282 N 
ATOM     10  H   UNL     1      45.736 131.606  22.257  1.00  0.00     0.358 HD
ATOM     11  H   UNL     1      44.282 132.439  22.229  1.00  0.00     0.358 HD
BRANCH   9  12
ATOM     12  C   UNL     1      44.712 131.473  20.478  1.00  0.00     0.139 A 
ATOM     13  C   UNL     1      43.632 132.059  19.755  1.00  0.00     0.073 A 
ATOM     14  C   UNL     1      45.733 130.787  19.774  1.00  0.00     0.126 A 
ATOM     15  C   UNL     1      43.567 131.967  18.351  1.00  0.00     0.065 A 
ATOM     16  C   UNL     1      45.629 130.722  18.389  1.00  0.00     0.201 A 
ATOM     17  C   UNL     1      44.596 131.284  17.709  1.00  0.00     0.198 A 
ATOM     18  N   UNL     1      46.448 130.138  17.498  1.00  0.00    -0.143 N 
ATOM     19  N   UNL     1      44.793 131.039  16.401  1.00  0.00    -0.133 N 
ATOM     20  N   UNL     1      45.921 130.341  16.294  1.00  0.00     0.088 NA
ATOM     21  H   UNL     1      47.333 129.616  17.688  1.00  0.00     0.342 HD
ATOM     22  C   UNL     1      43.949 131.436  15.281  1.00  0.00     0.327 C 
ENDBRANCH   9  12
ENDBRANCH   6   9
TORSDOF 3
ENDMDL
MODEL 6
REMARK VINA RESULT:      -8.1      2.569      7.079
REMARK SMILES [H]/N=c1\[n-]cccc1[NH2+]c1ccc2c(c1)[nH+]nn2C
REMARK SMILES IDX 3 1 4 2 5 3 6 4 7 5 8 6 2 7 1 8 9 9 10 12 11 13 15 14 12 15
REMARK SMILES IDX 14 16 13 17 16 18 18 19 17 20 19 22
REMARK H PARENT 9 10 9 11 16 21
ROOT
ATOM      1  C   UNL     1      42.715 130.411  23.595  1.00  0.00    -0.002 A 
ATOM      2  N   UNL     1      42.076 129.337  24.136  1.00  0.00    -0.438 NA
ATOM      3  C   UNL     1      42.657 128.110  24.201  1.00  0.00    -0.022 A 
ATOM      4  C   UNL     1      43.945 127.920  23.707  1.00  0.00     0.002 A 
ATOM      5  C   UNL     1      44.628 128.999  23.146  1.00  0.00     0.067 A 
ATOM      6  C   UNL     1      44.022 130.266  23.075  1.00  0.00     0.133 A 
ENDROOT
BRANCH   1   7
ATOM      7  N   UNL     1      42.115 131.558  23.559  1.00  0.00    -0.477 NA
ATOM      8  H   UNL     1      41.796 131.981  22.659  1.00  0.00     0.020 HD
ENDBRANCH   1   7
BRANCH   6   9
ATOM      9  N   UNL     1      44.749 131.385  22.521  1.00  0.00    -0.282 N 
ATOM     10  H   UNL     1      45.724 131.414  22.901  1.00  0.00     0.358 HD
ATOM     11  H   UNL     1      44.295 132.285  22.807  1.00  0.00     0.358 HD
BRANCH   9  12
ATOM     12  C   UNL     1      44.769 131.292  21.083  1.00  0.00     0.139 A 
ATOM     13  C   UNL     1      45.896 130.726  20.418  1.00  0.00     0.073 A 
ATOM     14  C   UNL     1      43.683 131.789  20.319  1.00  0.00     0.126 A 
ATOM     15  C   UNL     1      45.944 130.652  19.012  1.00  0.00     0.065 A 
ATOM     16  C   UNL     1      43.774 131.694  18.934  1.00  0.00     0.201 A 
ATOM     17  C   UNL     1      44.852 131.152  18.310  1.00  0.00     0.198 A 
ATOM     18  N   UNL     1      42.898 132.085  17.992  1.00  0.00    -0.143 N 
ATOM     19  N   UNL     1      44.625 131.216  16.985  1.00  0.00    -0.133 N 
ATOM     20  N   UNL     1      43.436 131.787  16.813  1.00  0.00     0.088 NA
ATOM     21  H   UNL     1      41.969 132.542  18.133  1.00  0.00     0.342 HD
ATOM     22  C   UNL     1      45.497 130.766  15.908  1.00  0.00     0.327 C 
ENDBRANCH   9  12
ENDBRANCH   6   9
TORSDOF 3
ENDMDL
MODEL 7
REMARK VINA RESULT:      -8.1      1.127      6.110
REMARK SMILES [H]/N=c1\[n-]cccc1[NH2+]c1ccc2c(c1)[nH+]nn2C
REMARK SMILES IDX 3 1 4 2 5 3 6 4 7 5 8 6 2 7 1 8 9 9 10 12 11 13 15 14 12 15
REMARK SMILES IDX 14 16 13 17 16 18 18 19 17 20 19 22
REMARK H PARENT 9 10 9 11 16 21
ROOT
ATOM      1  C   UNL     1      42.999 132.160  20.091  1.00  0.00    -0.002 A 
ATOM      2  N   UNL     1      43.390 131.888  21.367  1.00  0.00    -0.438 NA
ATOM      3  C   UNL     1      44.564 131.264  21.644  1.00  0.00    -0.022 A 
ATOM      4  C   UNL     1      45.413 130.880  20.608  1.00  0.00     0.002 A 
ATOM      5  C   UNL     1      45.043 131.143  19.289  1.00  0.00     0.067 A 
ATOM      6  C   UNL     1      43.824 131.784  19.006  1.00  0.00     0.133 A 
ENDROOT
BRANCH   1   7
ATOM      7  N   UNL     1      41.870 132.759  19.885  1.00  0.00    -0.477 NA
ATOM      8  H   UNL     1      41.469 133.427  20.580  1.00  0.00     0.020 HD
ENDBRANCH   1   7
BRANCH   6   9
ATOM      9  N   UNL     1      43.464 132.081  17.639  1.00  0.00    -0.282 N 
ATOM     10  H   UNL     1      43.336 133.111  17.507  1.00  0.00     0.358 HD
ATOM     11  H   UNL     1      42.542 131.639  17.406  1.00  0.00     0.358 HD
BRANCH   9  12
ATOM     12  C   UNL     1      44.477 131.579  16.745  1.00  0.00     0.139 A 
ATOM     13  C   UNL     1      45.321 132.485  16.039  1.00  0.00     0.073 A 
ATOM     14  C   UNL     1      44.622 130.184  16.539  1.00  0.00     0.126 A 
ATOM     15  C   UNL     1      46.299 132.013  15.142  1.00  0.00     0.065 A 
ATOM     16  C   UNL     1      45.600 129.763  15.644  1.00  0.00     0.201 A 
ATOM     17  C   UNL     1      46.401 130.635  14.977  1.00  0.00     0.198 A 
ATOM     18  N   UNL     1      45.937 128.517  15.271  1.00  0.00    -0.143 N 
ATOM     19  N   UNL     1      47.225 129.911  14.199  1.00  0.00    -0.133 N 
ATOM     20  N   UNL     1      46.927 128.629  14.390  1.00  0.00     0.088 NA
ATOM     21  H   UNL     1      45.516 127.617  15.593  1.00  0.00     0.342 HD
ATOM     22  C   UNL     1      48.257 130.401  13.294  1.00  0.00     0.327 C 
ENDBRANCH   9  12
ENDBRANCH   6   9
TORSDOF 3
ENDMDL
MODEL 8
REMARK VINA RESULT:      -7.9      1.445      6.112
REMARK SMILES [H]/N=c1\[n-]cccc1[NH2+]c1ccc2c(c1)[nH+]nn2C
REMARK SMILES IDX 3 1 4 2 5 3 6 4 7 5 8 6 2 7 1 8 9 9 10 12 11 13 15 14 12 15
REMARK SMILES IDX 14 16 13 17 16 18 18 19 17 20 19 22
REMARK H PARENT 9 10 9 11 16 21
ROOT
ATOM      1  C   UNL     1      42.863 132.120  19.146  1.00  0.00    -0.002 A 
ATOM      2  N   UNL     1      43.223 132.106  20.459  1.00  0.00    -0.438 NA
ATOM      3  C   UNL     1      44.435 131.648  20.870  1.00  0.00    -0.022 A 
ATOM      4  C   UNL     1      45.355 131.173  19.938  1.00  0.00     0.002 A 
ATOM      5  C   UNL     1      45.018 131.174  18.584  1.00  0.00     0.067 A 
ATOM      6  C   UNL     1      43.762 131.643  18.164  1.00  0.00     0.133 A 
ENDROOT
BRANCH   1   7
ATOM      7  N   UNL     1      41.696 132.569  18.810  1.00  0.00    -0.477 NA
ATOM      8  H   UNL     1      41.513 132.960  17.859  1.00  0.00     0.020 HD
ENDBRANCH   1   7
BRANCH   6   9
ATOM      9  N   UNL     1      43.434 131.669  16.757  1.00  0.00    -0.282 N 
ATOM     10  H   UNL     1      43.186 132.640  16.455  1.00  0.00     0.358 HD
ATOM     11  H   UNL     1      42.586 131.080  16.575  1.00  0.00     0.358 HD
BRANCH   9  12
ATOM     12  C   UNL     1      44.543 131.167  15.986  1.00  0.00     0.139 A 
ATOM     13  C   UNL     1      44.895 129.788  16.053  1.00  0.00     0.073 A 
ATOM     14  C   UNL     1      45.309 132.046  15.179  1.00  0.00     0.126 A 
ATOM     15  C   UNL     1      45.993 129.285  15.327  1.00  0.00     0.065 A 
ATOM     16  C   UNL     1      46.383 131.506  14.479  1.00  0.00     0.201 A 
ATOM     17  C   UNL     1      46.710 130.189  14.549  1.00  0.00     0.198 A 
ATOM     18  N   UNL     1      47.258 132.111  13.658  1.00  0.00    -0.143 N 
ATOM     19  N   UNL     1      47.787 129.999  13.766  1.00  0.00    -0.133 N 
ATOM     20  N   UNL     1      48.105 131.177  13.236  1.00  0.00     0.088 NA
ATOM     21  H   UNL     1      47.291 133.120  13.390  1.00  0.00     0.342 HD
ATOM     22  C   UNL     1      48.507 128.755  13.525  1.00  0.00     0.327 C 
ENDBRANCH   9  12
ENDBRANCH   6   9
TORSDOF 3
ENDMDL
MODEL 9
REMARK VINA RESULT:      -7.7      1.643      2.427
REMARK SMILES [H]/N=c1\[n-]cccc1[NH2+]c1ccc2c(c1)[nH+]nn2C
REMARK SMILES IDX 3 1 4 2 5 3 6 4 7 5 8 6 2 7 1 8 9 9 10 12 11 13 15 14 12 15
REMARK SMILES IDX 14 16 13 17 16 18 18 19 17 20 19 22
REMARK H PARENT 9 10 9 11 16 21
ROOT
ATOM      1  C   UNL     1      45.312 129.664  15.610  1.00  0.00    -0.002 A 
ATOM      2  N   UNL     1      44.825 130.114  14.420  1.00  0.00    -0.438 NA
ATOM      3  C   UNL     1      44.729 131.438  14.135  1.00  0.00    -0.022 A 
ATOM      4  C   UNL     1      45.136 132.386  15.072  1.00  0.00     0.002 A 
ATOM      5  C   UNL     1      45.640 131.959  16.301  1.00  0.00     0.067 A 
ATOM      6  C   UNL     1      45.733 130.588  16.594  1.00  0.00     0.133 A 
ENDROOT
BRANCH   1   7
ATOM      7  N   UNL     1      45.383 128.389  15.829  1.00  0.00    -0.477 NA
ATOM      8  H   UNL     1      44.976 127.696  15.161  1.00  0.00     0.020 HD
ENDBRANCH   1   7
BRANCH   6   9
ATOM      9  N   UNL     1      46.285 130.155  17.857  1.00  0.00    -0.282 N 
ATOM     10  H   UNL     1      47.263 130.509  17.971  1.00  0.00     0.358 HD
ATOM     11  H   UNL     1      46.347 129.109  17.882  1.00  0.00     0.358 HD
BRANCH   9  12
ATOM     12  C   UNL     1      45.451 130.613  18.939  1.00  0.00     0.139 A 
ATOM     13  C   UNL     1      45.743 130.228  20.280  1.00  0.00     0.073 A 
ATOM     14  C   UNL     1      44.319 131.425  18.676  1.00  0.00     0.126 A 
ATOM     15  C   UNL     1      44.924 130.645  21.348  1.00  0.00     0.065 A 
ATOM     16  C   UNL     1      43.539 131.813  19.760  1.00  0.00     0.201 A 
ATOM     17  C   UNL     1      43.827 131.441  21.035  1.00  0.00     0.198 A 
ATOM     18  N   UNL     1      42.428 132.569  19.785  1.00  0.00    -0.143 N 
ATOM     19  N   UNL     1      42.885 131.976  21.833  1.00  0.00    -0.133 N 
ATOM     20  N   UNL     1      42.045 132.654  21.056  1.00  0.00     0.088 NA
ATOM     21  H   UNL     1      41.937 133.012  18.976  1.00  0.00     0.342 HD
ATOM     22  C   UNL     1      42.765 131.850  23.279  1.00  0.00     0.327 C 
ENDBRANCH   9  12
ENDBRANCH   6   9
TORSDOF 3
ENDMDL


