REMARK SMILES CC(=O)N(N)c1cc(C)cc(-n2[nH+]c3ccccc3[nH+]2)c1O
REMARK SMILES IDX 6 1 7 2 8 3 9 4 10 5 11 6 21 7 4 8 2 9 1 10 3 11 5 12 22 15
REMARK SMILES IDX 12 17 13 18 20 19 14 20 19 21 15 22 18 23 16 24 17 25
REMARK H PARENT 5 13 5 14 22 16 13 26 20 27
ROOT
ATOM      1  C   UNL     1       0.173   2.356   1.867  1.00  0.00     0.105 A 
ATOM      2  C   UNL     1       0.193   1.829   3.166  1.00  0.00     0.035 A 
ATOM      3  C   UNL     1       0.423   0.464   3.376  1.00  0.00    -0.046 A 
ATOM      4  C   UNL     1       0.484  -0.086   4.770  1.00  0.00     0.044 C 
ATOM      5  C   UNL     1       0.680  -0.369   2.279  1.00  0.00     0.046 A 
ATOM      6  C   UNL     1       0.670   0.143   0.973  1.00  0.00     0.212 A 
ATOM      7  C   UNL     1       0.376   1.509   0.764  1.00  0.00     0.177 A 
ENDROOT
BRANCH   1   8
ATOM      8  N   UNL     1      -0.089   3.756   1.669  1.00  0.00    -0.245 N 
BRANCH   8   9
ATOM      9  C   UNL     1       0.923   4.643   1.159  1.00  0.00     0.238 C 
ATOM     10  C   UNL     1       2.339   4.188   0.962  1.00  0.00     0.116 C 
ATOM     11  O   UNL     1       0.618   5.829   0.860  1.00  0.00    -0.273 OA
ENDBRANCH   8   9
BRANCH   8  12
ATOM     12  N   UNL     1      -1.321   4.299   2.077  1.00  0.00    -0.240 NA
ATOM     13  H   UNL     1      -1.329   4.324   3.122  1.00  0.00     0.144 HD
ATOM     14  H   UNL     1      -2.081   3.649   1.768  1.00  0.00     0.144 HD
ENDBRANCH   8  12
ENDBRANCH   1   8
BRANCH   7  15
ATOM     15  O   UNL     1       0.239   2.037  -0.522  1.00  0.00    -0.504 OA
ATOM     16  H   UNL     1       0.240   1.464  -1.356  1.00  0.00     0.293 HD
ENDBRANCH   7  15
BRANCH   6  17
ATOM     17  N   UNL     1       0.986  -0.729  -0.123  1.00  0.00     0.083 N 
ATOM     18  N   UNL     1       0.477  -1.950  -0.275  1.00  0.00    -0.062 N 
ATOM     19  N   UNL     1       1.891  -0.457  -1.062  1.00  0.00    -0.062 N 
ATOM     20  C   UNL     1       1.069  -2.467  -1.363  1.00  0.00     0.306 A 
ATOM     21  C   UNL     1       1.945  -1.543  -1.851  1.00  0.00     0.306 A 
ATOM     22  C   UNL     1       0.903  -3.717  -1.953  1.00  0.00     0.089 A 
ATOM     23  C   UNL     1       2.736  -1.786  -2.970  1.00  0.00     0.089 A 
ATOM     24  C   UNL     1       1.682  -3.999  -3.093  1.00  0.00     0.007 A 
ATOM     25  C   UNL     1       2.594  -3.039  -3.599  1.00  0.00     0.007 A 
ATOM     26  H   UNL     1      -0.236  -2.401   0.342  1.00  0.00     0.495 HD
ATOM     27  H   UNL     1       2.462   0.415  -1.134  1.00  0.00     0.495 HD
ENDBRANCH   6  17
TORSDOF 5


