MODEL 1
REMARK VINA RESULT:     -10.8      0.000      0.000
REMARK SMILES C=Cc1ccc(-c2cccc3c[nH+]oc23)nc1
REMARK SMILES IDX 3 1 4 2 5 3 6 4 16 5 17 6 2 7 1 8 7 9 8 10 15 11 9 12 14 13
REMARK SMILES IDX 11 14 10 15 13 16 12 17
REMARK H PARENT 13 18
ROOT
ATOM      1  C   UNL     1      46.623 130.571  14.895  1.00  0.00    -0.008 A 
ATOM      2  C   UNL     1      46.109 131.844  15.199  1.00  0.00     0.012 A 
ATOM      3  C   UNL     1      45.531 132.094  16.446  1.00  0.00     0.030 A 
ATOM      4  C   UNL     1      45.461 131.066  17.406  1.00  0.00     0.074 A 
ATOM      5  N   UNL     1      45.968 129.845  17.082  1.00  0.00    -0.255 NA
ATOM      6  C   UNL     1      46.535 129.576  15.877  1.00  0.00     0.119 A 
ENDROOT
BRANCH   1   7
ATOM      7  C   UNL     1      47.253 130.229  13.592  1.00  0.00     0.002 C 
ATOM      8  C   UNL     1      47.786 131.114  12.748  1.00  0.00     0.009 C 
ENDBRANCH   1   7
BRANCH   4   9
ATOM      9  C   UNL     1      44.856 131.265  18.760  1.00  0.00     0.051 A 
ATOM     10  C   UNL     1      45.518 130.917  19.971  1.00  0.00     0.014 A 
ATOM     11  C   UNL     1      43.570 131.818  18.901  1.00  0.00     0.225 A 
ATOM     12  C   UNL     1      44.902 131.125  21.228  1.00  0.00     0.002 A 
ATOM     13  O   UNL     1      42.739 132.227  17.971  1.00  0.00    -0.238 OA
ATOM     14  C   UNL     1      42.985 132.015  20.124  1.00  0.00     0.093 A 
ATOM     15  C   UNL     1      43.617 131.681  21.313  1.00  0.00     0.019 A 
ATOM     16  N   UNL     1      41.645 132.677  18.522  1.00  0.00    -0.035 N 
ATOM     17  C   UNL     1      41.752 132.565  19.864  1.00  0.00     0.369 A 
ATOM     18  H   UNL     1      40.827 133.059  17.998  1.00  0.00     0.516 HD
ENDBRANCH   4   9
TORSDOF 2
ENDMDL
MODEL 2
REMARK VINA RESULT:     -10.7      0.730      1.190
REMARK SMILES C=Cc1ccc(-c2cccc3c[nH+]oc23)nc1
REMARK SMILES IDX 3 1 4 2 5 3 6 4 16 5 17 6 2 7 1 8 7 9 8 10 15 11 9 12 14 13
REMARK SMILES IDX 11 14 10 15 13 16 12 17
REMARK H PARENT 13 18
ROOT
ATOM      1  C   UNL     1      46.340 130.759  14.586  1.00  0.00    -0.008 A 
ATOM      2  C   UNL     1      46.103 129.610  15.361  1.00  0.00     0.012 A 
ATOM      3  C   UNL     1      45.635 129.725  16.672  1.00  0.00     0.030 A 
ATOM      4  C   UNL     1      45.396 130.999  17.223  1.00  0.00     0.074 A 
ATOM      5  N   UNL     1      45.634 132.092  16.447  1.00  0.00    -0.255 NA
ATOM      6  C   UNL     1      46.090 132.008  15.170  1.00  0.00     0.119 A 
ENDROOT
BRANCH   1   7
ATOM      7  C   UNL     1      46.838 130.717  13.186  1.00  0.00     0.002 C 
ATOM      8  C   UNL     1      48.017 131.194  12.782  1.00  0.00     0.009 C 
ENDBRANCH   1   7
BRANCH   4   9
ATOM      9  C   UNL     1      44.894 131.194  18.619  1.00  0.00     0.051 A 
ATOM     10  C   UNL     1      45.639 130.831  19.775  1.00  0.00     0.014 A 
ATOM     11  C   UNL     1      43.629 131.762  18.858  1.00  0.00     0.225 A 
ATOM     12  C   UNL     1      45.120 131.036  21.076  1.00  0.00     0.002 A 
ATOM     13  O   UNL     1      42.737 132.187  17.994  1.00  0.00    -0.238 OA
ATOM     14  C   UNL     1      43.138 131.957  20.122  1.00  0.00     0.093 A 
ATOM     15  C   UNL     1      43.851 131.607  21.259  1.00  0.00     0.019 A 
ATOM     16  N   UNL     1      41.692 132.646  18.627  1.00  0.00    -0.035 N 
ATOM     17  C   UNL     1      41.895 132.523  19.956  1.00  0.00     0.369 A 
ATOM     18  H   UNL     1      40.843 133.042  18.166  1.00  0.00     0.516 HD
ENDBRANCH   4   9
TORSDOF 2
ENDMDL
MODEL 3
REMARK VINA RESULT:     -10.1      1.743      2.600
REMARK SMILES C=Cc1ccc(-c2cccc3c[nH+]oc23)nc1
REMARK SMILES IDX 3 1 4 2 5 3 6 4 16 5 17 6 2 7 1 8 7 9 8 10 15 11 9 12 14 13
REMARK SMILES IDX 11 14 10 15 13 16 12 17
REMARK H PARENT 13 18
ROOT
ATOM      1  C   UNL     1      46.785 130.675  14.626  1.00  0.00    -0.008 A 
ATOM      2  C   UNL     1      46.317 129.605  15.409  1.00  0.00     0.012 A 
ATOM      3  C   UNL     1      45.488 129.842  16.508  1.00  0.00     0.030 A 
ATOM      4  C   UNL     1      45.118 131.161  16.836  1.00  0.00     0.074 A 
ATOM      5  N   UNL     1      45.587 132.175  16.059  1.00  0.00    -0.255 NA
ATOM      6  C   UNL     1      46.394 131.971  14.985  1.00  0.00     0.119 A 
ENDROOT
BRANCH   1   7
ATOM      7  C   UNL     1      47.668 130.502  13.442  1.00  0.00     0.002 C 
ATOM      8  C   UNL     1      48.543 129.507  13.284  1.00  0.00     0.009 C 
ENDBRANCH   1   7
BRANCH   4   9
ATOM      9  C   UNL     1      44.234 131.487  17.999  1.00  0.00     0.051 A 
ATOM     10  C   UNL     1      42.888 131.926  17.859  1.00  0.00     0.014 A 
ATOM     11  C   UNL     1      44.707 131.371  19.319  1.00  0.00     0.225 A 
ATOM     12  C   UNL     1      42.092 132.222  18.990  1.00  0.00     0.002 A 
ATOM     13  O   UNL     1      45.890 130.993  19.744  1.00  0.00    -0.238 OA
ATOM     14  C   UNL     1      43.926 131.660  20.407  1.00  0.00     0.093 A 
ATOM     15  C   UNL     1      42.613 132.089  20.287  1.00  0.00     0.019 A 
ATOM     16  N   UNL     1      45.922 131.021  21.048  1.00  0.00    -0.035 N 
ATOM     17  C   UNL     1      44.719 131.432  21.507  1.00  0.00     0.369 A 
ATOM     18  H   UNL     1      46.750 130.765  21.629  1.00  0.00     0.516 HD
ENDBRANCH   4   9
TORSDOF 2
ENDMDL
MODEL 4
REMARK VINA RESULT:     -10.0      1.683      2.345
REMARK SMILES C=Cc1ccc(-c2cccc3c[nH+]oc23)nc1
REMARK SMILES IDX 3 1 4 2 5 3 6 4 16 5 17 6 2 7 1 8 7 9 8 10 15 11 9 12 14 13
REMARK SMILES IDX 11 14 10 15 13 16 12 17
REMARK H PARENT 13 18
ROOT
ATOM      1  C   UNL     1      46.549 130.559  14.543  1.00  0.00    -0.008 A 
ATOM      2  C   UNL     1      46.433 131.902  14.944  1.00  0.00     0.012 A 
ATOM      3  C   UNL     1      45.651 132.245  16.049  1.00  0.00     0.030 A 
ATOM      4  C   UNL     1      44.973 131.241  16.768  1.00  0.00     0.074 A 
ATOM      5  N   UNL     1      45.105 129.951  16.355  1.00  0.00    -0.255 NA
ATOM      6  C   UNL     1      45.859 129.591  15.284  1.00  0.00     0.119 A 
ENDROOT
BRANCH   1   7
ATOM      7  C   UNL     1      47.361 130.117  13.378  1.00  0.00     0.002 C 
ATOM      8  C   UNL     1      48.565 129.549  13.461  1.00  0.00     0.009 C 
ENDBRANCH   1   7
BRANCH   4   9
ATOM      9  C   UNL     1      44.119 131.538  17.961  1.00  0.00     0.051 A 
ATOM     10  C   UNL     1      42.764 131.959  17.867  1.00  0.00     0.014 A 
ATOM     11  C   UNL     1      44.632 131.411  19.265  1.00  0.00     0.225 A 
ATOM     12  C   UNL     1      41.997 132.227  19.025  1.00  0.00     0.002 A 
ATOM     13  O   UNL     1      45.833 131.045  19.649  1.00  0.00    -0.238 OA
ATOM     14  C   UNL     1      43.880 131.673  20.380  1.00  0.00     0.093 A 
ATOM     15  C   UNL     1      42.557 132.084  20.304  1.00  0.00     0.019 A 
ATOM     16  N   UNL     1      45.903 131.056  20.953  1.00  0.00    -0.035 N 
ATOM     17  C   UNL     1      44.709 131.442  21.452  1.00  0.00     0.369 A 
ATOM     18  H   UNL     1      46.752 130.804  21.506  1.00  0.00     0.516 HD
ENDBRANCH   4   9
TORSDOF 2
ENDMDL
MODEL 5
REMARK VINA RESULT:      -8.6      1.065      1.123
REMARK SMILES C=Cc1ccc(-c2cccc3c[nH+]oc23)nc1
REMARK SMILES IDX 3 1 4 2 5 3 6 4 16 5 17 6 2 7 1 8 7 9 8 10 15 11 9 12 14 13
REMARK SMILES IDX 11 14 10 15 13 16 12 17
REMARK H PARENT 13 18
ROOT
ATOM      1  C   UNL     1      45.498 130.946  15.128  1.00  0.00    -0.008 A 
ATOM      2  C   UNL     1      44.295 131.573  15.499  1.00  0.00     0.012 A 
ATOM      3  C   UNL     1      43.930 131.665  16.844  1.00  0.00     0.030 A 
ATOM      4  C   UNL     1      44.771 131.127  17.838  1.00  0.00     0.074 A 
ATOM      5  N   UNL     1      45.928 130.527  17.447  1.00  0.00    -0.255 NA
ATOM      6  C   UNL     1      46.306 130.424  16.146  1.00  0.00     0.119 A 
ENDROOT
BRANCH   1   7
ATOM      7  C   UNL     1      45.953 130.811  13.719  1.00  0.00     0.002 C 
ATOM      8  C   UNL     1      47.216 130.943  13.311  1.00  0.00     0.009 C 
ENDBRANCH   1   7
BRANCH   4   9
ATOM      9  C   UNL     1      44.441 131.190  19.296  1.00  0.00     0.051 A 
ATOM     10  C   UNL     1      45.207 130.534  20.299  1.00  0.00     0.014 A 
ATOM     11  C   UNL     1      43.329 131.921  19.754  1.00  0.00     0.225 A 
ATOM     12  C   UNL     1      44.855 130.624  21.666  1.00  0.00     0.002 A 
ATOM     13  O   UNL     1      42.457 132.617  19.064  1.00  0.00    -0.238 OA
ATOM     14  C   UNL     1      42.999 132.001  21.081  1.00  0.00     0.093 A 
ATOM     15  C   UNL     1      43.735 131.367  22.071  1.00  0.00     0.019 A 
ATOM     16  N   UNL     1      41.575 133.145  19.869  1.00  0.00    -0.035 N 
ATOM     17  C   UNL     1      41.872 132.788  21.138  1.00  0.00     0.369 A 
ATOM     18  H   UNL     1      40.776 133.744  19.567  1.00  0.00     0.516 HD
ENDBRANCH   4   9
TORSDOF 2
ENDMDL
MODEL 6
REMARK VINA RESULT:      -8.3      1.718      6.342
REMARK SMILES C=Cc1ccc(-c2cccc3c[nH+]oc23)nc1
REMARK SMILES IDX 3 1 4 2 5 3 6 4 16 5 17 6 2 7 1 8 7 9 8 10 15 11 9 12 14 13
REMARK SMILES IDX 11 14 10 15 13 16 12 17
REMARK H PARENT 13 18
ROOT
ATOM      1  C   UNL     1      43.374 131.769  20.968  1.00  0.00    -0.008 A 
ATOM      2  C   UNL     1      44.678 131.380  20.611  1.00  0.00     0.012 A 
ATOM      3  C   UNL     1      45.027 131.227  19.268  1.00  0.00     0.030 A 
ATOM      4  C   UNL     1      44.071 131.463  18.262  1.00  0.00     0.074 A 
ATOM      5  N   UNL     1      42.818 131.839  18.639  1.00  0.00    -0.255 NA
ATOM      6  C   UNL     1      42.452 131.994  19.939  1.00  0.00     0.119 A 
ENDROOT
BRANCH   1   7
ATOM      7  C   UNL     1      42.928 131.952  22.375  1.00  0.00     0.002 C 
ATOM      8  C   UNL     1      43.255 131.150  23.389  1.00  0.00     0.009 C 
ENDBRANCH   1   7
BRANCH   4   9
ATOM      9  C   UNL     1      44.377 131.318  16.804  1.00  0.00     0.051 A 
ATOM     10  C   UNL     1      43.546 131.840  15.775  1.00  0.00     0.014 A 
ATOM     11  C   UNL     1      45.532 130.640  16.374  1.00  0.00     0.225 A 
ATOM     12  C   UNL     1      43.878 131.677  14.410  1.00  0.00     0.002 A 
ATOM     13  O   UNL     1      46.469 130.064  17.091  1.00  0.00    -0.238 OA
ATOM     14  C   UNL     1      45.845 130.489  15.049  1.00  0.00     0.093 A 
ATOM     15  C   UNL     1      45.044 130.992  14.034  1.00  0.00     0.019 A 
ATOM     16  N   UNL     1      47.372 129.545  16.305  1.00  0.00    -0.035 N 
ATOM     17  C   UNL     1      47.026 129.784  15.022  1.00  0.00     0.369 A 
ATOM     18  H   UNL     1      48.220 129.031  16.631  1.00  0.00     0.516 HD
ENDBRANCH   4   9
TORSDOF 2
ENDMDL
MODEL 7
REMARK VINA RESULT:      -8.2      1.823      6.249
REMARK SMILES C=Cc1ccc(-c2cccc3c[nH+]oc23)nc1
REMARK SMILES IDX 3 1 4 2 5 3 6 4 16 5 17 6 2 7 1 8 7 9 8 10 15 11 9 12 14 13
REMARK SMILES IDX 11 14 10 15 13 16 12 17
REMARK H PARENT 13 18
ROOT
ATOM      1  C   UNL     1      43.502 131.701  20.997  1.00  0.00    -0.008 A 
ATOM      2  C   UNL     1      42.478 131.957  20.067  1.00  0.00     0.012 A 
ATOM      3  C   UNL     1      42.722 131.842  18.697  1.00  0.00     0.030 A 
ATOM      4  C   UNL     1      44.000 131.467  18.240  1.00  0.00     0.074 A 
ATOM      5  N   UNL     1      44.970 131.226  19.164  1.00  0.00    -0.255 NA
ATOM      6  C   UNL     1      44.760 131.331  20.502  1.00  0.00     0.119 A 
ENDROOT
BRANCH   1   7
ATOM      7  C   UNL     1      43.320 131.802  22.469  1.00  0.00     0.002 C 
ATOM      8  C   UNL     1      43.794 130.927  23.358  1.00  0.00     0.009 C 
ENDBRANCH   1   7
BRANCH   4   9
ATOM      9  C   UNL     1      44.330 131.325  16.787  1.00  0.00     0.051 A 
ATOM     10  C   UNL     1      43.512 131.844  15.746  1.00  0.00     0.014 A 
ATOM     11  C   UNL     1      45.496 130.654  16.374  1.00  0.00     0.225 A 
ATOM     12  C   UNL     1      43.867 131.684  14.386  1.00  0.00     0.002 A 
ATOM     13  O   UNL     1      46.424 130.083  17.106  1.00  0.00    -0.238 OA
ATOM     14  C   UNL     1      45.830 130.506  15.054  1.00  0.00     0.093 A 
ATOM     15  C   UNL     1      45.043 131.005  14.027  1.00  0.00     0.019 A 
ATOM     16  N   UNL     1      47.343 129.570  16.334  1.00  0.00    -0.035 N 
ATOM     17  C   UNL     1      47.015 129.808  15.045  1.00  0.00     0.369 A 
ATOM     18  H   UNL     1      48.189 129.061  16.672  1.00  0.00     0.516 HD
ENDBRANCH   4   9
TORSDOF 2
ENDMDL
MODEL 8
REMARK VINA RESULT:      -8.0      1.270      1.682
REMARK SMILES C=Cc1ccc(-c2cccc3c[nH+]oc23)nc1
REMARK SMILES IDX 3 1 4 2 5 3 6 4 16 5 17 6 2 7 1 8 7 9 8 10 15 11 9 12 14 13
REMARK SMILES IDX 11 14 10 15 13 16 12 17
REMARK H PARENT 13 18
ROOT
ATOM      1  C   UNL     1      45.356 130.836  15.539  1.00  0.00    -0.008 A 
ATOM      2  C   UNL     1      46.143 130.234  16.536  1.00  0.00     0.012 A 
ATOM      3  C   UNL     1      45.803 130.370  17.884  1.00  0.00     0.030 A 
ATOM      4  C   UNL     1      44.665 131.114  18.249  1.00  0.00     0.074 A 
ATOM      5  N   UNL     1      43.923 131.685  17.260  1.00  0.00    -0.255 NA
ATOM      6  C   UNL     1      44.232 131.568  15.942  1.00  0.00     0.119 A 
ENDROOT
BRANCH   1   7
ATOM      7  C   UNL     1      45.653 130.736  14.085  1.00  0.00     0.002 C 
ATOM      8  C   UNL     1      46.877 130.636  13.563  1.00  0.00     0.009 C 
ENDBRANCH   1   7
BRANCH   4   9
ATOM      9  C   UNL     1      44.243 131.301  19.673  1.00  0.00     0.051 A 
ATOM     10  C   UNL     1      44.953 130.753  20.776  1.00  0.00     0.014 A 
ATOM     11  C   UNL     1      43.093 132.046  19.993  1.00  0.00     0.225 A 
ATOM     12  C   UNL     1      44.514 130.957  22.106  1.00  0.00     0.002 A 
ATOM     13  O   UNL     1      42.255 132.659  19.190  1.00  0.00    -0.238 OA
ATOM     14  C   UNL     1      42.677 132.238  21.284  1.00  0.00     0.093 A 
ATOM     15  C   UNL     1      43.359 131.710  22.371  1.00  0.00     0.019 A 
ATOM     16  N   UNL     1      41.317 133.238  19.888  1.00  0.00    -0.035 N 
ATOM     17  C   UNL     1      41.538 133.003  21.200  1.00  0.00     0.369 A 
ATOM     18  H   UNL     1      40.529 133.791  19.484  1.00  0.00     0.516 HD
ENDBRANCH   4   9
TORSDOF 2
ENDMDL


