REMARK SMILES CO[C@@H]1CCC[C@@H](c2cc3cc(F)ccc3[nH]2)N1C(=O)c1ccc(Cl)c(C)c1
REMARK SMILES IDX 3 1 4 2 5 3 6 4 7 5 18 6 2 7 1 8 19 9 20 10 21 11 22 12
REMARK SMILES IDX 28 13 23 14 26 15 24 16 27 17 25 18 8 19 9 20 17 21 10 22
REMARK SMILES IDX 16 23 11 24 15 25 12 26 14 27 13 29
REMARK H PARENT 17 28
ROOT
ATOM      1  C   UNL     1       3.218  -0.234   0.670  1.00  0.00     0.217 C 
ATOM      2  C   UNL     1       3.933  -1.340  -0.120  1.00  0.00     0.055 C 
ATOM      3  C   UNL     1       4.322  -0.856  -1.518  1.00  0.00     0.007 C 
ATOM      4  C   UNL     1       3.080  -0.399  -2.281  1.00  0.00     0.032 C 
ATOM      5  C   UNL     1       2.334   0.710  -1.518  1.00  0.00     0.135 C 
ATOM      6  N   UNL     1       2.097   0.313  -0.113  1.00  0.00    -0.304 N 
ENDROOT
BRANCH   1   7
ATOM      7  O   UNL     1       4.128   0.817   0.957  1.00  0.00    -0.362 OA
ATOM      8  C   UNL     1       4.598   0.726   2.284  1.00  0.00     0.197 C 
ENDBRANCH   1   7
BRANCH   6   9
ATOM      9  C   UNL     1       1.041   0.942   0.637  1.00  0.00     0.256 C 
ATOM     10  O   UNL     1       0.934   2.199   0.616  1.00  0.00    -0.269 OA
BRANCH   9  11
ATOM     11  C   UNL     1       0.076   0.129   1.415  1.00  0.00     0.040 A 
ATOM     12  C   UNL     1      -0.005  -1.260   1.222  1.00  0.00     0.015 A 
ATOM     13  C   UNL     1      -0.789   0.741   2.340  1.00  0.00     0.018 A 
ATOM     14  C   UNL     1      -0.923  -2.022   1.946  1.00  0.00     0.021 A 
ATOM     15  C   UNL     1      -1.715  -0.021   3.073  1.00  0.00    -0.032 A 
ATOM     16  C   UNL     1      -1.777  -1.413   2.870  1.00  0.00     0.044 A 
ATOM     17  C   UNL     1      -2.627   0.654   4.060  1.00  0.00     0.046 C 
ATOM     18  Cl  UNL     1      -2.916  -2.422   3.756  1.00  0.00    -0.084 Cl
ENDBRANCH   9  11
ENDBRANCH   6   9
BRANCH   5  19
ATOM     19  C   UNL     1       1.040   1.015  -2.237  1.00  0.00     0.039 A 
ATOM     20  C   UNL     1      -0.053   0.153  -2.336  1.00  0.00     0.034 A 
ATOM     21  N   UNL     1       0.795   2.185  -2.872  1.00  0.00    -0.357 N 
ATOM     22  C   UNL     1      -0.992   0.854  -3.059  1.00  0.00     0.003 A 
ATOM     23  C   UNL     1      -0.449   2.074  -3.368  1.00  0.00     0.046 A 
ATOM     24  C   UNL     1      -2.278   0.499  -3.458  1.00  0.00     0.049 A 
ATOM     25  C   UNL     1      -1.157   3.027  -4.099  1.00  0.00     0.029 A 
ATOM     26  C   UNL     1      -3.019   1.440  -4.198  1.00  0.00     0.123 A 
ATOM     27  C   UNL     1      -2.460   2.698  -4.517  1.00  0.00     0.041 A 
ATOM     28  H   UNL     1       1.435   3.006  -2.955  1.00  0.00     0.166 HD
ATOM     29  F   UNL     1      -4.275   1.137  -4.607  1.00  0.00    -0.207 F 
ENDBRANCH   5  19
TORSDOF 4


