MODEL 1
REMARK VINA RESULT:      -9.9      0.000      0.000
REMARK SMILES N#Cc1ccc([NH2+]c2ccc3cc[nH]c3c2)c(F)c1
REMARK SMILES IDX 3 1 4 2 5 3 6 4 17 5 18 6 19 7 2 8 1 9 7 10 8 13 9 14 16 15
REMARK SMILES IDX 10 16 15 17 11 18 14 19 12 20 13 21
REMARK H PARENT 7 11 7 12 14 22
ROOT
ATOM      1  C   UNL     1      44.040 131.416  20.915  1.00  0.00     0.055 A 
ATOM      2  C   UNL     1      45.145 131.251  20.073  1.00  0.00     0.026 A 
ATOM      3  C   UNL     1      45.006 131.416  18.692  1.00  0.00     0.073 A 
ATOM      4  C   UNL     1      43.758 131.743  18.134  1.00  0.00     0.170 A 
ATOM      5  C   UNL     1      42.649 131.913  18.989  1.00  0.00     0.185 A 
ATOM      6  F   UNL     1      41.431 132.233  18.487  1.00  0.00    -0.200 F 
ATOM      7  C   UNL     1      42.793 131.746  20.371  1.00  0.00     0.065 A 
ENDROOT
BRANCH   1   8
ATOM      8  C   UNL     1      44.183 131.246  22.337  1.00  0.00     0.099 C 
ATOM      9  N   UNL     1      44.300 131.111  23.481  1.00  0.00    -0.192 NA
ENDBRANCH   1   8
BRANCH   4  10
ATOM     10  N   UNL     1      43.630 131.942  16.710  1.00  0.00    -0.279 N 
ATOM     11  H   UNL     1      43.678 132.962  16.478  1.00  0.00     0.358 HD
ATOM     12  H   UNL     1      42.693 131.606  16.385  1.00  0.00     0.358 HD
BRANCH  10  13
ATOM     13  C   UNL     1      44.673 131.223  16.023  1.00  0.00     0.136 A 
ATOM     14  C   UNL     1      44.819 129.821  16.206  1.00  0.00     0.069 A 
ATOM     15  C   UNL     1      45.535 131.902  15.129  1.00  0.00     0.094 A 
ATOM     16  C   UNL     1      45.814 129.105  15.517  1.00  0.00     0.016 A 
ATOM     17  C   UNL     1      46.509 131.161  14.462  1.00  0.00     0.051 A 
ATOM     18  C   UNL     1      46.642 129.812  14.652  1.00  0.00    -0.000 A 
ATOM     19  N   UNL     1      47.416 131.612  13.582  1.00  0.00    -0.361 N 
ATOM     20  C   UNL     1      47.682 129.384  13.854  1.00  0.00     0.028 A 
ATOM     21  C   UNL     1      48.136 130.529  13.207  1.00  0.00     0.083 A 
ATOM     22  H   UNL     1      47.543 132.594  13.251  1.00  0.00     0.166 HD
ENDBRANCH  10  13
ENDBRANCH   4  10
TORSDOF 3
ENDMDL
MODEL 2
REMARK VINA RESULT:      -9.4      1.569      6.748
REMARK SMILES N#Cc1ccc([NH2+]c2ccc3cc[nH]c3c2)c(F)c1
REMARK SMILES IDX 3 1 4 2 5 3 6 4 17 5 18 6 19 7 2 8 1 9 7 10 8 13 9 14 16 15
REMARK SMILES IDX 10 16 15 17 11 18 14 19 12 20 13 21
REMARK H PARENT 7 11 7 12 14 22
ROOT
ATOM      1  C   UNL     1      46.825 130.089  14.626  1.00  0.00     0.055 A 
ATOM      2  C   UNL     1      45.788 129.275  15.095  1.00  0.00     0.026 A 
ATOM      3  C   UNL     1      44.754 129.825  15.856  1.00  0.00     0.073 A 
ATOM      4  C   UNL     1      44.744 131.197  16.164  1.00  0.00     0.170 A 
ATOM      5  C   UNL     1      45.790 132.013  15.684  1.00  0.00     0.185 A 
ATOM      6  F   UNL     1      45.812 133.341  15.957  1.00  0.00    -0.200 F 
ATOM      7  C   UNL     1      46.824 131.458  14.923  1.00  0.00     0.065 A 
ENDROOT
BRANCH   1   8
ATOM      8  C   UNL     1      47.890 129.523  13.841  1.00  0.00     0.099 C 
ATOM      9  N   UNL     1      48.746 129.069  13.209  1.00  0.00    -0.192 NA
ENDBRANCH   1   8
BRANCH   4  10
ATOM     10  N   UNL     1      43.656 131.763  16.924  1.00  0.00    -0.279 N 
ATOM     11  H   UNL     1      42.749 131.313  16.655  1.00  0.00     0.358 HD
ATOM     12  H   UNL     1      43.559 132.782  16.705  1.00  0.00     0.358 HD
BRANCH  10  13
ATOM     13  C   UNL     1      43.903 131.586  18.333  1.00  0.00     0.136 A 
ATOM     14  C   UNL     1      45.177 131.151  18.790  1.00  0.00     0.069 A 
ATOM     15  C   UNL     1      42.890 131.883  19.276  1.00  0.00     0.094 A 
ATOM     16  C   UNL     1      45.438 131.005  20.163  1.00  0.00     0.016 A 
ATOM     17  C   UNL     1      43.183 131.727  20.630  1.00  0.00     0.051 A 
ATOM     18  C   UNL     1      44.413 131.303  21.055  1.00  0.00    -0.000 A 
ATOM     19  N   UNL     1      42.368 131.954  21.672  1.00  0.00    -0.361 N 
ATOM     20  C   UNL     1      44.379 131.258  22.432  1.00  0.00     0.028 A 
ATOM     21  C   UNL     1      43.096 131.668  22.777  1.00  0.00     0.083 A 
ATOM     22  H   UNL     1      41.378 132.283  21.641  1.00  0.00     0.166 HD
ENDBRANCH  10  13
ENDBRANCH   4  10
TORSDOF 3
ENDMDL
MODEL 3
REMARK VINA RESULT:      -9.1      1.534      6.666
REMARK SMILES N#Cc1ccc([NH2+]c2ccc3cc[nH]c3c2)c(F)c1
REMARK SMILES IDX 3 1 4 2 5 3 6 4 17 5 18 6 19 7 2 8 1 9 7 10 8 13 9 14 16 15
REMARK SMILES IDX 10 16 15 17 11 18 14 19 12 20 13 21
REMARK H PARENT 7 11 7 12 14 22
ROOT
ATOM      1  C   UNL     1      47.022 130.186  14.405  1.00  0.00     0.055 A 
ATOM      2  C   UNL     1      46.846 131.571  14.484  1.00  0.00     0.026 A 
ATOM      3  C   UNL     1      45.758 132.102  15.182  1.00  0.00     0.073 A 
ATOM      4  C   UNL     1      44.827 131.253  15.806  1.00  0.00     0.170 A 
ATOM      5  C   UNL     1      45.013 129.858  15.726  1.00  0.00     0.185 A 
ATOM      6  F   UNL     1      44.138 129.008  16.320  1.00  0.00    -0.200 F 
ATOM      7  C   UNL     1      46.103 129.331  15.026  1.00  0.00     0.065 A 
ENDROOT
BRANCH   1   8
ATOM      8  C   UNL     1      48.143 129.639  13.687  1.00  0.00     0.099 C 
ATOM      9  N   UNL     1      49.044 129.198  13.109  1.00  0.00    -0.192 NA
ENDBRANCH   1   8
BRANCH   4  10
ATOM     10  N   UNL     1      43.723 131.810  16.551  1.00  0.00    -0.279 N 
ATOM     11  H   UNL     1      42.824 131.355  16.269  1.00  0.00     0.358 HD
ATOM     12  H   UNL     1      43.623 132.830  16.332  1.00  0.00     0.358 HD
BRANCH  10  13
ATOM     13  C   UNL     1      43.952 131.633  17.963  1.00  0.00     0.136 A 
ATOM     14  C   UNL     1      45.225 131.218  18.438  1.00  0.00     0.069 A 
ATOM     15  C   UNL     1      42.919 131.910  18.891  1.00  0.00     0.094 A 
ATOM     16  C   UNL     1      45.467 131.071  19.816  1.00  0.00     0.016 A 
ATOM     17  C   UNL     1      43.194 131.755  20.249  1.00  0.00     0.051 A 
ATOM     18  C   UNL     1      44.424 131.350  20.692  1.00  0.00    -0.000 A 
ATOM     19  N   UNL     1      42.359 131.965  21.279  1.00  0.00    -0.361 N 
ATOM     20  C   UNL     1      44.369 131.299  22.068  1.00  0.00     0.028 A 
ATOM     21  C   UNL     1      43.074 131.687  22.394  1.00  0.00     0.083 A 
ATOM     22  H   UNL     1      41.364 132.278  21.233  1.00  0.00     0.166 HD
ENDBRANCH  10  13
ENDBRANCH   4  10
TORSDOF 3
ENDMDL
MODEL 4
REMARK VINA RESULT:      -9.0      1.543      6.718
REMARK SMILES N#Cc1ccc([NH2+]c2ccc3cc[nH]c3c2)c(F)c1
REMARK SMILES IDX 3 1 4 2 5 3 6 4 17 5 18 6 19 7 2 8 1 9 7 10 8 13 9 14 16 15
REMARK SMILES IDX 10 16 15 17 11 18 14 19 12 20 13 21
REMARK H PARENT 7 11 7 12 14 22
ROOT
ATOM      1  C   UNL     1      46.549 130.221  14.771  1.00  0.00     0.055 A 
ATOM      2  C   UNL     1      46.538 130.033  16.157  1.00  0.00     0.026 A 
ATOM      3  C   UNL     1      45.501 130.564  16.929  1.00  0.00     0.073 A 
ATOM      4  C   UNL     1      44.462 131.295  16.325  1.00  0.00     0.170 A 
ATOM      5  C   UNL     1      44.478 131.475  14.926  1.00  0.00     0.185 A 
ATOM      6  F   UNL     1      43.491 132.171  14.308  1.00  0.00    -0.200 F 
ATOM      7  C   UNL     1      45.518 130.943  14.158  1.00  0.00     0.065 A 
ENDROOT
BRANCH   1   8
ATOM      8  C   UNL     1      47.617 129.674  13.976  1.00  0.00     0.099 C 
ATOM      9  N   UNL     1      48.476 129.233  13.338  1.00  0.00    -0.192 NA
ENDBRANCH   1   8
BRANCH   4  10
ATOM     10  N   UNL     1      43.378 131.812  17.125  1.00  0.00    -0.279 N 
ATOM     11  H   UNL     1      42.493 131.291  16.923  1.00  0.00     0.358 HD
ATOM     12  H   UNL     1      43.198 132.813  16.878  1.00  0.00     0.358 HD
BRANCH  10  13
ATOM     13  C   UNL     1      43.713 131.705  18.523  1.00  0.00     0.136 A 
ATOM     14  C   UNL     1      45.068 131.566  18.929  1.00  0.00     0.069 A 
ATOM     15  C   UNL     1      42.696 131.779  19.505  1.00  0.00     0.094 A 
ATOM     16  C   UNL     1      45.407 131.493  20.291  1.00  0.00     0.016 A 
ATOM     17  C   UNL     1      43.069 131.702  20.846  1.00  0.00     0.051 A 
ATOM     18  C   UNL     1      44.377 131.564  21.223  1.00  0.00    -0.000 A 
ATOM     19  N   UNL     1      42.265 131.751  21.920  1.00  0.00    -0.361 N 
ATOM     20  C   UNL     1      44.407 131.523  22.600  1.00  0.00     0.028 A 
ATOM     21  C   UNL     1      43.079 131.642  22.995  1.00  0.00     0.083 A 
ATOM     22  H   UNL     1      41.225 131.854  21.928  1.00  0.00     0.166 HD
ENDBRANCH  10  13
ENDBRANCH   4  10
TORSDOF 3
ENDMDL
MODEL 5
REMARK VINA RESULT:      -8.7      1.092      1.181
REMARK SMILES N#Cc1ccc([NH2+]c2ccc3cc[nH]c3c2)c(F)c1
REMARK SMILES IDX 3 1 4 2 5 3 6 4 17 5 18 6 19 7 2 8 1 9 7 10 8 13 9 14 16 15
REMARK SMILES IDX 10 16 15 17 11 18 14 19 12 20 13 21
REMARK H PARENT 7 11 7 12 14 22
ROOT
ATOM      1  C   UNL     1      44.061 130.566  21.767  1.00  0.00     0.055 A 
ATOM      2  C   UNL     1      45.317 130.611  21.153  1.00  0.00     0.026 A 
ATOM      3  C   UNL     1      45.474 131.257  19.923  1.00  0.00     0.073 A 
ATOM      4  C   UNL     1      44.375 131.863  19.289  1.00  0.00     0.170 A 
ATOM      5  C   UNL     1      43.113 131.818  19.917  1.00  0.00     0.185 A 
ATOM      6  F   UNL     1      42.031 132.395  19.337  1.00  0.00    -0.200 F 
ATOM      7  C   UNL     1      42.960 131.170  21.147  1.00  0.00     0.065 A 
ENDROOT
BRANCH   1   8
ATOM      8  C   UNL     1      43.900 129.902  23.034  1.00  0.00     0.099 C 
ATOM      9  N   UNL     1      43.772 129.367  24.052  1.00  0.00    -0.192 NA
ENDBRANCH   1   8
BRANCH   4  10
ATOM     10  N   UNL     1      44.553 132.555  18.035  1.00  0.00    -0.279 N 
ATOM     11  H   UNL     1      45.067 133.454  18.183  1.00  0.00     0.358 HD
ATOM     12  H   UNL     1      43.620 132.808  17.632  1.00  0.00     0.358 HD
BRANCH  10  13
ATOM     13  C   UNL     1      45.272 131.713  17.112  1.00  0.00     0.136 A 
ATOM     14  C   UNL     1      45.469 130.335  17.401  1.00  0.00     0.069 A 
ATOM     15  C   UNL     1      45.754 132.244  15.892  1.00  0.00     0.094 A 
ATOM     16  C   UNL     1      46.142 129.498  16.494  1.00  0.00     0.016 A 
ATOM     17  C   UNL     1      46.417 131.385  15.016  1.00  0.00     0.051 A 
ATOM     18  C   UNL     1      46.603 130.062  15.309  1.00  0.00    -0.000 A 
ATOM     19  N   UNL     1      46.945 131.690  13.820  1.00  0.00    -0.361 N 
ATOM     20  C   UNL     1      47.281 129.497  14.250  1.00  0.00     0.028 A 
ATOM     21  C   UNL     1      47.475 130.538  13.348  1.00  0.00     0.083 A 
ATOM     22  H   UNL     1      46.948 132.621  13.348  1.00  0.00     0.166 HD
ENDBRANCH  10  13
ENDBRANCH   4  10
TORSDOF 3
ENDMDL
MODEL 6
REMARK VINA RESULT:      -8.6      1.086      1.554
REMARK SMILES N#Cc1ccc([NH2+]c2ccc3cc[nH]c3c2)c(F)c1
REMARK SMILES IDX 3 1 4 2 5 3 6 4 17 5 18 6 19 7 2 8 1 9 7 10 8 13 9 14 16 15
REMARK SMILES IDX 10 16 15 17 11 18 14 19 12 20 13 21
REMARK H PARENT 7 11 7 12 14 22
ROOT
ATOM      1  C   UNL     1      43.969 131.462  20.877  1.00  0.00     0.055 A 
ATOM      2  C   UNL     1      42.702 131.696  20.333  1.00  0.00     0.026 A 
ATOM      3  C   UNL     1      42.548 131.846  18.952  1.00  0.00     0.073 A 
ATOM      4  C   UNL     1      43.661 131.769  18.096  1.00  0.00     0.170 A 
ATOM      5  C   UNL     1      44.935 131.527  18.651  1.00  0.00     0.185 A 
ATOM      6  F   UNL     1      46.031 131.442  17.856  1.00  0.00    -0.200 F 
ATOM      7  C   UNL     1      45.084 131.379  20.034  1.00  0.00     0.065 A 
ENDROOT
BRANCH   1   8
ATOM      8  C   UNL     1      44.128 131.307  22.299  1.00  0.00     0.099 C 
ATOM      9  N   UNL     1      44.256 131.180  23.442  1.00  0.00    -0.192 NA
ENDBRANCH   1   8
BRANCH   4  10
ATOM     10  N   UNL     1      43.488 131.893  16.669  1.00  0.00    -0.279 N 
ATOM     11  H   UNL     1      43.483 132.901  16.387  1.00  0.00     0.358 HD
ATOM     12  H   UNL     1      42.559 131.500  16.386  1.00  0.00     0.358 HD
BRANCH  10  13
ATOM     13  C   UNL     1      44.545 131.188  15.988  1.00  0.00     0.136 A 
ATOM     14  C   UNL     1      44.684 129.782  16.139  1.00  0.00     0.069 A 
ATOM     15  C   UNL     1      45.429 131.887  15.131  1.00  0.00     0.094 A 
ATOM     16  C   UNL     1      45.693 129.081  15.455  1.00  0.00     0.016 A 
ATOM     17  C   UNL     1      46.417 131.160  14.469  1.00  0.00     0.051 A 
ATOM     18  C   UNL     1      46.543 129.807  14.627  1.00  0.00    -0.000 A 
ATOM     19  N   UNL     1      47.345 131.631  13.621  1.00  0.00    -0.361 N 
ATOM     20  C   UNL     1      47.600 129.397  13.844  1.00  0.00     0.028 A 
ATOM     21  C   UNL     1      48.071 130.555  13.236  1.00  0.00     0.083 A 
ATOM     22  H   UNL     1      47.482 132.621  13.318  1.00  0.00     0.166 HD
ENDBRANCH  10  13
ENDBRANCH   4  10
TORSDOF 3
ENDMDL
MODEL 7
REMARK VINA RESULT:      -8.2      0.906      1.487
REMARK SMILES N#Cc1ccc([NH2+]c2ccc3cc[nH]c3c2)c(F)c1
REMARK SMILES IDX 3 1 4 2 5 3 6 4 17 5 18 6 19 7 2 8 1 9 7 10 8 13 9 14 16 15
REMARK SMILES IDX 10 16 15 17 11 18 14 19 12 20 13 21
REMARK H PARENT 7 11 7 12 14 22
ROOT
ATOM      1  C   UNL     1      44.094 131.600  21.014  1.00  0.00     0.055 A 
ATOM      2  C   UNL     1      45.080 131.258  20.082  1.00  0.00     0.026 A 
ATOM      3  C   UNL     1      44.793 131.286  18.715  1.00  0.00     0.073 A 
ATOM      4  C   UNL     1      43.514 131.651  18.260  1.00  0.00     0.170 A 
ATOM      5  C   UNL     1      42.527 131.999  19.205  1.00  0.00     0.185 A 
ATOM      6  F   UNL     1      41.282 132.361  18.804  1.00  0.00    -0.200 F 
ATOM      7  C   UNL     1      42.818 131.969  20.573  1.00  0.00     0.065 A 
ENDROOT
BRANCH   1   8
ATOM      8  C   UNL     1      44.390 131.572  22.422  1.00  0.00     0.099 C 
ATOM      9  N   UNL     1      44.627 131.547  23.555  1.00  0.00    -0.192 NA
ENDBRANCH   1   8
BRANCH   4  10
ATOM     10  N   UNL     1      43.236 131.708  16.845  1.00  0.00    -0.279 N 
ATOM     11  H   UNL     1      42.849 132.645  16.586  1.00  0.00     0.358 HD
ATOM     12  H   UNL     1      42.502 131.003  16.597  1.00  0.00     0.358 HD
BRANCH  10  13
ATOM     13  C   UNL     1      44.441 131.441  16.102  1.00  0.00     0.136 A 
ATOM     14  C   UNL     1      45.303 132.507  15.726  1.00  0.00     0.069 A 
ATOM     15  C   UNL     1      44.796 130.111  15.775  1.00  0.00     0.094 A 
ATOM     16  C   UNL     1      46.497 132.255  15.027  1.00  0.00     0.016 A 
ATOM     17  C   UNL     1      45.986 129.897  15.082  1.00  0.00     0.051 A 
ATOM     18  C   UNL     1      46.805 130.933  14.722  1.00  0.00    -0.000 A 
ATOM     19  N   UNL     1      46.497 128.722  14.681  1.00  0.00    -0.361 N 
ATOM     20  C   UNL     1      47.887 130.393  14.061  1.00  0.00     0.028 A 
ATOM     21  C   UNL     1      47.660 129.020  14.056  1.00  0.00     0.083 A 
ATOM     22  H   UNL     1      46.086 127.773  14.821  1.00  0.00     0.166 HD
ENDBRANCH  10  13
ENDBRANCH   4  10
TORSDOF 3
ENDMDL
MODEL 8
REMARK VINA RESULT:      -8.1      1.806      6.364
REMARK SMILES N#Cc1ccc([NH2+]c2ccc3cc[nH]c3c2)c(F)c1
REMARK SMILES IDX 3 1 4 2 5 3 6 4 17 5 18 6 19 7 2 8 1 9 7 10 8 13 9 14 16 15
REMARK SMILES IDX 10 16 15 17 11 18 14 19 12 20 13 21
REMARK H PARENT 7 11 7 12 14 22
ROOT
ATOM      1  C   UNL     1      47.228 130.093  14.175  1.00  0.00     0.055 A 
ATOM      2  C   UNL     1      46.968 131.467  14.152  1.00  0.00     0.026 A 
ATOM      3  C   UNL     1      45.784 131.967  14.699  1.00  0.00     0.073 A 
ATOM      4  C   UNL     1      44.840 131.098  15.275  1.00  0.00     0.170 A 
ATOM      5  C   UNL     1      45.111 129.714  15.299  1.00  0.00     0.185 A 
ATOM      6  F   UNL     1      44.225 128.846  15.850  1.00  0.00    -0.200 F 
ATOM      7  C   UNL     1      46.297 129.218  14.749  1.00  0.00     0.065 A 
ENDROOT
BRANCH   1   8
ATOM      8  C   UNL     1      48.448 129.577  13.611  1.00  0.00     0.099 C 
ATOM      9  N   UNL     1      49.430 129.164  13.160  1.00  0.00    -0.192 NA
ENDBRANCH   1   8
BRANCH   4  10
ATOM     10  N   UNL     1      43.634 131.626  15.866  1.00  0.00    -0.279 N 
ATOM     11  H   UNL     1      42.803 131.064  15.567  1.00  0.00     0.358 HD
ATOM     12  H   UNL     1      43.470 132.604  15.529  1.00  0.00     0.358 HD
BRANCH  10  13
ATOM     13  C   UNL     1      43.753 131.618  17.303  1.00  0.00     0.136 A 
ATOM     14  C   UNL     1      42.628 131.916  18.118  1.00  0.00     0.069 A 
ATOM     15  C   UNL     1      44.983 131.273  17.912  1.00  0.00     0.094 A 
ATOM     16  C   UNL     1      42.726 131.880  19.520  1.00  0.00     0.016 A 
ATOM     17  C   UNL     1      45.044 131.248  19.305  1.00  0.00     0.051 A 
ATOM     18  C   UNL     1      43.954 131.541  20.078  1.00  0.00    -0.000 A 
ATOM     19  N   UNL     1      46.106 130.949  20.069  1.00  0.00    -0.361 N 
ATOM     20  C   UNL     1      44.340 131.424  21.396  1.00  0.00     0.028 A 
ATOM     21  C   UNL     1      45.681 131.055  21.349  1.00  0.00     0.083 A 
ATOM     22  H   UNL     1      47.065 130.687  19.746  1.00  0.00     0.166 HD
ENDBRANCH  10  13
ENDBRANCH   4  10
TORSDOF 3
ENDMDL
MODEL 9
REMARK VINA RESULT:      -8.0      1.691      6.413
REMARK SMILES N#Cc1ccc([NH2+]c2ccc3cc[nH]c3c2)c(F)c1
REMARK SMILES IDX 3 1 4 2 5 3 6 4 17 5 18 6 19 7 2 8 1 9 7 10 8 13 9 14 16 15
REMARK SMILES IDX 10 16 15 17 11 18 14 19 12 20 13 21
REMARK H PARENT 7 11 7 12 14 22
ROOT
ATOM      1  C   UNL     1      46.871 130.110  14.509  1.00  0.00     0.055 A 
ATOM      2  C   UNL     1      45.723 129.356  14.775  1.00  0.00     0.026 A 
ATOM      3  C   UNL     1      44.615 129.955  15.380  1.00  0.00     0.073 A 
ATOM      4  C   UNL     1      44.642 131.317  15.732  1.00  0.00     0.170 A 
ATOM      5  C   UNL     1      45.802 132.071  15.455  1.00  0.00     0.185 A 
ATOM      6  F   UNL     1      45.863 133.388  15.776  1.00  0.00    -0.200 F 
ATOM      7  C   UNL     1      46.909 131.467  14.850  1.00  0.00     0.065 A 
ENDROOT
BRANCH   1   8
ATOM      8  C   UNL     1      48.012 129.492  13.885  1.00  0.00     0.099 C 
ATOM      9  N   UNL     1      48.931 128.997  13.385  1.00  0.00    -0.192 NA
ENDBRANCH   1   8
BRANCH   4  10
ATOM     10  N   UNL     1      43.483 131.935  16.327  1.00  0.00    -0.279 N 
ATOM     11  H   UNL     1      42.606 131.493  15.966  1.00  0.00     0.358 HD
ATOM     12  H   UNL     1      43.439 132.946  16.058  1.00  0.00     0.358 HD
BRANCH  10  13
ATOM     13  C   UNL     1      43.549 131.814  17.762  1.00  0.00     0.136 A 
ATOM     14  C   UNL     1      42.379 131.975  18.552  1.00  0.00     0.069 A 
ATOM     15  C   UNL     1      44.775 131.493  18.393  1.00  0.00     0.094 A 
ATOM     16  C   UNL     1      42.427 131.829  19.949  1.00  0.00     0.016 A 
ATOM     17  C   UNL     1      44.786 131.354  19.780  1.00  0.00     0.051 A 
ATOM     18  C   UNL     1      43.653 131.517  20.528  1.00  0.00    -0.000 A 
ATOM     19  N   UNL     1      45.836 131.056  20.561  1.00  0.00    -0.361 N 
ATOM     20  C   UNL     1      43.997 131.313  21.847  1.00  0.00     0.028 A 
ATOM     21  C   UNL     1      45.358 131.030  21.826  1.00  0.00     0.083 A 
ATOM     22  H   UNL     1      46.820 130.879  20.258  1.00  0.00     0.166 HD
ENDBRANCH  10  13
ENDBRANCH   4  10
TORSDOF 3
ENDMDL


