REMARK SMILES CS[C@@H](C)C(=O)Oc1cc(-c2cccc3[nH+]coc23)cc(C)c1F
REMARK SMILES IDX 5 1 6 2 3 3 4 4 2 5 1 6 7 7 8 8 9 9 23 10 10 11 21 12 20 13
REMARK SMILES IDX 24 14 22 15 11 16 12 17 19 18 13 19 18 20 15 21 14 22 17 23
REMARK SMILES IDX 16 24
REMARK H PARENT 16 25
ROOT
ATOM      1  C   UNL     1      -1.873  -1.580  -0.039  1.00  0.00     0.324 C 
ATOM      2  O   UNL     1      -0.769  -2.130  -0.309  1.00  0.00    -0.250 OA
ENDROOT
BRANCH   1   3
ATOM      3  C   UNL     1      -3.060  -2.424   0.321  1.00  0.00     0.153 C 
ATOM      4  C   UNL     1      -2.771  -3.244   1.577  1.00  0.00     0.032 C 
BRANCH   3   5
ATOM      5  S   UNL     1      -3.486  -3.546  -1.061  1.00  0.00    -0.150 SA
ATOM      6  C   UNL     1      -4.208  -2.258  -2.130  1.00  0.00     0.086 C 
ENDBRANCH   3   5
ENDBRANCH   1   3
BRANCH   1   7
ATOM      7  O   UNL     1      -2.030  -0.192  -0.141  1.00  0.00    -0.423 OA
BRANCH   7   8
ATOM      8  C   UNL     1      -0.981   0.737  -0.212  1.00  0.00     0.167 A 
ATOM      9  C   UNL     1       0.253   0.516   0.424  1.00  0.00     0.059 A 
ATOM     10  C   UNL     1      -1.194   1.935  -0.903  1.00  0.00     0.168 A 
ATOM     11  C   UNL     1       1.282   1.469   0.343  1.00  0.00    -0.010 A 
ATOM     12  C   UNL     1      -0.174   2.894  -0.998  1.00  0.00    -0.011 A 
ATOM     13  C   UNL     1       1.058   2.659  -0.369  1.00  0.00     0.015 A 
ATOM     14  F   UNL     1      -2.398   2.159  -1.491  1.00  0.00    -0.203 F 
ATOM     15  C   UNL     1      -0.416   4.181  -1.735  1.00  0.00     0.048 C 
BRANCH  11  16
ATOM     16  C   UNL     1       2.584   1.229   1.014  1.00  0.00     0.032 A 
ATOM     17  C   UNL     1       3.259   2.262   1.710  1.00  0.00     0.013 A 
ATOM     18  C   UNL     1       3.208  -0.025   0.989  1.00  0.00     0.212 A 
ATOM     19  C   UNL     1       4.498   2.017   2.346  1.00  0.00     0.008 A 
ATOM     20  O   UNL     1       2.818  -1.134   0.407  1.00  0.00    -0.403 OA
ATOM     21  C   UNL     1       4.403  -0.255   1.606  1.00  0.00     0.249 A 
ATOM     22  C   UNL     1       5.086   0.740   2.298  1.00  0.00     0.083 A 
ATOM     23  C   UNL     1       3.752  -2.036   0.662  1.00  0.00     0.521 A 
ATOM     24  N   UNL     1       4.763  -1.531   1.409  1.00  0.00    -0.176 N 
ATOM     25  H   UNL     1       5.621  -2.022   1.746  1.00  0.00     0.457 HD
ENDBRANCH  11  16
ENDBRANCH   7   8
ENDBRANCH   1   7
TORSDOF 5


