REMARK SMILES C=Cc1cccc(-c2ccc3c(c2)[C@@H](N)CC3)c1
REMARK SMILES IDX 8 1 9 2 10 3 11 4 12 5 13 6 14 7 16 8 17 9 7 10 3 11 4 12
REMARK SMILES IDX 18 13 5 14 6 15 2 16 1 17 15 18
REMARK H PARENT 15 19 15 20
ROOT
ATOM      1  C   UNL     1       0.158   0.790  -0.241  1.00  0.00    -0.018 A 
ATOM      2  C   UNL     1      -0.989   1.093  -1.013  1.00  0.00     0.009 A 
ATOM      3  C   UNL     1      -1.863   2.116  -0.619  1.00  0.00     0.005 A 
ATOM      4  C   UNL     1      -1.584   2.830   0.547  1.00  0.00    -0.043 A 
ATOM      5  C   UNL     1      -0.473   2.552   1.300  1.00  0.00    -0.027 A 
ATOM      6  C   UNL     1       0.412   1.534   0.932  1.00  0.00     0.014 A 
ATOM      7  C   UNL     1      -0.370   3.434   2.492  1.00  0.00     0.081 C 
ATOM      8  C   UNL     1      -1.688   4.245   2.457  1.00  0.00     0.028 C 
ATOM      9  C   UNL     1      -2.387   3.933   1.121  1.00  0.00     0.038 C 
ENDROOT
BRANCH   1  10
ATOM     10  C   UNL     1       1.082  -0.295  -0.658  1.00  0.00    -0.018 A 
ATOM     11  C   UNL     1       1.449  -2.539  -1.573  1.00  0.00    -0.026 A 
ATOM     12  C   UNL     1       2.833  -2.352  -1.432  1.00  0.00     0.008 A 
ATOM     13  C   UNL     1       0.577  -1.506  -1.170  1.00  0.00     0.016 A 
ATOM     14  C   UNL     1       3.340  -1.154  -0.925  1.00  0.00     0.001 A 
ATOM     15  C   UNL     1       2.472  -0.130  -0.543  1.00  0.00     0.009 A 
BRANCH  11  16
ATOM     16  C   UNL     1       0.961  -3.833  -2.107  1.00  0.00     0.000 C 
ATOM     17  C   UNL     1      -0.258  -4.021  -2.616  1.00  0.00     0.009 C 
ENDBRANCH  11  16
ENDBRANCH   1  10
BRANCH   7  18
ATOM     18  N   UNL     1       0.789   4.318   2.373  1.00  0.00    -0.324 NA
ATOM     19  H   UNL     1       1.655   3.731   2.410  1.00  0.00     0.119 HD
ATOM     20  H   UNL     1       0.821   4.925   3.224  1.00  0.00     0.119 HD
ENDBRANCH   7  18
TORSDOF 3


