MODEL 1
REMARK VINA RESULT:      -5.6      0.000      0.000
REMARK SMILES CCCC[C@H](CC)C[N-]C(=O)N1[NH2+][C@H](C)O[C@H]1c1cc2ccc(F)cc2[nH]1
REMARK SMILES IDX 8 1 5 2 4 3 3 4 2 5 1 6 6 7 7 8 9 9 10 10 11 11 12 12 13 13
REMARK SMILES IDX 17 14 14 15 16 16 15 19 18 20 19 21 27 22 20 23 26 24 21 25
REMARK SMILES IDX 25 26 22 27 23 28 24 30
REMARK H PARENT 13 17 13 18 27 29
ROOT
ATOM      1  C   UNL     1      44.599 131.374  19.697  1.00  0.00     0.007 C 
ENDROOT
BRANCH   1   2
ATOM      2  C   UNL     1      44.231 131.204  18.205  1.00  0.00    -0.012 C 
BRANCH   2   3
ATOM      3  C   UNL     1      45.287 131.903  17.308  1.00  0.00     0.003 C 
BRANCH   3   4
ATOM      4  C   UNL     1      45.061 131.652  15.799  1.00  0.00    -0.000 C 
BRANCH   4   5
ATOM      5  C   UNL     1      45.847 130.451  15.253  1.00  0.00    -0.003 C 
ATOM      6  C   UNL     1      45.050 129.149  15.299  1.00  0.00     0.004 C 
ENDBRANCH   4   5
ENDBRANCH   3   4
ENDBRANCH   2   3
BRANCH   2   7
ATOM      7  C   UNL     1      42.815 131.775  17.928  1.00  0.00    -0.000 C 
ATOM      8  C   UNL     1      42.022 132.032  19.212  1.00  0.00     0.004 C 
ENDBRANCH   2   7
ENDBRANCH   1   2
BRANCH   1   9
ATOM      9  N   UNL     1      45.545 130.348  20.126  1.00  0.00    -0.427 NA
BRANCH   9  10
ATOM     10  C   UNL     1      45.364 129.553  21.303  1.00  0.00     0.200 C 
ATOM     11  O   UNL     1      45.798 128.369  21.340  1.00  0.00    -0.294 OA
BRANCH  10  12
ATOM     12  N   UNL     1      44.689 130.100  22.445  1.00  0.00    -0.260 N 
ATOM     13  N   UNL     1      44.263 131.422  22.509  1.00  0.00    -0.277 N 
ATOM     14  C   UNL     1      44.513 129.416  23.702  1.00  0.00     0.228 C 
ATOM     15  C   UNL     1      43.707 131.534  23.867  1.00  0.00     0.328 C 
ATOM     16  O   UNL     1      43.991 130.357  24.607  1.00  0.00    -0.315 OA
ATOM     17  H   UNL     1      43.522 131.576  21.787  1.00  0.00     0.361 HD
ATOM     18  H   UNL     1      45.088 132.049  22.351  1.00  0.00     0.361 HD
ATOM     19  C   UNL     1      44.265 132.749  24.609  1.00  0.00     0.111 C 
BRANCH  14  20
ATOM     20  C   UNL     1      43.552 128.273  23.553  1.00  0.00     0.050 A 
ATOM     21  C   UNL     1      42.210 128.302  23.925  1.00  0.00     0.034 A 
ATOM     22  N   UNL     1      43.890 127.070  23.032  1.00  0.00    -0.356 N 
ATOM     23  C   UNL     1      41.730 127.052  23.609  1.00  0.00    -0.000 A 
ATOM     24  C   UNL     1      42.767 126.334  23.071  1.00  0.00     0.049 A 
ATOM     25  C   UNL     1      40.458 126.504  23.762  1.00  0.00     0.013 A 
ATOM     26  C   UNL     1      42.605 125.015  22.650  1.00  0.00     0.065 A 
ATOM     27  C   UNL     1      40.262 125.174  23.344  1.00  0.00     0.040 A 
ATOM     28  C   UNL     1      41.332 124.431  22.794  1.00  0.00     0.125 A 
ATOM     29  H   UNL     1      44.828 126.772  22.680  1.00  0.00     0.166 HD
ATOM     30  F   UNL     1      41.131 123.150  22.402  1.00  0.00    -0.207 F 
ENDBRANCH  14  20
ENDBRANCH  10  12
ENDBRANCH   9  10
ENDBRANCH   1   9
TORSDOF 9
ENDMDL
MODEL 2
REMARK VINA RESULT:      -5.5      3.122      7.872
REMARK SMILES CCCC[C@H](CC)C[N-]C(=O)N1[NH2+][C@H](C)O[C@H]1c1cc2ccc(F)cc2[nH]1
REMARK SMILES IDX 8 1 5 2 4 3 3 4 2 5 1 6 6 7 7 8 9 9 10 10 11 11 12 12 13 13
REMARK SMILES IDX 17 14 14 15 16 16 15 19 18 20 19 21 27 22 20 23 26 24 21 25
REMARK SMILES IDX 25 26 22 27 23 28 24 30
REMARK H PARENT 13 17 13 18 27 29
ROOT
ATOM      1  C   UNL     1      43.984 129.467  22.944  1.00  0.00     0.007 C 
ENDROOT
BRANCH   1   2
ATOM      2  C   UNL     1      44.167 127.949  22.718  1.00  0.00    -0.012 C 
BRANCH   2   3
ATOM      3  C   UNL     1      43.052 127.158  23.452  1.00  0.00     0.003 C 
BRANCH   3   4
ATOM      4  C   UNL     1      42.357 127.981  24.563  1.00  0.00    -0.000 C 
BRANCH   4   5
ATOM      5  C   UNL     1      40.890 128.313  24.253  1.00  0.00    -0.003 C 
ATOM      6  C   UNL     1      40.084 127.091  23.816  1.00  0.00     0.004 C 
ENDBRANCH   4   5
ENDBRANCH   3   4
ENDBRANCH   2   3
BRANCH   2   7
ATOM      7  C   UNL     1      45.569 127.494  23.202  1.00  0.00    -0.000 C 
ATOM      8  C   UNL     1      45.972 126.129  22.638  1.00  0.00     0.004 C 
ENDBRANCH   2   7
ENDBRANCH   1   2
BRANCH   1   9
ATOM      9  N   UNL     1      45.028 130.231  22.267  1.00  0.00    -0.427 NA
BRANCH   9  10
ATOM     10  C   UNL     1      45.085 130.400  20.846  1.00  0.00     0.200 C 
ATOM     11  O   UNL     1      45.955 129.786  20.169  1.00  0.00    -0.294 OA
BRANCH  10  12
ATOM     12  N   UNL     1      44.151 131.268  20.186  1.00  0.00    -0.260 N 
ATOM     13  N   UNL     1      43.701 132.458  20.746  1.00  0.00    -0.277 N 
ATOM     14  C   UNL     1      43.454 130.949  18.966  1.00  0.00     0.228 C 
ATOM     15  C   UNL     1      42.726 132.950  19.759  1.00  0.00     0.328 C 
ATOM     16  O   UNL     1      42.497 131.961  18.768  1.00  0.00    -0.315 OA
ATOM     17  H   UNL     1      44.508 133.118  20.836  1.00  0.00     0.361 HD
ATOM     18  H   UNL     1      43.271 132.250  21.679  1.00  0.00     0.361 HD
ATOM     19  C   UNL     1      41.398 133.328  20.417  1.00  0.00     0.111 C 
BRANCH  14  20
ATOM     20  C   UNL     1      44.405 130.921  17.805  1.00  0.00     0.050 A 
ATOM     21  C   UNL     1      44.633 131.981  16.931  1.00  0.00     0.034 A 
ATOM     22  N   UNL     1      45.156 129.844  17.474  1.00  0.00    -0.356 N 
ATOM     23  C   UNL     1      45.567 131.507  16.038  1.00  0.00    -0.000 A 
ATOM     24  C   UNL     1      45.862 130.216  16.395  1.00  0.00     0.049 A 
ATOM     25  C   UNL     1      46.167 132.124  14.942  1.00  0.00     0.013 A 
ATOM     26  C   UNL     1      46.779 129.449  15.678  1.00  0.00     0.065 A 
ATOM     27  C   UNL     1      47.099 131.375  14.199  1.00  0.00     0.040 A 
ATOM     28  C   UNL     1      47.401 130.042  14.563  1.00  0.00     0.125 A 
ATOM     29  H   UNL     1      45.178 128.915  17.953  1.00  0.00     0.166 HD
ATOM     30  F   UNL     1      48.296 129.331  13.834  1.00  0.00    -0.207 F 
ENDBRANCH  14  20
ENDBRANCH  10  12
ENDBRANCH   9  10
ENDBRANCH   1   9
TORSDOF 9
ENDMDL
MODEL 3
REMARK VINA RESULT:      -5.3      3.332      7.865
REMARK SMILES CCCC[C@H](CC)C[N-]C(=O)N1[NH2+][C@H](C)O[C@H]1c1cc2ccc(F)cc2[nH]1
REMARK SMILES IDX 8 1 5 2 4 3 3 4 2 5 1 6 6 7 7 8 9 9 10 10 11 11 12 12 13 13
REMARK SMILES IDX 17 14 14 15 16 16 15 19 18 20 19 21 27 22 20 23 26 24 21 25
REMARK SMILES IDX 25 26 22 27 23 28 24 30
REMARK H PARENT 13 17 13 18 27 29
ROOT
ATOM      1  C   UNL     1      44.277 129.607  22.655  1.00  0.00     0.007 C 
ENDROOT
BRANCH   1   2
ATOM      2  C   UNL     1      43.903 128.398  23.543  1.00  0.00    -0.012 C 
BRANCH   2   3
ATOM      3  C   UNL     1      43.483 127.193  22.660  1.00  0.00     0.003 C 
BRANCH   3   4
ATOM      4  C   UNL     1      44.384 125.952  22.861  1.00  0.00    -0.000 C 
BRANCH   4   5
ATOM      5  C   UNL     1      45.759 126.284  23.459  1.00  0.00    -0.003 C 
ATOM      6  C   UNL     1      46.138 125.368  24.621  1.00  0.00     0.004 C 
ENDBRANCH   4   5
ENDBRANCH   3   4
ENDBRANCH   2   3
BRANCH   2   7
ATOM      7  C   UNL     1      42.763 128.779  24.525  1.00  0.00    -0.000 C 
ATOM      8  C   UNL     1      41.389 128.800  23.851  1.00  0.00     0.004 C 
ENDBRANCH   2   7
ENDBRANCH   1   2
BRANCH   1   9
ATOM      9  N   UNL     1      45.113 129.195  21.530  1.00  0.00    -0.427 NA
BRANCH   9  10
ATOM     10  C   UNL     1      45.497 130.079  20.470  1.00  0.00     0.200 C 
ATOM     11  O   UNL     1      46.679 130.062  20.029  1.00  0.00    -0.294 OA
BRANCH  10  12
ATOM     12  N   UNL     1      44.539 130.986  19.906  1.00  0.00    -0.260 N 
ATOM     13  N   UNL     1      44.117 132.140  20.557  1.00  0.00    -0.277 N 
ATOM     14  C   UNL     1      43.789 130.744  18.699  1.00  0.00     0.228 C 
ATOM     15  C   UNL     1      43.103 132.692  19.645  1.00  0.00     0.328 C 
ATOM     16  O   UNL     1      42.828 131.767  18.605  1.00  0.00    -0.315 OA
ATOM     17  H   UNL     1      44.930 132.792  20.653  1.00  0.00     0.361 HD
ATOM     18  H   UNL     1      43.726 131.875  21.493  1.00  0.00     0.361 HD
ATOM     19  C   UNL     1      41.805 133.031  20.381  1.00  0.00     0.111 C 
BRANCH  14  20
ATOM     20  C   UNL     1      44.690 130.787  17.499  1.00  0.00     0.050 A 
ATOM     21  C   UNL     1      44.946 131.921  16.731  1.00  0.00     0.034 A 
ATOM     22  N   UNL     1      45.362 129.711  17.024  1.00  0.00    -0.356 N 
ATOM     23  C   UNL     1      45.814 131.493  15.752  1.00  0.00    -0.000 A 
ATOM     24  C   UNL     1      46.045 130.157  15.958  1.00  0.00     0.049 A 
ATOM     25  C   UNL     1      46.406 132.189  14.699  1.00  0.00     0.013 A 
ATOM     26  C   UNL     1      46.885 129.421  15.123  1.00  0.00     0.065 A 
ATOM     27  C   UNL     1      47.261 131.473  13.840  1.00  0.00     0.040 A 
ATOM     28  C   UNL     1      47.497 130.094  14.049  1.00  0.00     0.125 A 
ATOM     29  H   UNL     1      45.346 128.737  17.402  1.00  0.00     0.166 HD
ATOM     30  F   UNL     1      48.317 129.417  13.209  1.00  0.00    -0.207 F 
ENDBRANCH  14  20
ENDBRANCH  10  12
ENDBRANCH   9  10
ENDBRANCH   1   9
TORSDOF 9
ENDMDL
MODEL 4
REMARK VINA RESULT:      -5.2      1.728      2.528
REMARK SMILES CCCC[C@H](CC)C[N-]C(=O)N1[NH2+][C@H](C)O[C@H]1c1cc2ccc(F)cc2[nH]1
REMARK SMILES IDX 8 1 5 2 4 3 3 4 2 5 1 6 6 7 7 8 9 9 10 10 11 11 12 12 13 13
REMARK SMILES IDX 17 14 14 15 16 16 15 19 18 20 19 21 27 22 20 23 26 24 21 25
REMARK SMILES IDX 25 26 22 27 23 28 24 30
REMARK H PARENT 13 17 13 18 27 29
ROOT
ATOM      1  C   UNL     1      44.788 131.684  18.060  1.00  0.00     0.007 C 
ENDROOT
BRANCH   1   2
ATOM      2  C   UNL     1      44.972 130.525  17.053  1.00  0.00    -0.012 C 
BRANCH   2   3
ATOM      3  C   UNL     1      46.380 130.596  16.406  1.00  0.00     0.003 C 
BRANCH   3   4
ATOM      4  C   UNL     1      46.333 130.743  14.867  1.00  0.00    -0.000 C 
BRANCH   4   5
ATOM      5  C   UNL     1      47.539 130.113  14.153  1.00  0.00    -0.003 C 
ATOM      6  C   UNL     1      47.682 130.579  12.706  1.00  0.00     0.004 C 
ENDBRANCH   4   5
ENDBRANCH   3   4
ENDBRANCH   2   3
BRANCH   2   7
ATOM      7  C   UNL     1      43.868 130.571  15.965  1.00  0.00    -0.000 C 
ATOM      8  C   UNL     1      43.802 131.923  15.249  1.00  0.00     0.004 C 
ENDBRANCH   2   7
ENDBRANCH   1   2
BRANCH   1   9
ATOM      9  N   UNL     1      44.045 131.246  19.238  1.00  0.00    -0.427 NA
BRANCH   9  10
ATOM     10  C   UNL     1      44.673 130.726  20.416  1.00  0.00     0.200 C 
ATOM     11  O   UNL     1      45.833 130.235  20.350  1.00  0.00    -0.294 OA
BRANCH  10  12
ATOM     12  N   UNL     1      43.984 130.761  21.674  1.00  0.00    -0.260 N 
ATOM     13  N   UNL     1      42.836 131.515  21.886  1.00  0.00    -0.277 N 
ATOM     14  C   UNL     1      44.470 130.165  22.893  1.00  0.00     0.228 C 
ATOM     15  C   UNL     1      42.545 131.296  23.312  1.00  0.00     0.328 C 
ATOM     16  O   UNL     1      43.614 130.593  23.924  1.00  0.00    -0.315 OA
ATOM     17  H   UNL     1      42.066 131.139  21.285  1.00  0.00     0.361 HD
ATOM     18  H   UNL     1      43.044 132.517  21.659  1.00  0.00     0.361 HD
ATOM     19  C   UNL     1      42.314 132.616  24.051  1.00  0.00     0.111 C 
BRANCH  14  20
ATOM     20  C   UNL     1      44.437 128.667  22.801  1.00  0.00     0.050 A 
ATOM     21  C   UNL     1      45.453 127.877  22.268  1.00  0.00     0.034 A 
ATOM     22  N   UNL     1      43.401 127.909  23.230  1.00  0.00    -0.356 N 
ATOM     23  C   UNL     1      44.993 126.585  22.390  1.00  0.00    -0.000 A 
ATOM     24  C   UNL     1      43.754 126.640  22.974  1.00  0.00     0.049 A 
ATOM     25  C   UNL     1      45.580 125.376  22.021  1.00  0.00     0.013 A 
ATOM     26  C   UNL     1      43.013 125.487  23.231  1.00  0.00     0.065 A 
ATOM     27  C   UNL     1      44.857 124.194  22.270  1.00  0.00     0.040 A 
ATOM     28  C   UNL     1      43.577 124.249  22.869  1.00  0.00     0.125 A 
ATOM     29  H   UNL     1      42.509 128.242  23.663  1.00  0.00     0.166 HD
ATOM     30  F   UNL     1      42.890 123.104  23.096  1.00  0.00    -0.207 F 
ENDBRANCH  14  20
ENDBRANCH  10  12
ENDBRANCH   9  10
ENDBRANCH   1   9
TORSDOF 9
ENDMDL
MODEL 5
REMARK VINA RESULT:      -5.2      3.483      7.767
REMARK SMILES CCCC[C@H](CC)C[N-]C(=O)N1[NH2+][C@H](C)O[C@H]1c1cc2ccc(F)cc2[nH]1
REMARK SMILES IDX 8 1 5 2 4 3 3 4 2 5 1 6 6 7 7 8 9 9 10 10 11 11 12 12 13 13
REMARK SMILES IDX 17 14 14 15 16 16 15 19 18 20 19 21 27 22 20 23 26 24 21 25
REMARK SMILES IDX 25 26 22 27 23 28 24 30
REMARK H PARENT 13 17 13 18 27 29
ROOT
ATOM      1  C   UNL     1      44.793 128.859  22.704  1.00  0.00     0.007 C 
ENDROOT
BRANCH   1   2
ATOM      2  C   UNL     1      44.809 127.364  23.093  1.00  0.00    -0.012 C 
BRANCH   2   3
ATOM      3  C   UNL     1      45.845 126.595  22.231  1.00  0.00     0.003 C 
BRANCH   3   4
ATOM      4  C   UNL     1      46.963 125.936  23.072  1.00  0.00    -0.000 C 
BRANCH   4   5
ATOM      5  C   UNL     1      47.865 124.994  22.260  1.00  0.00    -0.003 C 
ATOM      6  C   UNL     1      47.076 123.969  21.449  1.00  0.00     0.004 C 
ENDBRANCH   4   5
ENDBRANCH   3   4
ENDBRANCH   2   3
BRANCH   2   7
ATOM      7  C   UNL     1      43.395 126.746  22.929  1.00  0.00    -0.000 C 
ATOM      8  C   UNL     1      42.572 126.807  24.219  1.00  0.00     0.004 C 
ENDBRANCH   2   7
ENDBRANCH   1   2
BRANCH   1   9
ATOM      9  N   UNL     1      44.732 129.026  21.254  1.00  0.00    -0.427 NA
BRANCH   9  10
ATOM     10  C   UNL     1      45.195 130.200  20.577  1.00  0.00     0.200 C 
ATOM     11  O   UNL     1      46.430 130.451  20.518  1.00  0.00    -0.294 OA
BRANCH  10  12
ATOM     12  N   UNL     1      44.256 131.093  19.961  1.00  0.00    -0.260 N 
ATOM     13  N   UNL     1      43.837 132.276  20.557  1.00  0.00    -0.277 N 
ATOM     14  C   UNL     1      43.522 130.810  18.753  1.00  0.00     0.228 C 
ATOM     15  C   UNL     1      42.843 132.802  19.608  1.00  0.00     0.328 C 
ATOM     16  O   UNL     1      42.574 131.838  18.602  1.00  0.00    -0.315 OA
ATOM     17  H   UNL     1      44.655 132.924  20.640  1.00  0.00     0.361 HD
ATOM     18  H   UNL     1      43.429 132.054  21.497  1.00  0.00     0.361 HD
ATOM     19  C   UNL     1      41.538 133.184  20.309  1.00  0.00     0.111 C 
BRANCH  14  20
ATOM     20  C   UNL     1      44.442 130.794  17.567  1.00  0.00     0.050 A 
ATOM     21  C   UNL     1      44.400 131.701  16.510  1.00  0.00     0.034 A 
ATOM     22  N   UNL     1      45.427 129.883  17.391  1.00  0.00    -0.356 N 
ATOM     23  C   UNL     1      45.413 131.305  15.666  1.00  0.00    -0.000 A 
ATOM     24  C   UNL     1      46.013 130.207  16.227  1.00  0.00     0.049 A 
ATOM     25  C   UNL     1      45.837 131.835  14.449  1.00  0.00     0.013 A 
ATOM     26  C   UNL     1      47.081 129.559  15.608  1.00  0.00     0.065 A 
ATOM     27  C   UNL     1      46.915 131.204  13.801  1.00  0.00     0.040 A 
ATOM     28  C   UNL     1      47.532 130.068  14.375  1.00  0.00     0.125 A 
ATOM     29  H   UNL     1      45.676 129.088  18.023  1.00  0.00     0.166 HD
ATOM     30  F   UNL     1      48.565 129.467  13.736  1.00  0.00    -0.207 F 
ENDBRANCH  14  20
ENDBRANCH  10  12
ENDBRANCH   9  10
ENDBRANCH   1   9
TORSDOF 9
ENDMDL
MODEL 6
REMARK VINA RESULT:      -5.0      3.297      7.875
REMARK SMILES CCCC[C@H](CC)C[N-]C(=O)N1[NH2+][C@H](C)O[C@H]1c1cc2ccc(F)cc2[nH]1
REMARK SMILES IDX 8 1 5 2 4 3 3 4 2 5 1 6 6 7 7 8 9 9 10 10 11 11 12 12 13 13
REMARK SMILES IDX 17 14 14 15 16 16 15 19 18 20 19 21 27 22 20 23 26 24 21 25
REMARK SMILES IDX 25 26 22 27 23 28 24 30
REMARK H PARENT 13 17 13 18 27 29
ROOT
ATOM      1  C   UNL     1      44.887 128.299  21.175  1.00  0.00     0.007 C 
ENDROOT
BRANCH   1   2
ATOM      2  C   UNL     1      44.794 127.349  22.391  1.00  0.00    -0.012 C 
BRANCH   2   3
ATOM      3  C   UNL     1      44.775 128.166  23.710  1.00  0.00     0.003 C 
BRANCH   3   4
ATOM      4  C   UNL     1      43.347 128.403  24.256  1.00  0.00    -0.000 C 
BRANCH   4   5
ATOM      5  C   UNL     1      42.359 127.285  23.892  1.00  0.00    -0.003 C 
ATOM      6  C   UNL     1      42.794 125.916  24.411  1.00  0.00     0.004 C 
ENDBRANCH   4   5
ENDBRANCH   3   4
ENDBRANCH   2   3
BRANCH   2   7
ATOM      7  C   UNL     1      45.977 126.345  22.387  1.00  0.00    -0.000 C 
ATOM      8  C   UNL     1      46.758 126.351  23.704  1.00  0.00     0.004 C 
ENDBRANCH   2   7
ENDBRANCH   1   2
BRANCH   1   9
ATOM      9  N   UNL     1      45.099 129.680  21.601  1.00  0.00    -0.427 NA
BRANCH   9  10
ATOM     10  C   UNL     1      45.390 130.748  20.692  1.00  0.00     0.200 C 
ATOM     11  O   UNL     1      46.587 131.065  20.450  1.00  0.00    -0.294 OA
BRANCH  10  12
ATOM     12  N   UNL     1      44.321 131.462  20.052  1.00  0.00    -0.260 N 
ATOM     13  N   UNL     1      43.814 132.659  20.543  1.00  0.00    -0.277 N 
ATOM     14  C   UNL     1      43.549 130.963  18.943  1.00  0.00     0.228 C 
ATOM     15  C   UNL     1      42.710 132.963  19.619  1.00  0.00     0.328 C 
ATOM     16  O   UNL     1      42.486 131.863  18.751  1.00  0.00    -0.315 OA
ATOM     17  H   UNL     1      44.559 133.391  20.490  1.00  0.00     0.361 HD
ATOM     18  H   UNL     1      43.493 132.510  21.530  1.00  0.00     0.361 HD
ATOM     19  C   UNL     1      41.418 133.291  20.369  1.00  0.00     0.111 C 
BRANCH  14  20
ATOM     20  C   UNL     1      44.387 130.899  17.700  1.00  0.00     0.050 A 
ATOM     21  C   UNL     1      44.170 131.654  16.549  1.00  0.00     0.034 A 
ATOM     22  N   UNL     1      45.462 130.089  17.558  1.00  0.00    -0.356 N 
ATOM     23  C   UNL     1      45.168 131.269  15.683  1.00  0.00    -0.000 A 
ATOM     24  C   UNL     1      45.930 130.326  16.322  1.00  0.00     0.049 A 
ATOM     25  C   UNL     1      45.448 131.684  14.382  1.00  0.00     0.013 A 
ATOM     26  C   UNL     1      47.028 129.728  15.705  1.00  0.00     0.065 A 
ATOM     27  C   UNL     1      46.552 131.100  13.732  1.00  0.00     0.040 A 
ATOM     28  C   UNL     1      47.336 130.123  14.389  1.00  0.00     0.125 A 
ATOM     29  H   UNL     1      45.844 129.414  18.260  1.00  0.00     0.166 HD
ATOM     30  F   UNL     1      48.392 129.564  13.748  1.00  0.00    -0.207 F 
ENDBRANCH  14  20
ENDBRANCH  10  12
ENDBRANCH   9  10
ENDBRANCH   1   9
TORSDOF 9
ENDMDL
MODEL 7
REMARK VINA RESULT:      -4.8      3.534      7.881
REMARK SMILES CCCC[C@H](CC)C[N-]C(=O)N1[NH2+][C@H](C)O[C@H]1c1cc2ccc(F)cc2[nH]1
REMARK SMILES IDX 8 1 5 2 4 3 3 4 2 5 1 6 6 7 7 8 9 9 10 10 11 11 12 12 13 13
REMARK SMILES IDX 17 14 14 15 16 16 15 19 18 20 19 21 27 22 20 23 26 24 21 25
REMARK SMILES IDX 25 26 22 27 23 28 24 30
REMARK H PARENT 13 17 13 18 27 29
ROOT
ATOM      1  C   UNL     1      44.552 128.854  21.635  1.00  0.00     0.007 C 
ENDROOT
BRANCH   1   2
ATOM      2  C   UNL     1      45.021 128.448  23.051  1.00  0.00    -0.012 C 
BRANCH   2   3
ATOM      3  C   UNL     1      45.305 126.923  23.107  1.00  0.00     0.003 C 
BRANCH   3   4
ATOM      4  C   UNL     1      44.042 126.083  23.410  1.00  0.00    -0.000 C 
BRANCH   4   5
ATOM      5  C   UNL     1      44.345 124.607  23.708  1.00  0.00    -0.003 C 
ATOM      6  C   UNL     1      44.472 123.760  22.444  1.00  0.00     0.004 C 
ENDBRANCH   4   5
ENDBRANCH   3   4
ENDBRANCH   2   3
BRANCH   2   7
ATOM      7  C   UNL     1      43.958 128.845  24.110  1.00  0.00    -0.000 C 
ATOM      8  C   UNL     1      43.165 130.091  23.707  1.00  0.00     0.004 C 
ENDBRANCH   2   7
ENDBRANCH   1   2
BRANCH   1   9
ATOM      9  N   UNL     1      45.599 129.579  20.921  1.00  0.00    -0.427 NA
BRANCH   9  10
ATOM     10  C   UNL     1      45.570 130.994  20.706  1.00  0.00     0.200 C 
ATOM     11  O   UNL     1      46.507 131.720  21.140  1.00  0.00    -0.294 OA
BRANCH  10  12
ATOM     12  N   UNL     1      44.476 131.593  19.996  1.00  0.00    -0.260 N 
ATOM     13  N   UNL     1      43.903 132.802  20.371  1.00  0.00    -0.277 N 
ATOM     14  C   UNL     1      43.743 130.958  18.929  1.00  0.00     0.228 C 
ATOM     15  C   UNL     1      42.798 132.966  19.414  1.00  0.00     0.328 C 
ATOM     16  O   UNL     1      42.640 131.783  18.647  1.00  0.00    -0.315 OA
ATOM     17  H   UNL     1      44.612 133.564  20.259  1.00  0.00     0.361 HD
ATOM     18  H   UNL     1      43.577 132.727  21.365  1.00  0.00     0.361 HD
ATOM     19  C   UNL     1      41.481 133.294  20.121  1.00  0.00     0.111 C 
BRANCH  14  20
ATOM     20  C   UNL     1      44.600 130.825  17.704  1.00  0.00     0.050 A 
ATOM     21  C   UNL     1      45.734 130.022  17.604  1.00  0.00     0.034 A 
ATOM     22  N   UNL     1      44.361 131.481  16.544  1.00  0.00    -0.356 N 
ATOM     23  C   UNL     1      46.189 130.214  16.319  1.00  0.00    -0.000 A 
ATOM     24  C   UNL     1      45.338 131.098  15.707  1.00  0.00     0.049 A 
ATOM     25  C   UNL     1      47.290 129.674  15.658  1.00  0.00     0.013 A 
ATOM     26  C   UNL     1      45.530 131.506  14.388  1.00  0.00     0.065 A 
ATOM     27  C   UNL     1      47.509 130.066  14.324  1.00  0.00     0.040 A 
ATOM     28  C   UNL     1      46.635 130.981  13.692  1.00  0.00     0.125 A 
ATOM     29  H   UNL     1      43.584 132.152  16.344  1.00  0.00     0.166 HD
ATOM     30  F   UNL     1      46.863 131.354  12.410  1.00  0.00    -0.207 F 
ENDBRANCH  14  20
ENDBRANCH  10  12
ENDBRANCH   9  10
ENDBRANCH   1   9
TORSDOF 9
ENDMDL
MODEL 8
REMARK VINA RESULT:      -4.7      5.051      8.032
REMARK SMILES CCCC[C@H](CC)C[N-]C(=O)N1[NH2+][C@H](C)O[C@H]1c1cc2ccc(F)cc2[nH]1
REMARK SMILES IDX 8 1 5 2 4 3 3 4 2 5 1 6 6 7 7 8 9 9 10 10 11 11 12 12 13 13
REMARK SMILES IDX 17 14 14 15 16 16 15 19 18 20 19 21 27 22 20 23 26 24 21 25
REMARK SMILES IDX 25 26 22 27 23 28 24 30
REMARK H PARENT 13 17 13 18 27 29
ROOT
ATOM      1  C   UNL     1      46.959 133.696  20.976  1.00  0.00     0.007 C 
ENDROOT
BRANCH   1   2
ATOM      2  C   UNL     1      47.660 134.524  22.077  1.00  0.00    -0.012 C 
BRANCH   2   3
ATOM      3  C   UNL     1      49.087 134.928  21.618  1.00  0.00     0.003 C 
BRANCH   3   4
ATOM      4  C   UNL     1      49.175 136.394  21.134  1.00  0.00    -0.000 C 
BRANCH   4   5
ATOM      5  C   UNL     1      50.183 137.242  21.924  1.00  0.00    -0.003 C 
ATOM      6  C   UNL     1      51.625 136.774  21.740  1.00  0.00     0.004 C 
ENDBRANCH   4   5
ENDBRANCH   3   4
ENDBRANCH   2   3
BRANCH   2   7
ATOM      7  C   UNL     1      47.720 133.722  23.404  1.00  0.00    -0.000 C 
ATOM      8  C   UNL     1      47.374 134.578  24.625  1.00  0.00     0.004 C 
ENDBRANCH   2   7
ENDBRANCH   1   2
BRANCH   1   9
ATOM      9  N   UNL     1      46.687 132.336  21.432  1.00  0.00    -0.427 NA
BRANCH   9  10
ATOM     10  C   UNL     1      45.952 131.379  20.661  1.00  0.00     0.200 C 
ATOM     11  O   UNL     1      46.352 130.185  20.585  1.00  0.00    -0.294 OA
BRANCH  10  12
ATOM     12  N   UNL     1      44.757 131.774  19.971  1.00  0.00    -0.260 N 
ATOM     13  N   UNL     1      44.020 132.900  20.321  1.00  0.00    -0.277 N 
ATOM     14  C   UNL     1      44.095 130.991  18.959  1.00  0.00     0.228 C 
ATOM     15  C   UNL     1      42.872 132.854  19.402  1.00  0.00     0.328 C 
ATOM     16  O   UNL     1      42.871 131.627  18.688  1.00  0.00    -0.315 OA
ATOM     17  H   UNL     1      44.602 133.753  20.152  1.00  0.00     0.361 HD
ATOM     18  H   UNL     1      43.742 132.820  21.329  1.00  0.00     0.361 HD
ATOM     19  C   UNL     1      41.545 133.012  20.145  1.00  0.00     0.111 C 
BRANCH  14  20
ATOM     20  C   UNL     1      44.921 130.934  17.708  1.00  0.00     0.050 A 
ATOM     21  C   UNL     1      45.064 131.976  16.795  1.00  0.00     0.034 A 
ATOM     22  N   UNL     1      45.630 129.845  17.323  1.00  0.00    -0.356 N 
ATOM     23  C   UNL     1      45.899 131.479  15.820  1.00  0.00    -0.000 A 
ATOM     24  C   UNL     1      46.223 130.193  16.170  1.00  0.00     0.049 A 
ATOM     25  C   UNL     1      46.387 132.070  14.657  1.00  0.00     0.013 A 
ATOM     26  C   UNL     1      47.058 129.406  15.378  1.00  0.00     0.065 A 
ATOM     27  C   UNL     1      47.234 131.301  13.837  1.00  0.00     0.040 A 
ATOM     28  C   UNL     1      47.566 129.974  14.194  1.00  0.00     0.125 A 
ATOM     29  H   UNL     1      45.696 128.925  17.815  1.00  0.00     0.166 HD
ATOM     30  F   UNL     1      48.377 129.243  13.391  1.00  0.00    -0.207 F 
ENDBRANCH  14  20
ENDBRANCH  10  12
ENDBRANCH   9  10
ENDBRANCH   1   9
TORSDOF 9
ENDMDL
MODEL 9
REMARK VINA RESULT:      -4.7      4.795      7.654
REMARK SMILES CCCC[C@H](CC)C[N-]C(=O)N1[NH2+][C@H](C)O[C@H]1c1cc2ccc(F)cc2[nH]1
REMARK SMILES IDX 8 1 5 2 4 3 3 4 2 5 1 6 6 7 7 8 9 9 10 10 11 11 12 12 13 13
REMARK SMILES IDX 17 14 14 15 16 16 15 19 18 20 19 21 27 22 20 23 26 24 21 25
REMARK SMILES IDX 25 26 22 27 23 28 24 30
REMARK H PARENT 13 17 13 18 27 29
ROOT
ATOM      1  C   UNL     1      48.607 133.996  21.333  1.00  0.00     0.007 C 
ENDROOT
BRANCH   1   2
ATOM      2  C   UNL     1      48.867 135.285  22.147  1.00  0.00    -0.012 C 
BRANCH   2   3
ATOM      3  C   UNL     1      48.583 136.536  21.274  1.00  0.00     0.003 C 
BRANCH   3   4
ATOM      4  C   UNL     1      49.599 136.714  20.122  1.00  0.00    -0.000 C 
BRANCH   4   5
ATOM      5  C   UNL     1      49.598 138.126  19.516  1.00  0.00    -0.003 C 
ATOM      6  C   UNL     1      48.201 138.601  19.122  1.00  0.00     0.004 C 
ENDBRANCH   4   5
ENDBRANCH   3   4
ENDBRANCH   2   3
BRANCH   2   7
ATOM      7  C   UNL     1      50.325 135.307  22.677  1.00  0.00    -0.000 C 
ATOM      8  C   UNL     1      50.794 136.717  23.046  1.00  0.00     0.004 C 
ENDBRANCH   2   7
ENDBRANCH   1   2
BRANCH   1   9
ATOM      9  N   UNL     1      47.476 133.249  21.877  1.00  0.00    -0.427 NA
BRANCH   9  10
ATOM     10  C   UNL     1      46.272 132.998  21.142  1.00  0.00     0.200 C 
ATOM     11  O   UNL     1      45.770 133.903  20.421  1.00  0.00    -0.294 OA
BRANCH  10  12
ATOM     12  N   UNL     1      45.634 131.715  21.223  1.00  0.00    -0.260 N 
ATOM     13  N   UNL     1      44.664 131.413  22.172  1.00  0.00    -0.277 N 
ATOM     14  C   UNL     1      46.019 130.556  20.458  1.00  0.00     0.228 C 
ATOM     15  C   UNL     1      44.368 129.994  21.915  1.00  0.00     0.328 C 
ATOM     16  O   UNL     1      45.290 129.469  20.973  1.00  0.00    -0.315 OA
ATOM     17  H   UNL     1      43.821 132.009  21.999  1.00  0.00     0.361 HD
ATOM     18  H   UNL     1      45.063 131.582  23.126  1.00  0.00     0.361 HD
ATOM     19  C   UNL     1      44.422 129.164  23.198  1.00  0.00     0.111 C 
BRANCH  14  20
ATOM     20  C   UNL     1      45.686 130.744  19.007  1.00  0.00     0.050 A 
ATOM     21  C   UNL     1      44.520 131.333  18.524  1.00  0.00     0.034 A 
ATOM     22  N   UNL     1      46.496 130.356  17.993  1.00  0.00    -0.356 N 
ATOM     23  C   UNL     1      44.646 131.290  17.153  1.00  0.00    -0.000 A 
ATOM     24  C   UNL     1      45.849 130.697  16.867  1.00  0.00     0.049 A 
ATOM     25  C   UNL     1      43.784 131.729  16.150  1.00  0.00     0.013 A 
ATOM     26  C   UNL     1      46.275 130.499  15.554  1.00  0.00     0.065 A 
ATOM     27  C   UNL     1      44.187 131.545  14.814  1.00  0.00     0.040 A 
ATOM     28  C   UNL     1      45.425 130.929  14.517  1.00  0.00     0.125 A 
ATOM     29  H   UNL     1      47.425 129.884  18.069  1.00  0.00     0.166 HD
ATOM     30  F   UNL     1      45.797 130.752  13.226  1.00  0.00    -0.207 F 
ENDBRANCH  14  20
ENDBRANCH  10  12
ENDBRANCH   9  10
ENDBRANCH   1   9
TORSDOF 9
ENDMDL


