REMARK SMILES C=Cc1ccc(-c2cc3cc[nH]c3cc2Nc2cc(F)c([O-])cc2N)[nH+]c1
REMARK SMILES IDX 7 1 8 2 9 3 10 4 11 5 12 6 13 7 14 8 15 9 6 11 3 12 4 13
REMARK SMILES IDX 27 14 5 15 26 16 2 18 1 19 16 20 17 22 18 23 24 24 19 25
REMARK SMILES IDX 23 26 21 27 20 28 22 29 25 30
REMARK H PARENT 12 10 26 17 16 21 25 31 25 32
ROOT
ATOM      1  C   UNL     1      -0.098  -0.165  -1.391  1.00  0.00     0.070 A 
ATOM      2  C   UNL     1      -0.900   0.478  -2.359  1.00  0.00     0.027 A 
ATOM      3  C   UNL     1      -2.187   0.859  -1.999  1.00  0.00     0.000 A 
ATOM      4  C   UNL     1      -3.174   1.485  -2.729  1.00  0.00     0.028 A 
ATOM      5  C   UNL     1      -4.249   1.606  -1.855  1.00  0.00     0.083 A 
ATOM      6  N   UNL     1      -3.946   1.083  -0.646  1.00  0.00    -0.361 N 
ATOM      7  C   UNL     1      -2.685   0.631  -0.748  1.00  0.00     0.047 A 
ATOM      8  C   UNL     1      -1.928   0.010   0.240  1.00  0.00     0.053 A 
ATOM      9  C   UNL     1      -0.604  -0.388  -0.072  1.00  0.00     0.055 A 
ATOM     10  H   UNL     1      -4.566   1.042   0.193  1.00  0.00     0.166 HD
ENDROOT
BRANCH   1  11
ATOM     11  C   UNL     1       1.269  -0.571  -1.772  1.00  0.00     0.212 A 
ATOM     12  C   UNL     1       3.844  -1.357  -2.512  1.00  0.00     0.038 A 
ATOM     13  C   UNL     1       3.509   0.003  -2.460  1.00  0.00     0.021 A 
ATOM     14  C   UNL     1       2.845  -2.301  -2.208  1.00  0.00     0.314 A 
ATOM     15  C   UNL     1       2.224   0.400  -2.091  1.00  0.00     0.081 A 
ATOM     16  N   UNL     1       1.596  -1.893  -1.851  1.00  0.00    -0.210 N 
ATOM     17  H   UNL     1       0.873  -2.619  -1.643  1.00  0.00     0.453 HD
BRANCH  12  18
ATOM     18  C   UNL     1       5.220  -1.738  -2.915  1.00  0.00     0.006 C 
ATOM     19  C   UNL     1       5.753  -2.945  -2.716  1.00  0.00     0.009 C 
ENDBRANCH  12  18
ENDBRANCH   1  11
BRANCH   9  20
ATOM     20  N   UNL     1       0.229  -0.990   0.941  1.00  0.00    -0.353 N 
ATOM     21  H   UNL     1       0.991  -1.643   0.657  1.00  0.00     0.167 HD
BRANCH  20  22
ATOM     22  C   UNL     1      -0.035  -0.884   2.349  1.00  0.00     0.065 A 
ATOM     23  C   UNL     1      -0.190  -2.059   3.097  1.00  0.00     0.066 A 
ATOM     24  C   UNL     1      -0.126   0.371   2.994  1.00  0.00     0.055 A 
ATOM     25  C   UNL     1      -0.480  -1.997   4.463  1.00  0.00     0.117 A 
ATOM     26  C   UNL     1      -0.427   0.421   4.364  1.00  0.00     0.022 A 
ATOM     27  C   UNL     1      -0.606  -0.758   5.095  1.00  0.00    -0.070 A 
ATOM     28  F   UNL     1      -0.644  -3.143   5.170  1.00  0.00    -0.208 F 
ATOM     29  O   UNL     1      -0.900  -0.694   6.451  1.00  0.00    -0.870 OA
BRANCH  24  30
ATOM     30  N   UNL     1       0.126   1.594   2.290  1.00  0.00    -0.397 N 
ATOM     31  H   UNL     1       0.510   1.601   1.320  1.00  0.00     0.156 HD
ATOM     32  H   UNL     1      -0.004   2.515   2.764  1.00  0.00     0.156 HD
ENDBRANCH  24  30
ENDBRANCH  20  22
ENDBRANCH   9  20
TORSDOF 5


