REMARK SMILES CC(=O)c1c(-c2cccc3ncoc23)cc(C(=O)N[C@@H]2C=CCC2)c(F)c1O
REMARK SMILES IDX 4 1 5 2 15 3 16 4 25 5 26 6 27 7 2 8 1 9 3 10 6 11 7 12
REMARK SMILES IDX 14 13 8 14 13 15 10 16 9 17 12 18 11 19 28 20 17 22 19 23
REMARK SMILES IDX 18 24 20 26 21 27 24 28 22 29 23 30
REMARK H PARENT 28 21 19 25
ROOT
ATOM      1  C   UNL     1      -1.196   1.035  -0.765  1.00  0.00     0.070 A 
ATOM      2  C   UNL     1      -0.816  -0.330  -0.785  1.00  0.00     0.001 A 
ATOM      3  C   UNL     1       0.088  -0.811   0.174  1.00  0.00     0.026 A 
ATOM      4  C   UNL     1       0.589   0.025   1.181  1.00  0.00     0.080 A 
ATOM      5  C   UNL     1       0.200   1.375   1.207  1.00  0.00     0.178 A 
ATOM      6  F   UNL     1       0.727   2.222   2.129  1.00  0.00    -0.202 F 
ATOM      7  C   UNL     1      -0.686   1.879   0.242  1.00  0.00     0.163 A 
ENDROOT
BRANCH   1   8
ATOM      8  C   UNL     1      -2.081   1.615  -1.806  1.00  0.00     0.164 C 
ATOM      9  C   UNL     1      -1.813   1.410  -3.266  1.00  0.00     0.093 C 
ATOM     10  O   UNL     1      -3.073   2.311  -1.461  1.00  0.00    -0.294 OA
ENDBRANCH   1   8
BRANCH   2  11
ATOM     11  C   UNL     1      -1.384  -1.294  -1.754  1.00  0.00     0.028 A 
ATOM     12  C   UNL     1      -0.551  -2.052  -2.608  1.00  0.00     0.013 A 
ATOM     13  C   UNL     1      -2.761  -1.520  -1.845  1.00  0.00     0.162 A 
ATOM     14  C   UNL     1      -1.109  -2.973  -3.524  1.00  0.00     0.003 A 
ATOM     15  O   UNL     1      -3.733  -0.977  -1.163  1.00  0.00    -0.443 OA
ATOM     16  C   UNL     1      -3.296  -2.408  -2.727  1.00  0.00     0.110 A 
ATOM     17  C   UNL     1      -2.503  -3.158  -3.591  1.00  0.00     0.032 A 
ATOM     18  C   UNL     1      -4.847  -1.520  -1.622  1.00  0.00     0.309 A 
ATOM     19  N   UNL     1      -4.634  -2.430  -2.608  1.00  0.00    -0.217 NA
ENDBRANCH   2  11
BRANCH   7  20
ATOM     20  O   UNL     1      -1.045   3.228   0.263  1.00  0.00    -0.504 OA
ATOM     21  H   UNL     1      -0.697   3.869   0.967  1.00  0.00     0.293 HD
ENDBRANCH   7  20
BRANCH   4  22
ATOM     22  C   UNL     1       1.528  -0.526   2.184  1.00  0.00     0.254 C 
ATOM     23  N   UNL     1       1.494  -0.080   3.549  1.00  0.00    -0.346 N 
ATOM     24  O   UNL     1       2.349  -1.418   1.838  1.00  0.00    -0.269 OA
ATOM     25  H   UNL     1       0.677   0.485   3.875  1.00  0.00     0.164 HD
BRANCH  23  26
ATOM     26  C   UNL     1       2.530  -0.467   4.511  1.00  0.00     0.105 C 
ATOM     27  C   UNL     1       2.169  -0.027   5.888  1.00  0.00    -0.007 C 
ATOM     28  C   UNL     1       3.859   0.251   4.222  1.00  0.00     0.033 C 
ATOM     29  C   UNL     1       3.087   0.759   6.422  1.00  0.00    -0.029 C 
ATOM     30  C   UNL     1       4.231   0.998   5.507  1.00  0.00     0.029 C 
ENDBRANCH  23  26
ENDBRANCH   4  22
TORSDOF 5


