REMARK SMILES CC(=O)c1ccc(-c2ccc(OC(=O)[C@@H]3C[C@H]3C=O)cc2)c2c[n-]nc12
REMARK SMILES IDX 12 1 11 2 8 3 9 4 21 5 10 6 20 7 7 8 4 9 5 10 26 11 6 12
REMARK SMILES IDX 25 13 22 14 24 15 23 16 2 17 1 18 3 19 13 20 14 21 15 22
REMARK SMILES IDX 16 23 17 24 18 25 19 26
REMARK H PARENT
ROOT
ATOM      1  O   UNL     1      -1.940  -0.769  -1.921  1.00  0.00    -0.426 OA
ENDROOT
BRANCH   1   2
ATOM      2  C   UNL     1      -0.844  -0.785  -1.046  1.00  0.00     0.130 A 
ATOM      3  C   UNL     1       1.419  -0.795   0.635  1.00  0.00    -0.018 A 
ATOM      4  C   UNL     1       0.127  -0.743   1.184  1.00  0.00     0.012 A 
ATOM      5  C   UNL     1       1.568  -0.814  -0.761  1.00  0.00     0.012 A 
ATOM      6  C   UNL     1      -0.996  -0.736   0.352  1.00  0.00     0.048 A 
ATOM      7  C   UNL     1       0.444  -0.805  -1.592  1.00  0.00     0.048 A 
BRANCH   3   8
ATOM      8  C   UNL     1       2.607  -0.792   1.520  1.00  0.00    -0.011 A 
ATOM      9  C   UNL     1       4.913  -0.774   3.226  1.00  0.00     0.042 A 
ATOM     10  C   UNL     1       3.857   0.152   3.412  1.00  0.00     0.014 A 
ATOM     11  C   UNL     1       4.763  -1.693   2.175  1.00  0.00     0.058 A 
ATOM     12  C   UNL     1       2.721   0.139   2.574  1.00  0.00     0.010 A 
ATOM     13  N   UNL     1       5.600  -2.684   1.817  1.00  0.00    -0.367 NA
ATOM     14  C   UNL     1       3.662  -1.699   1.362  1.00  0.00    -0.014 A 
ATOM     15  N   UNL     1       5.048  -3.327   0.793  1.00  0.00    -0.581 NA
ATOM     16  C   UNL     1       3.862  -2.751   0.495  1.00  0.00    -0.113 A 
BRANCH   9  17
ATOM     17  C   UNL     1       6.114  -0.776   4.105  1.00  0.00     0.161 C 
ATOM     18  C   UNL     1       6.260   0.189   5.243  1.00  0.00     0.093 C 
ATOM     19  O   UNL     1       7.044  -1.603   3.899  1.00  0.00    -0.294 OA
ENDBRANCH   9  17
ENDBRANCH   3   8
ENDBRANCH   1   2
BRANCH   1  20
ATOM     20  C   UNL     1      -3.209  -1.294  -1.643  1.00  0.00     0.315 C 
ATOM     21  O   UNL     1      -3.395  -2.071  -0.668  1.00  0.00    -0.251 OA
BRANCH  20  22
ATOM     22  C   UNL     1      -4.360  -0.940  -2.530  1.00  0.00     0.110 C 
ATOM     23  C   UNL     1      -4.976  -2.124  -3.264  1.00  0.00     0.028 C 
ATOM     24  C   UNL     1      -4.094  -1.137  -4.017  1.00  0.00     0.068 C 
BRANCH  24  25
ATOM     25  C   UNL     1      -4.854  -0.212  -4.917  1.00  0.00     0.228 C 
ATOM     26  O   UNL     1      -5.337  -0.630  -5.957  1.00  0.00    -0.303 OA
ENDBRANCH  24  25
ENDBRANCH  20  22
ENDBRANCH   1  20
TORSDOF 6


