REMARK SMILES C=C[C@@H](Oc1[nH+]cnc(C)c1C)c1cc(-c2c[nH]c3nccc-3c2)cc2[nH]ccc12
REMARK SMILES IDX 3 1 2 2 1 3 4 4 5 5 6 6 11 7 7 8 9 9 8 10 12 12 10 13 13 14
REMARK SMILES IDX 14 15 30 16 15 17 29 18 26 19 25 20 28 21 27 22 16 24 17 25
REMARK SMILES IDX 24 26 18 27 23 28 19 29 22 30 20 31 21 32
REMARK H PARENT 6 11 27 23 18 33
ROOT
ATOM      1  C   UNL     1       2.606   0.510   0.692  1.00  0.00     0.231 C 
ENDROOT
BRANCH   1   2
ATOM      2  C   UNL     1       3.525   1.470  -0.017  1.00  0.00     0.014 C 
ATOM      3  C   UNL     1       3.065   2.462  -0.788  1.00  0.00     0.008 C 
ENDBRANCH   1   2
BRANCH   1   4
ATOM      4  O   UNL     1       1.616   1.242   1.419  1.00  0.00    -0.450 OA
BRANCH   4   5
ATOM      5  C   UNL     1       0.692   0.687   2.322  1.00  0.00     0.289 A 
ATOM      6  N   UNL     1       0.751  -0.630   2.678  1.00  0.00    -0.213 N 
ATOM      7  C   UNL     1      -0.314   1.511   2.863  1.00  0.00     0.081 A 
ATOM      8  C   UNL     1      -0.139  -1.158   3.557  1.00  0.00     0.452 A 
ATOM      9  C   UNL     1      -1.205   0.942   3.799  1.00  0.00     0.159 A 
ATOM     10  N   UNL     1      -1.098  -0.376   4.108  1.00  0.00    -0.054 NA
ATOM     11  H   UNL     1       1.481  -1.264   2.289  1.00  0.00     0.315 HD
ATOM     12  C   UNL     1      -0.393   2.972   2.493  1.00  0.00     0.057 C 
ATOM     13  C   UNL     1      -2.292   1.744   4.452  1.00  0.00     0.098 C 
ENDBRANCH   4   5
ENDBRANCH   1   4
BRANCH   1  14
ATOM     14  C   UNL     1       1.974  -0.434  -0.311  1.00  0.00     0.006 A 
ATOM     15  C   UNL     1       0.746  -0.124  -0.942  1.00  0.00     0.017 A 
ATOM     16  C   UNL     1       2.603  -1.627  -0.690  1.00  0.00     0.007 A 
ATOM     17  C   UNL     1       0.165  -1.002  -1.895  1.00  0.00    -0.014 A 
ATOM     18  C   UNL     1       3.801  -2.191  -0.295  1.00  0.00     0.028 A 
ATOM     19  C   UNL     1       2.047  -2.478  -1.610  1.00  0.00     0.046 A 
ATOM     20  C   UNL     1       0.831  -2.202  -2.229  1.00  0.00     0.035 A 
ATOM     21  C   UNL     1       3.906  -3.378  -1.010  1.00  0.00     0.083 A 
ATOM     22  N   UNL     1       2.832  -3.549  -1.812  1.00  0.00    -0.361 N 
ATOM     23  H   UNL     1       2.655  -4.349  -2.459  1.00  0.00     0.166 HD
BRANCH  17  24
ATOM     24  C   UNL     1      -1.128  -0.659  -2.538  1.00  0.00    -0.001 A 
ATOM     25  C   UNL     1      -2.115  -1.667  -2.752  1.00  0.00     0.093 A 
ATOM     26  C   UNL     1      -1.389   0.673  -2.941  1.00  0.00     0.022 A 
ATOM     27  N   UNL     1      -3.315  -1.378  -3.343  1.00  0.00    -0.346 N 
ATOM     28  C   UNL     1      -2.613   0.933  -3.534  1.00  0.00     0.019 A 
ATOM     29  C   UNL     1      -3.565  -0.105  -3.728  1.00  0.00     0.137 A 
ATOM     30  C   UNL     1      -3.187   2.070  -4.042  1.00  0.00     0.032 A 
ATOM     31  N   UNL     1      -4.680   0.349  -4.323  1.00  0.00    -0.239 NA
ATOM     32  C   UNL     1      -4.442   1.674  -4.511  1.00  0.00     0.114 A 
ATOM     33  H   UNL     1      -4.027  -2.128  -3.490  1.00  0.00     0.167 HD
ENDBRANCH  17  24
ENDBRANCH   1  14
TORSDOF 5


