REMARK SMILES C=Cc1cc(-c2ccc(C)c3[nH+][nH]cc23)ccc1[O-]
REMARK SMILES IDX 3 1 4 2 5 3 16 4 17 5 18 6 19 7 2 8 1 9 6 10 7 11 15 12 8 13
REMARK SMILES IDX 14 14 11 15 9 16 13 17 12 18 10 19
REMARK H PARENT 13 20 12 21
ROOT
ATOM      1  C   UNL     1       1.820  -2.907   0.202  1.00  0.00    -0.034 A 
ATOM      2  C   UNL     1       1.038  -1.745   0.036  1.00  0.00     0.016 A 
ATOM      3  C   UNL     1      -0.358  -1.788   0.190  1.00  0.00    -0.017 A 
ATOM      4  C   UNL     1      -0.972  -2.998   0.543  1.00  0.00     0.008 A 
ATOM      5  C   UNL     1      -0.206  -4.149   0.727  1.00  0.00    -0.007 A 
ATOM      6  C   UNL     1       1.181  -4.110   0.560  1.00  0.00    -0.102 A 
ATOM      7  O   UNL     1       1.916  -5.277   0.746  1.00  0.00    -0.872 OA
ENDROOT
BRANCH   1   8
ATOM      8  C   UNL     1       3.296  -2.881   0.046  1.00  0.00    -0.001 C 
ATOM      9  C   UNL     1       3.948  -1.982  -0.693  1.00  0.00     0.009 C 
ENDBRANCH   1   8
BRANCH   3  10
ATOM     10  C   UNL     1      -1.172  -0.562   0.014  1.00  0.00    -0.003 A 
ATOM     11  C   UNL     1      -2.147  -0.196   0.970  1.00  0.00     0.010 A 
ATOM     12  C   UNL     1      -1.023   0.284  -1.094  1.00  0.00     0.078 A 
ATOM     13  C   UNL     1      -2.918   0.976   0.809  1.00  0.00     0.011 A 
ATOM     14  C   UNL     1      -0.229   0.211  -2.225  1.00  0.00     0.163 A 
ATOM     15  C   UNL     1      -1.775   1.421  -1.251  1.00  0.00     0.239 A 
ATOM     16  C   UNL     1      -2.737   1.810  -0.314  1.00  0.00     0.024 A 
ATOM     17  N   UNL     1      -0.513   1.284  -2.997  1.00  0.00    -0.174 N 
ATOM     18  N   UNL     1      -1.449   2.018  -2.411  1.00  0.00    -0.126 N 
ATOM     19  C   UNL     1      -3.560   3.049  -0.509  1.00  0.00     0.052 C 
ATOM     20  H   UNL     1      -0.081   1.507  -3.921  1.00  0.00     0.238 HD
ATOM     21  H   UNL     1      -1.854   2.894  -2.809  1.00  0.00     0.488 HD
ENDBRANCH   3  10
TORSDOF 2


