REMARK SMILES c1nc2cc(-c3ncc([C@H]4CO4)c[nH+]3)c[nH+]c2o1
REMARK SMILES IDX 1 1 2 2 3 3 4 4 5 5 15 6 16 7 17 8 18 9 6 11 7 12 14 13 8 14
REMARK SMILES IDX 13 15 9 16 10 18 11 19 12 20
REMARK H PARENT 16 10 14 17
ROOT
ATOM      1  C   UNL     1      -1.729   4.325   2.562  1.00  0.00     0.316 A 
ATOM      2  N   UNL     1      -1.926   3.020   2.896  1.00  0.00    -0.209 NA
ATOM      3  C   UNL     1      -1.413   2.379   1.834  1.00  0.00     0.180 A 
ATOM      4  C   UNL     1      -1.330   1.012   1.600  1.00  0.00     0.062 A 
ATOM      5  C   UNL     1      -0.729   0.589   0.390  1.00  0.00     0.134 A 
ATOM      6  C   UNL     1      -0.261   1.575  -0.526  1.00  0.00     0.326 A 
ATOM      7  N   UNL     1      -0.374   2.908  -0.236  1.00  0.00    -0.177 N 
ATOM      8  C   UNL     1      -0.945   3.275   0.936  1.00  0.00     0.399 A 
ATOM      9  O   UNL     1      -1.140   4.483   1.385  1.00  0.00    -0.391 OA
ATOM     10  H   UNL     1      -0.033   3.630  -0.910  1.00  0.00     0.457 HD
ENDROOT
BRANCH   5  11
ATOM     11  C   UNL     1      -0.621  -0.860   0.086  1.00  0.00     0.334 A 
ATOM     12  N   UNL     1      -1.526  -1.723   0.623  1.00  0.00    -0.049 NA
ATOM     13  N   UNL     1       0.381  -1.347  -0.705  1.00  0.00    -0.243 N 
ATOM     14  C   UNL     1      -1.470  -3.056   0.373  1.00  0.00     0.264 A 
ATOM     15  C   UNL     1       0.471  -2.676  -0.980  1.00  0.00     0.208 A 
ATOM     16  C   UNL     1      -0.471  -3.567  -0.457  1.00  0.00     0.066 A 
ATOM     17  H   UNL     1       1.117  -0.716  -1.090  1.00  0.00     0.312 HD
BRANCH  16  18
ATOM     18  C   UNL     1      -0.368  -5.041  -0.716  1.00  0.00     0.181 C 
ATOM     19  C   UNL     1      -1.488  -5.649  -1.471  1.00  0.00     0.198 C 
ATOM     20  O   UNL     1      -0.268  -5.322  -2.093  1.00  0.00    -0.368 OA
ENDBRANCH  16  18
ENDBRANCH   5  11
TORSDOF 2


