MODEL 1
REMARK VINA RESULT:      -8.5      0.000      0.000
REMARK SMILES C[C@@H](CC(=O)[O-])/N=C(\O)N(N)c1ccc2cc3ccccc3cc2c1
REMARK SMILES IDX 7 1 8 2 9 3 10 5 12 6 13 7 25 8 14 9 24 10 15 11 23 12 16 13
REMARK SMILES IDX 22 14 17 15 21 16 18 17 20 18 19 19 11 20 2 23 1 24 3 25
REMARK SMILES IDX 4 26 5 27 6 28
REMARK H PARENT 9 4 11 21 11 22
ROOT
ATOM      1  N   UNL     1      44.175 129.707  22.837  1.00  0.00    -0.231 NA
ENDROOT
BRANCH   1   2
ATOM      2  C   UNL     1      44.085 131.008  22.855  1.00  0.00     0.304 C 
BRANCH   2   3
ATOM      3  O   UNL     1      44.893 131.795  23.682  1.00  0.00    -0.480 OA
ATOM      4  H   UNL     1      45.396 131.443  24.484  1.00  0.00     0.297 HD
ENDBRANCH   2   3
BRANCH   2   5
ATOM      5  N   UNL     1      43.114 131.665  22.022  1.00  0.00    -0.232 N 
BRANCH   5   6
ATOM      6  C   UNL     1      43.231 131.666  20.582  1.00  0.00     0.063 A 
ATOM      7  C   UNL     1      42.196 132.185  19.786  1.00  0.00     0.028 A 
ATOM      8  C   UNL     1      44.394 131.176  19.961  1.00  0.00     0.036 A 
ATOM      9  C   UNL     1      42.307 132.195  18.393  1.00  0.00     0.011 A 
ATOM     10  C   UNL     1      44.514 131.179  18.563  1.00  0.00    -0.016 A 
ATOM     11  C   UNL     1      43.460 131.692  17.771  1.00  0.00    -0.018 A 
ATOM     12  C   UNL     1      45.670 130.679  17.948  1.00  0.00     0.017 A 
ATOM     13  C   UNL     1      43.574 131.697  16.374  1.00  0.00     0.017 A 
ATOM     14  C   UNL     1      45.787 130.684  16.550  1.00  0.00    -0.018 A 
ATOM     15  C   UNL     1      44.731 131.196  15.756  1.00  0.00    -0.018 A 
ATOM     16  C   UNL     1      46.941 130.183  15.928  1.00  0.00     0.009 A 
ATOM     17  C   UNL     1      44.851 131.197  14.358  1.00  0.00     0.009 A 
ATOM     18  C   UNL     1      47.047 130.191  14.534  1.00  0.00     0.001 A 
ATOM     19  C   UNL     1      46.007 130.697  13.752  1.00  0.00     0.001 A 
ENDBRANCH   5   6
BRANCH   5  20
ATOM     20  N   UNL     1      42.000 132.257  22.643  1.00  0.00    -0.239 NA
ATOM     21  H   UNL     1      42.052 133.292  22.501  1.00  0.00     0.144 HD
ATOM     22  H   UNL     1      41.143 131.905  22.161  1.00  0.00     0.144 HD
ENDBRANCH   5  20
ENDBRANCH   2   5
ENDBRANCH   1   2
BRANCH   1  23
ATOM     23  C   UNL     1      43.979 128.773  23.948  1.00  0.00     0.113 C 
ATOM     24  C   UNL     1      42.644 129.101  24.618  1.00  0.00     0.034 C 
BRANCH  23  25
ATOM     25  C   UNL     1      43.956 127.320  23.435  1.00  0.00     0.079 C 
BRANCH  25  26
ATOM     26  C   UNL     1      45.333 126.749  23.290  1.00  0.00     0.044 C 
ATOM     27  O   UNL     1      45.926 126.263  24.288  1.00  0.00    -0.550 OA
ATOM     28  O   UNL     1      45.949 126.728  22.045  1.00  0.00    -0.550 OA
ENDBRANCH  25  26
ENDBRANCH  23  25
ENDBRANCH   1  23
TORSDOF 8
ENDMDL
MODEL 2
REMARK VINA RESULT:      -5.7      1.717      2.021
REMARK SMILES C[C@@H](CC(=O)[O-])/N=C(\O)N(N)c1ccc2cc3ccccc3cc2c1
REMARK SMILES IDX 7 1 8 2 9 3 10 5 12 6 13 7 25 8 14 9 24 10 15 11 23 12 16 13
REMARK SMILES IDX 22 14 17 15 21 16 18 17 20 18 19 19 11 20 2 23 1 24 3 25
REMARK SMILES IDX 4 26 5 27 6 28
REMARK H PARENT 9 4 11 21 11 22
ROOT
ATOM      1  N   UNL     1      44.835 128.661  21.934  1.00  0.00    -0.231 NA
ENDROOT
BRANCH   1   2
ATOM      2  C   UNL     1      44.181 129.789  21.973  1.00  0.00     0.304 C 
BRANCH   2   3
ATOM      3  O   UNL     1      42.939 129.904  22.608  1.00  0.00    -0.480 OA
ATOM      4  H   UNL     1      42.396 130.755  22.641  1.00  0.00     0.297 HD
ENDBRANCH   2   3
BRANCH   2   5
ATOM      5  N   UNL     1      44.729 130.951  21.329  1.00  0.00    -0.232 N 
BRANCH   5   6
ATOM      6  C   UNL     1      44.725 131.092  19.891  1.00  0.00     0.063 A 
ATOM      7  C   UNL     1      43.689 131.791  19.250  1.00  0.00     0.028 A 
ATOM      8  C   UNL     1      45.772 130.558  19.120  1.00  0.00     0.036 A 
ATOM      9  C   UNL     1      43.684 131.937  17.860  1.00  0.00     0.011 A 
ATOM     10  C   UNL     1      45.775 130.695  17.724  1.00  0.00    -0.016 A 
ATOM     11  C   UNL     1      44.720 131.390  17.087  1.00  0.00    -0.018 A 
ATOM     12  C   UNL     1      46.816 130.151  16.958  1.00  0.00     0.017 A 
ATOM     13  C   UNL     1      44.718 131.530  15.692  1.00  0.00     0.017 A 
ATOM     14  C   UNL     1      46.814 130.291  15.562  1.00  0.00    -0.018 A 
ATOM     15  C   UNL     1      45.757 130.985  14.924  1.00  0.00    -0.018 A 
ATOM     16  C   UNL     1      47.853 129.746  14.789  1.00  0.00     0.009 A 
ATOM     17  C   UNL     1      45.760 131.121  13.527  1.00  0.00     0.009 A 
ATOM     18  C   UNL     1      47.842 129.890  13.398  1.00  0.00     0.001 A 
ATOM     19  C   UNL     1      46.801 130.575  12.770  1.00  0.00     0.001 A 
ENDBRANCH   5   6
BRANCH   5  20
ATOM     20  N   UNL     1      45.217 131.991  22.142  1.00  0.00    -0.239 NA
ATOM     21  H   UNL     1      45.730 131.568  22.949  1.00  0.00     0.144 HD
ATOM     22  H   UNL     1      45.899 132.544  21.575  1.00  0.00     0.144 HD
ENDBRANCH   5  20
ENDBRANCH   2   5
ENDBRANCH   1   2
BRANCH   1  23
ATOM     23  C   UNL     1      44.984 127.667  22.999  1.00  0.00     0.113 C 
ATOM     24  C   UNL     1      44.617 128.330  24.327  1.00  0.00     0.034 C 
BRANCH  23  25
ATOM     25  C   UNL     1      44.057 126.463  22.748  1.00  0.00     0.079 C 
BRANCH  25  26
ATOM     26  C   UNL     1      43.255 126.104  23.961  1.00  0.00     0.044 C 
ATOM     27  O   UNL     1      42.363 126.884  24.385  1.00  0.00    -0.550 OA
ATOM     28  O   UNL     1      43.472 124.891  24.603  1.00  0.00    -0.550 OA
ENDBRANCH  25  26
ENDBRANCH  23  25
ENDBRANCH   1  23
TORSDOF 8
ENDMDL


