REMARK SMILES Cc1ccc(-c2ccc(O)cc2)c2cn(C(=O)OCc3ccccc3F)[nH+]c12
REMARK SMILES IDX 16 1 17 2 15 3 2 4 3 5 28 6 4 7 27 8 13 9 5 10 14 11 1 12
REMARK SMILES IDX 6 14 7 15 12 16 8 17 11 18 9 19 10 20 18 22 19 23 20 24
REMARK SMILES IDX 21 25 25 26 22 27 24 28 23 29 26 30
REMARK H PARENT 27 13 10 21
ROOT
ATOM      1  C   UNL     1       0.362   2.084   1.520  1.00  0.00     0.467 C 
ATOM      2  O   UNL     1       0.471   3.019   2.360  1.00  0.00    -0.218 OA
ENDROOT
BRANCH   1   3
ATOM      3  N   UNL     1       0.010   2.379   0.163  1.00  0.00    -0.054 N 
ATOM      4  C   UNL     1      -0.903   4.487  -2.508  1.00  0.00     0.024 A 
ATOM      5  C   UNL     1      -1.229   4.091  -3.823  1.00  0.00     0.011 A 
ATOM      6  C   UNL     1      -0.541   3.480  -1.608  1.00  0.00     0.240 A 
ATOM      7  C   UNL     1      -1.179   2.731  -4.201  1.00  0.00     0.010 A 
ATOM      8  N   UNL     1      -0.230   3.599  -0.305  1.00  0.00    -0.112 N 
ATOM      9  C   UNL     1      -0.489   2.158  -1.976  1.00  0.00     0.079 A 
ATOM     10  C   UNL     1      -0.798   1.733  -3.275  1.00  0.00    -0.003 A 
ATOM     11  C   UNL     1      -0.143   1.469  -0.827  1.00  0.00     0.181 A 
ATOM     12  C   UNL     1      -0.968   5.925  -2.087  1.00  0.00     0.052 C 
ATOM     13  H   UNL     1      -0.194   4.479   0.257  1.00  0.00     0.489 HD
BRANCH  10  14
ATOM     14  C   UNL     1      -0.737   0.309  -3.677  1.00  0.00    -0.017 A 
ATOM     15  C   UNL     1      -1.802  -0.273  -4.388  1.00  0.00     0.012 A 
ATOM     16  C   UNL     1       0.392  -0.473  -3.377  1.00  0.00     0.012 A 
ATOM     17  C   UNL     1      -1.744  -1.615  -4.774  1.00  0.00     0.047 A 
ATOM     18  C   UNL     1       0.447  -1.815  -3.764  1.00  0.00     0.047 A 
ATOM     19  C   UNL     1      -0.623  -2.390  -4.463  1.00  0.00     0.115 A 
BRANCH  19  20
ATOM     20  O   UNL     1      -0.580  -3.726  -4.854  1.00  0.00    -0.508 OA
ATOM     21  H   UNL     1       0.219  -4.314  -4.644  1.00  0.00     0.293 HD
ENDBRANCH  19  20
ENDBRANCH  10  14
ENDBRANCH   1   3
BRANCH   1  22
ATOM     22  O   UNL     1       0.586   0.759   1.904  1.00  0.00    -0.441 OA
BRANCH  22  23
ATOM     23  C   UNL     1       0.948   0.391   3.230  1.00  0.00     0.274 C 
BRANCH  23  24
ATOM     24  C   UNL     1       1.123  -1.099   3.298  1.00  0.00     0.025 A 
ATOM     25  C   UNL     1       0.075  -1.913   3.759  1.00  0.00     0.010 A 
ATOM     26  C   UNL     1       2.311  -1.699   2.840  1.00  0.00     0.129 A 
ATOM     27  C   UNL     1       0.222  -3.303   3.789  1.00  0.00     0.001 A 
ATOM     28  C   UNL     1       2.452  -3.091   2.872  1.00  0.00     0.039 A 
ATOM     29  C   UNL     1       1.411  -3.891   3.348  1.00  0.00     0.003 A 
ATOM     30  F   UNL     1       3.328  -0.939   2.359  1.00  0.00    -0.207 F 
ENDBRANCH  23  24
ENDBRANCH  22  23
ENDBRANCH   1  22
TORSDOF 6


