REMARK SMILES C=C(C)C(=O)Oc1c(NN)cc(C)cc1-n1nc2ccccc2n1
REMARK SMILES IDX 7 1 8 2 11 3 12 4 13 5 14 6 15 7 6 8 4 9 5 10 2 11 1 12 3 13
REMARK SMILES IDX 9 14 10 16 16 19 17 20 24 21 18 22 23 23 19 24 22 25 20 26
REMARK SMILES IDX 21 27
REMARK H PARENT 9 15 10 17 10 18
ROOT
ATOM      1  C   UNL     1       1.333  -0.838  -1.495  1.00  0.00     0.183 A 
ATOM      2  C   UNL     1       2.248  -1.302  -2.462  1.00  0.00     0.094 A 
ATOM      3  C   UNL     1       2.247  -0.728  -3.745  1.00  0.00     0.034 A 
ATOM      4  C   UNL     1       1.347   0.294  -4.071  1.00  0.00    -0.047 A 
ATOM      5  C   UNL     1       1.376   0.918  -5.435  1.00  0.00     0.044 C 
ATOM      6  C   UNL     1       0.478   0.787  -3.091  1.00  0.00     0.037 A 
ATOM      7  C   UNL     1       0.472   0.245  -1.797  1.00  0.00     0.131 A 
ENDROOT
BRANCH   1   8
ATOM      8  O   UNL     1       1.295  -1.463  -0.242  1.00  0.00    -0.419 OA
BRANCH   8   9
ATOM      9  C   UNL     1       0.141  -2.056   0.287  1.00  0.00     0.338 C 
ATOM     10  O   UNL     1      -0.877  -2.221  -0.442  1.00  0.00    -0.246 OA
BRANCH   9  11
ATOM     11  C   UNL     1       0.129  -2.487   1.702  1.00  0.00     0.027 C 
ATOM     12  C   UNL     1      -0.981  -2.988   2.259  1.00  0.00     0.020 C 
ATOM     13  C   UNL     1       1.355  -2.269   2.544  1.00  0.00     0.051 C 
ENDBRANCH   9  11
ENDBRANCH   8   9
ENDBRANCH   1   8
BRANCH   2  14
ATOM     14  N   UNL     1       3.154  -2.374  -2.140  1.00  0.00    -0.321 N 
ATOM     15  H   UNL     1       3.086  -2.849  -1.211  1.00  0.00     0.181 HD
BRANCH  14  16
ATOM     16  N   UNL     1       4.113  -2.828  -3.061  1.00  0.00    -0.250 NA
ATOM     17  H   UNL     1       4.586  -3.662  -2.644  1.00  0.00     0.143 HD
ATOM     18  H   UNL     1       4.842  -2.083  -3.139  1.00  0.00     0.143 HD
ENDBRANCH  14  16
ENDBRANCH   2  14
BRANCH   7  19
ATOM     19  N   UNL     1      -0.371   0.832  -0.791  1.00  0.00    -0.146 N 
ATOM     20  N   UNL     1      -1.546   1.403  -1.060  1.00  0.00    -0.148 NA
ATOM     21  N   UNL     1      -0.048   0.897   0.500  1.00  0.00    -0.148 NA
ATOM     22  C   UNL     1      -1.995   1.837   0.126  1.00  0.00     0.113 A 
ATOM     23  C   UNL     1      -1.079   1.526   1.081  1.00  0.00     0.113 A 
ATOM     24  C   UNL     1      -3.182   2.498   0.424  1.00  0.00     0.032 A 
ATOM     25  C   UNL     1      -1.265   1.845   2.422  1.00  0.00     0.032 A 
ATOM     26  C   UNL     1      -3.410   2.841   1.772  1.00  0.00     0.002 A 
ATOM     27  C   UNL     1      -2.455   2.515   2.767  1.00  0.00     0.002 A 
ENDBRANCH   7  19
TORSDOF 6


