MODEL 1
REMARK VINA RESULT:      -8.5      0.000      0.000
REMARK SMILES [N-]=[N+]=Nc1nccc2ccc(-c3cccc([C@H]4CO4)c3)cc12
REMARK SMILES IDX 6 1 5 2 4 3 22 4 21 5 11 6 10 7 9 8 8 9 7 10 3 11 2 12 1 13
REMARK SMILES IDX 12 14 13 15 20 16 14 17 16 18 15 19 17 20 19 21 18 22
REMARK H PARENT
ROOT
ATOM      1  C   UNL     1      43.707 131.387  23.284  1.00  0.00     0.112 A 
ATOM      2  N   UNL     1      42.757 132.061  22.587  1.00  0.00    -0.254 NA
ATOM      3  C   UNL     1      42.793 132.175  21.229  1.00  0.00     0.134 A 
ATOM      4  C   UNL     1      43.847 131.576  20.508  1.00  0.00     0.010 A 
ATOM      5  C   UNL     1      43.931 131.661  19.106  1.00  0.00     0.019 A 
ATOM      6  C   UNL     1      44.992 131.052  18.412  1.00  0.00    -0.018 A 
ATOM      7  C   UNL     1      45.973 130.354  19.136  1.00  0.00     0.009 A 
ATOM      8  C   UNL     1      45.900 130.262  20.527  1.00  0.00     0.009 A 
ATOM      9  C   UNL     1      44.844 130.868  21.221  1.00  0.00    -0.015 A 
ATOM     10  C   UNL     1      44.767 130.778  22.617  1.00  0.00     0.029 A 
ENDROOT
BRANCH   3  11
ATOM     11  N   UNL     1      41.763 132.900  20.548  1.00  0.00    -0.040 NA
BRANCH  11  12
ATOM     12  N   UNL     1      41.586 132.776  19.335  1.00  0.00     0.007 N 
ATOM     13  N   UNL     1      41.409 132.653  18.124  1.00  0.00    -0.003 NA
ENDBRANCH  11  12
ENDBRANCH   3  11
BRANCH   6  14
ATOM     14  C   UNL     1      45.077 131.147  16.932  1.00  0.00    -0.018 A 
ATOM     15  C   UNL     1      43.928 131.421  16.167  1.00  0.00     0.009 A 
ATOM     16  C   UNL     1      46.307 130.962  16.273  1.00  0.00     0.015 A 
ATOM     17  C   UNL     1      44.009 131.502  14.774  1.00  0.00     0.001 A 
ATOM     18  C   UNL     1      46.391 131.061  14.875  1.00  0.00    -0.016 A 
ATOM     19  C   UNL     1      45.233 131.318  14.129  1.00  0.00     0.006 A 
BRANCH  18  20
ATOM     20  C   UNL     1      47.697 130.826  14.177  1.00  0.00     0.174 C 
ATOM     21  O   UNL     1      47.510 130.472  12.824  1.00  0.00    -0.368 OA
ATOM     22  C   UNL     1      47.937 129.447  13.691  1.00  0.00     0.198 C 
ENDBRANCH  18  20
ENDBRANCH   6  14
TORSDOF 4
ENDMDL
MODEL 2
REMARK VINA RESULT:      -7.4      0.845      1.162
REMARK SMILES [N-]=[N+]=Nc1nccc2ccc(-c3cccc([C@H]4CO4)c3)cc12
REMARK SMILES IDX 6 1 5 2 4 3 22 4 21 5 11 6 10 7 9 8 8 9 7 10 3 11 2 12 1 13
REMARK SMILES IDX 12 14 13 15 20 16 14 17 16 18 15 19 17 20 19 21 18 22
REMARK H PARENT
ROOT
ATOM      1  C   UNL     1      43.722 131.420  23.306  1.00  0.00     0.112 A 
ATOM      2  N   UNL     1      42.773 132.064  22.579  1.00  0.00    -0.254 NA
ATOM      3  C   UNL     1      42.813 132.122  21.217  1.00  0.00     0.134 A 
ATOM      4  C   UNL     1      43.869 131.494  20.524  1.00  0.00     0.010 A 
ATOM      5  C   UNL     1      43.956 131.521  19.120  1.00  0.00     0.019 A 
ATOM      6  C   UNL     1      45.020 130.886  18.454  1.00  0.00    -0.018 A 
ATOM      7  C   UNL     1      45.999 130.218  19.209  1.00  0.00     0.009 A 
ATOM      8  C   UNL     1      45.922 130.184  20.603  1.00  0.00     0.009 A 
ATOM      9  C   UNL     1      44.865 130.817  21.268  1.00  0.00    -0.015 A 
ATOM     10  C   UNL     1      44.784 130.784  22.666  1.00  0.00     0.029 A 
ENDROOT
BRANCH   3  11
ATOM     11  N   UNL     1      41.784 132.817  20.504  1.00  0.00    -0.040 NA
BRANCH  11  12
ATOM     12  N   UNL     1      40.889 133.421  21.095  1.00  0.00     0.007 N 
ATOM     13  N   UNL     1      39.995 134.025  21.687  1.00  0.00    -0.003 NA
ENDBRANCH  11  12
ENDBRANCH   3  11
BRANCH   6  14
ATOM     14  C   UNL     1      45.108 130.920  16.971  1.00  0.00    -0.018 A 
ATOM     15  C   UNL     1      44.210 131.700  16.220  1.00  0.00     0.009 A 
ATOM     16  C   UNL     1      46.090 130.170  16.297  1.00  0.00     0.015 A 
ATOM     17  C   UNL     1      44.290 131.724  14.826  1.00  0.00     0.001 A 
ATOM     18  C   UNL     1      46.182 130.209  14.897  1.00  0.00    -0.016 A 
ATOM     19  C   UNL     1      45.268 130.978  14.165  1.00  0.00     0.006 A 
BRANCH  18  20
ATOM     20  C   UNL     1      47.206 129.378  14.182  1.00  0.00     0.174 C 
ATOM     21  O   UNL     1      48.517 129.824  14.447  1.00  0.00    -0.368 OA
ATOM     22  C   UNL     1      48.013 130.079  13.157  1.00  0.00     0.198 C 
ENDBRANCH  18  20
ENDBRANCH   6  14
TORSDOF 4
ENDMDL
MODEL 3
REMARK VINA RESULT:      -7.4      2.137      2.936
REMARK SMILES [N-]=[N+]=Nc1nccc2ccc(-c3cccc([C@H]4CO4)c3)cc12
REMARK SMILES IDX 6 1 5 2 4 3 22 4 21 5 11 6 10 7 9 8 8 9 7 10 3 11 2 12 1 13
REMARK SMILES IDX 12 14 13 15 20 16 14 17 16 18 15 19 17 20 19 21 18 22
REMARK H PARENT
ROOT
ATOM      1  C   UNL     1      43.804 132.076  23.133  1.00  0.00     0.112 A 
ATOM      2  N   UNL     1      45.109 132.184  22.773  1.00  0.00    -0.254 NA
ATOM      3  C   UNL     1      45.517 132.087  21.476  1.00  0.00     0.134 A 
ATOM      4  C   UNL     1      44.563 131.868  20.460  1.00  0.00     0.010 A 
ATOM      5  C   UNL     1      44.931 131.762  19.106  1.00  0.00     0.019 A 
ATOM      6  C   UNL     1      43.959 131.545  18.113  1.00  0.00    -0.018 A 
ATOM      7  C   UNL     1      42.609 131.436  18.488  1.00  0.00     0.009 A 
ATOM      8  C   UNL     1      42.232 131.540  19.828  1.00  0.00     0.009 A 
ATOM      9  C   UNL     1      43.199 131.755  20.819  1.00  0.00    -0.015 A 
ATOM     10  C   UNL     1      42.825 131.861  22.165  1.00  0.00     0.029 A 
ENDROOT
BRANCH   3  11
ATOM     11  N   UNL     1      46.908 132.207  21.156  1.00  0.00    -0.040 NA
BRANCH  11  12
ATOM     12  N   UNL     1      47.591 133.131  21.599  1.00  0.00     0.007 N 
ATOM     13  N   UNL     1      48.273 134.055  22.040  1.00  0.00    -0.003 NA
ENDBRANCH  11  12
ENDBRANCH   3  11
BRANCH   6  14
ATOM     14  C   UNL     1      44.352 131.432  16.685  1.00  0.00    -0.018 A 
ATOM     15  C   UNL     1      43.408 131.647  15.664  1.00  0.00     0.009 A 
ATOM     16  C   UNL     1      45.676 131.105  16.332  1.00  0.00     0.015 A 
ATOM     17  C   UNL     1      43.779 131.532  14.322  1.00  0.00     0.001 A 
ATOM     18  C   UNL     1      46.052 131.008  14.983  1.00  0.00    -0.016 A 
ATOM     19  C   UNL     1      45.094 131.209  13.981  1.00  0.00     0.006 A 
BRANCH  18  20
ATOM     20  C   UNL     1      47.454 130.623  14.615  1.00  0.00     0.174 C 
ATOM     21  O   UNL     1      47.630 130.570  13.216  1.00  0.00    -0.368 OA
ATOM     22  C   UNL     1      47.608 129.337  13.895  1.00  0.00     0.198 C 
ENDBRANCH  18  20
ENDBRANCH   6  14
TORSDOF 4
ENDMDL
MODEL 4
REMARK VINA RESULT:      -6.4      5.936      8.077
REMARK SMILES [N-]=[N+]=Nc1nccc2ccc(-c3cccc([C@H]4CO4)c3)cc12
REMARK SMILES IDX 6 1 5 2 4 3 22 4 21 5 11 6 10 7 9 8 8 9 7 10 3 11 2 12 1 13
REMARK SMILES IDX 12 14 13 15 20 16 14 17 16 18 15 19 17 20 19 21 18 22
REMARK H PARENT
ROOT
ATOM      1  C   UNL     1      46.517 122.817  24.243  1.00  0.00     0.112 A 
ATOM      2  N   UNL     1      47.457 123.536  23.578  1.00  0.00    -0.254 NA
ATOM      3  C   UNL     1      47.239 124.818  23.170  1.00  0.00     0.134 A 
ATOM      4  C   UNL     1      45.999 125.434  23.441  1.00  0.00     0.010 A 
ATOM      5  C   UNL     1      45.724 126.756  23.044  1.00  0.00     0.019 A 
ATOM      6  C   UNL     1      44.479 127.346  23.329  1.00  0.00    -0.018 A 
ATOM      7  C   UNL     1      43.509 126.600  24.019  1.00  0.00     0.009 A 
ATOM      8  C   UNL     1      43.772 125.288  24.419  1.00  0.00     0.009 A 
ATOM      9  C   UNL     1      45.010 124.697  24.136  1.00  0.00    -0.015 A 
ATOM     10  C   UNL     1      45.278 123.382  24.535  1.00  0.00     0.029 A 
ENDROOT
BRANCH   3  11
ATOM     11  N   UNL     1      48.268 125.527  22.470  1.00  0.00    -0.040 NA
BRANCH  11  12
ATOM     12  N   UNL     1      49.310 124.970  22.124  1.00  0.00     0.007 N 
ATOM     13  N   UNL     1      50.352 124.414  21.779  1.00  0.00    -0.003 NA
ENDBRANCH  11  12
ENDBRANCH   3  11
BRANCH   6  14
ATOM     14  C   UNL     1      44.192 128.741  22.905  1.00  0.00    -0.018 A 
ATOM     15  C   UNL     1      43.102 129.444  23.451  1.00  0.00     0.009 A 
ATOM     16  C   UNL     1      45.006 129.379  21.950  1.00  0.00     0.015 A 
ATOM     17  C   UNL     1      42.830 130.752  23.046  1.00  0.00     0.001 A 
ATOM     18  C   UNL     1      44.743 130.700  21.556  1.00  0.00    -0.016 A 
ATOM     19  C   UNL     1      43.642 131.378  22.099  1.00  0.00     0.006 A 
BRANCH  18  20
ATOM     20  C   UNL     1      45.590 131.362  20.510  1.00  0.00     0.174 C 
ATOM     21  O   UNL     1      44.867 132.338  19.793  1.00  0.00    -0.368 OA
ATOM     22  C   UNL     1      45.174 131.148  19.104  1.00  0.00     0.198 C 
ENDBRANCH  18  20
ENDBRANCH   6  14
TORSDOF 4
ENDMDL
MODEL 5
REMARK VINA RESULT:      -6.4      5.673      7.762
REMARK SMILES [N-]=[N+]=Nc1nccc2ccc(-c3cccc([C@H]4CO4)c3)cc12
REMARK SMILES IDX 6 1 5 2 4 3 22 4 21 5 11 6 10 7 9 8 8 9 7 10 3 11 2 12 1 13
REMARK SMILES IDX 12 14 13 15 20 16 14 17 16 18 15 19 17 20 19 21 18 22
REMARK H PARENT
ROOT
ATOM      1  C   UNL     1      44.370 122.375  23.236  1.00  0.00     0.112 A 
ATOM      2  N   UNL     1      43.123 122.788  22.894  1.00  0.00    -0.254 NA
ATOM      3  C   UNL     1      42.798 124.107  22.782  1.00  0.00     0.134 A 
ATOM      4  C   UNL     1      43.780 125.090  23.026  1.00  0.00     0.010 A 
ATOM      5  C   UNL     1      43.497 126.465  22.923  1.00  0.00     0.019 A 
ATOM      6  C   UNL     1      44.496 127.424  23.171  1.00  0.00    -0.018 A 
ATOM      7  C   UNL     1      45.786 126.993  23.524  1.00  0.00     0.009 A 
ATOM      8  C   UNL     1      46.078 125.632  23.628  1.00  0.00     0.009 A 
ATOM      9  C   UNL     1      45.085 124.675  23.383  1.00  0.00    -0.015 A 
ATOM     10  C   UNL     1      45.374 123.309  23.487  1.00  0.00     0.029 A 
ENDROOT
BRANCH   3  11
ATOM     11  N   UNL     1      41.464 124.483  22.418  1.00  0.00    -0.040 NA
BRANCH  11  12
ATOM     12  N   UNL     1      40.503 123.753  22.659  1.00  0.00     0.007 N 
ATOM     13  N   UNL     1      39.542 123.023  22.900  1.00  0.00    -0.003 NA
ENDBRANCH  11  12
ENDBRANCH   3  11
BRANCH   6  14
ATOM     14  C   UNL     1      44.191 128.874  23.062  1.00  0.00    -0.018 A 
ATOM     15  C   UNL     1      43.404 129.514  24.037  1.00  0.00     0.009 A 
ATOM     16  C   UNL     1      44.685 129.628  21.981  1.00  0.00     0.015 A 
ATOM     17  C   UNL     1      43.113 130.876  23.929  1.00  0.00     0.001 A 
ATOM     18  C   UNL     1      44.407 131.001  21.882  1.00  0.00    -0.016 A 
ATOM     19  C   UNL     1      43.607 131.616  22.853  1.00  0.00     0.006 A 
BRANCH  18  20
ATOM     20  C   UNL     1      44.904 131.791  20.708  1.00  0.00     0.174 C 
ATOM     21  O   UNL     1      44.171 131.503  19.537  1.00  0.00    -0.368 OA
ATOM     22  C   UNL     1      45.488 131.006  19.595  1.00  0.00     0.198 C 
ENDBRANCH  18  20
ENDBRANCH   6  14
TORSDOF 4
ENDMDL
MODEL 6
REMARK VINA RESULT:      -6.3      2.466      3.271
REMARK SMILES [N-]=[N+]=Nc1nccc2ccc(-c3cccc([C@H]4CO4)c3)cc12
REMARK SMILES IDX 6 1 5 2 4 3 22 4 21 5 11 6 10 7 9 8 8 9 7 10 3 11 2 12 1 13
REMARK SMILES IDX 12 14 13 15 20 16 14 17 16 18 15 19 17 20 19 21 18 22
REMARK H PARENT
ROOT
ATOM      1  C   UNL     1      43.866 130.804  23.647  1.00  0.00     0.112 A 
ATOM      2  N   UNL     1      44.615 129.763  23.203  1.00  0.00    -0.254 NA
ATOM      3  C   UNL     1      44.898 129.581  21.882  1.00  0.00     0.134 A 
ATOM      4  C   UNL     1      44.404 130.499  20.931  1.00  0.00     0.010 A 
ATOM      5  C   UNL     1      44.670 130.359  19.556  1.00  0.00     0.019 A 
ATOM      6  C   UNL     1      44.165 131.290  18.629  1.00  0.00    -0.018 A 
ATOM      7  C   UNL     1      43.392 132.367  19.093  1.00  0.00     0.009 A 
ATOM      8  C   UNL     1      43.123 132.517  20.455  1.00  0.00     0.009 A 
ATOM      9  C   UNL     1      43.623 131.591  21.379  1.00  0.00    -0.015 A 
ATOM     10  C   UNL     1      43.356 131.737  22.746  1.00  0.00     0.029 A 
ENDROOT
BRANCH   3  11
ATOM     11  N   UNL     1      45.693 128.463  21.471  1.00  0.00    -0.040 NA
BRANCH  11  12
ATOM     12  N   UNL     1      45.611 127.374  22.040  1.00  0.00     0.007 N 
ATOM     13  N   UNL     1      45.529 126.286  22.609  1.00  0.00    -0.003 NA
ENDBRANCH  11  12
ENDBRANCH   3  11
BRANCH   6  14
ATOM     14  C   UNL     1      44.447 131.136  17.179  1.00  0.00    -0.018 A 
ATOM     15  C   UNL     1      43.698 131.851  16.226  1.00  0.00     0.009 A 
ATOM     16  C   UNL     1      45.465 130.271  16.736  1.00  0.00     0.015 A 
ATOM     17  C   UNL     1      43.959 131.700  14.862  1.00  0.00     0.001 A 
ATOM     18  C   UNL     1      45.739 130.132  15.366  1.00  0.00    -0.016 A 
ATOM     19  C   UNL     1      44.971 130.840  14.432  1.00  0.00     0.006 A 
BRANCH  18  20
ATOM     20  C   UNL     1      46.799 129.180  14.899  1.00  0.00     0.174 C 
ATOM     21  O   UNL     1      48.095 129.680  15.146  1.00  0.00    -0.368 OA
ATOM     22  C   UNL     1      47.671 129.663  13.803  1.00  0.00     0.198 C 
ENDBRANCH  18  20
ENDBRANCH   6  14
TORSDOF 4
ENDMDL
MODEL 7
REMARK VINA RESULT:      -5.9      2.494      3.681
REMARK SMILES [N-]=[N+]=Nc1nccc2ccc(-c3cccc([C@H]4CO4)c3)cc12
REMARK SMILES IDX 6 1 5 2 4 3 22 4 21 5 11 6 10 7 9 8 8 9 7 10 3 11 2 12 1 13
REMARK SMILES IDX 12 14 13 15 20 16 14 17 16 18 15 19 17 20 19 21 18 22
REMARK H PARENT
ROOT
ATOM      1  C   UNL     1      42.159 131.879  23.846  1.00  0.00     0.112 A 
ATOM      2  N   UNL     1      43.100 130.901  23.877  1.00  0.00    -0.254 NA
ATOM      3  C   UNL     1      43.784 130.514  22.763  1.00  0.00     0.134 A 
ATOM      4  C   UNL     1      43.518 131.142  21.528  1.00  0.00     0.010 A 
ATOM      5  C   UNL     1      44.197 130.781  20.350  1.00  0.00     0.019 A 
ATOM      6  C   UNL     1      43.912 131.425  19.132  1.00  0.00    -0.018 A 
ATOM      7  C   UNL     1      42.939 132.439  19.104  1.00  0.00     0.009 A 
ATOM      8  C   UNL     1      42.260 132.805  20.268  1.00  0.00     0.009 A 
ATOM      9  C   UNL     1      42.540 132.164  21.481  1.00  0.00    -0.015 A 
ATOM     10  C   UNL     1      41.861 132.529  22.651  1.00  0.00     0.029 A 
ENDROOT
BRANCH   3  11
ATOM     11  N   UNL     1      44.765 129.475  22.856  1.00  0.00    -0.040 NA
BRANCH  11  12
ATOM     12  N   UNL     1      44.440 128.292  22.970  1.00  0.00     0.007 N 
ATOM     13  N   UNL     1      44.114 127.112  23.085  1.00  0.00    -0.003 NA
ENDBRANCH  11  12
ENDBRANCH   3  11
BRANCH   6  14
ATOM     14  C   UNL     1      44.630 131.040  17.890  1.00  0.00    -0.018 A 
ATOM     15  C   UNL     1      45.838 130.322  17.957  1.00  0.00     0.009 A 
ATOM     16  C   UNL     1      44.113 131.389  16.628  1.00  0.00     0.015 A 
ATOM     17  C   UNL     1      46.516 129.967  16.788  1.00  0.00     0.001 A 
ATOM     18  C   UNL     1      44.785 131.016  15.453  1.00  0.00    -0.016 A 
ATOM     19  C   UNL     1      45.996 130.317  15.540  1.00  0.00     0.006 A 
BRANCH  18  20
ATOM     20  C   UNL     1      44.249 131.424  14.113  1.00  0.00     0.174 C 
ATOM     21  O   UNL     1      43.180 132.336  14.233  1.00  0.00    -0.368 OA
ATOM     22  C   UNL     1      42.850 131.029  13.823  1.00  0.00     0.198 C 
ENDBRANCH  18  20
ENDBRANCH   6  14
TORSDOF 4
ENDMDL
MODEL 8
REMARK VINA RESULT:      -5.6      5.850      8.281
REMARK SMILES [N-]=[N+]=Nc1nccc2ccc(-c3cccc([C@H]4CO4)c3)cc12
REMARK SMILES IDX 6 1 5 2 4 3 22 4 21 5 11 6 10 7 9 8 8 9 7 10 3 11 2 12 1 13
REMARK SMILES IDX 12 14 13 15 20 16 14 17 16 18 15 19 17 20 19 21 18 22
REMARK H PARENT
ROOT
ATOM      1  C   UNL     1      43.345 123.089  23.927  1.00  0.00     0.112 A 
ATOM      2  N   UNL     1      44.565 123.608  23.633  1.00  0.00    -0.254 NA
ATOM      3  C   UNL     1      44.769 124.947  23.480  1.00  0.00     0.134 A 
ATOM      4  C   UNL     1      43.687 125.839  23.632  1.00  0.00     0.010 A 
ATOM      5  C   UNL     1      43.844 127.230  23.487  1.00  0.00     0.019 A 
ATOM      6  C   UNL     1      42.747 128.096  23.645  1.00  0.00    -0.018 A 
ATOM      7  C   UNL     1      41.486 127.556  23.951  1.00  0.00     0.009 A 
ATOM      8  C   UNL     1      41.319 126.178  24.098  1.00  0.00     0.009 A 
ATOM      9  C   UNL     1      42.409 125.313  23.940  1.00  0.00    -0.015 A 
ATOM     10  C   UNL     1      42.245 123.930  24.087  1.00  0.00     0.029 A 
ENDROOT
BRANCH   3  11
ATOM     11  N   UNL     1      46.079 125.437  23.169  1.00  0.00    -0.040 NA
BRANCH  11  12
ATOM     12  N   UNL     1      47.074 125.037  23.773  1.00  0.00     0.007 N 
ATOM     13  N   UNL     1      48.069 124.638  24.377  1.00  0.00    -0.003 NA
ENDBRANCH  11  12
ENDBRANCH   3  11
BRANCH   6  14
ATOM     14  C   UNL     1      42.918 129.564  23.489  1.00  0.00    -0.018 A 
ATOM     15  C   UNL     1      42.941 130.404  24.617  1.00  0.00     0.009 A 
ATOM     16  C   UNL     1      43.057 130.135  22.210  1.00  0.00     0.015 A 
ATOM     17  C   UNL     1      43.095 131.785  24.468  1.00  0.00     0.001 A 
ATOM     18  C   UNL     1      43.228 131.520  22.061  1.00  0.00    -0.016 A 
ATOM     19  C   UNL     1      43.232 132.343  23.195  1.00  0.00     0.006 A 
BRANCH  18  20
ATOM     20  C   UNL     1      43.337 132.127  20.694  1.00  0.00     0.174 C 
ATOM     21  O   UNL     1      42.181 132.859  20.353  1.00  0.00    -0.368 OA
ATOM     22  C   UNL     1      42.372 131.635  19.683  1.00  0.00     0.198 C 
ENDBRANCH  18  20
ENDBRANCH   6  14
TORSDOF 4
ENDMDL
MODEL 9
REMARK VINA RESULT:      -5.5      6.236      8.496
REMARK SMILES [N-]=[N+]=Nc1nccc2ccc(-c3cccc([C@H]4CO4)c3)cc12
REMARK SMILES IDX 6 1 5 2 4 3 22 4 21 5 11 6 10 7 9 8 8 9 7 10 3 11 2 12 1 13
REMARK SMILES IDX 12 14 13 15 20 16 14 17 16 18 15 19 17 20 19 21 18 22
REMARK H PARENT
ROOT
ATOM      1  C   UNL     1      44.979 122.566  23.562  1.00  0.00     0.112 A 
ATOM      2  N   UNL     1      45.984 122.906  22.716  1.00  0.00    -0.254 NA
ATOM      3  C   UNL     1      46.164 124.184  22.276  1.00  0.00     0.134 A 
ATOM      4  C   UNL     1      45.284 125.199  22.706  1.00  0.00     0.010 A 
ATOM      5  C   UNL     1      45.426 126.534  22.283  1.00  0.00     0.019 A 
ATOM      6  C   UNL     1      44.535 127.527  22.728  1.00  0.00    -0.018 A 
ATOM      7  C   UNL     1      43.496 127.171  23.606  1.00  0.00     0.009 A 
ATOM      8  C   UNL     1      43.346 125.850  24.032  1.00  0.00     0.009 A 
ATOM      9  C   UNL     1      44.232 124.859  23.589  1.00  0.00    -0.015 A 
ATOM     10  C   UNL     1      44.085 123.533  24.015  1.00  0.00     0.029 A 
ENDROOT
BRANCH   3  11
ATOM     11  N   UNL     1      47.242 124.484  21.382  1.00  0.00    -0.040 NA
BRANCH  11  12
ATOM     12  N   UNL     1      48.402 124.584  21.786  1.00  0.00     0.007 N 
ATOM     13  N   UNL     1      49.559 124.683  22.189  1.00  0.00    -0.003 NA
ENDBRANCH  11  12
ENDBRANCH   3  11
BRANCH   6  14
ATOM     14  C   UNL     1      44.688 128.934  22.278  1.00  0.00    -0.018 A 
ATOM     15  C   UNL     1      45.442 129.238  21.129  1.00  0.00     0.009 A 
ATOM     16  C   UNL     1      44.084 129.984  22.995  1.00  0.00     0.015 A 
ATOM     17  C   UNL     1      45.591 130.563  20.711  1.00  0.00     0.001 A 
ATOM     18  C   UNL     1      44.219 131.313  22.565  1.00  0.00    -0.016 A 
ATOM     19  C   UNL     1      44.988 131.598  21.428  1.00  0.00     0.006 A 
BRANCH  18  20
ATOM     20  C   UNL     1      43.605 132.431  23.354  1.00  0.00     0.174 C 
ATOM     21  O   UNL     1      44.202 132.562  24.625  1.00  0.00    -0.368 OA
ATOM     22  C   UNL     1      42.895 132.039  24.594  1.00  0.00     0.198 C 
ENDBRANCH  18  20
ENDBRANCH   6  14
TORSDOF 4
ENDMDL


