MODEL 1
REMARK VINA RESULT:      -8.7      0.000      0.000
REMARK SMILES Cc1ccc(N[C@@H]2CCC[C@@H](N)[C@@]2(O)F)cc1
REMARK SMILES IDX 7 1 8 2 9 3 10 4 11 5 13 6 15 7 6 8 5 10 2 11 3 12 17 13
REMARK SMILES IDX 4 14 16 15 1 16 14 17 12 19
REMARK H PARENT 6 9 14 18 12 20 12 21
ROOT
ATOM      1  C   UNL     1      45.772 130.956  16.790  1.00  0.00     0.145 C 
ATOM      2  C   UNL     1      44.282 131.281  16.570  1.00  0.00     0.031 C 
ATOM      3  C   UNL     1      44.037 131.836  15.163  1.00  0.00     0.004 C 
ATOM      4  C   UNL     1      44.533 130.860  14.087  1.00  0.00     0.025 C 
ATOM      5  C   UNL     1      46.007 130.441  14.291  1.00  0.00     0.118 C 
ATOM      6  C   UNL     1      46.272 129.938  15.734  1.00  0.00     0.242 C 
ATOM      7  F   UNL     1      47.637 129.746  15.900  1.00  0.00    -0.208 F 
ENDROOT
BRANCH   1   8
ATOM      8  N   UNL     1      45.967 130.422  18.146  1.00  0.00    -0.377 N 
ATOM      9  H   UNL     1      46.772 129.771  18.294  1.00  0.00     0.161 HD
BRANCH   8  10
ATOM     10  C   UNL     1      45.184 130.781  19.304  1.00  0.00     0.034 A 
ATOM     11  C   UNL     1      43.697 131.417  21.619  1.00  0.00    -0.051 A 
ATOM     12  C   UNL     1      44.798 130.554  21.699  1.00  0.00     0.005 A 
ATOM     13  C   UNL     1      43.356 131.982  20.383  1.00  0.00     0.005 A 
ATOM     14  C   UNL     1      45.529 130.235  20.552  1.00  0.00     0.026 A 
ATOM     15  C   UNL     1      44.086 131.664  19.233  1.00  0.00     0.026 A 
ATOM     16  C   UNL     1      42.937 131.790  22.857  1.00  0.00     0.044 C 
ENDBRANCH   8  10
ENDBRANCH   1   8
BRANCH   6  17
ATOM     17  O   UNL     1      45.612 128.711  15.935  1.00  0.00    -0.359 OA
ATOM     18  H   UNL     1      46.019 128.053  15.313  1.00  0.00     0.214 HD
ENDBRANCH   6  17
BRANCH   5  19
ATOM     19  N   UNL     1      46.938 131.518  13.931  1.00  0.00    -0.323 NA
ATOM     20  H   UNL     1      47.910 131.132  13.926  1.00  0.00     0.119 HD
ATOM     21  H   UNL     1      46.741 131.866  12.966  1.00  0.00     0.119 HD
ENDBRANCH   5  19
TORSDOF 4
ENDMDL
MODEL 2
REMARK VINA RESULT:      -8.6      0.174      1.186
REMARK SMILES Cc1ccc(N[C@@H]2CCC[C@@H](N)[C@@]2(O)F)cc1
REMARK SMILES IDX 7 1 8 2 9 3 10 4 11 5 13 6 15 7 6 8 5 10 2 11 3 12 17 13
REMARK SMILES IDX 4 14 16 15 1 16 14 17 12 19
REMARK H PARENT 6 9 14 18 12 20 12 21
ROOT
ATOM      1  C   UNL     1      45.861 130.906  16.686  1.00  0.00     0.145 C 
ATOM      2  C   UNL     1      44.368 131.233  16.488  1.00  0.00     0.031 C 
ATOM      3  C   UNL     1      44.111 131.834  15.103  1.00  0.00     0.004 C 
ATOM      4  C   UNL     1      44.602 130.897  13.991  1.00  0.00     0.025 C 
ATOM      5  C   UNL     1      46.079 130.477  14.169  1.00  0.00     0.118 C 
ATOM      6  C   UNL     1      46.356 129.926  15.593  1.00  0.00     0.242 C 
ATOM      7  F   UNL     1      47.723 129.734  15.742  1.00  0.00    -0.208 F 
ENDROOT
BRANCH   1   8
ATOM      8  N   UNL     1      46.067 130.327  18.021  1.00  0.00    -0.377 N 
ATOM      9  H   UNL     1      46.846 129.637  18.130  1.00  0.00     0.161 HD
BRANCH   8  10
ATOM     10  C   UNL     1      45.333 130.689  19.210  1.00  0.00     0.034 A 
ATOM     11  C   UNL     1      43.853 131.463  21.487  1.00  0.00    -0.051 A 
ATOM     12  C   UNL     1      43.534 131.982  20.225  1.00  0.00     0.005 A 
ATOM     13  C   UNL     1      44.898 130.537  21.605  1.00  0.00     0.005 A 
ATOM     14  C   UNL     1      44.271 131.602  19.100  1.00  0.00     0.026 A 
ATOM     15  C   UNL     1      45.637 130.156  20.480  1.00  0.00     0.026 A 
ATOM     16  C   UNL     1      43.037 131.840  22.688  1.00  0.00     0.044 C 
ENDBRANCH   8  10
ENDBRANCH   1   8
BRANCH   6  17
ATOM     17  O   UNL     1      45.702 128.690  15.756  1.00  0.00    -0.359 OA
ATOM     18  H   UNL     1      46.029 128.295  16.606  1.00  0.00     0.214 HD
ENDBRANCH   6  17
BRANCH   5  19
ATOM     19  N   UNL     1      47.003 131.569  13.839  1.00  0.00    -0.323 NA
ATOM     20  H   UNL     1      47.688 131.223  13.128  1.00  0.00     0.119 HD
ATOM     21  H   UNL     1      46.489 132.368  13.406  1.00  0.00     0.119 HD
ENDBRANCH   5  19
TORSDOF 4
ENDMDL
MODEL 3
REMARK VINA RESULT:      -8.6      2.451      6.110
REMARK SMILES Cc1ccc(N[C@@H]2CCC[C@@H](N)[C@@]2(O)F)cc1
REMARK SMILES IDX 7 1 8 2 9 3 10 4 11 5 13 6 15 7 6 8 5 10 2 11 3 12 17 13
REMARK SMILES IDX 4 14 16 15 1 16 14 17 12 19
REMARK H PARENT 6 9 14 18 12 20 12 21
ROOT
ATOM      1  C   UNL     1      44.268 131.457  19.299  1.00  0.00     0.145 C 
ATOM      2  C   UNL     1      42.956 132.091  19.801  1.00  0.00     0.031 C 
ATOM      3  C   UNL     1      42.499 131.452  21.116  1.00  0.00     0.004 C 
ATOM      4  C   UNL     1      43.587 131.559  22.193  1.00  0.00     0.025 C 
ATOM      5  C   UNL     1      44.950 130.999  21.726  1.00  0.00     0.118 C 
ATOM      6  C   UNL     1      45.386 131.599  20.363  1.00  0.00     0.242 C 
ATOM      7  F   UNL     1      46.520 130.931  19.921  1.00  0.00    -0.208 F 
ENDROOT
BRANCH   1   8
ATOM      8  N   UNL     1      44.677 132.099  18.042  1.00  0.00    -0.377 N 
ATOM      9  H   UNL     1      44.460 133.116  17.929  1.00  0.00     0.161 HD
BRANCH   8  10
ATOM     10  C   UNL     1      45.420 131.460  16.982  1.00  0.00     0.034 A 
ATOM     11  C   UNL     1      46.860 130.286  14.856  1.00  0.00    -0.051 A 
ATOM     12  C   UNL     1      46.509 131.642  14.810  1.00  0.00     0.005 A 
ATOM     13  C   UNL     1      46.511 129.524  15.978  1.00  0.00     0.005 A 
ATOM     14  C   UNL     1      45.791 132.220  15.860  1.00  0.00     0.026 A 
ATOM     15  C   UNL     1      45.792 130.100  17.031  1.00  0.00     0.026 A 
ATOM     16  C   UNL     1      47.665 129.675  13.747  1.00  0.00     0.044 C 
ENDBRANCH   8  10
ENDBRANCH   1   8
BRANCH   6  17
ATOM     17  O   UNL     1      45.694 132.963  20.524  1.00  0.00    -0.359 OA
ATOM     18  H   UNL     1      45.589 133.395  19.637  1.00  0.00     0.214 HD
ENDBRANCH   6  17
BRANCH   5  19
ATOM     19  N   UNL     1      44.954 129.532  21.681  1.00  0.00    -0.323 NA
ATOM     20  H   UNL     1      44.397 129.222  20.851  1.00  0.00     0.119 HD
ATOM     21  H   UNL     1      45.925 129.171  21.551  1.00  0.00     0.119 HD
ENDBRANCH   5  19
TORSDOF 4
ENDMDL
MODEL 4
REMARK VINA RESULT:      -8.6      2.646      5.963
REMARK SMILES Cc1ccc(N[C@@H]2CCC[C@@H](N)[C@@]2(O)F)cc1
REMARK SMILES IDX 7 1 8 2 9 3 10 4 11 5 13 6 15 7 6 8 5 10 2 11 3 12 17 13
REMARK SMILES IDX 4 14 16 15 1 16 14 17 12 19
REMARK H PARENT 6 9 14 18 12 20 12 21
ROOT
ATOM      1  C   UNL     1      44.378 130.850  19.078  1.00  0.00     0.145 C 
ATOM      2  C   UNL     1      43.518 131.678  18.102  1.00  0.00     0.031 C 
ATOM      3  C   UNL     1      42.150 132.004  18.708  1.00  0.00     0.004 C 
ATOM      4  C   UNL     1      42.296 132.743  20.045  1.00  0.00     0.025 C 
ATOM      5  C   UNL     1      43.204 131.994  21.048  1.00  0.00     0.118 C 
ATOM      6  C   UNL     1      44.568 131.607  20.417  1.00  0.00     0.242 C 
ATOM      7  F   UNL     1      45.258 130.793  21.305  1.00  0.00    -0.208 F 
ENDROOT
BRANCH   1   8
ATOM      8  N   UNL     1      45.683 130.562  18.466  1.00  0.00    -0.377 N 
ATOM      9  H   UNL     1      46.423 130.156  19.084  1.00  0.00     0.161 HD
BRANCH   8  10
ATOM     10  C   UNL     1      46.002 130.723  17.068  1.00  0.00     0.034 A 
ATOM     11  C   UNL     1      46.669 130.954  14.334  1.00  0.00    -0.051 A 
ATOM     12  C   UNL     1      46.838 129.735  15.003  1.00  0.00     0.005 A 
ATOM     13  C   UNL     1      46.141 132.051  15.027  1.00  0.00     0.005 A 
ATOM     14  C   UNL     1      46.513 129.624  16.358  1.00  0.00     0.026 A 
ATOM     15  C   UNL     1      45.816 131.942  16.383  1.00  0.00     0.026 A 
ATOM     16  C   UNL     1      46.979 131.063  12.871  1.00  0.00     0.044 C 
ENDBRANCH   8  10
ENDBRANCH   1   8
BRANCH   6  17
ATOM     17  O   UNL     1      45.326 132.770  20.181  1.00  0.00    -0.359 OA
ATOM     18  H   UNL     1      45.219 133.356  20.975  1.00  0.00     0.214 HD
ENDBRANCH   6  17
BRANCH   5  19
ATOM     19  N   UNL     1      42.536 130.818  21.619  1.00  0.00    -0.323 NA
ATOM     20  H   UNL     1      41.515 130.872  21.395  1.00  0.00     0.119 HD
ATOM     21  H   UNL     1      42.900 129.942  21.185  1.00  0.00     0.119 HD
ENDBRANCH   5  19
TORSDOF 4
ENDMDL
MODEL 5
REMARK VINA RESULT:      -8.5      1.549      2.087
REMARK SMILES Cc1ccc(N[C@@H]2CCC[C@@H](N)[C@@]2(O)F)cc1
REMARK SMILES IDX 7 1 8 2 9 3 10 4 11 5 13 6 15 7 6 8 5 10 2 11 3 12 17 13
REMARK SMILES IDX 4 14 16 15 1 16 14 17 12 19
REMARK H PARENT 6 9 14 18 12 20 12 21
ROOT
ATOM      1  C   UNL     1      45.662 131.394  16.323  1.00  0.00     0.145 C 
ATOM      2  C   UNL     1      45.806 132.348  15.121  1.00  0.00     0.031 C 
ATOM      3  C   UNL     1      46.997 131.956  14.241  1.00  0.00     0.004 C 
ATOM      4  C   UNL     1      46.876 130.505  13.757  1.00  0.00     0.025 C 
ATOM      5  C   UNL     1      46.662 129.502  14.914  1.00  0.00     0.118 C 
ATOM      6  C   UNL     1      45.495 129.930  15.843  1.00  0.00     0.242 C 
ATOM      7  F   UNL     1      45.471 129.090  16.948  1.00  0.00    -0.208 F 
ENDROOT
BRANCH   1   8
ATOM      8  N   UNL     1      44.508 131.797  17.139  1.00  0.00    -0.377 N 
ATOM      9  H   UNL     1      43.681 132.196  16.636  1.00  0.00     0.161 HD
BRANCH   8  10
ATOM     10  C   UNL     1      44.391 131.619  18.566  1.00  0.00     0.034 A 
ATOM     11  C   UNL     1      44.080 131.311  21.355  1.00  0.00    -0.051 A 
ATOM     12  C   UNL     1      42.995 131.704  20.561  1.00  0.00     0.005 A 
ATOM     13  C   UNL     1      45.315 131.048  20.749  1.00  0.00     0.005 A 
ATOM     14  C   UNL     1      43.152 131.862  19.181  1.00  0.00     0.026 A 
ATOM     15  C   UNL     1      45.475 131.206  19.369  1.00  0.00     0.026 A 
ATOM     16  C   UNL     1      43.901 131.103  22.830  1.00  0.00     0.044 C 
ENDBRANCH   8  10
ENDBRANCH   1   8
BRANCH   6  17
ATOM     17  O   UNL     1      44.274 129.811  15.153  1.00  0.00    -0.359 OA
ATOM     18  H   UNL     1      44.487 129.761  14.185  1.00  0.00     0.214 HD
ENDBRANCH   6  17
BRANCH   5  19
ATOM     19  N   UNL     1      47.893 129.282  15.683  1.00  0.00    -0.323 NA
ATOM     20  H   UNL     1      48.669 129.062  15.015  1.00  0.00     0.119 HD
ATOM     21  H   UNL     1      48.166 130.149  16.196  1.00  0.00     0.119 HD
ENDBRANCH   5  19
TORSDOF 4
ENDMDL
MODEL 6
REMARK VINA RESULT:      -8.5      1.558      1.845
REMARK SMILES Cc1ccc(N[C@@H]2CCC[C@@H](N)[C@@]2(O)F)cc1
REMARK SMILES IDX 7 1 8 2 9 3 10 4 11 5 13 6 15 7 6 8 5 10 2 11 3 12 17 13
REMARK SMILES IDX 4 14 16 15 1 16 14 17 12 19
REMARK H PARENT 6 9 14 18 12 20 12 21
ROOT
ATOM      1  C   UNL     1      45.612 131.410  16.306  1.00  0.00     0.145 C 
ATOM      2  C   UNL     1      45.762 132.321  15.072  1.00  0.00     0.031 C 
ATOM      3  C   UNL     1      46.968 131.909  14.222  1.00  0.00     0.004 C 
ATOM      4  C   UNL     1      46.866 130.440  13.789  1.00  0.00     0.025 C 
ATOM      5  C   UNL     1      46.648 129.478  14.979  1.00  0.00     0.118 C 
ATOM      6  C   UNL     1      45.466 129.928  15.878  1.00  0.00     0.242 C 
ATOM      7  F   UNL     1      45.435 129.129  17.013  1.00  0.00    -0.208 F 
ENDROOT
BRANCH   1   8
ATOM      8  N   UNL     1      44.444 131.831  17.093  1.00  0.00    -0.377 N 
ATOM      9  H   UNL     1      43.634 132.237  16.569  1.00  0.00     0.161 HD
BRANCH   8  10
ATOM     10  C   UNL     1      44.292 131.661  18.518  1.00  0.00     0.034 A 
ATOM     11  C   UNL     1      44.079 131.289  21.309  1.00  0.00    -0.051 A 
ATOM     12  C   UNL     1      45.300 131.074  20.657  1.00  0.00     0.005 A 
ATOM     13  C   UNL     1      42.970 131.714  20.566  1.00  0.00     0.005 A 
ATOM     14  C   UNL     1      45.403 131.253  19.274  1.00  0.00     0.026 A 
ATOM     15  C   UNL     1      43.069 131.894  19.182  1.00  0.00     0.026 A 
ATOM     16  C   UNL     1      43.979 131.136  22.797  1.00  0.00     0.044 C 
ENDBRANCH   8  10
ENDBRANCH   1   8
BRANCH   6  17
ATOM     17  O   UNL     1      44.255 129.772  15.178  1.00  0.00    -0.359 OA
ATOM     18  H   UNL     1      44.321 128.928  14.659  1.00  0.00     0.214 HD
ENDBRANCH   6  17
BRANCH   5  19
ATOM     19  N   UNL     1      47.871 129.298  15.771  1.00  0.00    -0.323 NA
ATOM     20  H   UNL     1      47.973 130.114  16.418  1.00  0.00     0.119 HD
ATOM     21  H   UNL     1      47.803 128.442  16.364  1.00  0.00     0.119 HD
ENDBRANCH   5  19
TORSDOF 4
ENDMDL
MODEL 7
REMARK VINA RESULT:      -8.5      2.423      5.987
REMARK SMILES Cc1ccc(N[C@@H]2CCC[C@@H](N)[C@@]2(O)F)cc1
REMARK SMILES IDX 7 1 8 2 9 3 10 4 11 5 13 6 15 7 6 8 5 10 2 11 3 12 17 13
REMARK SMILES IDX 4 14 16 15 1 16 14 17 12 19
REMARK H PARENT 6 9 14 18 12 20 12 21
ROOT
ATOM      1  C   UNL     1      44.252 131.459  19.151  1.00  0.00     0.145 C 
ATOM      2  C   UNL     1      42.928 132.055  19.667  1.00  0.00     0.031 C 
ATOM      3  C   UNL     1      42.514 131.416  20.997  1.00  0.00     0.004 C 
ATOM      4  C   UNL     1      43.615 131.572  22.054  1.00  0.00     0.025 C 
ATOM      5  C   UNL     1      44.988 131.051  21.571  1.00  0.00     0.118 C 
ATOM      6  C   UNL     1      45.382 131.649  20.195  1.00  0.00     0.242 C 
ATOM      7  F   UNL     1      46.530 131.013  19.741  1.00  0.00    -0.208 F 
ENDROOT
BRANCH   1   8
ATOM      8  N   UNL     1      44.620 132.099  17.880  1.00  0.00    -0.377 N 
ATOM      9  H   UNL     1      44.333 133.096  17.744  1.00  0.00     0.161 HD
BRANCH   8  10
ATOM     10  C   UNL     1      45.407 131.489  16.835  1.00  0.00     0.034 A 
ATOM     11  C   UNL     1      46.956 130.219  14.845  1.00  0.00    -0.051 A 
ATOM     12  C   UNL     1      46.481 129.492  15.944  1.00  0.00     0.005 A 
ATOM     13  C   UNL     1      46.633 131.577  14.729  1.00  0.00     0.005 A 
ATOM     14  C   UNL     1      45.720 130.122  16.932  1.00  0.00     0.026 A 
ATOM     15  C   UNL     1      45.872 132.211  15.716  1.00  0.00     0.026 A 
ATOM     16  C   UNL     1      47.739 129.533  13.765  1.00  0.00     0.044 C 
ENDBRANCH   8  10
ENDBRANCH   1   8
BRANCH   6  17
ATOM     17  O   UNL     1      45.647 133.024  20.335  1.00  0.00    -0.359 OA
ATOM     18  H   UNL     1      45.723 133.404  19.421  1.00  0.00     0.214 HD
ENDBRANCH   6  17
BRANCH   5  19
ATOM     19  N   UNL     1      45.039 129.585  21.542  1.00  0.00    -0.323 NA
ATOM     20  H   UNL     1      46.017 129.289  21.313  1.00  0.00     0.119 HD
ATOM     21  H   UNL     1      44.811 129.190  22.481  1.00  0.00     0.119 HD
ENDBRANCH   5  19
TORSDOF 4
ENDMDL
MODEL 8
REMARK VINA RESULT:      -8.4      2.635      6.031
REMARK SMILES Cc1ccc(N[C@@H]2CCC[C@@H](N)[C@@]2(O)F)cc1
REMARK SMILES IDX 7 1 8 2 9 3 10 4 11 5 13 6 15 7 6 8 5 10 2 11 3 12 17 13
REMARK SMILES IDX 4 14 16 15 1 16 14 17 12 19
REMARK H PARENT 6 9 14 18 12 20 12 21
ROOT
ATOM      1  C   UNL     1      44.387 130.831  19.039  1.00  0.00     0.145 C 
ATOM      2  C   UNL     1      43.538 131.651  18.049  1.00  0.00     0.031 C 
ATOM      3  C   UNL     1      42.166 131.988  18.641  1.00  0.00     0.004 C 
ATOM      4  C   UNL     1      42.305 132.740  19.971  1.00  0.00     0.025 C 
ATOM      5  C   UNL     1      43.202 131.999  20.988  1.00  0.00     0.118 C 
ATOM      6  C   UNL     1      44.570 131.601  20.372  1.00  0.00     0.242 C 
ATOM      7  F   UNL     1      45.251 130.793  21.273  1.00  0.00    -0.208 F 
ENDROOT
BRANCH   1   8
ATOM      8  N   UNL     1      45.696 130.532  18.440  1.00  0.00    -0.377 N 
ATOM      9  H   UNL     1      46.441 130.163  19.074  1.00  0.00     0.161 HD
BRANCH   8  10
ATOM     10  C   UNL     1      46.013 130.636  17.036  1.00  0.00     0.034 A 
ATOM     11  C   UNL     1      46.598 130.926  14.288  1.00  0.00    -0.051 A 
ATOM     12  C   UNL     1      46.171 132.027  15.041  1.00  0.00     0.005 A 
ATOM     13  C   UNL     1      46.756 129.684  14.917  1.00  0.00     0.005 A 
ATOM     14  C   UNL     1      45.876 131.882  16.400  1.00  0.00     0.026 A 
ATOM     15  C   UNL     1      46.462 129.535  16.277  1.00  0.00     0.026 A 
ATOM     16  C   UNL     1      46.952 131.091  12.841  1.00  0.00     0.044 C 
ENDBRANCH   8  10
ENDBRANCH   1   8
BRANCH   6  17
ATOM     17  O   UNL     1      45.333 132.758  20.130  1.00  0.00    -0.359 OA
ATOM     18  H   UNL     1      45.639 133.099  21.011  1.00  0.00     0.214 HD
ENDBRANCH   6  17
BRANCH   5  19
ATOM     19  N   UNL     1      42.527 130.831  21.567  1.00  0.00    -0.323 NA
ATOM     20  H   UNL     1      43.156 130.404  22.286  1.00  0.00     0.119 HD
ATOM     21  H   UNL     1      41.651 131.119  22.058  1.00  0.00     0.119 HD
ENDBRANCH   5  19
TORSDOF 4
ENDMDL
MODEL 9
REMARK VINA RESULT:      -8.2      1.794      2.066
REMARK SMILES Cc1ccc(N[C@@H]2CCC[C@@H](N)[C@@]2(O)F)cc1
REMARK SMILES IDX 7 1 8 2 9 3 10 4 11 5 13 6 15 7 6 8 5 10 2 11 3 12 17 13
REMARK SMILES IDX 4 14 16 15 1 16 14 17 12 19
REMARK H PARENT 6 9 14 18 12 20 12 21
ROOT
ATOM      1  C   UNL     1      45.554 131.452  16.523  1.00  0.00     0.145 C 
ATOM      2  C   UNL     1      46.254 132.429  15.557  1.00  0.00     0.031 C 
ATOM      3  C   UNL     1      46.981 131.677  14.438  1.00  0.00     0.004 C 
ATOM      4  C   UNL     1      46.018 130.764  13.666  1.00  0.00     0.025 C 
ATOM      5  C   UNL     1      45.235 129.803  14.588  1.00  0.00     0.118 C 
ATOM      6  C   UNL     1      44.548 130.555  15.759  1.00  0.00     0.242 C 
ATOM      7  F   UNL     1      44.014 129.623  16.639  1.00  0.00    -0.208 F 
ENDROOT
BRANCH   1   8
ATOM      8  N   UNL     1      44.864 132.209  17.577  1.00  0.00    -0.377 N 
ATOM      9  H   UNL     1      44.449 133.132  17.312  1.00  0.00     0.161 HD
BRANCH   8  10
ATOM     10  C   UNL     1      44.647 131.750  18.928  1.00  0.00     0.034 A 
ATOM     11  C   UNL     1      44.296 130.794  21.561  1.00  0.00    -0.051 A 
ATOM     12  C   UNL     1      45.449 130.466  20.837  1.00  0.00     0.005 A 
ATOM     13  C   UNL     1      43.329 131.622  20.975  1.00  0.00     0.005 A 
ATOM     14  C   UNL     1      45.620 130.935  19.532  1.00  0.00     0.026 A 
ATOM     15  C   UNL     1      43.497 132.092  19.669  1.00  0.00     0.026 A 
ATOM     16  C   UNL     1      44.132 130.324  22.976  1.00  0.00     0.044 C 
ENDBRANCH   8  10
ENDBRANCH   1   8
BRANCH   6  17
ATOM     17  O   UNL     1      43.507 131.358  15.259  1.00  0.00    -0.359 OA
ATOM     18  H   UNL     1      43.439 131.178  14.285  1.00  0.00     0.214 HD
ENDBRANCH   6  17
BRANCH   5  19
ATOM     19  N   UNL     1      46.080 128.711  15.088  1.00  0.00    -0.323 NA
ATOM     20  H   UNL     1      47.055 128.855  14.734  1.00  0.00     0.119 HD
ATOM     21  H   UNL     1      46.126 128.730  16.131  1.00  0.00     0.119 HD
ENDBRANCH   5  19
TORSDOF 4
ENDMDL


