REMARK SMILES Cc1ccc(-c2ccc(/N=C(\O)c3cccc(C)c3)c(C(=O)[N-][C@@H](C)[C@H](C)O)c2)cc1
REMARK SMILES IDX 21 1 22 2 20 3 9 4 8 5 7 6 29 7 6 8 10 9 11 10 12 11 13 13
REMARK SMILES IDX 14 14 19 15 15 16 17 17 16 18 18 19 5 20 4 21 30 22 3 23
REMARK SMILES IDX 31 24 2 25 1 26 23 27 24 28 25 29 26 30 27 31 28 32
REMARK H PARENT 12 12 28 33
ROOT
ATOM      1  C   UNL     1       0.320  -0.894  -1.247  1.00  0.00     0.084 C 
ATOM      2  O   UNL     1       1.075  -1.703  -1.853  1.00  0.00    -0.315 OA
ENDROOT
BRANCH   1   3
ATOM      3  C   UNL     1       0.684  -0.424   0.120  1.00  0.00     0.026 A 
ATOM      4  C   UNL     1      -0.228   0.273   0.951  1.00  0.00     0.076 A 
ATOM      5  C   UNL     1       0.183   0.711   2.219  1.00  0.00     0.030 A 
ATOM      6  C   UNL     1       1.464   0.428   2.691  1.00  0.00     0.011 A 
ATOM      7  C   UNL     1       1.974  -0.706   0.616  1.00  0.00     0.021 A 
ATOM      8  C   UNL     1       2.372  -0.286   1.897  1.00  0.00    -0.018 A 
BRANCH   4   9
ATOM      9  N   UNL     1      -1.536   0.620   0.474  1.00  0.00    -0.213 NA
BRANCH   9  10
ATOM     10  C   UNL     1      -2.668   0.412   1.085  1.00  0.00     0.218 C 
BRANCH  10  11
ATOM     11  O   UNL     1      -2.731  -0.308   2.283  1.00  0.00    -0.493 OA
ATOM     12  H   UNL     1      -1.936  -0.792   2.680  1.00  0.00     0.295 HD
ENDBRANCH  10  11
BRANCH  10  13
ATOM     13  C   UNL     1      -3.926   0.909   0.477  1.00  0.00     0.037 A 
ATOM     14  C   UNL     1      -3.902   1.704  -0.685  1.00  0.00     0.014 A 
ATOM     15  C   UNL     1      -5.169   0.582   1.050  1.00  0.00     0.017 A 
ATOM     16  C   UNL     1      -5.092   2.147  -1.266  1.00  0.00     0.001 A 
ATOM     17  C   UNL     1      -6.365   1.046   0.479  1.00  0.00    -0.050 A 
ATOM     18  C   UNL     1      -6.320   1.815  -0.692  1.00  0.00     0.003 A 
ATOM     19  C   UNL     1      -7.686   0.657   1.075  1.00  0.00     0.044 C 
ENDBRANCH  10  13
ENDBRANCH   9  10
ENDBRANCH   4   9
BRANCH   8  20
ATOM     20  C   UNL     1       3.739  -0.581   2.397  1.00  0.00    -0.018 A 
ATOM     21  C   UNL     1       4.466   0.390   3.109  1.00  0.00     0.009 A 
ATOM     22  C   UNL     1       4.328  -1.839   2.168  1.00  0.00     0.009 A 
ATOM     23  C   UNL     1       5.753   0.112   3.577  1.00  0.00     0.004 A 
ATOM     24  C   UNL     1       5.616  -2.115   2.637  1.00  0.00     0.004 A 
ATOM     25  C   UNL     1       6.341  -1.137   3.332  1.00  0.00    -0.051 A 
ATOM     26  C   UNL     1       7.709  -1.452   3.861  1.00  0.00     0.044 C 
ENDBRANCH   8  20
ENDBRANCH   1   3
BRANCH   1  27
ATOM     27  N   UNL     1      -0.873  -0.430  -1.893  1.00  0.00    -0.645 NA
BRANCH  27  28
ATOM     28  C   UNL     1      -1.350  -0.916  -3.187  1.00  0.00    -0.081 C 
ATOM     29  C   UNL     1      -1.954  -2.317  -3.010  1.00  0.00    -0.011 C 
BRANCH  28  30
ATOM     30  C   UNL     1      -2.381   0.088  -3.750  1.00  0.00     0.096 C 
ATOM     31  C   UNL     1      -2.809  -0.261  -5.181  1.00  0.00     0.037 C 
BRANCH  30  32
ATOM     32  O   UNL     1      -1.817   1.375  -3.745  1.00  0.00    -0.395 OA
ATOM     33  H   UNL     1      -2.571   2.019  -3.758  1.00  0.00     0.210 HD
ENDBRANCH  30  32
ENDBRANCH  28  30
ENDBRANCH  27  28
ENDBRANCH   1  27
TORSDOF 10


