REMARK SMILES C=C[C@@H](Oc1[nH+]c[nH+]c(C)c1C)c1cc(-c2c[n-]c3nccc-3c2)cc2[nH]ccc12
REMARK SMILES IDX 3 1 2 2 1 3 4 4 5 5 6 6 11 7 7 8 9 9 8 10 12 12 10 13 13 15
REMARK SMILES IDX 14 16 30 17 15 18 29 19 26 20 25 21 28 22 27 23 16 25 17 26
REMARK SMILES IDX 24 27 18 28 23 29 19 30 22 31 20 32 21 33
REMARK H PARENT 6 11 8 14 27 24
ROOT
ATOM      1  C   UNL     1      -0.290  -0.399  -1.292  1.00  0.00     0.233 C 
ENDROOT
BRANCH   1   2
ATOM      2  C   UNL     1      -1.691   0.154  -1.187  1.00  0.00     0.015 C 
ATOM      3  C   UNL     1      -2.202   0.962  -2.124  1.00  0.00     0.008 C 
ENDBRANCH   1   2
BRANCH   1   4
ATOM      4  O   UNL     1       0.655   0.598  -0.895  1.00  0.00    -0.431 OA
BRANCH   4   5
ATOM      5  C   UNL     1       1.015   1.709  -1.677  1.00  0.00     0.381 A 
ATOM      6  N   UNL     1       1.235   1.574  -3.015  1.00  0.00    -0.123 N 
ATOM      7  C   UNL     1       1.162   2.970  -1.066  1.00  0.00     0.128 A 
ATOM      8  C   UNL     1       1.570   2.644  -3.780  1.00  0.00     0.632 A 
ATOM      9  C   UNL     1       1.463   4.077  -1.892  1.00  0.00     0.194 A 
ATOM     10  N   UNL     1       1.672   3.881  -3.225  1.00  0.00    -0.159 N 
ATOM     11  H   UNL     1       1.184   0.634  -3.476  1.00  0.00     0.463 HD
ATOM     12  C   UNL     1       0.882   3.136   0.413  1.00  0.00     0.063 C 
ATOM     13  C   UNL     1       1.556   5.469  -1.334  1.00  0.00     0.124 C 
ATOM     14  H   UNL     1       1.914   4.687  -3.847  1.00  0.00     0.460 HD
ENDBRANCH   4   5
ENDBRANCH   1   4
BRANCH   1  15
ATOM     15  C   UNL     1      -0.165  -1.618  -0.403  1.00  0.00     0.006 A 
ATOM     16  C   UNL     1       0.270  -1.513   0.940  1.00  0.00     0.017 A 
ATOM     17  C   UNL     1      -0.568  -2.889  -0.845  1.00  0.00     0.007 A 
ATOM     18  C   UNL     1       0.332  -2.652   1.786  1.00  0.00    -0.016 A 
ATOM     19  C   UNL     1      -1.100  -3.308  -2.051  1.00  0.00     0.028 A 
ATOM     20  C   UNL     1      -0.503  -3.993  -0.036  1.00  0.00     0.046 A 
ATOM     21  C   UNL     1      -0.057  -3.916   1.279  1.00  0.00     0.035 A 
ATOM     22  C   UNL     1      -1.326  -4.671  -1.904  1.00  0.00     0.083 A 
ATOM     23  N   UNL     1      -0.958  -5.085  -0.672  1.00  0.00    -0.361 N 
ATOM     24  H   UNL     1      -1.029  -6.055  -0.291  1.00  0.00     0.166 HD
BRANCH  18  25
ATOM     25  C   UNL     1       0.782  -2.519   3.197  1.00  0.00    -0.022 A 
ATOM     26  C   UNL     1       0.384  -1.390   3.978  1.00  0.00    -0.014 A 
ATOM     27  C   UNL     1       1.591  -3.519   3.785  1.00  0.00     0.016 A 
ATOM     28  N   UNL     1       0.766  -1.252   5.284  1.00  0.00    -0.442 NA
ATOM     29  C   UNL     1       1.962  -3.350   5.108  1.00  0.00    -0.026 A 
ATOM     30  C   UNL     1       1.547  -2.206   5.839  1.00  0.00    -0.052 A 
ATOM     31  C   UNL     1       2.693  -4.107   5.983  1.00  0.00     0.003 A 
ATOM     32  N   UNL     1       1.986  -2.237   7.106  1.00  0.00    -0.442 NA
ATOM     33  C   UNL     1       2.686  -3.397   7.185  1.00  0.00    -0.022 A 
ENDBRANCH  18  25
ENDBRANCH   1  15
TORSDOF 5


