MODEL 1
REMARK VINA RESULT:      -5.2      0.000      0.000
REMARK SMILES C=Cc1ccc(-c2cnc3oc[nH+]c3c2)c(NC[C@@H](C)C(C)C)c1F
REMARK SMILES IDX 17 1 16 3 3 4 4 5 24 6 5 7 6 8 25 9 2 10 1 11 7 12 8 13
REMARK SMILES IDX 15 14 9 15 14 16 10 17 13 18 11 19 12 20 18 22 19 23 20 24
REMARK SMILES IDX 21 25 22 26 23 27
REMARK H PARENT 17 2 13 21
ROOT
ATOM      1  N   UNL     1      45.699 131.279  19.606  1.00  0.00    -0.382 N 
ATOM      2  H   UNL     1      46.531 131.690  19.125  1.00  0.00     0.160 HD
ENDROOT
BRANCH   1   3
ATOM      3  C   UNL     1      44.412 131.690  19.124  1.00  0.00     0.079 A 
ATOM      4  C   UNL     1      42.213 132.651  19.593  1.00  0.00     0.012 A 
ATOM      5  C   UNL     1      41.849 132.433  18.259  1.00  0.00     0.012 A 
ATOM      6  C   UNL     1      43.511 132.297  20.017  1.00  0.00     0.154 A 
ATOM      7  C   UNL     1      42.746 131.850  17.363  1.00  0.00     0.012 A 
ATOM      8  C   UNL     1      44.034 131.480  17.779  1.00  0.00     0.010 A 
ATOM      9  F   UNL     1      43.919 132.556  21.286  1.00  0.00    -0.204 F 
BRANCH   4  10
ATOM     10  C   UNL     1      41.224 133.284  20.496  1.00  0.00     0.003 C 
ATOM     11  C   UNL     1      41.221 133.112  21.818  1.00  0.00     0.009 C 
ENDBRANCH   4  10
BRANCH   8  12
ATOM     12  C   UNL     1      44.981 130.937  16.778  1.00  0.00     0.009 A 
ATOM     13  C   UNL     1      45.314 129.554  16.772  1.00  0.00     0.124 A 
ATOM     14  C   UNL     1      45.597 131.797  15.839  1.00  0.00     0.095 A 
ATOM     15  N   UNL     1      46.208 129.052  15.865  1.00  0.00    -0.215 NA
ATOM     16  C   UNL     1      46.493 131.225  14.946  1.00  0.00     0.270 A 
ATOM     17  C   UNL     1      46.774 129.900  14.974  1.00  0.00     0.297 A 
ATOM     18  N   UNL     1      47.192 131.796  13.956  1.00  0.00    -0.175 N 
ATOM     19  O   UNL     1      47.632 129.611  14.031  1.00  0.00    -0.384 OA
ATOM     20  C   UNL     1      47.883 130.759  13.417  1.00  0.00     0.522 A 
ATOM     21  H   UNL     1      47.202 132.799  13.664  1.00  0.00     0.457 HD
ENDBRANCH   8  12
ENDBRANCH   1   3
BRANCH   1  22
ATOM     22  C   UNL     1      45.863 130.810  20.984  1.00  0.00     0.116 C 
BRANCH  22  23
ATOM     23  C   UNL     1      45.023 129.533  21.255  1.00  0.00     0.008 C 
ATOM     24  C   UNL     1      45.822 128.292  20.801  1.00  0.00     0.010 C 
BRANCH  23  25
ATOM     25  C   UNL     1      44.598 129.442  22.762  1.00  0.00    -0.013 C 
ATOM     26  C   UNL     1      43.333 130.276  23.045  1.00  0.00     0.008 C 
ATOM     27  C   UNL     1      44.331 127.998  23.230  1.00  0.00     0.008 C 
ENDBRANCH  23  25
ENDBRANCH  22  23
ENDBRANCH   1  22
TORSDOF 6
ENDMDL
MODEL 2
REMARK VINA RESULT:      -5.0      5.653      8.563
REMARK SMILES C=Cc1ccc(-c2cnc3oc[nH+]c3c2)c(NC[C@@H](C)C(C)C)c1F
REMARK SMILES IDX 17 1 16 3 3 4 4 5 24 6 5 7 6 8 25 9 2 10 1 11 7 12 8 13
REMARK SMILES IDX 15 14 9 15 14 16 10 17 13 18 11 19 12 20 18 22 19 23 20 24
REMARK SMILES IDX 21 25 22 26 23 27
REMARK H PARENT 17 2 13 21
ROOT
ATOM      1  N   UNL     1      45.430 126.589  22.386  1.00  0.00    -0.382 N 
ATOM      2  H   UNL     1      45.316 127.016  21.440  1.00  0.00     0.160 HD
ENDROOT
BRANCH   1   3
ATOM      3  C   UNL     1      45.268 125.166  22.472  1.00  0.00     0.079 A 
ATOM      4  C   UNL     1      43.778 123.228  22.492  1.00  0.00     0.012 A 
ATOM      5  C   UNL     1      44.883 122.399  22.720  1.00  0.00     0.012 A 
ATOM      6  C   UNL     1      43.981 124.616  22.345  1.00  0.00     0.154 A 
ATOM      7  C   UNL     1      46.166 122.936  22.827  1.00  0.00     0.012 A 
ATOM      8  C   UNL     1      46.376 124.317  22.697  1.00  0.00     0.010 A 
ATOM      9  F   UNL     1      42.941 125.440  22.057  1.00  0.00    -0.204 F 
BRANCH   4  10
ATOM     10  C   UNL     1      42.441 122.601  22.377  1.00  0.00     0.003 C 
ATOM     11  C   UNL     1      41.414 122.909  23.169  1.00  0.00     0.009 C 
ENDBRANCH   4  10
BRANCH   8  12
ATOM     12  C   UNL     1      47.762 124.838  22.738  1.00  0.00     0.009 A 
ATOM     13  C   UNL     1      48.711 124.451  21.751  1.00  0.00     0.124 A 
ATOM     14  C   UNL     1      48.170 125.698  23.784  1.00  0.00     0.095 A 
ATOM     15  N   UNL     1      49.999 124.909  21.798  1.00  0.00    -0.215 NA
ATOM     16  C   UNL     1      49.490 126.129  23.774  1.00  0.00     0.270 A 
ATOM     17  C   UNL     1      50.355 125.738  22.808  1.00  0.00     0.297 A 
ATOM     18  N   UNL     1      50.125 126.950  24.620  1.00  0.00    -0.175 N 
ATOM     19  O   UNL     1      51.524 126.286  23.016  1.00  0.00    -0.384 OA
ATOM     20  C   UNL     1      51.382 127.018  24.112  1.00  0.00     0.522 A 
ATOM     21  H   UNL     1      49.746 127.428  25.468  1.00  0.00     0.457 HD
ENDBRANCH   8  12
ENDBRANCH   1   3
BRANCH   1  22
ATOM     22  C   UNL     1      45.191 127.437  23.558  1.00  0.00     0.116 C 
BRANCH  22  23
ATOM     23  C   UNL     1      43.860 128.225  23.428  1.00  0.00     0.008 C 
ATOM     24  C   UNL     1      42.883 127.760  24.530  1.00  0.00     0.010 C 
BRANCH  23  25
ATOM     25  C   UNL     1      44.110 129.772  23.477  1.00  0.00    -0.013 C 
ATOM     26  C   UNL     1      44.413 130.342  22.077  1.00  0.00     0.008 C 
ATOM     27  C   UNL     1      42.921 130.559  24.064  1.00  0.00     0.008 C 
ENDBRANCH  23  25
ENDBRANCH  22  23
ENDBRANCH   1  22
TORSDOF 6
ENDMDL
MODEL 3
REMARK VINA RESULT:      -4.1      1.777      2.792
REMARK SMILES C=Cc1ccc(-c2cnc3oc[nH+]c3c2)c(NC[C@@H](C)C(C)C)c1F
REMARK SMILES IDX 17 1 16 3 3 4 4 5 24 6 5 7 6 8 25 9 2 10 1 11 7 12 8 13
REMARK SMILES IDX 15 14 9 15 14 16 10 17 13 18 11 19 12 20 18 22 19 23 20 24
REMARK SMILES IDX 21 25 22 26 23 27
REMARK H PARENT 17 2 13 21
ROOT
ATOM      1  N   UNL     1      45.774 129.610  21.168  1.00  0.00    -0.382 N 
ATOM      2  H   UNL     1      46.716 129.934  21.484  1.00  0.00     0.160 HD
ENDROOT
BRANCH   1   3
ATOM      3  C   UNL     1      44.719 130.583  21.189  1.00  0.00     0.079 A 
ATOM      4  C   UNL     1      43.023 131.799  22.461  1.00  0.00     0.012 A 
ATOM      5  C   UNL     1      42.594 132.410  21.277  1.00  0.00     0.012 A 
ATOM      6  C   UNL     1      44.108 130.899  22.415  1.00  0.00     0.154 A 
ATOM      7  C   UNL     1      43.210 132.115  20.060  1.00  0.00     0.012 A 
ATOM      8  C   UNL     1      44.280 131.210  20.001  1.00  0.00     0.010 A 
ATOM      9  F   UNL     1      44.592 130.340  23.553  1.00  0.00    -0.204 F 
BRANCH   4  10
ATOM     10  C   UNL     1      42.338 132.158  23.724  1.00  0.00     0.003 C 
ATOM     11  C   UNL     1      41.939 131.260  24.625  1.00  0.00     0.009 C 
ENDBRANCH   4  10
BRANCH   8  12
ATOM     12  C   UNL     1      44.958 130.985  18.704  1.00  0.00     0.009 A 
ATOM     13  C   UNL     1      45.917 129.943  18.558  1.00  0.00     0.124 A 
ATOM     14  C   UNL     1      44.688 131.830  17.603  1.00  0.00     0.095 A 
ATOM     15  N   UNL     1      46.564 129.747  17.369  1.00  0.00    -0.215 NA
ATOM     16  C   UNL     1      45.377 131.578  16.424  1.00  0.00     0.270 A 
ATOM     17  C   UNL     1      46.277 130.569  16.331  1.00  0.00     0.297 A 
ATOM     18  N   UNL     1      45.301 132.202  15.241  1.00  0.00    -0.175 N 
ATOM     19  O   UNL     1      46.776 130.534  15.123  1.00  0.00    -0.384 OA
ATOM     20  C   UNL     1      46.185 131.522  14.467  1.00  0.00     0.522 A 
ATOM     21  H   UNL     1      44.703 133.016  14.975  1.00  0.00     0.457 HD
ENDBRANCH   8  12
ENDBRANCH   1   3
BRANCH   1  22
ATOM     22  C   UNL     1      45.470 128.180  21.267  1.00  0.00     0.116 C 
BRANCH  22  23
ATOM     23  C   UNL     1      45.269 127.741  22.743  1.00  0.00     0.008 C 
ATOM     24  C   UNL     1      43.759 127.692  23.059  1.00  0.00     0.010 C 
BRANCH  23  25
ATOM     25  C   UNL     1      45.977 126.371  23.028  1.00  0.00    -0.013 C 
ATOM     26  C   UNL     1      47.180 126.148  22.091  1.00  0.00     0.008 C 
ATOM     27  C   UNL     1      46.474 126.238  24.481  1.00  0.00     0.008 C 
ENDBRANCH  23  25
ENDBRANCH  22  23
ENDBRANCH   1  22
TORSDOF 6
ENDMDL
MODEL 4
REMARK VINA RESULT:      -4.0      1.822      2.874
REMARK SMILES C=Cc1ccc(-c2cnc3oc[nH+]c3c2)c(NC[C@@H](C)C(C)C)c1F
REMARK SMILES IDX 17 1 16 3 3 4 4 5 24 6 5 7 6 8 25 9 2 10 1 11 7 12 8 13
REMARK SMILES IDX 15 14 9 15 14 16 10 17 13 18 11 19 12 20 18 22 19 23 20 24
REMARK SMILES IDX 21 25 22 26 23 27
REMARK H PARENT 17 2 13 21
ROOT
ATOM      1  N   UNL     1      45.711 130.050  20.894  1.00  0.00    -0.382 N 
ATOM      2  H   UNL     1      46.625 130.416  21.244  1.00  0.00     0.160 HD
ENDROOT
BRANCH   1   3
ATOM      3  C   UNL     1      44.570 130.903  21.065  1.00  0.00     0.079 A 
ATOM      4  C   UNL     1      42.966 131.973  22.568  1.00  0.00     0.012 A 
ATOM      5  C   UNL     1      42.292 132.492  21.456  1.00  0.00     0.012 A 
ATOM      6  C   UNL     1      44.125 131.194  22.366  1.00  0.00     0.154 A 
ATOM      7  C   UNL     1      42.741 132.224  20.162  1.00  0.00     0.012 A 
ATOM      8  C   UNL     1      43.884 131.438  19.951  1.00  0.00     0.010 A 
ATOM      9  F   UNL     1      44.840 130.732  23.424  1.00  0.00    -0.204 F 
BRANCH   4  10
ATOM     10  C   UNL     1      42.450 132.300  23.917  1.00  0.00     0.003 C 
ATOM     11  C   UNL     1      41.152 132.315  24.223  1.00  0.00     0.009 C 
ENDBRANCH   4  10
BRANCH   8  12
ATOM     12  C   UNL     1      44.373 131.242  18.566  1.00  0.00     0.009 A 
ATOM     13  C   UNL     1      43.614 131.710  17.457  1.00  0.00     0.124 A 
ATOM     14  C   UNL     1      45.584 130.553  18.329  1.00  0.00     0.095 A 
ATOM     15  N   UNL     1      44.049 131.510  16.176  1.00  0.00    -0.215 NA
ATOM     16  C   UNL     1      45.971 130.384  17.006  1.00  0.00     0.270 A 
ATOM     17  C   UNL     1      45.218 130.853  15.983  1.00  0.00     0.297 A 
ATOM     18  N   UNL     1      47.065 129.795  16.506  1.00  0.00    -0.175 N 
ATOM     19  O   UNL     1      45.800 130.579  14.845  1.00  0.00    -0.384 OA
ATOM     20  C   UNL     1      46.917 129.940  15.164  1.00  0.00     0.522 A 
ATOM     21  H   UNL     1      47.848 129.336  17.022  1.00  0.00     0.457 HD
ENDBRANCH   8  12
ENDBRANCH   1   3
BRANCH   1  22
ATOM     22  C   UNL     1      45.545 128.598  20.790  1.00  0.00     0.116 C 
BRANCH  22  23
ATOM     23  C   UNL     1      45.657 127.911  22.177  1.00  0.00     0.008 C 
ATOM     24  C   UNL     1      44.309 128.038  22.919  1.00  0.00     0.010 C 
BRANCH  23  25
ATOM     25  C   UNL     1      46.112 126.417  22.035  1.00  0.00    -0.013 C 
ATOM     26  C   UNL     1      47.490 126.180  22.685  1.00  0.00     0.008 C 
ATOM     27  C   UNL     1      45.115 125.418  22.655  1.00  0.00     0.008 C 
ENDBRANCH  23  25
ENDBRANCH  22  23
ENDBRANCH   1  22
TORSDOF 6
ENDMDL
MODEL 5
REMARK VINA RESULT:      -3.6      4.726      8.058
REMARK SMILES C=Cc1ccc(-c2cnc3oc[nH+]c3c2)c(NC[C@@H](C)C(C)C)c1F
REMARK SMILES IDX 17 1 16 3 3 4 4 5 24 6 5 7 6 8 25 9 2 10 1 11 7 12 8 13
REMARK SMILES IDX 15 14 9 15 14 16 10 17 13 18 11 19 12 20 18 22 19 23 20 24
REMARK SMILES IDX 21 25 22 26 23 27
REMARK H PARENT 17 2 13 21
ROOT
ATOM      1  N   UNL     1      43.224 126.667  23.654  1.00  0.00    -0.382 N 
ATOM      2  H   UNL     1      42.642 127.237  23.001  1.00  0.00     0.160 HD
ENDROOT
BRANCH   1   3
ATOM      3  C   UNL     1      44.553 126.347  23.219  1.00  0.00     0.079 A 
ATOM      4  C   UNL     1      46.379 124.727  23.096  1.00  0.00     0.012 A 
ATOM      5  C   UNL     1      47.175 125.694  22.469  1.00  0.00     0.012 A 
ATOM      6  C   UNL     1      45.053 125.054  23.449  1.00  0.00     0.154 A 
ATOM      7  C   UNL     1      46.677 126.973  22.220  1.00  0.00     0.012 A 
ATOM      8  C   UNL     1      45.365 127.313  22.582  1.00  0.00     0.010 A 
ATOM      9  F   UNL     1      44.234 124.120  23.997  1.00  0.00    -0.204 F 
BRANCH   4  10
ATOM     10  C   UNL     1      46.958 123.383  23.325  1.00  0.00     0.003 C 
ATOM     11  C   UNL     1      46.910 122.400  22.426  1.00  0.00     0.009 C 
ENDBRANCH   4  10
BRANCH   8  12
ATOM     12  C   UNL     1      44.849 128.655  22.228  1.00  0.00     0.009 A 
ATOM     13  C   UNL     1      45.500 129.444  21.239  1.00  0.00     0.124 A 
ATOM     14  C   UNL     1      43.722 129.185  22.899  1.00  0.00     0.095 A 
ATOM     15  N   UNL     1      45.042 130.695  20.926  1.00  0.00    -0.215 NA
ATOM     16  C   UNL     1      43.307 130.459  22.534  1.00  0.00     0.270 A 
ATOM     17  C   UNL     1      43.956 131.170  21.581  1.00  0.00     0.297 A 
ATOM     18  N   UNL     1      42.274 131.182  22.987  1.00  0.00    -0.175 N 
ATOM     19  O   UNL     1      43.367 132.326  21.416  1.00  0.00    -0.384 OA
ATOM     20  C   UNL     1      42.350 132.330  22.266  1.00  0.00     0.522 A 
ATOM     21  H   UNL     1      41.574 130.924  23.718  1.00  0.00     0.457 HD
ENDBRANCH   8  12
ENDBRANCH   1   3
BRANCH   1  22
ATOM     22  C   UNL     1      42.532 125.812  24.623  1.00  0.00     0.116 C 
BRANCH  22  23
ATOM     23  C   UNL     1      41.000 125.792  24.374  1.00  0.00     0.008 C 
ATOM     24  C   UNL     1      40.613 126.992  23.482  1.00  0.00     0.010 C 
BRANCH  23  25
ATOM     25  C   UNL     1      40.543 124.425  23.754  1.00  0.00    -0.013 C 
ATOM     26  C   UNL     1      39.014 124.249  23.834  1.00  0.00     0.008 C 
ATOM     27  C   UNL     1      40.965 124.258  22.281  1.00  0.00     0.008 C 
ENDBRANCH  23  25
ENDBRANCH  22  23
ENDBRANCH   1  22
TORSDOF 6
ENDMDL
MODEL 6
REMARK VINA RESULT:      -3.5      3.409      6.493
REMARK SMILES C=Cc1ccc(-c2cnc3oc[nH+]c3c2)c(NC[C@@H](C)C(C)C)c1F
REMARK SMILES IDX 17 1 16 3 3 4 4 5 24 6 5 7 6 8 25 9 2 10 1 11 7 12 8 13
REMARK SMILES IDX 15 14 9 15 14 16 10 17 13 18 11 19 12 20 18 22 19 23 20 24
REMARK SMILES IDX 21 25 22 26 23 27
REMARK H PARENT 17 2 13 21
ROOT
ATOM      1  N   UNL     1      45.594 129.457  20.945  1.00  0.00    -0.382 N 
ATOM      2  H   UNL     1      46.453 128.863  20.937  1.00  0.00     0.160 HD
ENDROOT
BRANCH   1   3
ATOM      3  C   UNL     1      44.865 129.515  22.180  1.00  0.00     0.079 A 
ATOM      4  C   UNL     1      43.598 130.836  23.799  1.00  0.00     0.012 A 
ATOM      5  C   UNL     1      43.502 129.708  24.623  1.00  0.00     0.012 A 
ATOM      6  C   UNL     1      44.264 130.727  22.561  1.00  0.00     0.154 A 
ATOM      7  C   UNL     1      44.079 128.497  24.241  1.00  0.00     0.012 A 
ATOM      8  C   UNL     1      44.757 128.382  23.018  1.00  0.00     0.010 A 
ATOM      9  F   UNL     1      44.316 131.783  21.709  1.00  0.00    -0.204 F 
BRANCH   4  10
ATOM     10  C   UNL     1      42.956 132.092  24.253  1.00  0.00     0.003 C 
ATOM     11  C   UNL     1      41.827 132.570  23.731  1.00  0.00     0.009 C 
ENDBRANCH   4  10
BRANCH   8  12
ATOM     12  C   UNL     1      45.286 127.059  22.613  1.00  0.00     0.009 A 
ATOM     13  C   UNL     1      44.414 125.944  22.466  1.00  0.00     0.124 A 
ATOM     14  C   UNL     1      46.673 126.879  22.406  1.00  0.00     0.095 A 
ATOM     15  N   UNL     1      44.901 124.714  22.116  1.00  0.00    -0.215 NA
ATOM     16  C   UNL     1      47.104 125.607  22.052  1.00  0.00     0.270 A 
ATOM     17  C   UNL     1      46.234 124.577  21.917  1.00  0.00     0.297 A 
ATOM     18  N   UNL     1      48.340 125.169  21.782  1.00  0.00    -0.175 N 
ATOM     19  O   UNL     1      46.881 123.496  21.570  1.00  0.00    -0.384 OA
ATOM     20  C   UNL     1      48.154 123.857  21.488  1.00  0.00     0.522 A 
ATOM     21  H   UNL     1      49.235 125.708  21.791  1.00  0.00     0.457 HD
ENDBRANCH   8  12
ENDBRANCH   1   3
BRANCH   1  22
ATOM     22  C   UNL     1      44.918 129.708  19.669  1.00  0.00     0.116 C 
BRANCH  22  23
ATOM     23  C   UNL     1      45.761 130.634  18.751  1.00  0.00     0.008 C 
ATOM     24  C   UNL     1      46.352 129.802  17.592  1.00  0.00     0.010 C 
BRANCH  23  25
ATOM     25  C   UNL     1      44.910 131.845  18.233  1.00  0.00    -0.013 C 
ATOM     26  C   UNL     1      44.965 131.962  16.697  1.00  0.00     0.008 C 
ATOM     27  C   UNL     1      43.428 131.767  18.652  1.00  0.00     0.008 C 
ENDBRANCH  23  25
ENDBRANCH  22  23
ENDBRANCH   1  22
TORSDOF 6
ENDMDL
MODEL 7
REMARK VINA RESULT:      -3.1      1.791      2.585
REMARK SMILES C=Cc1ccc(-c2cnc3oc[nH+]c3c2)c(NC[C@@H](C)C(C)C)c1F
REMARK SMILES IDX 17 1 16 3 3 4 4 5 24 6 5 7 6 8 25 9 2 10 1 11 7 12 8 13
REMARK SMILES IDX 15 14 9 15 14 16 10 17 13 18 11 19 12 20 18 22 19 23 20 24
REMARK SMILES IDX 21 25 22 26 23 27
REMARK H PARENT 17 2 13 21
ROOT
ATOM      1  N   UNL     1      45.527 129.227  21.052  1.00  0.00    -0.382 N 
ATOM      2  H   UNL     1      46.255 129.274  20.304  1.00  0.00     0.160 HD
ENDROOT
BRANCH   1   3
ATOM      3  C   UNL     1      44.632 130.344  21.148  1.00  0.00     0.079 A 
ATOM      4  C   UNL     1      43.109 131.692  22.504  1.00  0.00     0.012 A 
ATOM      5  C   UNL     1      42.808 132.462  21.373  1.00  0.00     0.012 A 
ATOM      6  C   UNL     1      44.045 130.643  22.389  1.00  0.00     0.154 A 
ATOM      7  C   UNL     1      43.403 132.183  20.143  1.00  0.00     0.012 A 
ATOM      8  C   UNL     1      44.324 131.132  20.016  1.00  0.00     0.010 A 
ATOM      9  F   UNL     1      44.410 129.920  23.479  1.00  0.00    -0.204 F 
BRANCH   4  10
ATOM     10  C   UNL     1      42.454 132.041  23.786  1.00  0.00     0.003 C 
ATOM     11  C   UNL     1      41.141 132.232  23.912  1.00  0.00     0.009 C 
ENDBRANCH   4  10
BRANCH   8  12
ATOM     12  C   UNL     1      44.993 130.919  18.711  1.00  0.00     0.009 A 
ATOM     13  C   UNL     1      45.782 129.757  18.483  1.00  0.00     0.124 A 
ATOM     14  C   UNL     1      44.886 131.890  17.689  1.00  0.00     0.095 A 
ATOM     15  N   UNL     1      46.422 129.568  17.289  1.00  0.00    -0.215 NA
ATOM     16  C   UNL     1      45.558 131.638  16.500  1.00  0.00     0.270 A 
ATOM     17  C   UNL     1      46.292 130.513  16.327  1.00  0.00     0.297 A 
ATOM     18  N   UNL     1      45.610 132.368  15.379  1.00  0.00    -0.175 N 
ATOM     19  O   UNL     1      46.812 130.506  15.127  1.00  0.00    -0.384 OA
ATOM     20  C   UNL     1      46.397 131.628  14.556  1.00  0.00     0.522 A 
ATOM     21  H   UNL     1      45.152 133.286  15.180  1.00  0.00     0.457 HD
ENDBRANCH   8  12
ENDBRANCH   1   3
BRANCH   1  22
ATOM     22  C   UNL     1      45.796 128.386  22.222  1.00  0.00     0.116 C 
BRANCH  22  23
ATOM     23  C   UNL     1      45.380 126.911  21.971  1.00  0.00     0.008 C 
ATOM     24  C   UNL     1      46.646 126.033  21.880  1.00  0.00     0.010 C 
BRANCH  23  25
ATOM     25  C   UNL     1      44.389 126.406  23.076  1.00  0.00    -0.013 C 
ATOM     26  C   UNL     1      43.120 127.278  23.142  1.00  0.00     0.008 C 
ATOM     27  C   UNL     1      43.950 124.942  22.872  1.00  0.00     0.008 C 
ENDBRANCH  23  25
ENDBRANCH  22  23
ENDBRANCH   1  22
TORSDOF 6
ENDMDL
MODEL 8
REMARK VINA RESULT:      -3.0      5.538      8.534
REMARK SMILES C=Cc1ccc(-c2cnc3oc[nH+]c3c2)c(NC[C@@H](C)C(C)C)c1F
REMARK SMILES IDX 17 1 16 3 3 4 4 5 24 6 5 7 6 8 25 9 2 10 1 11 7 12 8 13
REMARK SMILES IDX 15 14 9 15 14 16 10 17 13 18 11 19 12 20 18 22 19 23 20 24
REMARK SMILES IDX 21 25 22 26 23 27
REMARK H PARENT 17 2 13 21
ROOT
ATOM      1  N   UNL     1      44.156 126.171  21.761  1.00  0.00    -0.382 N 
ATOM      2  H   UNL     1      44.196 126.878  20.993  1.00  0.00     0.160 HD
ENDROOT
BRANCH   1   3
ATOM      3  C   UNL     1      45.225 126.200  22.718  1.00  0.00     0.079 A 
ATOM      4  C   UNL     1      47.157 125.093  23.728  1.00  0.00     0.012 A 
ATOM      5  C   UNL     1      47.281 126.161  24.625  1.00  0.00     0.012 A 
ATOM      6  C   UNL     1      46.135 125.130  22.756  1.00  0.00     0.154 A 
ATOM      7  C   UNL     1      46.392 127.236  24.579  1.00  0.00     0.012 A 
ATOM      8  C   UNL     1      45.364 127.274  23.626  1.00  0.00     0.010 A 
ATOM      9  F   UNL     1      46.028 124.144  21.828  1.00  0.00    -0.204 F 
BRANCH   4  10
ATOM     10  C   UNL     1      48.135 123.985  23.817  1.00  0.00     0.003 C 
ATOM     11  C   UNL     1      48.188 122.981  22.942  1.00  0.00     0.009 C 
ENDBRANCH   4  10
BRANCH   8  12
ATOM     12  C   UNL     1      44.492 128.470  23.559  1.00  0.00     0.009 A 
ATOM     13  C   UNL     1      43.435 128.648  24.495  1.00  0.00     0.124 A 
ATOM     14  C   UNL     1      44.677 129.431  22.539  1.00  0.00     0.095 A 
ATOM     15  N   UNL     1      42.611 129.738  24.423  1.00  0.00    -0.215 NA
ATOM     16  C   UNL     1      43.808 130.514  22.521  1.00  0.00     0.270 A 
ATOM     17  C   UNL     1      42.820 130.644  23.438  1.00  0.00     0.297 A 
ATOM     18  N   UNL     1      43.771 131.564  21.690  1.00  0.00    -0.175 N 
ATOM     19  O   UNL     1      42.153 131.747  23.214  1.00  0.00    -0.384 OA
ATOM     20  C   UNL     1      42.731 132.301  22.158  1.00  0.00     0.522 A 
ATOM     21  H   UNL     1      44.395 131.771  20.878  1.00  0.00     0.457 HD
ENDBRANCH   8  12
ENDBRANCH   1   3
BRANCH   1  22
ATOM     22  C   UNL     1      43.406 124.935  21.520  1.00  0.00     0.116 C 
BRANCH  22  23
ATOM     23  C   UNL     1      42.467 124.597  22.709  1.00  0.00     0.008 C 
ATOM     24  C   UNL     1      41.768 125.887  23.189  1.00  0.00     0.010 C 
BRANCH  23  25
ATOM     25  C   UNL     1      41.438 123.479  22.319  1.00  0.00    -0.013 C 
ATOM     26  C   UNL     1      42.096 122.377  21.464  1.00  0.00     0.008 C 
ATOM     27  C   UNL     1      40.783 122.806  23.541  1.00  0.00     0.008 C 
ENDBRANCH  23  25
ENDBRANCH  22  23
ENDBRANCH   1  22
TORSDOF 6
ENDMDL
MODEL 9
REMARK VINA RESULT:      -2.8      0.729      1.274
REMARK SMILES C=Cc1ccc(-c2cnc3oc[nH+]c3c2)c(NC[C@@H](C)C(C)C)c1F
REMARK SMILES IDX 17 1 16 3 3 4 4 5 24 6 5 7 6 8 25 9 2 10 1 11 7 12 8 13
REMARK SMILES IDX 15 14 9 15 14 16 10 17 13 18 11 19 12 20 18 22 19 23 20 24
REMARK SMILES IDX 21 25 22 26 23 27
REMARK H PARENT 17 2 13 21
ROOT
ATOM      1  N   UNL     1      45.523 130.875  19.763  1.00  0.00    -0.382 N 
ATOM      2  H   UNL     1      46.114 131.564  20.279  1.00  0.00     0.160 HD
ENDROOT
BRANCH   1   3
ATOM      3  C   UNL     1      44.291 131.368  19.216  1.00  0.00     0.079 A 
ATOM      4  C   UNL     1      42.065 132.306  19.589  1.00  0.00     0.012 A 
ATOM      5  C   UNL     1      41.831 132.263  18.209  1.00  0.00     0.012 A 
ATOM      6  C   UNL     1      43.313 131.877  20.087  1.00  0.00     0.154 A 
ATOM      7  C   UNL     1      42.806 131.778  17.337  1.00  0.00     0.012 A 
ATOM      8  C   UNL     1      44.045 131.334  17.824  1.00  0.00     0.010 A 
ATOM      9  F   UNL     1      43.597 131.968  21.412  1.00  0.00    -0.204 F 
BRANCH   4  10
ATOM     10  C   UNL     1      40.997 132.841  20.466  1.00  0.00     0.003 C 
ATOM     11  C   UNL     1      41.141 133.934  21.215  1.00  0.00     0.009 C 
ENDBRANCH   4  10
BRANCH   8  12
ATOM     12  C   UNL     1      45.081 130.901  16.859  1.00  0.00     0.009 A 
ATOM     13  C   UNL     1      45.774 129.672  17.043  1.00  0.00     0.124 A 
ATOM     14  C   UNL     1      45.422 131.725  15.761  1.00  0.00     0.095 A 
ATOM     15  N   UNL     1      46.750 129.280  16.168  1.00  0.00    -0.215 NA
ATOM     16  C   UNL     1      46.418 131.270  14.909  1.00  0.00     0.270 A 
ATOM     17  C   UNL     1      47.046 130.088  15.122  1.00  0.00     0.297 A 
ATOM     18  N   UNL     1      46.916 131.832  13.800  1.00  0.00    -0.175 N 
ATOM     19  O   UNL     1      47.930 129.883  14.180  1.00  0.00    -0.384 OA
ATOM     20  C   UNL     1      47.848 130.938  13.382  1.00  0.00     0.522 A 
ATOM     21  H   UNL     1      46.649 132.740  13.358  1.00  0.00     0.457 HD
ENDBRANCH   8  12
ENDBRANCH   1   3
BRANCH   1  22
ATOM     22  C   UNL     1      45.675 129.455  20.092  1.00  0.00     0.116 C 
BRANCH  22  23
ATOM     23  C   UNL     1      45.640 129.219  21.625  1.00  0.00     0.008 C 
ATOM     24  C   UNL     1      44.759 130.300  22.288  1.00  0.00     0.010 C 
BRANCH  23  25
ATOM     25  C   UNL     1      45.148 127.768  21.964  1.00  0.00    -0.013 C 
ATOM     26  C   UNL     1      46.321 126.768  22.009  1.00  0.00     0.008 C 
ATOM     27  C   UNL     1      44.398 127.682  23.308  1.00  0.00     0.008 C 
ENDBRANCH  23  25
ENDBRANCH  22  23
ENDBRANCH   1  22
TORSDOF 6
ENDMDL


