REMARK SMILES Cc1cc(-c2cccc3[nH+]coc23)cc(OC(=S)N/C(O)=C\Oc2ccc(Cl)cc2)c1F
REMARK SMILES IDX 19 1 17 3 18 4 20 5 21 6 22 8 23 9 24 10 25 11 30 12 26 13
REMARK SMILES IDX 29 14 27 15 28 16 16 17 15 18 14 19 31 20 4 21 2 22 3 23
REMARK SMILES IDX 32 24 1 25 5 26 6 27 13 28 7 29 9 30 12 31 8 32 10 33 11 34
REMARK H PARENT 19 2 21 7 10 35
ROOT
ATOM      1  N   UNL     1      -1.179  -4.967   0.870  1.00  0.00    -0.284 N 
ATOM      2  H   UNL     1      -1.139  -5.750   1.561  1.00  0.00     0.174 HD
ATOM      3  C   UNL     1      -0.230  -3.899   0.997  1.00  0.00     0.269 C 
ATOM      4  S   UNL     1       1.150  -4.163   1.851  1.00  0.00    -0.018 S 
ENDROOT
BRANCH   1   5
ATOM      5  C   UNL     1      -2.317  -4.911  -0.005  1.00  0.00     0.228 C 
BRANCH   5   6
ATOM      6  O   UNL     1      -3.566  -5.293   0.478  1.00  0.00    -0.492 OA
ATOM      7  H   UNL     1      -3.683  -5.589   1.439  1.00  0.00     0.295 HD
ENDBRANCH   5   6
BRANCH   5   8
ATOM      8  C   UNL     1      -2.207  -4.537  -1.282  1.00  0.00     0.261 C 
BRANCH   8   9
ATOM      9  O   UNL     1      -0.955  -4.251  -1.839  1.00  0.00    -0.459 OA
BRANCH   9  10
ATOM     10  C   UNL     1      -0.746  -3.632  -3.079  1.00  0.00     0.126 A 
ATOM     11  C   UNL     1      -1.762  -2.938  -3.766  1.00  0.00     0.048 A 
ATOM     12  C   UNL     1       0.540  -3.681  -3.632  1.00  0.00     0.048 A 
ATOM     13  C   UNL     1      -1.488  -2.320  -4.990  1.00  0.00     0.024 A 
ATOM     14  C   UNL     1       0.811  -3.062  -4.856  1.00  0.00     0.024 A 
ATOM     15  C   UNL     1      -0.203  -2.383  -5.537  1.00  0.00     0.041 A 
ATOM     16  Cl  UNL     1       0.138  -1.603  -7.071  1.00  0.00    -0.084 Cl
ENDBRANCH   9  10
ENDBRANCH   8   9
ENDBRANCH   5   8
ENDBRANCH   1   5
BRANCH   3  17
ATOM     17  O   UNL     1      -0.466  -2.678   0.343  1.00  0.00    -0.428 OA
BRANCH  17  18
ATOM     18  C   UNL     1       0.117  -1.444   0.668  1.00  0.00     0.166 A 
ATOM     19  C   UNL     1       0.338  -1.062   2.001  1.00  0.00     0.059 A 
ATOM     20  C   UNL     1       0.434  -0.557  -0.367  1.00  0.00     0.168 A 
ATOM     21  C   UNL     1       0.906   0.187   2.303  1.00  0.00    -0.010 A 
ATOM     22  C   UNL     1       1.014   0.689  -0.083  1.00  0.00    -0.011 A 
ATOM     23  C   UNL     1       1.246   1.056   1.252  1.00  0.00     0.015 A 
ATOM     24  F   UNL     1       0.187  -0.916  -1.653  1.00  0.00    -0.203 F 
ATOM     25  C   UNL     1       1.353   1.632  -1.201  1.00  0.00     0.048 C 
BRANCH  21  26
ATOM     26  C   UNL     1       1.144   0.577   3.714  1.00  0.00     0.032 A 
ATOM     27  C   UNL     1       1.651  -0.348   4.659  1.00  0.00     0.013 A 
ATOM     28  C   UNL     1       0.876   1.871   4.181  1.00  0.00     0.212 A 
ATOM     29  C   UNL     1       1.874   0.036   6.001  1.00  0.00     0.008 A 
ATOM     30  C   UNL     1       1.094   2.235   5.477  1.00  0.00     0.249 A 
ATOM     31  O   UNL     1       0.386   2.901   3.534  1.00  0.00    -0.403 OA
ATOM     32  C   UNL     1       1.593   1.348   6.425  1.00  0.00     0.083 A 
ATOM     33  N   UNL     1       0.739   3.517   5.641  1.00  0.00    -0.176 N 
ATOM     34  C   UNL     1       0.306   3.888   4.412  1.00  0.00     0.521 A 
ATOM     35  H   UNL     1       0.778   4.095   6.511  1.00  0.00     0.457 HD
ENDBRANCH  21  26
ENDBRANCH  17  18
ENDBRANCH   3  17
TORSDOF 8


