MODEL 1
REMARK VINA RESULT:      -7.8      0.000      0.000
REMARK SMILES O=C([N-]c1cc(F)c(F)cc1[NH2+]c1ccc(F)cc1)[C@H]1C[C@H](O)C[NH2+]1
REMARK SMILES IDX 3 1 2 2 1 3 20 4 21 5 25 6 22 7 24 8 23 11 4 13 5 14 11 15
REMARK SMILES IDX 6 16 10 17 8 18 7 19 9 20 12 21 13 24 14 25 19 26 15 27
REMARK SMILES IDX 18 28 16 29 17 30
REMARK H PARENT 25 9 25 10 23 12 12 22 12 23
ROOT
ATOM      1  N   UNL     1      44.873 130.880  21.702  1.00  0.00    -0.617 NA
ENDROOT
BRANCH   1   2
ATOM      2  C   UNL     1      44.485 130.075  22.824  1.00  0.00     0.113 C 
ATOM      3  O   UNL     1      44.552 130.536  23.996  1.00  0.00    -0.314 OA
BRANCH   2   4
ATOM      4  C   UNL     1      44.072 128.637  22.613  1.00  0.00     0.234 C 
ATOM      5  C   UNL     1      45.282 127.739  22.390  1.00  0.00     0.109 C 
ATOM      6  N   UNL     1      43.369 128.107  23.787  1.00  0.00    -0.337 N 
ATOM      7  C   UNL     1      45.621 127.193  23.768  1.00  0.00     0.175 C 
ATOM      8  C   UNL     1      44.360 127.401  24.609  1.00  0.00     0.293 C 
ATOM      9  H   UNL     1      42.892 128.859  24.339  1.00  0.00     0.346 HD
ATOM     10  H   UNL     1      42.642 127.423  23.467  1.00  0.00     0.346 HD
BRANCH   7  11
ATOM     11  O   UNL     1      45.953 125.831  23.705  1.00  0.00    -0.387 OA
ATOM     12  H   UNL     1      46.888 125.753  24.033  1.00  0.00     0.211 HD
ENDBRANCH   7  11
ENDBRANCH   2   4
ENDBRANCH   1   2
BRANCH   1  13
ATOM     13  C   UNL     1      44.005 131.444  20.708  1.00  0.00    -0.068 A 
ATOM     14  C   UNL     1      42.830 132.126  21.075  1.00  0.00     0.032 A 
ATOM     15  C   UNL     1      44.295 131.248  19.336  1.00  0.00     0.123 A 
ATOM     16  C   UNL     1      41.976 132.644  20.099  1.00  0.00     0.158 A 
ATOM     17  C   UNL     1      43.423 131.780  18.367  1.00  0.00     0.109 A 
ATOM     18  C   UNL     1      42.274 132.475  18.746  1.00  0.00     0.164 A 
ATOM     19  F   UNL     1      40.848 133.300  20.467  1.00  0.00    -0.204 F 
ATOM     20  F   UNL     1      41.445 132.978  17.799  1.00  0.00    -0.204 F 
BRANCH  15  21
ATOM     21  N   UNL     1      45.493 130.557  18.913  1.00  0.00    -0.283 N 
ATOM     22  H   UNL     1      45.435 129.549  19.190  1.00  0.00     0.358 HD
ATOM     23  H   UNL     1      46.339 130.941  19.393  1.00  0.00     0.358 HD
BRANCH  21  24
ATOM     24  C   UNL     1      45.640 130.664  17.482  1.00  0.00     0.134 A 
ATOM     25  C   UNL     1      45.902 129.523  16.703  1.00  0.00     0.071 A 
ATOM     26  C   UNL     1      45.558 131.919  16.849  1.00  0.00     0.071 A 
ATOM     27  C   UNL     1      46.073 129.633  15.321  1.00  0.00     0.045 A 
ATOM     28  C   UNL     1      45.729 132.025  15.465  1.00  0.00     0.045 A 
ATOM     29  C   UNL     1      45.987 130.883  14.701  1.00  0.00     0.123 A 
ATOM     30  F   UNL     1      46.153 130.988  13.360  1.00  0.00    -0.207 F 
ENDBRANCH  21  24
ENDBRANCH  15  21
ENDBRANCH   1  13
TORSDOF 6
ENDMDL
MODEL 2
REMARK VINA RESULT:      -7.7      3.304      6.857
REMARK SMILES O=C([N-]c1cc(F)c(F)cc1[NH2+]c1ccc(F)cc1)[C@H]1C[C@H](O)C[NH2+]1
REMARK SMILES IDX 3 1 2 2 1 3 20 4 21 5 25 6 22 7 24 8 23 11 4 13 5 14 11 15
REMARK SMILES IDX 6 16 10 17 8 18 7 19 9 20 12 21 13 24 14 25 19 26 15 27
REMARK SMILES IDX 18 28 16 29 17 30
REMARK H PARENT 25 9 25 10 23 12 12 22 12 23
ROOT
ATOM      1  N   UNL     1      44.829 131.382  18.986  1.00  0.00    -0.617 NA
ENDROOT
BRANCH   1   2
ATOM      2  C   UNL     1      44.527 131.598  17.600  1.00  0.00     0.113 C 
ATOM      3  O   UNL     1      43.331 131.700  17.214  1.00  0.00    -0.314 OA
BRANCH   2   4
ATOM      4  C   UNL     1      45.642 131.621  16.581  1.00  0.00     0.234 C 
ATOM      5  C   UNL     1      46.338 130.268  16.488  1.00  0.00     0.109 C 
ATOM      6  N   UNL     1      45.131 131.921  15.238  1.00  0.00    -0.337 N 
ATOM      7  C   UNL     1      45.632 129.545  15.352  1.00  0.00     0.175 C 
ATOM      8  C   UNL     1      44.919 130.639  14.554  1.00  0.00     0.293 C 
ATOM      9  H   UNL     1      44.246 132.481  15.265  1.00  0.00     0.346 HD
ATOM     10  H   UNL     1      45.853 132.471  14.715  1.00  0.00     0.346 HD
BRANCH   7  11
ATOM     11  O   UNL     1      46.550 128.860  14.540  1.00  0.00    -0.387 OA
ATOM     12  H   UNL     1      46.328 129.099  13.602  1.00  0.00     0.211 HD
ENDBRANCH   7  11
ENDBRANCH   2   4
ENDBRANCH   1   2
BRANCH   1  13
ATOM     13  C   UNL     1      43.951 131.598  20.101  1.00  0.00    -0.068 A 
ATOM     14  C   UNL     1      42.832 132.444  19.987  1.00  0.00     0.032 A 
ATOM     15  C   UNL     1      44.255 131.011  21.353  1.00  0.00     0.123 A 
ATOM     16  C   UNL     1      42.001 132.672  21.087  1.00  0.00     0.158 A 
ATOM     17  C   UNL     1      43.405 131.252  22.449  1.00  0.00     0.109 A 
ATOM     18  C   UNL     1      42.284 132.073  22.315  1.00  0.00     0.164 A 
ATOM     19  F   UNL     1      40.925 133.489  20.963  1.00  0.00    -0.204 F 
ATOM     20  F   UNL     1      41.478 132.296  23.382  1.00  0.00    -0.204 F 
BRANCH  15  21
ATOM     21  N   UNL     1      45.392 130.133  21.513  1.00  0.00    -0.283 N 
ATOM     22  H   UNL     1      46.172 130.647  21.986  1.00  0.00     0.358 HD
ATOM     23  H   UNL     1      45.767 129.827  20.586  1.00  0.00     0.358 HD
BRANCH  21  24
ATOM     24  C   UNL     1      45.015 128.985  22.302  1.00  0.00     0.134 A 
ATOM     25  C   UNL     1      44.497 129.148  23.599  1.00  0.00     0.071 A 
ATOM     26  C   UNL     1      45.193 127.683  21.797  1.00  0.00     0.071 A 
ATOM     27  C   UNL     1      44.160 128.035  24.373  1.00  0.00     0.045 A 
ATOM     28  C   UNL     1      44.854 126.571  22.574  1.00  0.00     0.045 A 
ATOM     29  C   UNL     1      44.337 126.746  23.861  1.00  0.00     0.123 A 
ATOM     30  F   UNL     1      44.010 125.666  24.613  1.00  0.00    -0.207 F 
ENDBRANCH  21  24
ENDBRANCH  15  21
ENDBRANCH   1  13
TORSDOF 6
ENDMDL
MODEL 3
REMARK VINA RESULT:      -7.7      1.271      2.154
REMARK SMILES O=C([N-]c1cc(F)c(F)cc1[NH2+]c1ccc(F)cc1)[C@H]1C[C@H](O)C[NH2+]1
REMARK SMILES IDX 3 1 2 2 1 3 20 4 21 5 25 6 22 7 24 8 23 11 4 13 5 14 11 15
REMARK SMILES IDX 6 16 10 17 8 18 7 19 9 20 12 21 13 24 14 25 19 26 15 27
REMARK SMILES IDX 18 28 16 29 17 30
REMARK H PARENT 25 9 25 10 23 12 12 22 12 23
ROOT
ATOM      1  N   UNL     1      45.161 130.838  21.569  1.00  0.00    -0.617 NA
ENDROOT
BRANCH   1   2
ATOM      2  C   UNL     1      45.162 129.507  22.104  1.00  0.00     0.113 C 
ATOM      3  O   UNL     1      45.532 128.532  21.395  1.00  0.00    -0.314 OA
BRANCH   2   4
ATOM      4  C   UNL     1      44.635 129.254  23.498  1.00  0.00     0.234 C 
ATOM      5  C   UNL     1      43.717 130.381  23.957  1.00  0.00     0.109 C 
ATOM      6  N   UNL     1      43.843 128.020  23.553  1.00  0.00    -0.337 N 
ATOM      7  C   UNL     1      42.316 129.911  23.597  1.00  0.00     0.175 C 
ATOM      8  C   UNL     1      42.432 128.398  23.398  1.00  0.00     0.293 C 
ATOM      9  H   UNL     1      44.128 127.331  22.817  1.00  0.00     0.346 HD
ATOM     10  H   UNL     1      43.975 127.573  24.491  1.00  0.00     0.346 HD
BRANCH   7  11
ATOM     11  O   UNL     1      41.405 130.206  24.623  1.00  0.00    -0.387 OA
ATOM     12  H   UNL     1      40.745 130.842  24.240  1.00  0.00     0.211 HD
ENDBRANCH   7  11
ENDBRANCH   2   4
ENDBRANCH   1   2
BRANCH   1  13
ATOM     13  C   UNL     1      44.231 131.383  20.621  1.00  0.00    -0.068 A 
ATOM     14  C   UNL     1      43.077 132.065  21.050  1.00  0.00     0.032 A 
ATOM     15  C   UNL     1      44.437 131.166  19.237  1.00  0.00     0.123 A 
ATOM     16  C   UNL     1      42.162 132.565  20.121  1.00  0.00     0.158 A 
ATOM     17  C   UNL     1      43.504 131.679  18.316  1.00  0.00     0.109 A 
ATOM     18  C   UNL     1      42.377 132.376  18.755  1.00  0.00     0.164 A 
ATOM     19  F   UNL     1      41.055 133.222  20.548  1.00  0.00    -0.204 F 
ATOM     20  F   UNL     1      41.488 132.860  17.853  1.00  0.00    -0.204 F 
BRANCH  15  21
ATOM     21  N   UNL     1      45.610 130.474  18.753  1.00  0.00    -0.283 N 
ATOM     22  H   UNL     1      45.545 129.458  18.995  1.00  0.00     0.358 HD
ATOM     23  H   UNL     1      46.477 130.829  19.219  1.00  0.00     0.358 HD
BRANCH  21  24
ATOM     24  C   UNL     1      45.713 130.630  17.322  1.00  0.00     0.134 A 
ATOM     25  C   UNL     1      45.776 131.911  16.745  1.00  0.00     0.071 A 
ATOM     26  C   UNL     1      45.714 129.502  16.480  1.00  0.00     0.071 A 
ATOM     27  C   UNL     1      45.846 132.061  15.358  1.00  0.00     0.045 A 
ATOM     28  C   UNL     1      45.784 129.656  15.092  1.00  0.00     0.045 A 
ATOM     29  C   UNL     1      45.850 130.934  14.531  1.00  0.00     0.123 A 
ATOM     30  F   UNL     1      45.917 131.081  13.185  1.00  0.00    -0.207 F 
ENDBRANCH  21  24
ENDBRANCH  15  21
ENDBRANCH   1  13
TORSDOF 6
ENDMDL
MODEL 4
REMARK VINA RESULT:      -7.6      3.614      7.075
REMARK SMILES O=C([N-]c1cc(F)c(F)cc1[NH2+]c1ccc(F)cc1)[C@H]1C[C@H](O)C[NH2+]1
REMARK SMILES IDX 3 1 2 2 1 3 20 4 21 5 25 6 22 7 24 8 23 11 4 13 5 14 11 15
REMARK SMILES IDX 6 16 10 17 8 18 7 19 9 20 12 21 13 24 14 25 19 26 15 27
REMARK SMILES IDX 18 28 16 29 17 30
REMARK H PARENT 25 9 25 10 23 12 12 22 12 23
ROOT
ATOM      1  N   UNL     1      45.387 130.732  17.525  1.00  0.00    -0.617 NA
ENDROOT
BRANCH   1   2
ATOM      2  C   UNL     1      45.776 131.202  16.227  1.00  0.00     0.113 C 
ATOM      3  O   UNL     1      46.092 132.410  16.051  1.00  0.00    -0.314 OA
BRANCH   2   4
ATOM      4  C   UNL     1      45.726 130.267  15.040  1.00  0.00     0.234 C 
ATOM      5  C   UNL     1      45.935 131.019  13.732  1.00  0.00     0.109 C 
ATOM      6  N   UNL     1      46.785 129.254  15.115  1.00  0.00    -0.337 N 
ATOM      7  C   UNL     1      47.426 130.910  13.455  1.00  0.00     0.175 C 
ATOM      8  C   UNL     1      47.916 129.744  14.316  1.00  0.00     0.293 C 
ATOM      9  H   UNL     1      47.080 129.059  16.101  1.00  0.00     0.346 HD
ATOM     10  H   UNL     1      46.432 128.362  14.695  1.00  0.00     0.346 HD
BRANCH   7  11
ATOM     11  O   UNL     1      47.672 130.657  12.096  1.00  0.00    -0.387 OA
ATOM     12  H   UNL     1      48.562 131.047  11.894  1.00  0.00     0.211 HD
ENDBRANCH   7  11
ENDBRANCH   2   4
ENDBRANCH   1   2
BRANCH   1  13
ATOM     13  C   UNL     1      44.358 131.279  18.364  1.00  0.00    -0.068 A 
ATOM     14  C   UNL     1      43.206 131.866  17.808  1.00  0.00     0.032 A 
ATOM     15  C   UNL     1      44.539 131.296  19.768  1.00  0.00     0.123 A 
ATOM     16  C   UNL     1      42.225 132.423  18.632  1.00  0.00     0.158 A 
ATOM     17  C   UNL     1      43.538 131.860  20.582  1.00  0.00     0.109 A 
ATOM     18  C   UNL     1      42.389 132.416  20.018  1.00  0.00     0.164 A 
ATOM     19  F   UNL     1      41.120 132.984  18.083  1.00  0.00    -0.204 F 
ATOM     20  F   UNL     1      41.438 132.957  20.817  1.00  0.00    -0.204 F 
BRANCH  15  21
ATOM     21  N   UNL     1      45.704 130.700  20.382  1.00  0.00    -0.283 N 
ATOM     22  H   UNL     1      46.306 131.450  20.796  1.00  0.00     0.358 HD
ATOM     23  H   UNL     1      46.297 130.212  19.672  1.00  0.00     0.358 HD
BRANCH  21  24
ATOM     24  C   UNL     1      45.296 129.777  21.412  1.00  0.00     0.134 A 
ATOM     25  C   UNL     1      45.655 128.419  21.338  1.00  0.00     0.071 A 
ATOM     26  C   UNL     1      44.500 130.214  22.488  1.00  0.00     0.071 A 
ATOM     27  C   UNL     1      45.234 127.520  22.322  1.00  0.00     0.045 A 
ATOM     28  C   UNL     1      44.081 129.312  23.470  1.00  0.00     0.045 A 
ATOM     29  C   UNL     1      44.447 127.965  23.388  1.00  0.00     0.123 A 
ATOM     30  F   UNL     1      44.039 127.092  24.340  1.00  0.00    -0.207 F 
ENDBRANCH  21  24
ENDBRANCH  15  21
ENDBRANCH   1  13
TORSDOF 6
ENDMDL
MODEL 5
REMARK VINA RESULT:      -7.4      3.464      7.006
REMARK SMILES O=C([N-]c1cc(F)c(F)cc1[NH2+]c1ccc(F)cc1)[C@H]1C[C@H](O)C[NH2+]1
REMARK SMILES IDX 3 1 2 2 1 3 20 4 21 5 25 6 22 7 24 8 23 11 4 13 5 14 11 15
REMARK SMILES IDX 6 16 10 17 8 18 7 19 9 20 12 21 13 24 14 25 19 26 15 27
REMARK SMILES IDX 18 28 16 29 17 30
REMARK H PARENT 25 9 25 10 23 12 12 22 12 23
ROOT
ATOM      1  N   UNL     1      45.179 130.738  18.526  1.00  0.00    -0.617 NA
ENDROOT
BRANCH   1   2
ATOM      2  C   UNL     1      45.295 131.291  17.208  1.00  0.00     0.113 C 
ATOM      3  O   UNL     1      45.474 132.528  17.047  1.00  0.00    -0.314 OA
BRANCH   2   4
ATOM      4  C   UNL     1      45.118 130.401  15.999  1.00  0.00     0.234 C 
ATOM      5  C   UNL     1      45.214 131.199  14.704  1.00  0.00     0.109 C 
ATOM      6  N   UNL     1      46.164 129.373  15.937  1.00  0.00    -0.337 N 
ATOM      7  C   UNL     1      46.671 131.082  14.283  1.00  0.00     0.175 C 
ATOM      8  C   UNL     1      47.222 129.879  15.052  1.00  0.00     0.293 C 
ATOM      9  H   UNL     1      46.548 129.138  16.882  1.00  0.00     0.346 HD
ATOM     10  H   UNL     1      45.758 128.502  15.520  1.00  0.00     0.346 HD
BRANCH   7  11
ATOM     11  O   UNL     1      46.782 130.877  12.899  1.00  0.00    -0.387 OA
ATOM     12  H   UNL     1      47.275 131.660  12.537  1.00  0.00     0.211 HD
ENDBRANCH   7  11
ENDBRANCH   2   4
ENDBRANCH   1   2
BRANCH   1  13
ATOM     13  C   UNL     1      44.299 131.182  19.570  1.00  0.00    -0.068 A 
ATOM     14  C   UNL     1      43.213 132.032  19.289  1.00  0.00     0.032 A 
ATOM     15  C   UNL     1      44.570 130.821  20.912  1.00  0.00     0.123 A 
ATOM     16  C   UNL     1      42.380 132.484  20.315  1.00  0.00     0.158 A 
ATOM     17  C   UNL     1      43.718 131.285  21.933  1.00  0.00     0.109 A 
ATOM     18  C   UNL     1      42.630 132.107  21.635  1.00  0.00     0.164 A 
ATOM     19  F   UNL     1      41.337 133.301  20.029  1.00  0.00    -0.204 F 
ATOM     20  F   UNL     1      41.822 132.546  22.632  1.00  0.00    -0.204 F 
BRANCH  15  21
ATOM     21  N   UNL     1      45.671 129.947  21.246  1.00  0.00    -0.283 N 
ATOM     22  H   UNL     1      46.387 130.477  21.796  1.00  0.00     0.358 HD
ATOM     23  H   UNL     1      46.159 129.608  20.385  1.00  0.00     0.358 HD
BRANCH  21  24
ATOM     24  C   UNL     1      45.190 128.828  22.020  1.00  0.00     0.134 A 
ATOM     25  C   UNL     1      44.407 129.038  23.169  1.00  0.00     0.071 A 
ATOM     26  C   UNL     1      45.528 127.511  21.656  1.00  0.00     0.071 A 
ATOM     27  C   UNL     1      43.966 127.954  23.933  1.00  0.00     0.045 A 
ATOM     28  C   UNL     1      45.085 126.429  22.423  1.00  0.00     0.045 A 
ATOM     29  C   UNL     1      44.304 126.650  23.561  1.00  0.00     0.123 A 
ATOM     30  F   UNL     1      43.876 125.600  24.304  1.00  0.00    -0.207 F 
ENDBRANCH  21  24
ENDBRANCH  15  21
ENDBRANCH   1  13
TORSDOF 6
ENDMDL
MODEL 6
REMARK VINA RESULT:      -7.2      3.288      6.906
REMARK SMILES O=C([N-]c1cc(F)c(F)cc1[NH2+]c1ccc(F)cc1)[C@H]1C[C@H](O)C[NH2+]1
REMARK SMILES IDX 3 1 2 2 1 3 20 4 21 5 25 6 22 7 24 8 23 11 4 13 5 14 11 15
REMARK SMILES IDX 6 16 10 17 8 18 7 19 9 20 12 21 13 24 14 25 19 26 15 27
REMARK SMILES IDX 18 28 16 29 17 30
REMARK H PARENT 25 9 25 10 23 12 12 22 12 23
ROOT
ATOM      1  N   UNL     1      45.500 130.836  18.745  1.00  0.00    -0.617 NA
ENDROOT
BRANCH   1   2
ATOM      2  C   UNL     1      45.661 130.387  17.393  1.00  0.00     0.113 C 
ATOM      3  O   UNL     1      46.174 129.262  17.148  1.00  0.00    -0.314 OA
BRANCH   2   4
ATOM      4  C   UNL     1      45.293 131.301  16.247  1.00  0.00     0.234 C 
ATOM      5  C   UNL     1      46.534 131.841  15.547  1.00  0.00     0.109 C 
ATOM      6  N   UNL     1      44.513 130.590  15.227  1.00  0.00    -0.337 N 
ATOM      7  C   UNL     1      46.777 130.881  14.392  1.00  0.00     0.175 C 
ATOM      8  C   UNL     1      45.453 130.143  14.191  1.00  0.00     0.293 C 
ATOM      9  H   UNL     1      43.982 129.780  15.625  1.00  0.00     0.346 HD
ATOM     10  H   UNL     1      43.826 131.256  14.800  1.00  0.00     0.346 HD
BRANCH   7  11
ATOM     11  O   UNL     1      47.139 131.574  13.226  1.00  0.00    -0.387 OA
ATOM     12  H   UNL     1      47.312 132.513  13.499  1.00  0.00     0.211 HD
ENDBRANCH   7  11
ENDBRANCH   2   4
ENDBRANCH   1   2
BRANCH   1  13
ATOM     13  C   UNL     1      44.319 131.409  19.326  1.00  0.00    -0.068 A 
ATOM     14  C   UNL     1      43.293 131.931  18.515  1.00  0.00     0.032 A 
ATOM     15  C   UNL     1      44.216 131.520  20.734  1.00  0.00     0.123 A 
ATOM     16  C   UNL     1      42.162 132.515  19.090  1.00  0.00     0.158 A 
ATOM     17  C   UNL     1      43.067 132.111  21.294  1.00  0.00     0.109 A 
ATOM     18  C   UNL     1      42.047 132.601  20.478  1.00  0.00     0.164 A 
ATOM     19  F   UNL     1      41.181 133.012  18.296  1.00  0.00    -0.204 F 
ATOM     20  F   UNL     1      40.949 133.168  21.035  1.00  0.00    -0.204 F 
BRANCH  15  21
ATOM     21  N   UNL     1      45.244 130.994  21.605  1.00  0.00    -0.283 N 
ATOM     22  H   UNL     1      45.468 131.696  22.349  1.00  0.00     0.358 HD
ATOM     23  H   UNL     1      46.135 130.832  21.082  1.00  0.00     0.358 HD
BRANCH  21  24
ATOM     24  C   UNL     1      44.789 129.767  22.210  1.00  0.00     0.134 A 
ATOM     25  C   UNL     1      43.819 129.788  23.228  1.00  0.00     0.071 A 
ATOM     26  C   UNL     1      45.337 128.531  21.816  1.00  0.00     0.071 A 
ATOM     27  C   UNL     1      43.401 128.600  23.834  1.00  0.00     0.045 A 
ATOM     28  C   UNL     1      44.917 127.344  22.425  1.00  0.00     0.045 A 
ATOM     29  C   UNL     1      43.949 127.378  23.433  1.00  0.00     0.123 A 
ATOM     30  F   UNL     1      43.544 126.227  24.022  1.00  0.00    -0.207 F 
ENDBRANCH  21  24
ENDBRANCH  15  21
ENDBRANCH   1  13
TORSDOF 6
ENDMDL
MODEL 7
REMARK VINA RESULT:      -7.2      2.099      2.999
REMARK SMILES O=C([N-]c1cc(F)c(F)cc1[NH2+]c1ccc(F)cc1)[C@H]1C[C@H](O)C[NH2+]1
REMARK SMILES IDX 3 1 2 2 1 3 20 4 21 5 25 6 22 7 24 8 23 11 4 13 5 14 11 15
REMARK SMILES IDX 6 16 10 17 8 18 7 19 9 20 12 21 13 24 14 25 19 26 15 27
REMARK SMILES IDX 18 28 16 29 17 30
REMARK H PARENT 25 9 25 10 23 12 12 22 12 23
ROOT
ATOM      1  N   UNL     1      45.678 130.483  19.841  1.00  0.00    -0.617 NA
ENDROOT
BRANCH   1   2
ATOM      2  C   UNL     1      45.243 130.222  21.183  1.00  0.00     0.113 C 
ATOM      3  O   UNL     1      45.549 129.141  21.756  1.00  0.00    -0.314 OA
BRANCH   2   4
ATOM      4  C   UNL     1      44.341 131.207  21.888  1.00  0.00     0.234 C 
ATOM      5  C   UNL     1      42.909 130.692  21.967  1.00  0.00     0.109 C 
ATOM      6  N   UNL     1      44.779 131.438  23.270  1.00  0.00    -0.337 N 
ATOM      7  C   UNL     1      42.819 130.001  23.319  1.00  0.00     0.175 C 
ATOM      8  C   UNL     1      43.997 130.542  24.132  1.00  0.00     0.293 C 
ATOM      9  H   UNL     1      45.806 131.273  23.394  1.00  0.00     0.346 HD
ATOM     10  H   UNL     1      44.572 132.431  23.531  1.00  0.00     0.346 HD
BRANCH   7  11
ATOM     11  O   UNL     1      41.603 130.295  23.957  1.00  0.00    -0.387 OA
ATOM     12  H   UNL     1      41.198 129.423  24.205  1.00  0.00     0.211 HD
ENDBRANCH   7  11
ENDBRANCH   2   4
ENDBRANCH   1   2
BRANCH   1  13
ATOM     13  C   UNL     1      44.867 130.939  18.749  1.00  0.00    -0.068 A 
ATOM     14  C   UNL     1      43.637 131.584  18.979  1.00  0.00     0.032 A 
ATOM     15  C   UNL     1      45.272 130.670  17.419  1.00  0.00     0.123 A 
ATOM     16  C   UNL     1      42.840 131.996  17.909  1.00  0.00     0.158 A 
ATOM     17  C   UNL     1      44.455 131.096  16.353  1.00  0.00     0.109 A 
ATOM     18  C   UNL     1      43.251 131.756  16.597  1.00  0.00     0.164 A 
ATOM     19  F   UNL     1      41.658 132.618  18.147  1.00  0.00    -0.204 F 
ATOM     20  F   UNL     1      42.477 132.156  15.559  1.00  0.00    -0.204 F 
BRANCH  15  21
ATOM     21  N   UNL     1      46.529 130.015  17.135  1.00  0.00    -0.283 N 
ATOM     22  H   UNL     1      46.433 128.985  17.298  1.00  0.00     0.358 HD
ATOM     23  H   UNL     1      47.280 130.342  17.785  1.00  0.00     0.358 HD
BRANCH  21  24
ATOM     24  C   UNL     1      46.910 130.261  15.766  1.00  0.00     0.134 A 
ATOM     25  C   UNL     1      46.673 131.514  15.172  1.00  0.00     0.071 A 
ATOM     26  C   UNL     1      47.492 129.239  14.993  1.00  0.00     0.071 A 
ATOM     27  C   UNL     1      47.017 131.741  13.837  1.00  0.00     0.045 A 
ATOM     28  C   UNL     1      47.834 129.470  13.657  1.00  0.00     0.045 A 
ATOM     29  C   UNL     1      47.597 130.720  13.079  1.00  0.00     0.123 A 
ATOM     30  F   UNL     1      47.929 130.942  11.783  1.00  0.00    -0.207 F 
ENDBRANCH  21  24
ENDBRANCH  15  21
ENDBRANCH   1  13
TORSDOF 6
ENDMDL
MODEL 8
REMARK VINA RESULT:      -7.1      1.468      2.208
REMARK SMILES O=C([N-]c1cc(F)c(F)cc1[NH2+]c1ccc(F)cc1)[C@H]1C[C@H](O)C[NH2+]1
REMARK SMILES IDX 3 1 2 2 1 3 20 4 21 5 25 6 22 7 24 8 23 11 4 13 5 14 11 15
REMARK SMILES IDX 6 16 10 17 8 18 7 19 9 20 12 21 13 24 14 25 19 26 15 27
REMARK SMILES IDX 18 28 16 29 17 30
REMARK H PARENT 25 9 25 10 23 12 12 22 12 23
ROOT
ATOM      1  N   UNL     1      45.420 130.572  20.975  1.00  0.00    -0.617 NA
ENDROOT
BRANCH   1   2
ATOM      2  C   UNL     1      45.169 129.507  21.903  1.00  0.00     0.113 C 
ATOM      3  O   UNL     1      45.241 128.304  21.531  1.00  0.00    -0.314 OA
BRANCH   2   4
ATOM      4  C   UNL     1      44.731 129.824  23.314  1.00  0.00     0.234 C 
ATOM      5  C   UNL     1      43.929 131.119  23.369  1.00  0.00     0.109 C 
ATOM      6  N   UNL     1      43.863 128.771  23.852  1.00  0.00    -0.337 N 
ATOM      7  C   UNL     1      42.476 130.680  23.269  1.00  0.00     0.175 C 
ATOM      8  C   UNL     1      42.474 129.194  23.633  1.00  0.00     0.293 C 
ATOM      9  H   UNL     1      44.045 127.839  23.408  1.00  0.00     0.346 HD
ATOM     10  H   UNL     1      44.034 128.683  24.882  1.00  0.00     0.346 HD
BRANCH   7  11
ATOM     11  O   UNL     1      41.666 131.407  24.154  1.00  0.00    -0.387 OA
ATOM     12  H   UNL     1      41.596 132.326  23.783  1.00  0.00     0.211 HD
ENDBRANCH   7  11
ENDBRANCH   2   4
ENDBRANCH   1   2
BRANCH   1  13
ATOM     13  C   UNL     1      44.489 131.131  20.037  1.00  0.00    -0.068 A 
ATOM     14  C   UNL     1      43.283 131.713  20.472  1.00  0.00     0.032 A 
ATOM     15  C   UNL     1      44.750 131.030  18.649  1.00  0.00     0.123 A 
ATOM     16  C   UNL     1      42.369 132.226  19.549  1.00  0.00     0.158 A 
ATOM     17  C   UNL     1      43.817 131.556  17.734  1.00  0.00     0.109 A 
ATOM     18  C   UNL     1      42.638 132.152  18.182  1.00  0.00     0.164 A 
ATOM     19  F   UNL     1      41.212 132.785  19.983  1.00  0.00    -0.204 F 
ATOM     20  F   UNL     1      41.750 132.650  17.287  1.00  0.00    -0.204 F 
BRANCH  15  21
ATOM     21  N   UNL     1      45.977 130.445  18.157  1.00  0.00    -0.283 N 
ATOM     22  H   UNL     1      46.013 129.431  18.419  1.00  0.00     0.358 HD
ATOM     23  H   UNL     1      46.812 130.889  18.603  1.00  0.00     0.358 HD
BRANCH  21  24
ATOM     24  C   UNL     1      46.044 130.583  16.723  1.00  0.00     0.134 A 
ATOM     25  C   UNL     1      46.113 129.446  15.898  1.00  0.00     0.071 A 
ATOM     26  C   UNL     1      46.077 131.859  16.130  1.00  0.00     0.071 A 
ATOM     27  C   UNL     1      46.207 129.582  14.511  1.00  0.00     0.045 A 
ATOM     28  C   UNL     1      46.171 131.991  14.741  1.00  0.00     0.045 A 
ATOM     29  C   UNL     1      46.236 130.853  13.931  1.00  0.00     0.123 A 
ATOM     30  F   UNL     1      46.328 130.984  12.585  1.00  0.00    -0.207 F 
ENDBRANCH  21  24
ENDBRANCH  15  21
ENDBRANCH   1  13
TORSDOF 6
ENDMDL
MODEL 9
REMARK VINA RESULT:      -6.9      3.357      6.848
REMARK SMILES O=C([N-]c1cc(F)c(F)cc1[NH2+]c1ccc(F)cc1)[C@H]1C[C@H](O)C[NH2+]1
REMARK SMILES IDX 3 1 2 2 1 3 20 4 21 5 25 6 22 7 24 8 23 11 4 13 5 14 11 15
REMARK SMILES IDX 6 16 10 17 8 18 7 19 9 20 12 21 13 24 14 25 19 26 15 27
REMARK SMILES IDX 18 28 16 29 17 30
REMARK H PARENT 25 9 25 10 23 12 12 22 12 23
ROOT
ATOM      1  N   UNL     1      44.888 130.762  18.927  1.00  0.00    -0.617 NA
ENDROOT
BRANCH   1   2
ATOM      2  C   UNL     1      45.079 131.298  17.611  1.00  0.00     0.113 C 
ATOM      3  O   UNL     1      45.404 132.506  17.453  1.00  0.00    -0.314 OA
BRANCH   2   4
ATOM      4  C   UNL     1      44.805 130.438  16.399  1.00  0.00     0.234 C 
ATOM      5  C   UNL     1      44.923 131.241  15.109  1.00  0.00     0.109 C 
ATOM      6  N   UNL     1      45.772 129.338  16.297  1.00  0.00    -0.337 N 
ATOM      7  C   UNL     1      46.355 131.025  14.646  1.00  0.00     0.175 C 
ATOM      8  C   UNL     1      46.839 129.777  15.388  1.00  0.00     0.293 C 
ATOM      9  H   UNL     1      46.164 129.065  17.229  1.00  0.00     0.346 HD
ATOM     10  H   UNL     1      45.294 128.503  15.884  1.00  0.00     0.346 HD
BRANCH   7  11
ATOM     11  O   UNL     1      46.414 130.828  13.258  1.00  0.00    -0.387 OA
ATOM     12  H   UNL     1      45.490 130.953  12.916  1.00  0.00     0.211 HD
ENDBRANCH   7  11
ENDBRANCH   2   4
ENDBRANCH   1   2
BRANCH   1  13
ATOM     13  C   UNL     1      44.005 131.264  19.941  1.00  0.00    -0.068 A 
ATOM     14  C   UNL     1      42.941 132.126  19.612  1.00  0.00     0.032 A 
ATOM     15  C   UNL     1      44.250 130.950  21.299  1.00  0.00     0.123 A 
ATOM     16  C   UNL     1      42.105 132.634  20.609  1.00  0.00     0.158 A 
ATOM     17  C   UNL     1      43.396 131.471  22.290  1.00  0.00     0.109 A 
ATOM     18  C   UNL     1      42.330 132.304  21.946  1.00  0.00     0.164 A 
ATOM     19  F   UNL     1      41.084 133.462  20.277  1.00  0.00    -0.204 F 
ATOM     20  F   UNL     1      41.519 132.798  22.913  1.00  0.00    -0.204 F 
BRANCH  15  21
ATOM     21  N   UNL     1      45.328 130.067  21.682  1.00  0.00    -0.283 N 
ATOM     22  H   UNL     1      45.961 130.555  22.359  1.00  0.00     0.358 HD
ATOM     23  H   UNL     1      45.923 129.817  20.858  1.00  0.00     0.358 HD
BRANCH  21  24
ATOM     24  C   UNL     1      44.790 128.873  22.288  1.00  0.00     0.134 A 
ATOM     25  C   UNL     1      45.359 127.616  22.019  1.00  0.00     0.071 A 
ATOM     26  C   UNL     1      43.664 128.947  23.129  1.00  0.00     0.071 A 
ATOM     27  C   UNL     1      44.818 126.458  22.584  1.00  0.00     0.045 A 
ATOM     28  C   UNL     1      43.125 127.786  23.694  1.00  0.00     0.045 A 
ATOM     29  C   UNL     1      43.702 126.542  23.421  1.00  0.00     0.123 A 
ATOM     30  F   UNL     1      43.178 125.418  23.968  1.00  0.00    -0.207 F 
ENDBRANCH  21  24
ENDBRANCH  15  21
ENDBRANCH   1  13
TORSDOF 6
ENDMDL


