REMARK SMILES Cc1ccc(-c2ccc(/N=C(\O)c3cccc(C)c3)c(C(=O)N[C@@H](C)[C@H](C)O)c2)cc1
REMARK SMILES IDX 9 1 8 2 7 3 6 4 29 5 20 6 10 7 11 8 12 9 13 11 14 12 19 13
REMARK SMILES IDX 15 14 17 15 16 16 18 17 21 18 23 19 22 20 24 22 25 23 26 24
REMARK SMILES IDX 27 25 28 26 5 28 4 29 30 30 3 31 31 32 2 33 1 34
REMARK H PARENT 12 10 23 21 28 27
ROOT
ATOM      1  C   UNL     1      -0.468  -0.113   0.992  1.00  0.00     0.080 A 
ATOM      2  C   UNL     1      -1.556  -0.487   1.800  1.00  0.00     0.030 A 
ATOM      3  C   UNL     1      -1.618  -0.092   3.137  1.00  0.00     0.011 A 
ATOM      4  C   UNL     1      -0.589   0.676   3.701  1.00  0.00    -0.017 A 
ATOM      5  C   UNL     1       0.513   1.028   2.904  1.00  0.00     0.024 A 
ATOM      6  C   UNL     1       0.598   0.621   1.561  1.00  0.00     0.066 A 
ENDROOT
BRANCH   1   7
ATOM      7  N   UNL     1      -0.414  -0.504  -0.390  1.00  0.00    -0.213 NA
BRANCH   7   8
ATOM      8  C   UNL     1      -1.407  -0.518  -1.231  1.00  0.00     0.218 C 
BRANCH   8   9
ATOM      9  O   UNL     1      -2.664  -0.045  -0.846  1.00  0.00    -0.493 OA
ATOM     10  H   UNL     1      -3.475  -0.113  -1.448  1.00  0.00     0.295 HD
ENDBRANCH   8   9
BRANCH   8  11
ATOM     11  C   UNL     1      -1.175  -1.005  -2.610  1.00  0.00     0.037 A 
ATOM     12  C   UNL     1      -0.200  -1.988  -2.857  1.00  0.00     0.014 A 
ATOM     13  C   UNL     1      -1.893  -0.469  -3.694  1.00  0.00     0.017 A 
ATOM     14  C   UNL     1       0.043  -2.434  -4.158  1.00  0.00     0.001 A 
ATOM     15  C   UNL     1      -1.637  -0.903  -5.005  1.00  0.00    -0.050 A 
ATOM     16  C   UNL     1      -0.677  -1.900  -5.228  1.00  0.00     0.003 A 
ATOM     17  C   UNL     1      -2.429  -0.348  -6.151  1.00  0.00     0.044 C 
ENDBRANCH   8  11
ENDBRANCH   7   8
ENDBRANCH   1   7
BRANCH   6  18
ATOM     18  C   UNL     1       1.786   1.021   0.768  1.00  0.00     0.253 C 
ATOM     19  N   UNL     1       2.381   0.120  -0.180  1.00  0.00    -0.347 N 
ATOM     20  O   UNL     1       2.299   2.157   0.963  1.00  0.00    -0.269 OA
ATOM     21  H   UNL     1       2.101  -0.887  -0.154  1.00  0.00     0.164 HD
BRANCH  19  22
ATOM     22  C   UNL     1       3.508   0.500  -1.040  1.00  0.00     0.107 C 
ATOM     23  C   UNL     1       4.793  -0.141  -0.507  1.00  0.00     0.033 C 
BRANCH  22  24
ATOM     24  C   UNL     1       3.244   0.086  -2.505  1.00  0.00     0.133 C 
ATOM     25  C   UNL     1       2.072   0.875  -3.099  1.00  0.00     0.040 C 
BRANCH  24  26
ATOM     26  O   UNL     1       2.981  -1.293  -2.579  1.00  0.00    -0.391 OA
ATOM     27  H   UNL     1       3.102  -1.559  -3.527  1.00  0.00     0.211 HD
ENDBRANCH  24  26
ENDBRANCH  22  24
ENDBRANCH  19  22
ENDBRANCH   6  18
BRANCH   4  28
ATOM     28  C   UNL     1      -0.660   1.101   5.123  1.00  0.00    -0.018 A 
ATOM     29  C   UNL     1       0.483   1.057   5.941  1.00  0.00     0.009 A 
ATOM     30  C   UNL     1      -1.874   1.549   5.675  1.00  0.00     0.009 A 
ATOM     31  C   UNL     1       0.415   1.456   7.279  1.00  0.00     0.004 A 
ATOM     32  C   UNL     1      -1.941   1.948   7.013  1.00  0.00     0.004 A 
ATOM     33  C   UNL     1      -0.794   1.919   7.819  1.00  0.00    -0.051 A 
ATOM     34  C   UNL     1      -0.875   2.311   9.264  1.00  0.00     0.044 C 
ENDBRANCH   4  28
TORSDOF 9


