MODEL 1
REMARK VINA RESULT:      -9.9      0.000      0.000
REMARK SMILES Cc1cc(-c2cccc3[nH+]coc23)cc(O)c1F
REMARK SMILES IDX 1 1 2 2 3 3 4 4 14 5 15 6 17 7 18 8 5 9 6 10 13 11 7 12
REMARK SMILES IDX 12 13 9 14 8 15 11 16 10 17 16 19
REMARK H PARENT 10 18 16 20
ROOT
ATOM      1  C   UNL     1      43.419 131.799  13.999  1.00  0.00     0.048 C 
ATOM      2  C   UNL     1      44.421 131.327  15.014  1.00  0.00    -0.011 A 
ATOM      3  C   UNL     1      44.149 131.450  16.386  1.00  0.00     0.015 A 
ATOM      4  C   UNL     1      45.065 130.982  17.344  1.00  0.00    -0.010 A 
ATOM      5  C   UNL     1      46.261 130.382  16.910  1.00  0.00     0.058 A 
ATOM      6  C   UNL     1      46.531 130.244  15.543  1.00  0.00     0.152 A 
ATOM      7  C   UNL     1      45.611 130.709  14.598  1.00  0.00     0.167 A 
ATOM      8  F   UNL     1      45.878 130.558  13.275  1.00  0.00    -0.203 F 
ENDROOT
BRANCH   4   9
ATOM      9  C   UNL     1      44.775 131.124  18.792  1.00  0.00     0.032 A 
ATOM     10  C   UNL     1      45.691 130.675  19.775  1.00  0.00     0.013 A 
ATOM     11  C   UNL     1      43.591 131.711  19.256  1.00  0.00     0.212 A 
ATOM     12  C   UNL     1      45.401 130.815  21.152  1.00  0.00     0.008 A 
ATOM     13  O   UNL     1      42.597 132.226  18.573  1.00  0.00    -0.403 OA
ATOM     14  C   UNL     1      43.318 131.843  20.586  1.00  0.00     0.249 A 
ATOM     15  C   UNL     1      44.198 131.408  21.572  1.00  0.00     0.083 A 
ATOM     16  C   UNL     1      41.722 132.665  19.463  1.00  0.00     0.521 A 
ATOM     17  N   UNL     1      42.131 132.447  20.736  1.00  0.00    -0.176 N 
ATOM     18  H   UNL     1      41.637 132.697  21.621  1.00  0.00     0.457 HD
ENDBRANCH   4   9
BRANCH   6  19
ATOM     19  O   UNL     1      47.714 129.644  15.113  1.00  0.00    -0.505 OA
ATOM     20  H   UNL     1      47.829 128.638  15.119  1.00  0.00     0.293 HD
ENDBRANCH   6  19
TORSDOF 2
ENDMDL
MODEL 2
REMARK VINA RESULT:      -9.8      1.278      2.018
REMARK SMILES Cc1cc(-c2cccc3[nH+]coc23)cc(O)c1F
REMARK SMILES IDX 1 1 2 2 3 3 4 4 14 5 15 6 17 7 18 8 5 9 6 10 13 11 7 12
REMARK SMILES IDX 12 13 9 14 8 15 11 16 10 17 16 19
REMARK H PARENT 10 18 16 20
ROOT
ATOM      1  C   UNL     1      47.606 129.808  14.693  1.00  0.00     0.048 C 
ATOM      2  C   UNL     1      46.340 130.388  15.254  1.00  0.00    -0.011 A 
ATOM      3  C   UNL     1      46.157 130.479  16.643  1.00  0.00     0.015 A 
ATOM      4  C   UNL     1      44.990 131.051  17.178  1.00  0.00    -0.010 A 
ATOM      5  C   UNL     1      44.004 131.538  16.301  1.00  0.00     0.058 A 
ATOM      6  C   UNL     1      44.187 131.464  14.915  1.00  0.00     0.152 A 
ATOM      7  C   UNL     1      45.354 130.897  14.393  1.00  0.00     0.167 A 
ATOM      8  F   UNL     1      45.526 130.842  13.047  1.00  0.00    -0.203 F 
ENDROOT
BRANCH   4   9
ATOM      9  C   UNL     1      44.800 131.134  18.647  1.00  0.00     0.032 A 
ATOM     10  C   UNL     1      45.783 130.653  19.546  1.00  0.00     0.013 A 
ATOM     11  C   UNL     1      43.649 131.695  19.215  1.00  0.00     0.212 A 
ATOM     12  C   UNL     1      45.588 130.737  20.944  1.00  0.00     0.008 A 
ATOM     13  O   UNL     1      42.608 132.230  18.622  1.00  0.00    -0.403 OA
ATOM     14  C   UNL     1      43.467 131.773  20.564  1.00  0.00     0.249 A 
ATOM     15  C   UNL     1      44.414 131.304  21.470  1.00  0.00     0.083 A 
ATOM     16  C   UNL     1      41.794 132.627  19.587  1.00  0.00     0.521 A 
ATOM     17  N   UNL     1      42.291 132.362  20.819  1.00  0.00    -0.176 N 
ATOM     18  H   UNL     1      41.859 132.574  21.746  1.00  0.00     0.457 HD
ENDBRANCH   4   9
BRANCH   6  19
ATOM     19  O   UNL     1      43.212 131.953  14.046  1.00  0.00    -0.505 OA
ATOM     20  H   UNL     1      43.337 131.926  13.041  1.00  0.00     0.293 HD
ENDBRANCH   6  19
TORSDOF 2
ENDMDL
MODEL 3
REMARK VINA RESULT:      -8.6      1.337      2.216
REMARK SMILES Cc1cc(-c2cccc3[nH+]coc23)cc(O)c1F
REMARK SMILES IDX 1 1 2 2 3 3 4 4 14 5 15 6 17 7 18 8 5 9 6 10 13 11 7 12
REMARK SMILES IDX 12 13 9 14 8 15 11 16 10 17 16 19
REMARK H PARENT 10 18 16 20
ROOT
ATOM      1  C   UNL     1      43.452 131.619  13.786  1.00  0.00     0.048 C 
ATOM      2  C   UNL     1      44.186 131.315  15.061  1.00  0.00    -0.011 A 
ATOM      3  C   UNL     1      43.608 131.627  16.302  1.00  0.00     0.015 A 
ATOM      4  C   UNL     1      44.272 131.317  17.502  1.00  0.00    -0.010 A 
ATOM      5  C   UNL     1      45.526 130.683  17.444  1.00  0.00     0.058 A 
ATOM      6  C   UNL     1      46.101 130.355  16.210  1.00  0.00     0.152 A 
ATOM      7  C   UNL     1      45.429 130.665  15.022  1.00  0.00     0.167 A 
ATOM      8  F   UNL     1      45.991 130.331  13.831  1.00  0.00    -0.203 F 
ENDROOT
BRANCH   4   9
ATOM      9  C   UNL     1      43.659 131.659  18.808  1.00  0.00     0.032 A 
ATOM     10  C   UNL     1      42.454 132.399  18.887  1.00  0.00     0.013 A 
ATOM     11  C   UNL     1      44.235 131.265  20.023  1.00  0.00     0.212 A 
ATOM     12  C   UNL     1      41.881 132.719  20.140  1.00  0.00     0.008 A 
ATOM     13  O   UNL     1      45.322 130.561  20.235  1.00  0.00    -0.403 OA
ATOM     14  C   UNL     1      43.678 131.577  21.228  1.00  0.00     0.249 A 
ATOM     15  C   UNL     1      42.497 132.306  21.334  1.00  0.00     0.083 A 
ATOM     16  C   UNL     1      45.438 130.445  21.549  1.00  0.00     0.521 A 
ATOM     17  N   UNL     1      44.432 131.064  22.210  1.00  0.00    -0.176 N 
ATOM     18  H   UNL     1      44.280 131.122  23.242  1.00  0.00     0.457 HD
ENDBRANCH   4   9
BRANCH   6  19
ATOM     19  O   UNL     1      47.341 129.721  16.154  1.00  0.00    -0.505 OA
ATOM     20  H   UNL     1      47.551 128.918  16.734  1.00  0.00     0.293 HD
ENDBRANCH   6  19
TORSDOF 2
ENDMDL
MODEL 4
REMARK VINA RESULT:      -8.2      1.797      2.975
REMARK SMILES Cc1cc(-c2cccc3[nH+]coc23)cc(O)c1F
REMARK SMILES IDX 1 1 2 2 3 3 4 4 14 5 15 6 17 7 18 8 5 9 6 10 13 11 7 12
REMARK SMILES IDX 12 13 9 14 8 15 11 16 10 17 16 19
REMARK H PARENT 10 18 16 20
ROOT
ATOM      1  C   UNL     1      47.281 129.949  15.276  1.00  0.00     0.048 C 
ATOM      2  C   UNL     1      45.924 130.552  15.494  1.00  0.00    -0.011 A 
ATOM      3  C   UNL     1      45.458 130.796  16.796  1.00  0.00     0.015 A 
ATOM      4  C   UNL     1      44.202 131.391  17.010  1.00  0.00    -0.010 A 
ATOM      5  C   UNL     1      43.416 131.745  15.899  1.00  0.00     0.058 A 
ATOM      6  C   UNL     1      43.881 131.517  14.597  1.00  0.00     0.152 A 
ATOM      7  C   UNL     1      45.134 130.929  14.396  1.00  0.00     0.167 A 
ATOM      8  F   UNL     1      45.580 130.724  13.129  1.00  0.00    -0.203 F 
ENDROOT
BRANCH   4   9
ATOM      9  C   UNL     1      43.713 131.637  18.388  1.00  0.00     0.032 A 
ATOM     10  C   UNL     1      42.431 132.188  18.628  1.00  0.00     0.013 A 
ATOM     11  C   UNL     1      44.488 131.332  19.515  1.00  0.00     0.212 A 
ATOM     12  C   UNL     1      41.977 132.418  19.948  1.00  0.00     0.008 A 
ATOM     13  O   UNL     1      45.685 130.799  19.579  1.00  0.00    -0.403 OA
ATOM     14  C   UNL     1      44.045 131.557  20.785  1.00  0.00     0.249 A 
ATOM     15  C   UNL     1      42.792 132.101  21.049  1.00  0.00     0.083 A 
ATOM     16  C   UNL     1      45.980 130.700  20.865  1.00  0.00     0.521 A 
ATOM     17  N   UNL     1      44.983 131.162  21.657  1.00  0.00    -0.176 N 
ATOM     18  H   UNL     1      44.954 131.196  22.700  1.00  0.00     0.457 HD
ENDBRANCH   4   9
BRANCH   6  19
ATOM     19  O   UNL     1      43.103 131.873  13.496  1.00  0.00    -0.505 OA
ATOM     20  H   UNL     1      42.791 132.826  13.355  1.00  0.00     0.293 HD
ENDBRANCH   6  19
TORSDOF 2
ENDMDL
MODEL 5
REMARK VINA RESULT:      -7.8      3.172      5.858
REMARK SMILES Cc1cc(-c2cccc3[nH+]coc23)cc(O)c1F
REMARK SMILES IDX 1 1 2 2 3 3 4 4 14 5 15 6 17 7 18 8 5 9 6 10 13 11 7 12
REMARK SMILES IDX 12 13 9 14 8 15 11 16 10 17 16 19
REMARK H PARENT 10 18 16 20
ROOT
ATOM      1  C   UNL     1      44.755 131.266  22.094  1.00  0.00     0.048 C 
ATOM      2  C   UNL     1      44.164 131.517  20.736  1.00  0.00    -0.011 A 
ATOM      3  C   UNL     1      44.846 131.105  19.580  1.00  0.00     0.015 A 
ATOM      4  C   UNL     1      44.287 131.305  18.306  1.00  0.00    -0.010 A 
ATOM      5  C   UNL     1      43.028 131.922  18.202  1.00  0.00     0.058 A 
ATOM      6  C   UNL     1      42.335 132.322  19.352  1.00  0.00     0.152 A 
ATOM      7  C   UNL     1      42.899 132.114  20.616  1.00  0.00     0.167 A 
ATOM      8  F   UNL     1      42.213 132.495  21.724  1.00  0.00    -0.203 F 
ENDROOT
BRANCH   4   9
ATOM      9  C   UNL     1      45.019 130.876  17.089  1.00  0.00     0.032 A 
ATOM     10  C   UNL     1      46.246 130.174  17.176  1.00  0.00     0.013 A 
ATOM     11  C   UNL     1      44.532 131.137  15.801  1.00  0.00     0.212 A 
ATOM     12  C   UNL     1      46.934 129.772  16.007  1.00  0.00     0.008 A 
ATOM     13  O   UNL     1      43.425 131.740  15.439  1.00  0.00    -0.403 OA
ATOM     14  C   UNL     1      45.201 130.747  14.678  1.00  0.00     0.249 A 
ATOM     15  C   UNL     1      46.410 130.059  14.734  1.00  0.00     0.083 A 
ATOM     16  C   UNL     1      43.411 131.727  14.116  1.00  0.00     0.521 A 
ATOM     17  N   UNL     1      44.501 131.116  13.597  1.00  0.00    -0.176 N 
ATOM     18  H   UNL     1      44.736 130.965  12.590  1.00  0.00     0.457 HD
ENDBRANCH   4   9
BRANCH   6  19
ATOM     19  O   UNL     1      41.084 132.928  19.249  1.00  0.00    -0.505 OA
ATOM     20  H   UNL     1      40.950 133.776  18.712  1.00  0.00     0.293 HD
ENDBRANCH   6  19
TORSDOF 2
ENDMDL
MODEL 6
REMARK VINA RESULT:      -7.7      3.183      5.502
REMARK SMILES Cc1cc(-c2cccc3[nH+]coc23)cc(O)c1F
REMARK SMILES IDX 1 1 2 2 3 3 4 4 14 5 15 6 17 7 18 8 5 9 6 10 13 11 7 12
REMARK SMILES IDX 12 13 9 14 8 15 11 16 10 17 16 19
REMARK H PARENT 10 18 16 20
ROOT
ATOM      1  C   UNL     1      41.585 132.728  19.578  1.00  0.00     0.048 C 
ATOM      2  C   UNL     1      42.906 132.019  19.503  1.00  0.00    -0.011 A 
ATOM      3  C   UNL     1      43.474 131.710  18.257  1.00  0.00     0.015 A 
ATOM      4  C   UNL     1      44.726 131.075  18.175  1.00  0.00    -0.010 A 
ATOM      5  C   UNL     1      45.409 130.757  19.363  1.00  0.00     0.058 A 
ATOM      6  C   UNL     1      44.854 131.076  20.609  1.00  0.00     0.152 A 
ATOM      7  C   UNL     1      43.610 131.711  20.678  1.00  0.00     0.167 A 
ATOM      8  F   UNL     1      43.088 132.026  21.892  1.00  0.00    -0.203 F 
ENDROOT
BRANCH   4   9
ATOM      9  C   UNL     1      45.315 130.743  16.855  1.00  0.00     0.032 A 
ATOM     10  C   UNL     1      46.543 130.045  16.750  1.00  0.00     0.013 A 
ATOM     11  C   UNL     1      44.687 131.096  15.654  1.00  0.00     0.212 A 
ATOM     12  C   UNL     1      47.094 129.736  15.484  1.00  0.00     0.008 A 
ATOM     13  O   UNL     1      43.546 131.716  15.465  1.00  0.00    -0.403 OA
ATOM     14  C   UNL     1      45.224 130.795  14.436  1.00  0.00     0.249 A 
ATOM     15  C   UNL     1      46.430 130.114  14.304  1.00  0.00     0.083 A 
ATOM     16  C   UNL     1      43.382 131.802  14.154  1.00  0.00     0.521 A 
ATOM     17  N   UNL     1      44.407 131.239  13.471  1.00  0.00    -0.176 N 
ATOM     18  H   UNL     1      44.526 131.165  12.436  1.00  0.00     0.457 HD
ENDBRANCH   4   9
BRANCH   6  19
ATOM     19  O   UNL     1      45.534 130.764  21.786  1.00  0.00    -0.505 OA
ATOM     20  H   UNL     1      45.823 131.485  22.436  1.00  0.00     0.293 HD
ENDBRANCH   6  19
TORSDOF 2
ENDMDL
MODEL 7
REMARK VINA RESULT:      -7.6      1.242      1.317
REMARK SMILES Cc1cc(-c2cccc3[nH+]coc23)cc(O)c1F
REMARK SMILES IDX 1 1 2 2 3 3 4 4 14 5 15 6 17 7 18 8 5 9 6 10 13 11 7 12
REMARK SMILES IDX 12 13 9 14 8 15 11 16 10 17 16 19
REMARK H PARENT 10 18 16 20
ROOT
ATOM      1  C   UNL     1      46.674 132.777  14.577  1.00  0.00     0.048 C 
ATOM      2  C   UNL     1      46.183 131.656  15.447  1.00  0.00    -0.011 A 
ATOM      3  C   UNL     1      45.767 131.911  16.763  1.00  0.00     0.015 A 
ATOM      4  C   UNL     1      45.274 130.874  17.575  1.00  0.00    -0.010 A 
ATOM      5  C   UNL     1      45.198 129.572  17.048  1.00  0.00     0.058 A 
ATOM      6  C   UNL     1      45.597 129.314  15.731  1.00  0.00     0.152 A 
ATOM      7  C   UNL     1      46.082 130.354  14.930  1.00  0.00     0.167 A 
ATOM      8  F   UNL     1      46.455 130.093  13.651  1.00  0.00    -0.203 F 
ENDROOT
BRANCH   4   9
ATOM      9  C   UNL     1      44.846 131.150  18.968  1.00  0.00     0.032 A 
ATOM     10  C   UNL     1      45.690 130.863  20.069  1.00  0.00     0.013 A 
ATOM     11  C   UNL     1      43.597 131.711  19.262  1.00  0.00     0.212 A 
ATOM     12  C   UNL     1      45.269 131.130  21.393  1.00  0.00     0.008 A 
ATOM     13  O   UNL     1      42.645 132.090  18.443  1.00  0.00    -0.403 OA
ATOM     14  C   UNL     1      43.196 131.966  20.541  1.00  0.00     0.249 A 
ATOM     15  C   UNL     1      44.003 131.690  21.641  1.00  0.00     0.083 A 
ATOM     16  C   UNL     1      41.670 132.566  19.202  1.00  0.00     0.521 A 
ATOM     17  N   UNL     1      41.972 132.509  20.521  1.00  0.00    -0.176 N 
ATOM     18  H   UNL     1      41.387 132.821  21.328  1.00  0.00     0.457 HD
ENDBRANCH   4   9
BRANCH   6  19
ATOM     19  O   UNL     1      45.516 128.024  15.208  1.00  0.00    -0.505 OA
ATOM     20  H   UNL     1      46.014 127.762  14.366  1.00  0.00     0.293 HD
ENDBRANCH   6  19
TORSDOF 2
ENDMDL
MODEL 8
REMARK VINA RESULT:      -7.5      1.725      2.574
REMARK SMILES Cc1cc(-c2cccc3[nH+]coc23)cc(O)c1F
REMARK SMILES IDX 1 1 2 2 3 3 4 4 14 5 15 6 17 7 18 8 5 9 6 10 13 11 7 12
REMARK SMILES IDX 12 13 9 14 8 15 11 16 10 17 16 19
REMARK H PARENT 10 18 16 20
ROOT
ATOM      1  C   UNL     1      47.163 132.287  14.226  1.00  0.00     0.048 C 
ATOM      2  C   UNL     1      46.339 131.344  15.055  1.00  0.00    -0.011 A 
ATOM      3  C   UNL     1      45.580 131.827  16.133  1.00  0.00     0.015 A 
ATOM      4  C   UNL     1      44.780 130.958  16.895  1.00  0.00    -0.010 A 
ATOM      5  C   UNL     1      44.744 129.592  16.559  1.00  0.00     0.058 A 
ATOM      6  C   UNL     1      45.487 129.107  15.476  1.00  0.00     0.152 A 
ATOM      7  C   UNL     1      46.277 129.981  14.722  1.00  0.00     0.167 A 
ATOM      8  F   UNL     1      46.983 129.501  13.667  1.00  0.00    -0.203 F 
ENDROOT
BRANCH   4   9
ATOM      9  C   UNL     1      43.989 131.474  18.038  1.00  0.00     0.032 A 
ATOM     10  C   UNL     1      42.688 132.004  17.856  1.00  0.00     0.013 A 
ATOM     11  C   UNL     1      44.483 131.457  19.349  1.00  0.00     0.212 A 
ATOM     12  C   UNL     1      41.945 132.495  18.955  1.00  0.00     0.008 A 
ATOM     13  O   UNL     1      45.631 131.007  19.797  1.00  0.00    -0.403 OA
ATOM     14  C   UNL     1      43.762 131.932  20.405  1.00  0.00     0.249 A 
ATOM     15  C   UNL     1      42.484 132.462  20.253  1.00  0.00     0.083 A 
ATOM     16  C   UNL     1      45.622 131.204  21.106  1.00  0.00     0.521 A 
ATOM     17  N   UNL     1      44.473 131.780  21.530  1.00  0.00    -0.176 N 
ATOM     18  H   UNL     1      44.205 132.038  22.506  1.00  0.00     0.457 HD
ENDBRANCH   4   9
BRANCH   6  19
ATOM     19  O   UNL     1      45.446 127.754  15.141  1.00  0.00    -0.505 OA
ATOM     20  H   UNL     1      44.814 127.113  15.605  1.00  0.00     0.293 HD
ENDBRANCH   6  19
TORSDOF 2
ENDMDL
MODEL 9
REMARK VINA RESULT:      -7.3      3.242      5.905
REMARK SMILES Cc1cc(-c2cccc3[nH+]coc23)cc(O)c1F
REMARK SMILES IDX 1 1 2 2 3 3 4 4 14 5 15 6 17 7 18 8 5 9 6 10 13 11 7 12
REMARK SMILES IDX 12 13 9 14 8 15 11 16 10 17 16 19
REMARK H PARENT 10 18 16 20
ROOT
ATOM      1  C   UNL     1      41.646 132.895  20.365  1.00  0.00     0.048 C 
ATOM      2  C   UNL     1      42.882 132.207  19.863  1.00  0.00    -0.011 A 
ATOM      3  C   UNL     1      43.091 132.042  18.485  1.00  0.00     0.015 A 
ATOM      4  C   UNL     1      44.261 131.429  18.003  1.00  0.00    -0.010 A 
ATOM      5  C   UNL     1      45.227 130.984  18.923  1.00  0.00     0.058 A 
ATOM      6  C   UNL     1      45.031 131.158  20.299  1.00  0.00     0.152 A 
ATOM      7  C   UNL     1      43.866 131.774  20.767  1.00  0.00     0.167 A 
ATOM      8  F   UNL     1      43.693 131.948  22.103  1.00  0.00    -0.203 F 
ENDROOT
BRANCH   4   9
ATOM      9  C   UNL     1      44.469 131.250  16.546  1.00  0.00     0.032 A 
ATOM     10  C   UNL     1      43.571 131.801  15.599  1.00  0.00     0.013 A 
ATOM     11  C   UNL     1      45.561 130.537  16.035  1.00  0.00     0.212 A 
ATOM     12  C   UNL     1      43.780 131.621  14.212  1.00  0.00     0.008 A 
ATOM     13  O   UNL     1      46.543 129.951  16.678  1.00  0.00    -0.403 OA
ATOM     14  C   UNL     1      45.758 130.367  14.696  1.00  0.00     0.249 A 
ATOM     15  C   UNL     1      44.889 130.894  13.745  1.00  0.00     0.083 A 
ATOM     16  C   UNL     1      47.331 129.425  15.754  1.00  0.00     0.521 A 
ATOM     17  N   UNL     1      46.879 129.660  14.500  1.00  0.00    -0.176 N 
ATOM     18  H   UNL     1      47.309 129.363  13.595  1.00  0.00     0.457 HD
ENDBRANCH   4   9
BRANCH   6  19
ATOM     19  O   UNL     1      45.992 130.722  21.210  1.00  0.00    -0.505 OA
ATOM     20  H   UNL     1      46.914 131.140  21.248  1.00  0.00     0.293 HD
ENDBRANCH   6  19
TORSDOF 2
ENDMDL


