REMARK SMILES C[C@H](CCO)C(=O)N(N)c1ccccc1-c1nc2ccccc2[nH]1
REMARK SMILES IDX 1 1 2 2 3 3 4 4 5 5 6 7 7 8 8 9 9 10 10 13 11 14 15 15 12 16
REMARK SMILES IDX 14 17 13 18 16 19 17 20 24 21 18 22 23 23 19 24 22 25 20 26
REMARK SMILES IDX 21 27
REMARK H PARENT 5 6 9 11 9 12 24 28
ROOT
ATOM      1  C   UNL     1      -3.259   0.949  -1.049  1.00  0.00     0.018 C 
ATOM      2  C   UNL     1      -2.786   1.834   0.111  1.00  0.00     0.079 C 
ENDROOT
BRANCH   2   3
ATOM      3  C   UNL     1      -2.760   3.326  -0.294  1.00  0.00     0.041 C 
BRANCH   3   4
ATOM      4  C   UNL     1      -2.446   4.267   0.879  1.00  0.00     0.157 C 
BRANCH   4   5
ATOM      5  O   UNL     1      -1.100   4.173   1.260  1.00  0.00    -0.396 OA
ATOM      6  H   UNL     1      -0.571   4.623   0.550  1.00  0.00     0.210 HD
ENDBRANCH   4   5
ENDBRANCH   3   4
ENDBRANCH   2   3
BRANCH   2   7
ATOM      7  C   UNL     1      -1.468   1.337   0.671  1.00  0.00     0.244 C 
ATOM      8  O   UNL     1      -1.444   0.947   1.871  1.00  0.00    -0.273 OA
BRANCH   7   9
ATOM      9  N   UNL     1      -0.259   1.272  -0.115  1.00  0.00    -0.247 N 
BRANCH   9  10
ATOM     10  N   UNL     1      -0.213   1.817  -1.411  1.00  0.00    -0.241 NA
ATOM     11  H   UNL     1       0.245   1.121  -2.042  1.00  0.00     0.144 HD
ATOM     12  H   UNL     1       0.404   2.660  -1.375  1.00  0.00     0.144 HD
ENDBRANCH   9  10
BRANCH   9  13
ATOM     13  C   UNL     1       0.952   0.774   0.477  1.00  0.00     0.071 A 
ATOM     14  C   UNL     1       1.651   1.592   1.377  1.00  0.00     0.029 A 
ATOM     15  C   UNL     1       1.472  -0.497   0.130  1.00  0.00     0.043 A 
ATOM     16  C   UNL     1       2.857   1.163   1.932  1.00  0.00     0.002 A 
ATOM     17  C   UNL     1       2.692  -0.910   0.697  1.00  0.00     0.014 A 
ATOM     18  C   UNL     1       3.378  -0.085   1.591  1.00  0.00     0.001 A 
BRANCH  15  19
ATOM     19  C   UNL     1       0.749  -1.409  -0.791  1.00  0.00     0.140 A 
ATOM     20  N   UNL     1      -0.604  -1.396  -0.942  1.00  0.00    -0.228 NA
ATOM     21  N   UNL     1       1.366  -2.341  -1.564  1.00  0.00    -0.338 N 
ATOM     22  C   UNL     1      -0.817  -2.361  -1.852  1.00  0.00     0.089 A 
ATOM     23  C   UNL     1       0.363  -2.928  -2.226  1.00  0.00     0.066 A 
ATOM     24  C   UNL     1      -2.035  -2.773  -2.389  1.00  0.00     0.030 A 
ATOM     25  C   UNL     1       0.428  -3.952  -3.169  1.00  0.00     0.028 A 
ATOM     26  C   UNL     1      -2.010  -3.808  -3.343  1.00  0.00     0.002 A 
ATOM     27  C   UNL     1      -0.784  -4.395  -3.732  1.00  0.00     0.002 A 
ATOM     28  H   UNL     1       2.387  -2.543  -1.652  1.00  0.00     0.168 HD
ENDBRANCH  15  19
ENDBRANCH   9  13
ENDBRANCH   7   9
ENDBRANCH   2   7
TORSDOF 8


