REMARK SMILES C=C[C@@H]1CCC[C@@H](c2ccc(C(C)=O)cc2)C1=C
REMARK SMILES IDX 3 1 4 2 5 3 6 4 7 5 17 6 18 7 2 8 1 9 8 10 9 11 16 12 10 13
REMARK SMILES IDX 15 14 11 15 12 16 13 17 14 18
REMARK H PARENT
ROOT
ATOM      1  C   UNL     1      -1.587  -0.024   2.482  1.00  0.00     0.037 C 
ATOM      2  C   UNL     1      -2.389  -1.337   2.404  1.00  0.00     0.012 C 
ATOM      3  C   UNL     1      -1.548  -2.483   1.838  1.00  0.00     0.002 C 
ATOM      4  C   UNL     1      -1.096  -2.147   0.418  1.00  0.00     0.013 C 
ATOM      5  C   UNL     1      -0.241  -0.863   0.373  1.00  0.00     0.045 C 
ATOM      6  C   UNL     1      -0.879   0.282   1.169  1.00  0.00    -0.063 C 
ATOM      7  C   UNL     1      -0.588   1.568   0.892  1.00  0.00     0.009 C 
ENDROOT
BRANCH   1   8
ATOM      8  C   UNL     1      -0.581  -0.069   3.612  1.00  0.00    -0.027 C 
ATOM      9  C   UNL     1      -0.957   0.053   4.889  1.00  0.00     0.004 C 
ENDBRANCH   1   8
BRANCH   5  10
ATOM     10  C   UNL     1       0.039  -0.508  -1.079  1.00  0.00    -0.041 A 
ATOM     11  C   UNL     1      -0.990  -0.054  -1.922  1.00  0.00     0.005 A 
ATOM     12  C   UNL     1       1.332  -0.655  -1.606  1.00  0.00     0.005 A 
ATOM     13  C   UNL     1      -0.729   0.259  -3.258  1.00  0.00     0.012 A 
ATOM     14  C   UNL     1       1.595  -0.344  -2.943  1.00  0.00     0.012 A 
ATOM     15  C   UNL     1       0.567   0.119  -3.788  1.00  0.00     0.017 A 
BRANCH  15  16
ATOM     16  C   UNL     1       0.830   0.456  -5.213  1.00  0.00     0.159 C 
ATOM     17  C   UNL     1       2.194   0.325  -5.821  1.00  0.00     0.093 C 
ATOM     18  O   UNL     1      -0.114   0.866  -5.943  1.00  0.00    -0.295 OA
ENDBRANCH  15  16
ENDBRANCH   5  10
TORSDOF 3


