REMARK SMILES C=C[C@@H]1CN[C@@H](c2c[nH+]c3ocnc3c2)N(C(=S)[NH2+]c2cc(F)c(Cl)cc2F)C1
REMARK SMILES IDX 17 1 18 2 16 3 3 4 4 5 29 6 5 7 6 8 2 10 1 11 7 12 8 13
REMARK SMILES IDX 15 14 9 15 14 16 10 17 13 18 11 19 12 20 19 22 20 25 21 26
REMARK SMILES IDX 27 27 22 28 26 29 24 30 28 31 23 32 25 33
REMARK H PARENT 5 9 9 21 19 23 19 24
ROOT
ATOM      1  C   UNL     1       1.008   0.937   1.489  1.00  0.00     0.275 C 
ATOM      2  S   UNL     1       0.378   1.193   2.986  1.00  0.00     0.004 S 
ENDROOT
BRANCH   1   3
ATOM      3  N   UNL     1       0.194   0.323   0.470  1.00  0.00    -0.297 N 
ATOM      4  C   UNL     1      -0.825  -1.758  -0.454  1.00  0.00     0.045 C 
ATOM      5  C   UNL     1      -1.444  -0.828  -1.499  1.00  0.00     0.092 C 
ATOM      6  C   UNL     1      -0.487  -0.942   0.797  1.00  0.00     0.133 C 
ATOM      7  N   UNL     1      -0.468   0.187  -1.896  1.00  0.00    -0.292 NA
ATOM      8  C   UNL     1      -0.060   1.069  -0.784  1.00  0.00     0.193 C 
ATOM      9  H   UNL     1      -0.875   0.758  -2.674  1.00  0.00     0.125 HD
BRANCH   4  10
ATOM     10  C   UNL     1       0.405  -2.455  -0.995  1.00  0.00    -0.028 C 
ATOM     11  C   UNL     1       0.320  -3.400  -1.936  1.00  0.00     0.004 C 
ENDBRANCH   4  10
BRANCH   8  12
ATOM     12  C   UNL     1      -1.038   2.218  -0.584  1.00  0.00     0.056 A 
ATOM     13  C   UNL     1      -0.852   3.423  -1.319  1.00  0.00     0.317 A 
ATOM     14  C   UNL     1      -2.163   2.111   0.270  1.00  0.00     0.053 A 
ATOM     15  N   UNL     1      -1.726   4.467  -1.191  1.00  0.00    -0.177 N 
ATOM     16  C   UNL     1      -3.012   3.206   0.357  1.00  0.00     0.179 A 
ATOM     17  C   UNL     1      -2.783   4.332  -0.355  1.00  0.00     0.399 A 
ATOM     18  N   UNL     1      -4.129   3.347   1.090  1.00  0.00    -0.209 NA
ATOM     19  O   UNL     1      -3.720   5.202  -0.105  1.00  0.00    -0.391 OA
ATOM     20  C   UNL     1      -4.524   4.608   0.763  1.00  0.00     0.316 A 
ATOM     21  H   UNL     1      -1.585   5.349  -1.732  1.00  0.00     0.457 HD
ENDBRANCH   8  12
ENDBRANCH   1   3
BRANCH   1  22
ATOM     22  N   UNL     1       2.388   1.263   1.226  1.00  0.00    -0.254 N 
ATOM     23  H   UNL     1       2.854   1.612   2.095  1.00  0.00     0.360 HD
ATOM     24  H   UNL     1       2.428   2.038   0.526  1.00  0.00     0.360 HD
BRANCH  22  25
ATOM     25  C   UNL     1       3.093   0.088   0.770  1.00  0.00     0.175 A 
ATOM     26  C   UNL     1       3.315  -0.985   1.655  1.00  0.00     0.112 A 
ATOM     27  C   UNL     1       3.550  -0.019  -0.560  1.00  0.00     0.185 A 
ATOM     28  C   UNL     1       3.957  -2.147   1.217  1.00  0.00     0.147 A 
ATOM     29  C   UNL     1       4.193  -1.183  -0.992  1.00  0.00     0.069 A 
ATOM     30  C   UNL     1       4.393  -2.248  -0.109  1.00  0.00     0.080 A 
ATOM     31  F   UNL     1       3.378   1.000  -1.440  1.00  0.00    -0.200 F 
ATOM     32  F   UNL     1       4.146  -3.175   2.082  1.00  0.00    -0.205 F 
ATOM     33  Cl  UNL     1       5.185  -3.709  -0.673  1.00  0.00    -0.081 Cl
ENDBRANCH  22  25
ENDBRANCH   1  22
TORSDOF 5


