REMARK SMILES NN[C@H]1CCC[C@H]2C=c3ccccc3=C[C@]21c1cc(F)cc(F)c1O
REMARK SMILES IDX 3 1 4 2 5 3 6 4 7 5 8 6 9 7 10 8 11 9 12 10 13 11 14 12
REMARK SMILES IDX 15 13 16 14 2 15 1 17 17 20 18 21 24 22 19 23 22 24 21 25
REMARK SMILES IDX 20 26 23 27 25 28
REMARK H PARENT 2 16 1 18 1 19 25 29
ROOT
ATOM      1  C   UNL     1       1.778  -0.025  -0.076  1.00  0.00     0.084 C 
ATOM      2  C   UNL     1       2.000   0.662  -1.458  1.00  0.00     0.022 C 
ATOM      3  C   UNL     1       1.311  -0.070  -2.610  1.00  0.00     0.002 C 
ATOM      4  C   UNL     1      -0.177  -0.241  -2.322  1.00  0.00     0.009 C 
ATOM      5  C   UNL     1      -0.428  -0.999  -1.006  1.00  0.00     0.028 C 
ATOM      6  C   UNL     1      -0.068  -2.461  -1.114  1.00  0.00    -0.014 C 
ATOM      7  C   UNL     1       0.111  -3.207  -0.011  1.00  0.00    -0.022 A 
ATOM      8  C   UNL     1       0.225  -4.605  -0.127  1.00  0.00     0.008 A 
ATOM      9  C   UNL     1       0.353  -5.402   1.011  1.00  0.00     0.001 A 
ATOM     10  C   UNL     1       0.374  -4.818   2.277  1.00  0.00     0.001 A 
ATOM     11  C   UNL     1       0.292  -3.431   2.412  1.00  0.00     0.008 A 
ATOM     12  C   UNL     1       0.183  -2.607   1.276  1.00  0.00    -0.022 A 
ATOM     13  C   UNL     1       0.203  -1.266   1.424  1.00  0.00    -0.004 C 
ATOM     14  C   UNL     1       0.249  -0.307   0.238  1.00  0.00     0.041 C 
ENDROOT
BRANCH   1  15
ATOM     15  N   UNL     1       2.593  -1.258   0.023  1.00  0.00    -0.256 NA
ATOM     16  H   UNL     1       2.523  -1.818  -0.856  1.00  0.00     0.141 HD
BRANCH  15  17
ATOM     17  N   UNL     1       3.946  -0.912   0.207  1.00  0.00    -0.271 NA
ATOM     18  H   UNL     1       4.521  -1.770   0.036  1.00  0.00     0.137 HD
ATOM     19  H   UNL     1       4.072  -0.691   1.221  1.00  0.00     0.137 HD
ENDBRANCH  15  17
ENDBRANCH   1  15
BRANCH  14  20
ATOM     20  C   UNL     1      -0.618   0.930   0.661  1.00  0.00     0.012 A 
ATOM     21  C   UNL     1      -1.971   0.668   1.011  1.00  0.00     0.048 A 
ATOM     22  C   UNL     1      -0.176   2.289   0.791  1.00  0.00     0.155 A 
ATOM     23  C   UNL     1      -2.857   1.684   1.360  1.00  0.00     0.126 A 
ATOM     24  C   UNL     1      -1.094   3.302   1.131  1.00  0.00     0.168 A 
ATOM     25  C   UNL     1      -2.424   3.001   1.402  1.00  0.00     0.082 A 
ATOM     26  F   UNL     1      -4.144   1.386   1.666  1.00  0.00    -0.207 F 
ATOM     27  F   UNL     1      -0.689   4.594   1.223  1.00  0.00    -0.203 F 
BRANCH  22  28
ATOM     28  O   UNL     1       1.154   2.659   0.624  1.00  0.00    -0.505 OA
ATOM     29  H   UNL     1       1.476   3.615   0.724  1.00  0.00     0.293 HD
ENDBRANCH  22  28
ENDBRANCH  14  20
TORSDOF 4


