REMARK SMILES O/C(=N\Cc1ccc[nH]1)c1ccc2cc[nH]c2c1N=C=S
REMARK SMILES IDX 2 1 1 2 3 4 4 5 5 6 6 7 9 8 7 9 8 10 10 12 11 13 18 14 12 15
REMARK SMILES IDX 17 16 13 17 16 18 14 19 15 20 19 22 20 23 21 24
REMARK H PARENT 1 3 9 11 16 21
ROOT
ATOM      1  C   UNL     1      -0.181  -0.332  -0.577  1.00  0.00     0.216 C 
ENDROOT
BRANCH   1   2
ATOM      2  O   UNL     1       0.702  -0.011  -1.614  1.00  0.00    -0.493 OA
ATOM      3  H   UNL     1       1.708  -0.077  -1.529  1.00  0.00     0.295 HD
ENDBRANCH   1   2
BRANCH   1   4
ATOM      4  N   UNL     1       0.262  -0.751   0.575  1.00  0.00    -0.245 NA
BRANCH   4   5
ATOM      5  C   UNL     1       1.666  -0.929   0.924  1.00  0.00     0.199 C 
BRANCH   5   6
ATOM      6  C   UNL     1       1.762  -1.423   2.332  1.00  0.00     0.037 A 
ATOM      7  C   UNL     1       1.733  -2.748   2.720  1.00  0.00     0.025 A 
ATOM      8  N   UNL     1       1.797  -0.619   3.410  1.00  0.00    -0.363 N 
ATOM      9  C   UNL     1       1.770  -2.744   4.101  1.00  0.00     0.020 A 
ATOM     10  C   UNL     1       1.809  -1.419   4.491  1.00  0.00     0.082 A 
ATOM     11  H   UNL     1       1.801   0.425   3.413  1.00  0.00     0.166 HD
ENDBRANCH   5   6
ENDBRANCH   4   5
ENDBRANCH   1   4
BRANCH   1  12
ATOM     12  C   UNL     1      -1.649  -0.206  -0.791  1.00  0.00     0.065 A 
ATOM     13  C   UNL     1      -2.532  -0.940   0.048  1.00  0.00     0.017 A 
ATOM     14  C   UNL     1      -2.186   0.614  -1.828  1.00  0.00     0.111 A 
ATOM     15  C   UNL     1      -3.921  -0.868  -0.119  1.00  0.00     0.011 A 
ATOM     16  C   UNL     1      -3.592   0.680  -1.945  1.00  0.00     0.073 A 
ATOM     17  C   UNL     1      -4.414  -0.046  -1.121  1.00  0.00     0.002 A 
ATOM     18  N   UNL     1      -4.334   1.449  -2.768  1.00  0.00    -0.359 N 
ATOM     19  C   UNL     1      -5.717   0.253  -1.450  1.00  0.00     0.028 A 
ATOM     20  C   UNL     1      -5.627   1.184  -2.473  1.00  0.00     0.083 A 
ATOM     21  H   UNL     1      -4.011   2.151  -3.466  1.00  0.00     0.166 HD
BRANCH  14  22
ATOM     22  N   UNL     1      -1.304   1.371  -2.674  1.00  0.00    -0.192 NA
BRANCH  22  23
ATOM     23  C   UNL     1      -1.535   1.639  -3.897  1.00  0.00     0.064 C 
ATOM     24  S   UNL     1      -1.814   1.974  -5.449  1.00  0.00    -0.006 S 
ENDBRANCH  22  23
ENDBRANCH  14  22
ENDBRANCH   1  12
TORSDOF 7


