REMARK SMILES CCOC(=O)c1cc(/[NH+]=C(/S)n2[n-]c(=O)/c(=N/N)cc2-c2ccc3[nH]ccc3c2)ccc1F
REMARK SMILES IDX 9 1 10 3 11 4 12 6 13 7 20 8 14 9 19 10 16 11 15 12 21 13
REMARK SMILES IDX 22 14 29 15 23 16 28 17 24 18 27 19 25 20 26 21 17 23 18 24
REMARK SMILES IDX 8 27 30 28 7 29 31 30 6 31 32 32 33 33 4 34 5 35 3 36 2 37
REMARK SMILES IDX 1 38
REMARK H PARENT 9 2 11 5 25 22 18 25 18 26
ROOT
ATOM      1  N   UNL     1      -2.300   1.865  -0.097  1.00  0.00    -0.236 N 
ATOM      2  H   UNL     1      -3.159   2.057  -0.661  1.00  0.00     0.313 HD
ENDROOT
BRANCH   1   3
ATOM      3  C   UNL     1      -2.441   1.642   1.183  1.00  0.00     0.304 C 
BRANCH   3   4
ATOM      4  S   UNL     1      -4.060   1.840   1.929  1.00  0.00    -0.056 SA
ATOM      5  H   UNL     1      -3.822   3.199   2.209  1.00  0.00     0.116 HD
ENDBRANCH   3   4
BRANCH   3   6
ATOM      6  N   UNL     1      -1.341   1.253   2.028  1.00  0.00    -0.275 N 
ATOM      7  N   UNL     1      -1.051   2.066   3.046  1.00  0.00    -0.456 NA
ATOM      8  C   UNL     1      -0.624   0.093   1.840  1.00  0.00     0.128 A 
ATOM      9  C   UNL     1      -0.030   1.828   3.905  1.00  0.00     0.136 A 
ATOM     10  C   UNL     1       0.451  -0.189   2.696  1.00  0.00     0.084 A 
ATOM     11  C   UNL     1       0.768   0.692   3.743  1.00  0.00     0.114 A 
ATOM     12  O   UNL     1       0.192   2.642   4.842  1.00  0.00    -0.310 OA
BRANCH   8  13
ATOM     13  C   UNL     1      -0.947  -0.881   0.764  1.00  0.00     0.021 A 
ATOM     14  C   UNL     1       0.078  -1.328  -0.114  1.00  0.00     0.015 A 
ATOM     15  C   UNL     1      -2.265  -1.362   0.598  1.00  0.00     0.022 A 
ATOM     16  C   UNL     1      -0.213  -2.211  -1.169  1.00  0.00     0.027 A 
ATOM     17  C   UNL     1      -2.517  -2.232  -0.459  1.00  0.00     0.000 A 
ATOM     18  C   UNL     1      -1.529  -2.639  -1.314  1.00  0.00     0.045 A 
ATOM     19  C   UNL     1      -3.689  -2.828  -0.871  1.00  0.00     0.028 A 
ATOM     20  N   UNL     1      -2.020  -3.464  -2.253  1.00  0.00    -0.361 N 
ATOM     21  C   UNL     1      -3.341  -3.583  -1.986  1.00  0.00     0.083 A 
ATOM     22  H   UNL     1      -1.494  -3.921  -3.031  1.00  0.00     0.166 HD
ENDBRANCH   8  13
BRANCH  11  23
ATOM     23  N   UNL     1       1.754   0.487   4.575  1.00  0.00    -0.181 NA
BRANCH  23  24
ATOM     24  N   UNL     1       2.671  -0.577   4.524  1.00  0.00    -0.323 N 
ATOM     25  H   UNL     1       3.364  -0.682   5.297  1.00  0.00     0.179 HD
ATOM     26  H   UNL     1       2.776  -1.200   3.696  1.00  0.00     0.179 HD
ENDBRANCH  23  24
ENDBRANCH  11  23
ENDBRANCH   3   6
ENDBRANCH   1   3
BRANCH   1  27
ATOM     27  C   UNL     1      -1.054   1.817  -0.814  1.00  0.00     0.126 A 
ATOM     28  C   UNL     1       0.095   2.459  -0.328  1.00  0.00     0.055 A 
ATOM     29  C   UNL     1      -0.998   1.139  -2.039  1.00  0.00     0.070 A 
ATOM     30  C   UNL     1       1.296   2.373  -1.032  1.00  0.00     0.044 A 
ATOM     31  C   UNL     1       0.212   1.030  -2.750  1.00  0.00     0.099 A 
ATOM     32  C   UNL     1       1.364   1.658  -2.231  1.00  0.00     0.138 A 
ATOM     33  F   UNL     1       2.555   1.589  -2.877  1.00  0.00    -0.206 F 
BRANCH  31  34
ATOM     34  C   UNL     1       0.262   0.244  -4.007  1.00  0.00     0.341 C 
ATOM     35  O   UNL     1      -0.786  -0.302  -4.451  1.00  0.00    -0.246 OA
BRANCH  34  36
ATOM     36  O   UNL     1       1.469   0.094  -4.697  1.00  0.00    -0.462 OA
BRANCH  36  37
ATOM     37  C   UNL     1       1.582  -0.667  -5.895  1.00  0.00     0.230 C 
ATOM     38  C   UNL     1       3.021  -0.635  -6.384  1.00  0.00     0.049 C 
ENDBRANCH  36  37
ENDBRANCH  34  36
ENDBRANCH  31  34
ENDBRANCH   1  27
TORSDOF 10


