REMARK SMILES O=C(Nc1ccc(Br)nc1Cl)N(c1cc2ccccc2[nH]1)c1cn2ccccc2[nH+]1
REMARK SMILES IDX 1 1 2 2 3 3 12 5 13 6 14 7 21 8 15 9 20 10 16 11 19 12 17 13
REMARK SMILES IDX 18 14 22 16 23 17 30 18 24 19 29 20 25 21 28 22 26 23 27 24
REMARK SMILES IDX 4 26 5 27 10 28 6 29 9 30 7 31 11 32 8 33
REMARK H PARENT 3 4 21 15 30 25
ROOT
ATOM      1  O   UNL     1       1.775  -1.948   0.074  1.00  0.00    -0.228 OA
ATOM      2  C   UNL     1       1.400  -0.784  -0.236  1.00  0.00     0.390 C 
ATOM      3  N   UNL     1       2.363   0.183  -0.683  1.00  0.00    -0.291 N 
ATOM      4  H   UNL     1       2.026   0.948  -1.308  1.00  0.00     0.173 HD
ENDROOT
BRANCH   2   5
ATOM      5  N   UNL     1       0.004  -0.438  -0.169  1.00  0.00    -0.158 N 
BRANCH   5   6
ATOM      6  C   UNL     1      -0.389   0.907   0.158  1.00  0.00     0.180 A 
ATOM      7  C   UNL     1       0.315   1.766   1.003  1.00  0.00     0.073 A 
ATOM      8  N   UNL     1      -1.510   1.496  -0.323  1.00  0.00    -0.328 N 
ATOM      9  C   UNL     1      -0.432   2.923   1.024  1.00  0.00     0.003 A 
ATOM     10  C   UNL     1      -1.523   2.727   0.215  1.00  0.00     0.048 A 
ATOM     11  C   UNL     1      -0.224   4.123   1.702  1.00  0.00     0.010 A 
ATOM     12  C   UNL     1      -2.477   3.725   0.020  1.00  0.00     0.027 A 
ATOM     13  C   UNL     1      -1.174   5.148   1.529  1.00  0.00     0.001 A 
ATOM     14  C   UNL     1      -2.295   4.949   0.691  1.00  0.00     0.002 A 
ATOM     15  H   UNL     1      -2.213   1.088  -0.977  1.00  0.00     0.169 HD
ENDBRANCH   5   6
BRANCH   5  16
ATOM     16  C   UNL     1      -1.004  -1.448  -0.362  1.00  0.00     0.269 A 
ATOM     17  C   UNL     1      -0.901  -2.554  -1.199  1.00  0.00     0.249 A 
ATOM     18  N   UNL     1      -2.212  -1.446   0.252  1.00  0.00    -0.243 N 
ATOM     19  N   UNL     1      -2.059  -3.228  -1.093  1.00  0.00    -0.233 N 
ATOM     20  C   UNL     1      -2.824  -2.547  -0.221  1.00  0.00     0.230 A 
ATOM     21  C   UNL     1      -2.460  -4.372  -1.705  1.00  0.00     0.168 A 
ATOM     22  C   UNL     1      -4.103  -2.992   0.114  1.00  0.00     0.081 A 
ATOM     23  C   UNL     1      -3.740  -4.867  -1.408  1.00  0.00     0.035 A 
ATOM     24  C   UNL     1      -4.560  -4.172  -0.495  1.00  0.00     0.010 A 
ATOM     25  H   UNL     1      -2.579  -0.759   0.947  1.00  0.00     0.267 HD
ENDBRANCH   5  16
ENDBRANCH   2   5
BRANCH   3  26
ATOM     26  C   UNL     1       3.755   0.140  -0.324  1.00  0.00     0.081 A 
ATOM     27  C   UNL     1       4.159  -0.335   0.936  1.00  0.00     0.032 A 
ATOM     28  C   UNL     1       4.740   0.630  -1.204  1.00  0.00     0.153 A 
ATOM     29  C   UNL     1       5.510  -0.341   1.284  1.00  0.00     0.038 A 
ATOM     30  N   UNL     1       6.050   0.605  -0.838  1.00  0.00    -0.227 NA
ATOM     31  C   UNL     1       6.453   0.136   0.371  1.00  0.00     0.108 A 
ATOM     32  Cl  UNL     1       4.326   1.247  -2.796  1.00  0.00    -0.060 Cl
ATOM     33  Br  UNL     1       8.313   0.132   0.812  1.00  0.00    -0.029 Br
ENDBRANCH   3  26
TORSDOF 4


