MODEL 1
REMARK VINA RESULT:      -9.5      0.000      0.000
REMARK SMILES N[NH2+]c1cc(F)c(F)cc1[NH2+]c1ccc(F)cc1
REMARK SMILES IDX 3 1 4 2 5 3 6 4 7 5 8 6 9 7 10 8 2 9 1 12 11 15 12 18 13 19
REMARK SMILES IDX 18 20 14 21 17 22 15 23 16 24
REMARK H PARENT 2 10 2 11 1 13 1 14 11 16 11 17
ROOT
ATOM      1  C   UNL     1      43.003 131.995  19.107  1.00  0.00     0.213 A 
ATOM      2  C   UNL     1      43.283 131.815  20.476  1.00  0.00     0.118 A 
ATOM      3  C   UNL     1      44.505 131.291  20.895  1.00  0.00     0.165 A 
ATOM      4  F   UNL     1      44.751 131.124  22.219  1.00  0.00    -0.204 F 
ATOM      5  C   UNL     1      45.476 130.945  19.956  1.00  0.00     0.165 A 
ATOM      6  F   UNL     1      46.666 130.440  20.365  1.00  0.00    -0.204 F 
ATOM      7  C   UNL     1      45.226 131.123  18.596  1.00  0.00     0.117 A 
ATOM      8  C   UNL     1      43.998 131.648  18.145  1.00  0.00     0.201 A 
ENDROOT
BRANCH   1   9
ATOM      9  N   UNL     1      41.740 132.587  18.734  1.00  0.00    -0.234 N 
ATOM     10  H   UNL     1      41.837 133.211  17.903  1.00  0.00     0.376 HD
ATOM     11  H   UNL     1      41.043 131.844  18.487  1.00  0.00     0.376 HD
BRANCH   9  12
ATOM     12  N   UNL     1      41.253 133.335  19.825  1.00  0.00    -0.178 NA
ATOM     13  H   UNL     1      41.975 134.045  20.092  1.00  0.00     0.183 HD
ATOM     14  H   UNL     1      41.159 132.690  20.644  1.00  0.00     0.183 HD
ENDBRANCH   9  12
ENDBRANCH   1   9
BRANCH   8  15
ATOM     15  N   UNL     1      43.791 131.821  16.721  1.00  0.00    -0.276 N 
ATOM     16  H   UNL     1      43.698 132.838  16.499  1.00  0.00     0.358 HD
ATOM     17  H   UNL     1      42.887 131.386  16.424  1.00  0.00     0.358 HD
BRANCH  15  18
ATOM     18  C   UNL     1      44.848 131.199  15.957  1.00  0.00     0.134 A 
ATOM     19  C   UNL     1      44.904 129.799  15.821  1.00  0.00     0.071 A 
ATOM     20  C   UNL     1      45.800 131.986  15.283  1.00  0.00     0.071 A 
ATOM     21  C   UNL     1      45.915 129.201  15.063  1.00  0.00     0.045 A 
ATOM     22  C   UNL     1      46.810 131.384  14.528  1.00  0.00     0.045 A 
ATOM     23  C   UNL     1      46.870 129.993  14.421  1.00  0.00     0.123 A 
ATOM     24  F   UNL     1      47.850 129.410  13.686  1.00  0.00    -0.207 F 
ENDBRANCH  15  18
ENDBRANCH   8  15
TORSDOF 4
ENDMDL
MODEL 2
REMARK VINA RESULT:      -9.4      0.072      1.143
REMARK SMILES N[NH2+]c1cc(F)c(F)cc1[NH2+]c1ccc(F)cc1
REMARK SMILES IDX 3 1 4 2 5 3 6 4 7 5 8 6 9 7 10 8 2 9 1 12 11 15 12 18 13 19
REMARK SMILES IDX 18 20 14 21 17 22 15 23 16 24
REMARK H PARENT 2 10 2 11 1 13 1 14 11 16 11 17
ROOT
ATOM      1  C   UNL     1      43.022 131.965  19.087  1.00  0.00     0.213 A 
ATOM      2  C   UNL     1      43.295 131.739  20.451  1.00  0.00     0.118 A 
ATOM      3  C   UNL     1      44.518 131.207  20.859  1.00  0.00     0.165 A 
ATOM      4  F   UNL     1      44.757 130.996  22.177  1.00  0.00    -0.204 F 
ATOM      5  C   UNL     1      45.495 130.897  19.914  1.00  0.00     0.165 A 
ATOM      6  F   UNL     1      46.685 130.384  20.312  1.00  0.00    -0.204 F 
ATOM      7  C   UNL     1      45.252 131.121  18.559  1.00  0.00     0.117 A 
ATOM      8  C   UNL     1      44.024 131.655  18.119  1.00  0.00     0.201 A 
ENDROOT
BRANCH   1   9
ATOM      9  N   UNL     1      41.758 132.563  18.728  1.00  0.00    -0.234 N 
ATOM     10  H   UNL     1      41.845 133.169  17.882  1.00  0.00     0.376 HD
ATOM     11  H   UNL     1      41.048 131.823  18.510  1.00  0.00     0.376 HD
BRANCH   9  12
ATOM     12  N   UNL     1      41.302 133.339  19.812  1.00  0.00    -0.178 NA
ATOM     13  H   UNL     1      41.123 132.704  20.626  1.00  0.00     0.183 HD
ATOM     14  H   UNL     1      40.375 133.748  19.550  1.00  0.00     0.183 HD
ENDBRANCH   9  12
ENDBRANCH   1   9
BRANCH   8  15
ATOM     15  N   UNL     1      43.824 131.875  16.701  1.00  0.00    -0.276 N 
ATOM     16  H   UNL     1      43.785 132.902  16.506  1.00  0.00     0.358 HD
ATOM     17  H   UNL     1      42.897 131.498  16.396  1.00  0.00     0.358 HD
BRANCH  15  18
ATOM     18  C   UNL     1      44.844 131.217  15.918  1.00  0.00     0.134 A 
ATOM     19  C   UNL     1      45.812 131.970  15.226  1.00  0.00     0.071 A 
ATOM     20  C   UNL     1      44.925 129.813  15.887  1.00  0.00     0.071 A 
ATOM     21  C   UNL     1      46.811 131.330  14.487  1.00  0.00     0.045 A 
ATOM     22  C   UNL     1      45.925 129.177  15.145  1.00  0.00     0.045 A 
ATOM     23  C   UNL     1      46.865 129.935  14.443  1.00  0.00     0.123 A 
ATOM     24  F   UNL     1      47.835 129.316  13.725  1.00  0.00    -0.207 F 
ENDBRANCH  15  18
ENDBRANCH   8  15
TORSDOF 4
ENDMDL
MODEL 3
REMARK VINA RESULT:      -8.6      2.681      3.194
REMARK SMILES N[NH2+]c1cc(F)c(F)cc1[NH2+]c1ccc(F)cc1
REMARK SMILES IDX 3 1 4 2 5 3 6 4 7 5 8 6 9 7 10 8 2 9 1 12 11 15 12 18 13 19
REMARK SMILES IDX 18 20 14 21 17 22 15 23 16 24
REMARK H PARENT 2 10 2 11 1 13 1 14 11 16 11 17
ROOT
ATOM      1  C   UNL     1      44.448 131.433  20.515  1.00  0.00     0.213 A 
ATOM      2  C   UNL     1      43.292 132.094  20.973  1.00  0.00     0.118 A 
ATOM      3  C   UNL     1      42.310 132.524  20.081  1.00  0.00     0.165 A 
ATOM      4  F   UNL     1      41.206 133.162  20.546  1.00  0.00    -0.204 F 
ATOM      5  C   UNL     1      42.459 132.294  18.714  1.00  0.00     0.165 A 
ATOM      6  F   UNL     1      41.501 132.709  17.848  1.00  0.00    -0.204 F 
ATOM      7  C   UNL     1      43.590 131.633  18.237  1.00  0.00     0.117 A 
ATOM      8  C   UNL     1      44.599 131.190  19.116  1.00  0.00     0.201 A 
ENDROOT
BRANCH   1   9
ATOM      9  N   UNL     1      45.407 130.967  21.488  1.00  0.00    -0.234 N 
ATOM     10  H   UNL     1      46.174 130.419  21.042  1.00  0.00     0.376 HD
ATOM     11  H   UNL     1      45.850 131.777  21.986  1.00  0.00     0.376 HD
BRANCH   9  12
ATOM     12  N   UNL     1      44.739 130.155  22.427  1.00  0.00    -0.178 NA
ATOM     13  H   UNL     1      44.237 129.393  21.912  1.00  0.00     0.183 HD
ATOM     14  H   UNL     1      43.999 130.735  22.887  1.00  0.00     0.183 HD
ENDBRANCH   9  12
ENDBRANCH   1   9
BRANCH   8  15
ATOM     15  N   UNL     1      45.750 130.500  18.570  1.00  0.00    -0.276 N 
ATOM     16  H   UNL     1      45.738 129.499  18.873  1.00  0.00     0.358 HD
ATOM     17  H   UNL     1      46.637 130.898  18.958  1.00  0.00     0.358 HD
BRANCH  15  18
ATOM     18  C   UNL     1      45.806 130.627  17.132  1.00  0.00     0.134 A 
ATOM     19  C   UNL     1      45.821 131.897  16.526  1.00  0.00     0.071 A 
ATOM     20  C   UNL     1      45.910 129.484  16.318  1.00  0.00     0.071 A 
ATOM     21  C   UNL     1      45.897 132.018  15.135  1.00  0.00     0.045 A 
ATOM     22  C   UNL     1      45.984 129.608  14.929  1.00  0.00     0.045 A 
ATOM     23  C   UNL     1      45.974 130.874  14.337  1.00  0.00     0.123 A 
ATOM     24  F   UNL     1      46.048 130.993  12.988  1.00  0.00    -0.207 F 
ENDBRANCH  15  18
ENDBRANCH   8  15
TORSDOF 4
ENDMDL
MODEL 4
REMARK VINA RESULT:      -8.6      2.683      3.038
REMARK SMILES N[NH2+]c1cc(F)c(F)cc1[NH2+]c1ccc(F)cc1
REMARK SMILES IDX 3 1 4 2 5 3 6 4 7 5 8 6 9 7 10 8 2 9 1 12 11 15 12 18 13 19
REMARK SMILES IDX 18 20 14 21 17 22 15 23 16 24
REMARK H PARENT 2 10 2 11 1 13 1 14 11 16 11 17
ROOT
ATOM      1  C   UNL     1      44.528 131.571  20.326  1.00  0.00     0.213 A 
ATOM      2  C   UNL     1      43.368 132.248  20.751  1.00  0.00     0.118 A 
ATOM      3  C   UNL     1      42.346 132.555  19.853  1.00  0.00     0.165 A 
ATOM      4  F   UNL     1      41.240 133.210  20.286  1.00  0.00    -0.204 F 
ATOM      5  C   UNL     1      42.458 132.184  18.515  1.00  0.00     0.165 A 
ATOM      6  F   UNL     1      41.462 132.479  17.643  1.00  0.00    -0.204 F 
ATOM      7  C   UNL     1      43.592 131.505  18.071  1.00  0.00     0.117 A 
ATOM      8  C   UNL     1      44.641 131.185  18.957  1.00  0.00     0.201 A 
ENDROOT
BRANCH   1   9
ATOM      9  N   UNL     1      45.531 131.237  21.309  1.00  0.00    -0.234 N 
ATOM     10  H   UNL     1      45.150 131.285  22.280  1.00  0.00     0.376 HD
ATOM     11  H   UNL     1      45.883 130.261  21.159  1.00  0.00     0.376 HD
BRANCH   9  12
ATOM     12  N   UNL     1      46.604 132.142  21.184  1.00  0.00    -0.178 NA
ATOM     13  H   UNL     1      47.484 131.596  21.024  1.00  0.00     0.183 HD
ATOM     14  H   UNL     1      46.725 132.630  22.102  1.00  0.00     0.183 HD
ENDBRANCH   9  12
ENDBRANCH   1   9
BRANCH   8  15
ATOM     15  N   UNL     1      45.795 130.470  18.447  1.00  0.00    -0.276 N 
ATOM     16  H   UNL     1      45.739 129.464  18.728  1.00  0.00     0.358 HD
ATOM     17  H   UNL     1      46.675 130.833  18.881  1.00  0.00     0.358 HD
BRANCH  15  18
ATOM     18  C   UNL     1      45.917 130.622  17.016  1.00  0.00     0.134 A 
ATOM     19  C   UNL     1      46.043 129.493  16.184  1.00  0.00     0.071 A 
ATOM     20  C   UNL     1      45.847 131.897  16.425  1.00  0.00     0.071 A 
ATOM     21  C   UNL     1      46.140 129.641  14.797  1.00  0.00     0.045 A 
ATOM     22  C   UNL     1      45.945 132.041  15.038  1.00  0.00     0.045 A 
ATOM     23  C   UNL     1      46.095 130.915  14.225  1.00  0.00     0.123 A 
ATOM     24  F   UNL     1      46.188 131.057  12.880  1.00  0.00    -0.207 F 
ENDBRANCH  15  18
ENDBRANCH   8  15
TORSDOF 4
ENDMDL
MODEL 5
REMARK VINA RESULT:      -8.0      2.757      3.408
REMARK SMILES N[NH2+]c1cc(F)c(F)cc1[NH2+]c1ccc(F)cc1
REMARK SMILES IDX 3 1 4 2 5 3 6 4 7 5 8 6 9 7 10 8 2 9 1 12 11 15 12 18 13 19
REMARK SMILES IDX 18 20 14 21 17 22 15 23 16 24
REMARK H PARENT 2 10 2 11 1 13 1 14 11 16 11 17
ROOT
ATOM      1  C   UNL     1      45.299 130.863  18.969  1.00  0.00     0.213 A 
ATOM      2  C   UNL     1      44.164 131.582  19.389  1.00  0.00     0.118 A 
ATOM      3  C   UNL     1      43.194 131.992  18.475  1.00  0.00     0.165 A 
ATOM      4  F   UNL     1      42.110 132.686  18.904  1.00  0.00    -0.204 F 
ATOM      5  C   UNL     1      43.335 131.683  17.123  1.00  0.00     0.165 A 
ATOM      6  F   UNL     1      42.389 132.077  16.234  1.00  0.00    -0.204 F 
ATOM      7  C   UNL     1      44.445 130.963  16.683  1.00  0.00     0.117 A 
ATOM      8  C   UNL     1      45.442 130.540  17.586  1.00  0.00     0.201 A 
ENDROOT
BRANCH   1   9
ATOM      9  N   UNL     1      46.246 130.423  19.967  1.00  0.00    -0.234 N 
ATOM     10  H   UNL     1      46.278 129.382  20.035  1.00  0.00     0.376 HD
ATOM     11  H   UNL     1      47.212 130.751  19.728  1.00  0.00     0.376 HD
BRANCH   9  12
ATOM     12  N   UNL     1      45.868 130.960  21.214  1.00  0.00    -0.178 NA
ATOM     13  H   UNL     1      44.908 130.614  21.450  1.00  0.00     0.183 HD
ATOM     14  H   UNL     1      45.788 131.998  21.108  1.00  0.00     0.183 HD
ENDBRANCH   9  12
ENDBRANCH   1   9
BRANCH   8  15
ATOM     15  N   UNL     1      46.572 129.787  17.079  1.00  0.00    -0.276 N 
ATOM     16  H   UNL     1      46.389 128.763  17.184  1.00  0.00     0.358 HD
ATOM     17  H   UNL     1      47.428 129.979  17.649  1.00  0.00     0.358 HD
BRANCH  15  18
ATOM     18  C   UNL     1      46.869 130.143  15.711  1.00  0.00     0.134 A 
ATOM     19  C   UNL     1      46.543 131.420  15.216  1.00  0.00     0.071 A 
ATOM     20  C   UNL     1      47.547 129.241  14.869  1.00  0.00     0.071 A 
ATOM     21  C   UNL     1      46.851 131.770  13.898  1.00  0.00     0.045 A 
ATOM     22  C   UNL     1      47.851 129.593  13.552  1.00  0.00     0.045 A 
ATOM     23  C   UNL     1      47.501 130.855  13.065  1.00  0.00     0.123 A 
ATOM     24  F   UNL     1      47.799 131.196  11.787  1.00  0.00    -0.207 F 
ENDBRANCH  15  18
ENDBRANCH   8  15
TORSDOF 4
ENDMDL
MODEL 6
REMARK VINA RESULT:      -7.4      1.568      2.084
REMARK SMILES N[NH2+]c1cc(F)c(F)cc1[NH2+]c1ccc(F)cc1
REMARK SMILES IDX 3 1 4 2 5 3 6 4 7 5 8 6 9 7 10 8 2 9 1 12 11 15 12 18 13 19
REMARK SMILES IDX 18 20 14 21 17 22 15 23 16 24
REMARK H PARENT 2 10 2 11 1 13 1 14 11 16 11 17
ROOT
ATOM      1  C   UNL     1      42.841 132.252  20.385  1.00  0.00     0.213 A 
ATOM      2  C   UNL     1      42.357 131.617  21.545  1.00  0.00     0.118 A 
ATOM      3  C   UNL     1      43.139 130.693  22.237  1.00  0.00     0.165 A 
ATOM      4  F   UNL     1      42.650 130.092  23.350  1.00  0.00    -0.204 F 
ATOM      5  C   UNL     1      44.425 130.393  21.789  1.00  0.00     0.165 A 
ATOM      6  F   UNL     1      45.187 129.498  22.465  1.00  0.00    -0.204 F 
ATOM      7  C   UNL     1      44.930 131.016  20.649  1.00  0.00     0.117 A 
ATOM      8  C   UNL     1      44.159 131.951  19.929  1.00  0.00     0.201 A 
ENDROOT
BRANCH   1   9
ATOM      9  N   UNL     1      42.005 133.236  19.738  1.00  0.00    -0.234 N 
ATOM     10  H   UNL     1      41.161 133.461  20.310  1.00  0.00     0.376 HD
ATOM     11  H   UNL     1      42.533 134.130  19.594  1.00  0.00     0.376 HD
BRANCH   9  12
ATOM     12  N   UNL     1      41.599 132.730  18.487  1.00  0.00    -0.178 NA
ATOM     13  H   UNL     1      40.581 132.485  18.540  1.00  0.00     0.183 HD
ATOM     14  H   UNL     1      42.108 131.832  18.321  1.00  0.00     0.183 HD
ENDBRANCH   9  12
ENDBRANCH   1   9
BRANCH   8  15
ATOM     15  N   UNL     1      44.734 132.577  18.755  1.00  0.00    -0.276 N 
ATOM     16  H   UNL     1      45.610 133.084  19.019  1.00  0.00     0.358 HD
ATOM     17  H   UNL     1      44.091 133.310  18.375  1.00  0.00     0.358 HD
BRANCH  15  18
ATOM     18  C   UNL     1      44.967 131.613  17.705  1.00  0.00     0.134 A 
ATOM     19  C   UNL     1      45.908 130.579  17.879  1.00  0.00     0.071 A 
ATOM     20  C   UNL     1      44.212 131.652  16.519  1.00  0.00     0.071 A 
ATOM     21  C   UNL     1      46.116 129.634  16.870  1.00  0.00     0.045 A 
ATOM     22  C   UNL     1      44.423 130.706  15.513  1.00  0.00     0.045 A 
ATOM     23  C   UNL     1      45.377 129.700  15.686  1.00  0.00     0.123 A 
ATOM     24  F   UNL     1      45.580 128.781  14.709  1.00  0.00    -0.207 F 
ENDBRANCH  15  18
ENDBRANCH   8  15
TORSDOF 4
ENDMDL
MODEL 7
REMARK VINA RESULT:      -7.2      2.185      6.138
REMARK SMILES N[NH2+]c1cc(F)c(F)cc1[NH2+]c1ccc(F)cc1
REMARK SMILES IDX 3 1 4 2 5 3 6 4 7 5 8 6 9 7 10 8 2 9 1 12 11 15 12 18 13 19
REMARK SMILES IDX 18 20 14 21 17 22 15 23 16 24
REMARK H PARENT 2 10 2 11 1 13 1 14 11 16 11 17
ROOT
ATOM      1  C   UNL     1      45.936 129.529  15.045  1.00  0.00     0.213 A 
ATOM      2  C   UNL     1      47.167 129.032  14.573  1.00  0.00     0.118 A 
ATOM      3  C   UNL     1      47.987 129.808  13.755  1.00  0.00     0.165 A 
ATOM      4  F   UNL     1      49.167 129.306  13.310  1.00  0.00    -0.204 F 
ATOM      5  C   UNL     1      47.599 131.098  13.398  1.00  0.00     0.165 A 
ATOM      6  F   UNL     1      48.400 131.853  12.606  1.00  0.00    -0.204 F 
ATOM      7  C   UNL     1      46.390 131.616  13.861  1.00  0.00     0.117 A 
ATOM      8  C   UNL     1      45.540 130.853  14.687  1.00  0.00     0.201 A 
ENDROOT
BRANCH   1   9
ATOM      9  N   UNL     1      45.151 128.700  15.929  1.00  0.00    -0.234 N 
ATOM     10  H   UNL     1      45.749 128.026  16.457  1.00  0.00     0.376 HD
ATOM     11  H   UNL     1      44.646 129.289  16.634  1.00  0.00     0.376 HD
BRANCH   9  12
ATOM     12  N   UNL     1      44.210 127.986  15.160  1.00  0.00    -0.178 NA
ATOM     13  H   UNL     1      44.264 126.973  15.422  1.00  0.00     0.183 HD
ATOM     14  H   UNL     1      44.501 128.045  14.157  1.00  0.00     0.183 HD
ENDBRANCH   9  12
ENDBRANCH   1   9
BRANCH   8  15
ATOM     15  N   UNL     1      44.298 131.441  15.148  1.00  0.00    -0.276 N 
ATOM     16  H   UNL     1      43.489 130.905  14.758  1.00  0.00     0.358 HD
ATOM     17  H   UNL     1      44.192 132.414  14.779  1.00  0.00     0.358 HD
BRANCH  15  18
ATOM     18  C   UNL     1      44.252 131.511  16.590  1.00  0.00     0.134 A 
ATOM     19  C   UNL     1      45.439 131.465  17.346  1.00  0.00     0.071 A 
ATOM     20  C   UNL     1      43.027 131.691  17.257  1.00  0.00     0.071 A 
ATOM     21  C   UNL     1      45.394 131.555  18.740  1.00  0.00     0.045 A 
ATOM     22  C   UNL     1      42.986 131.779  18.651  1.00  0.00     0.045 A 
ATOM     23  C   UNL     1      44.168 131.707  19.393  1.00  0.00     0.123 A 
ATOM     24  F   UNL     1      44.127 131.795  20.745  1.00  0.00    -0.207 F 
ENDBRANCH  15  18
ENDBRANCH   8  15
TORSDOF 4
ENDMDL
MODEL 8
REMARK VINA RESULT:      -7.2      2.195      6.114
REMARK SMILES N[NH2+]c1cc(F)c(F)cc1[NH2+]c1ccc(F)cc1
REMARK SMILES IDX 3 1 4 2 5 3 6 4 7 5 8 6 9 7 10 8 2 9 1 12 11 15 12 18 13 19
REMARK SMILES IDX 18 20 14 21 17 22 15 23 16 24
REMARK H PARENT 2 10 2 11 1 13 1 14 11 16 11 17
ROOT
ATOM      1  C   UNL     1      45.966 129.489  15.027  1.00  0.00     0.213 A 
ATOM      2  C   UNL     1      47.207 129.017  14.557  1.00  0.00     0.118 A 
ATOM      3  C   UNL     1      48.013 129.810  13.741  1.00  0.00     0.165 A 
ATOM      4  F   UNL     1      49.204 129.333  13.298  1.00  0.00    -0.204 F 
ATOM      5  C   UNL     1      47.601 131.093  13.386  1.00  0.00     0.165 A 
ATOM      6  F   UNL     1      48.388 131.865  12.597  1.00  0.00    -0.204 F 
ATOM      7  C   UNL     1      46.380 131.586  13.847  1.00  0.00     0.117 A 
ATOM      8  C   UNL     1      45.544 130.805  14.670  1.00  0.00     0.201 A 
ENDROOT
BRANCH   1   9
ATOM      9  N   UNL     1      45.195 128.643  15.908  1.00  0.00    -0.234 N 
ATOM     10  H   UNL     1      45.795 127.928  16.377  1.00  0.00     0.376 HD
ATOM     11  H   UNL     1      44.740 129.213  16.661  1.00  0.00     0.376 HD
BRANCH   9  12
ATOM     12  N   UNL     1      44.199 127.992  15.152  1.00  0.00    -0.178 NA
ATOM     13  H   UNL     1      44.351 126.958  15.220  1.00  0.00     0.183 HD
ATOM     14  H   UNL     1      44.341 128.244  14.146  1.00  0.00     0.183 HD
ENDBRANCH   9  12
ENDBRANCH   1   9
BRANCH   8  15
ATOM     15  N   UNL     1      44.290 131.368  15.129  1.00  0.00    -0.276 N 
ATOM     16  H   UNL     1      43.494 130.786  14.781  1.00  0.00     0.358 HD
ATOM     17  H   UNL     1      44.141 132.319  14.720  1.00  0.00     0.358 HD
BRANCH  15  18
ATOM     18  C   UNL     1      44.269 131.501  16.567  1.00  0.00     0.134 A 
ATOM     19  C   UNL     1      43.053 131.692  17.251  1.00  0.00     0.071 A 
ATOM     20  C   UNL     1      45.456 131.379  17.313  1.00  0.00     0.071 A 
ATOM     21  C   UNL     1      43.032 131.800  18.644  1.00  0.00     0.045 A 
ATOM     22  C   UNL     1      45.431 131.488  18.706  1.00  0.00     0.045 A 
ATOM     23  C   UNL     1      44.221 131.702  19.371  1.00  0.00     0.123 A 
ATOM     24  F   UNL     1      44.199 131.807  20.723  1.00  0.00    -0.207 F 
ENDBRANCH  15  18
ENDBRANCH   8  15
TORSDOF 4
ENDMDL
MODEL 9
REMARK VINA RESULT:      -7.1      3.141      6.274
REMARK SMILES N[NH2+]c1cc(F)c(F)cc1[NH2+]c1ccc(F)cc1
REMARK SMILES IDX 3 1 4 2 5 3 6 4 7 5 8 6 9 7 10 8 2 9 1 12 11 15 12 18 13 19
REMARK SMILES IDX 18 20 14 21 17 22 15 23 16 24
REMARK H PARENT 2 10 2 11 1 13 1 14 11 16 11 17
ROOT
ATOM      1  C   UNL     1      43.209 131.912  20.358  1.00  0.00     0.213 A 
ATOM      2  C   UNL     1      43.023 132.019  18.966  1.00  0.00     0.118 A 
ATOM      3  C   UNL     1      44.006 131.587  18.076  1.00  0.00     0.165 A 
ATOM      4  F   UNL     1      43.805 131.702  16.739  1.00  0.00    -0.204 F 
ATOM      5  C   UNL     1      45.190 131.032  18.558  1.00  0.00     0.165 A 
ATOM      6  F   UNL     1      46.143 130.608  17.692  1.00  0.00    -0.204 F 
ATOM      7  C   UNL     1      45.394 130.907  19.932  1.00  0.00     0.117 A 
ATOM      8  C   UNL     1      44.418 131.338  20.854  1.00  0.00     0.201 A 
ENDROOT
BRANCH   1   9
ATOM      9  N   UNL     1      42.137 132.331  21.231  1.00  0.00    -0.234 N 
ATOM     10  H   UNL     1      41.545 131.524  21.527  1.00  0.00     0.376 HD
ATOM     11  H   UNL     1      42.522 132.772  22.101  1.00  0.00     0.376 HD
BRANCH   9  12
ATOM     12  N   UNL     1      41.340 133.270  20.547  1.00  0.00    -0.178 NA
ATOM     13  H   UNL     1      40.781 133.809  21.251  1.00  0.00     0.183 HD
ATOM     14  H   UNL     1      40.648 132.743  19.964  1.00  0.00     0.183 HD
ENDBRANCH   9  12
ENDBRANCH   1   9
BRANCH   8  15
ATOM     15  N   UNL     1      44.675 131.178  22.272  1.00  0.00    -0.276 N 
ATOM     16  H   UNL     1      44.275 131.989  22.796  1.00  0.00     0.358 HD
ATOM     17  H   UNL     1      45.703 131.201  22.464  1.00  0.00     0.358 HD
BRANCH  15  18
ATOM     18  C   UNL     1      44.166 129.917  22.759  1.00  0.00     0.134 A 
ATOM     19  C   UNL     1      42.899 129.845  23.367  1.00  0.00     0.071 A 
ATOM     20  C   UNL     1      44.901 128.731  22.576  1.00  0.00     0.071 A 
ATOM     21  C   UNL     1      42.398 128.620  23.819  1.00  0.00     0.045 A 
ATOM     22  C   UNL     1      44.399 127.509  23.030  1.00  0.00     0.045 A 
ATOM     23  C   UNL     1      43.150 127.454  23.654  1.00  0.00     0.123 A 
ATOM     24  F   UNL     1      42.663 126.266  24.093  1.00  0.00    -0.207 F 
ENDBRANCH  15  18
ENDBRANCH   8  15
TORSDOF 4
ENDMDL


