REMARK SMILES [NH-]C(=O)c1ccc(-c2cc(F)cc(F)c2OC(O)=C2CSC2)cc1
REMARK SMILES IDX 8 1 9 2 10 3 11 4 12 5 13 6 14 7 15 8 7 9 4 10 5 11 24 12
REMARK SMILES IDX 6 13 23 14 2 15 3 16 1 17 16 19 17 20 18 21 19 23 20 24
REMARK SMILES IDX 22 25 21 26
REMARK H PARENT 1 18 18 22
ROOT
ATOM      1  C   UNL     1      -0.886   1.208  -0.559  1.00  0.00     0.031 A 
ATOM      2  C   UNL     1      -2.158   1.718  -0.245  1.00  0.00     0.052 A 
ATOM      3  C   UNL     1      -2.388   3.095  -0.232  1.00  0.00     0.127 A 
ATOM      4  F   UNL     1      -3.622   3.574   0.062  1.00  0.00    -0.207 F 
ATOM      5  C   UNL     1      -1.353   3.980  -0.541  1.00  0.00     0.082 A 
ATOM      6  C   UNL     1      -0.080   3.491  -0.844  1.00  0.00     0.169 A 
ATOM      7  F   UNL     1       0.921   4.362  -1.126  1.00  0.00    -0.203 F 
ATOM      8  C   UNL     1       0.173   2.113  -0.829  1.00  0.00     0.174 A 
ENDROOT
BRANCH   1   9
ATOM      9  C   UNL     1      -0.699  -0.259  -0.656  1.00  0.00    -0.014 A 
ATOM     10  C   UNL     1      -0.294  -3.049  -0.816  1.00  0.00    -0.001 A 
ATOM     11  C   UNL     1      -0.900  -2.477   0.318  1.00  0.00     0.011 A 
ATOM     12  C   UNL     1       0.095  -2.209  -1.874  1.00  0.00     0.011 A 
ATOM     13  C   UNL     1      -1.103  -1.097   0.395  1.00  0.00     0.009 A 
ATOM     14  C   UNL     1      -0.112  -0.829  -1.797  1.00  0.00     0.009 A 
BRANCH  10  15
ATOM     15  C   UNL     1      -0.070  -4.512  -0.891  1.00  0.00     0.080 C 
ATOM     16  O   UNL     1      -0.426  -5.260   0.059  1.00  0.00    -0.315 OA
BRANCH  15  17
ATOM     17  N   UNL     1       0.551  -5.092  -2.037  1.00  0.00    -0.664 NA
ATOM     18  H   UNL     1       0.712  -6.122  -2.097  1.00  0.00    -0.121 HD
ENDBRANCH  15  17
ENDBRANCH  10  15
ENDBRANCH   1   9
BRANCH   8  19
ATOM     19  O   UNL     1       1.475   1.673  -1.095  1.00  0.00    -0.423 OA
BRANCH  19  20
ATOM     20  C   UNL     1       2.171   0.791  -0.263  1.00  0.00     0.283 C 
BRANCH  20  21
ATOM     21  O   UNL     1       1.742   0.572   1.047  1.00  0.00    -0.481 OA
ATOM     22  H   UNL     1       2.222  -0.070   1.667  1.00  0.00     0.297 HD
ENDBRANCH  20  21
BRANCH  20  23
ATOM     23  C   UNL     1       3.243   0.165  -0.735  1.00  0.00     0.030 C 
ATOM     24  C   UNL     1       4.241  -0.841  -0.214  1.00  0.00     0.109 C 
ATOM     25  C   UNL     1       3.982   0.125  -2.050  1.00  0.00     0.109 C 
ATOM     26  S   UNL     1       5.275  -1.058  -1.664  1.00  0.00    -0.152 SA
ENDBRANCH  20  23
ENDBRANCH  19  20
ENDBRANCH   8  19
TORSDOF 7


