REMARK SMILES C=Cc1ccc([O-])c(-c2ccc3[nH]ccc3c2)c1
REMARK SMILES IDX 3 1 4 2 5 3 6 4 7 5 8 6 18 7 2 8 1 9 9 10 10 11 17 12 11 13
REMARK SMILES IDX 16 14 12 15 15 16 13 17 14 18
REMARK H PARENT 13 19
ROOT
ATOM      1  C   UNL     1       2.018   2.810   1.984  1.00  0.00    -0.026 A 
ATOM      2  C   UNL     1       1.300   3.847   1.369  1.00  0.00     0.007 A 
ATOM      3  C   UNL     1       0.285   3.563   0.454  1.00  0.00    -0.007 A 
ATOM      4  C   UNL     1      -0.038   2.240   0.146  1.00  0.00    -0.101 A 
ATOM      5  O   UNL     1      -1.031   1.988  -0.795  1.00  0.00    -0.872 OA
ATOM      6  C   UNL     1       0.650   1.181   0.772  1.00  0.00    -0.026 A 
ATOM      7  C   UNL     1       1.677   1.476   1.687  1.00  0.00     0.016 A 
ENDROOT
BRANCH   1   8
ATOM      8  C   UNL     1       3.086   3.166   2.952  1.00  0.00     0.000 C 
ATOM      9  C   UNL     1       4.056   2.335   3.334  1.00  0.00     0.009 C 
ENDBRANCH   1   8
BRANCH   6  10
ATOM     10  C   UNL     1       0.308  -0.233   0.483  1.00  0.00    -0.018 A 
ATOM     11  C   UNL     1       1.335  -1.165   0.176  1.00  0.00     0.011 A 
ATOM     12  C   UNL     1      -1.036  -0.669   0.532  1.00  0.00     0.019 A 
ATOM     13  C   UNL     1       1.030  -2.512  -0.089  1.00  0.00     0.027 A 
ATOM     14  C   UNL     1      -1.302  -2.009   0.263  1.00  0.00    -0.000 A 
ATOM     15  C   UNL     1      -0.307  -2.899  -0.037  1.00  0.00     0.045 A 
ATOM     16  C   UNL     1      -2.494  -2.701   0.241  1.00  0.00     0.028 A 
ATOM     17  N   UNL     1      -0.811  -4.125  -0.251  1.00  0.00    -0.361 N 
ATOM     18  C   UNL     1      -2.148  -4.009  -0.082  1.00  0.00     0.083 A 
ATOM     19  H   UNL     1      -0.283  -4.992  -0.496  1.00  0.00     0.166 HD
ENDBRANCH   6  10
TORSDOF 2


