REMARK SMILES N/[N+](C1=C[C@H]2C[C@H]3C=CC=C[C@@H]3C[C@@]2(F)C=C1)=C(\O)N1CCOCC1
REMARK SMILES IDX 18 1 20 2 21 3 22 4 23 5 24 6 25 7 19 8 2 10 3 11 4 12 17 13
REMARK SMILES IDX 5 14 16 15 6 16 14 17 7 18 13 19 8 20 12 21 9 22 11 23 10 24
REMARK SMILES IDX 15 25 1 26
REMARK H PARENT 19 9 1 27 1 28
ROOT
ATOM      1  C   UNL     1      -2.760   1.675   1.308  1.00  0.00     0.473 C 
ATOM      2  N   UNL     1      -1.774   0.985   2.095  1.00  0.00    -0.222 N 
ATOM      3  C   UNL     1      -1.354   1.594   3.359  1.00  0.00     0.268 C 
ATOM      4  C   UNL     1      -0.066   0.932   3.852  1.00  0.00     0.206 C 
ATOM      5  O   UNL     1      -0.224  -0.472   3.914  1.00  0.00    -0.373 OA
ATOM      6  C   UNL     1      -0.388  -0.988   2.608  1.00  0.00     0.206 C 
ATOM      7  C   UNL     1      -1.682  -0.473   1.966  1.00  0.00     0.268 C 
ENDROOT
BRANCH   1   8
ATOM      8  O   UNL     1      -3.884   2.179   1.972  1.00  0.00    -0.445 OA
ATOM      9  H   UNL     1      -4.543   2.820   1.550  1.00  0.00     0.301 HD
ENDBRANCH   1   8
BRANCH   1  10
ATOM     10  N   UNL     1      -2.603   1.831   0.012  1.00  0.00    -0.096 N 
BRANCH  10  11
ATOM     11  C   UNL     1      -1.348   1.550  -0.640  1.00  0.00     0.153 C 
ATOM     12  C   UNL     1      -0.208   2.133  -0.223  1.00  0.00     0.034 C 
ATOM     13  C   UNL     1      -1.334   0.710  -1.860  1.00  0.00     0.053 C 
ATOM     14  C   UNL     1       1.107   1.847  -0.911  1.00  0.00     0.058 C 
ATOM     15  C   UNL     1      -0.278   0.706  -2.681  1.00  0.00     0.018 C 
ATOM     16  C   UNL     1       1.772   0.617  -0.254  1.00  0.00     0.020 C 
ATOM     17  C   UNL     1       0.881   1.652  -2.441  1.00  0.00     0.136 C 
ATOM     18  C   UNL     1       3.066   0.245  -0.985  1.00  0.00     0.019 C 
ATOM     19  C   UNL     1       2.165   1.168  -3.154  1.00  0.00     0.054 C 
ATOM     20  C   UNL     1       3.764  -0.933  -0.346  1.00  0.00    -0.023 C 
ATOM     21  C   UNL     1       2.762  -0.069  -2.467  1.00  0.00     0.022 C 
ATOM     22  C   UNL     1       4.660  -1.635  -1.053  1.00  0.00    -0.004 C 
ATOM     23  C   UNL     1       4.019  -0.554  -3.153  1.00  0.00    -0.023 C 
ATOM     24  C   UNL     1       4.873  -1.343  -2.489  1.00  0.00    -0.004 C 
ATOM     25  F   UNL     1       0.533   2.878  -2.986  1.00  0.00    -0.239 F 
ENDBRANCH  10  11
BRANCH  10  26
ATOM     26  N   UNL     1      -3.667   2.277  -0.796  1.00  0.00    -0.266 NA
ATOM     27  H   UNL     1      -3.488   2.596  -1.775  1.00  0.00     0.202 HD
ATOM     28  H   UNL     1      -4.664   2.153  -0.513  1.00  0.00     0.202 HD
ENDBRANCH  10  26
ENDBRANCH   1  10
TORSDOF 4


