MODEL 1
REMARK VINA RESULT:      -9.7      0.000      0.000
REMARK SMILES N/N=c1\cc(-c2ccc3[nH]ccc3c2)[n-][nH]c1=O
REMARK SMILES IDX 5 1 15 2 16 3 17 5 18 6 3 7 4 8 6 9 7 10 8 11 14 12 9 13
REMARK SMILES IDX 13 14 10 15 12 16 11 17 2 19 1 20
REMARK H PARENT 16 4 10 18 1 21 1 22
ROOT
ATOM      1  C   UNL     1      45.329 131.385  16.869  1.00  0.00    -0.115 A 
ATOM      2  N   UNL     1      45.584 132.531  16.181  1.00  0.00    -0.594 NA
ATOM      3  N   UNL     1      46.257 132.532  15.031  1.00  0.00    -0.424 N 
ATOM      4  H   UNL     1      46.423 133.442  14.547  1.00  0.00     0.144 HD
ATOM      5  C   UNL     1      46.729 131.380  14.485  1.00  0.00     0.258 A 
ATOM      6  O   UNL     1      47.364 131.421  13.396  1.00  0.00    -0.269 OA
ATOM      7  C   UNL     1      46.506 130.156  15.134  1.00  0.00     0.145 A 
ATOM      8  C   UNL     1      45.782 130.167  16.341  1.00  0.00     0.021 A 
ENDROOT
BRANCH   1   9
ATOM      9  C   UNL     1      44.562 131.455  18.139  1.00  0.00    -0.039 A 
ATOM     10  C   UNL     1      43.182 131.792  18.110  1.00  0.00     0.009 A 
ATOM     11  C   UNL     1      42.432 131.873  19.297  1.00  0.00     0.027 A 
ATOM     12  C   UNL     1      45.191 131.218  19.388  1.00  0.00     0.017 A 
ATOM     13  C   UNL     1      43.087 131.622  20.499  1.00  0.00     0.045 A 
ATOM     14  C   UNL     1      44.416 131.309  20.542  1.00  0.00    -0.000 A 
ATOM     15  N   UNL     1      42.563 131.654  21.736  1.00  0.00    -0.361 N 
ATOM     16  C   UNL     1      44.757 131.135  21.865  1.00  0.00     0.028 A 
ATOM     17  C   UNL     1      43.581 131.356  22.575  1.00  0.00     0.083 A 
ATOM     18  H   UNL     1      41.575 131.869  22.000  1.00  0.00     0.166 HD
ENDBRANCH   1   9
BRANCH   7  19
ATOM     19  N   UNL     1      46.961 129.061  14.585  1.00  0.00    -0.178 NA
BRANCH  19  20
ATOM     20  N   UNL     1      48.245 128.881  14.042  1.00  0.00    -0.323 N 
ATOM     21  H   UNL     1      49.040 129.429  14.437  1.00  0.00     0.179 HD
ATOM     22  H   UNL     1      48.471 128.138  13.347  1.00  0.00     0.179 HD
ENDBRANCH  19  20
ENDBRANCH   7  19
TORSDOF 3
ENDMDL
MODEL 2
REMARK VINA RESULT:      -9.5      0.839      1.580
REMARK SMILES N/N=c1\cc(-c2ccc3[nH]ccc3c2)[n-][nH]c1=O
REMARK SMILES IDX 5 1 15 2 16 3 17 5 18 6 3 7 4 8 6 9 7 10 8 11 14 12 9 13
REMARK SMILES IDX 13 14 10 15 12 16 11 17 2 19 1 20
REMARK H PARENT 16 4 10 18 1 21 1 22
ROOT
ATOM      1  C   UNL     1      45.617 131.064  17.046  1.00  0.00    -0.115 A 
ATOM      2  N   UNL     1      45.347 132.142  16.260  1.00  0.00    -0.594 NA
ATOM      3  N   UNL     1      45.685 132.180  14.972  1.00  0.00    -0.424 N 
ATOM      4  H   UNL     1      45.453 133.034  14.417  1.00  0.00     0.144 HD
ATOM      5  C   UNL     1      46.323 131.139  14.374  1.00  0.00     0.258 A 
ATOM      6  O   UNL     1      46.628 131.213  13.152  1.00  0.00    -0.269 OA
ATOM      7  C   UNL     1      46.635 129.991  15.117  1.00  0.00     0.145 A 
ATOM      8  C   UNL     1      46.261 129.956  16.474  1.00  0.00     0.021 A 
ENDROOT
BRANCH   1   9
ATOM      9  C   UNL     1      45.203 131.083  18.471  1.00  0.00    -0.039 A 
ATOM     10  C   UNL     1      46.009 130.435  19.447  1.00  0.00     0.009 A 
ATOM     11  C   UNL     1      45.638 130.429  20.803  1.00  0.00     0.027 A 
ATOM     12  C   UNL     1      43.998 131.713  18.877  1.00  0.00     0.017 A 
ATOM     13  C   UNL     1      44.454 131.069  21.158  1.00  0.00     0.045 A 
ATOM     14  C   UNL     1      43.665 131.685  20.229  1.00  0.00    -0.000 A 
ATOM     15  N   UNL     1      43.919 131.173  22.386  1.00  0.00    -0.361 N 
ATOM     16  C   UNL     1      42.574 132.204  20.893  1.00  0.00     0.028 A 
ATOM     17  C   UNL     1      42.769 131.867  22.228  1.00  0.00     0.083 A 
ATOM     18  H   UNL     1      44.305 130.794  23.279  1.00  0.00     0.166 HD
ENDBRANCH   1   9
BRANCH   7  19
ATOM     19  N   UNL     1      47.240 128.999  14.519  1.00  0.00    -0.178 NA
BRANCH  19  20
ATOM     20  N   UNL     1      48.453 129.077  13.813  1.00  0.00    -0.323 N 
ATOM     21  H   UNL     1      48.942 129.996  13.752  1.00  0.00     0.179 HD
ATOM     22  H   UNL     1      48.957 128.239  13.452  1.00  0.00     0.179 HD
ENDBRANCH  19  20
ENDBRANCH   7  19
TORSDOF 3
ENDMDL
MODEL 3
REMARK VINA RESULT:      -8.9      2.673      6.600
REMARK SMILES N/N=c1\cc(-c2ccc3[nH]ccc3c2)[n-][nH]c1=O
REMARK SMILES IDX 5 1 15 2 16 3 17 5 18 6 3 7 4 8 6 9 7 10 8 11 14 12 9 13
REMARK SMILES IDX 13 14 10 15 12 16 11 17 2 19 1 20
REMARK H PARENT 16 4 10 18 1 21 1 22
ROOT
ATOM      1  C   UNL     1      44.215 131.398  17.713  1.00  0.00    -0.115 A 
ATOM      2  N   UNL     1      42.995 131.916  17.405  1.00  0.00    -0.594 NA
ATOM      3  N   UNL     1      42.182 132.413  18.336  1.00  0.00    -0.424 N 
ATOM      4  H   UNL     1      41.256 132.798  18.042  1.00  0.00     0.144 HD
ATOM      5  C   UNL     1      42.531 132.425  19.650  1.00  0.00     0.258 A 
ATOM      6  O   UNL     1      41.733 132.902  20.503  1.00  0.00    -0.269 OA
ATOM      7  C   UNL     1      43.773 131.910  20.047  1.00  0.00     0.145 A 
ATOM      8  C   UNL     1      44.630 131.400  19.053  1.00  0.00     0.021 A 
ENDROOT
BRANCH   1   9
ATOM      9  C   UNL     1      45.076 130.871  16.624  1.00  0.00    -0.039 A 
ATOM     10  C   UNL     1      45.227 129.467  16.464  1.00  0.00     0.009 A 
ATOM     11  C   UNL     1      46.043 128.939  15.447  1.00  0.00     0.027 A 
ATOM     12  C   UNL     1      45.776 131.747  15.754  1.00  0.00     0.017 A 
ATOM     13  C   UNL     1      46.703 129.834  14.610  1.00  0.00     0.045 A 
ATOM     14  C   UNL     1      46.575 131.186  14.761  1.00  0.00    -0.000 A 
ATOM     15  N   UNL     1      47.527 129.542  13.590  1.00  0.00    -0.361 N 
ATOM     16  C   UNL     1      47.355 131.784  13.795  1.00  0.00     0.028 A 
ATOM     17  C   UNL     1      47.929 130.732  13.089  1.00  0.00     0.083 A 
ATOM     18  H   UNL     1      47.807 128.593  13.254  1.00  0.00     0.166 HD
ENDBRANCH   1   9
BRANCH   7  19
ATOM     19  N   UNL     1      44.091 131.940  21.315  1.00  0.00    -0.178 NA
BRANCH  19  20
ATOM     20  N   UNL     1      45.030 131.108  21.951  1.00  0.00    -0.323 N 
ATOM     21  H   UNL     1      45.521 131.462  22.800  1.00  0.00     0.179 HD
ATOM     22  H   UNL     1      45.171 130.108  21.694  1.00  0.00     0.179 HD
ENDBRANCH  19  20
ENDBRANCH   7  19
TORSDOF 3
ENDMDL
MODEL 4
REMARK VINA RESULT:      -8.8      2.871      6.690
REMARK SMILES N/N=c1\cc(-c2ccc3[nH]ccc3c2)[n-][nH]c1=O
REMARK SMILES IDX 5 1 15 2 16 3 17 5 18 6 3 7 4 8 6 9 7 10 8 11 14 12 9 13
REMARK SMILES IDX 13 14 10 15 12 16 11 17 2 19 1 20
REMARK H PARENT 16 4 10 18 1 21 1 22
ROOT
ATOM      1  C   UNL     1      44.996 131.100  18.715  1.00  0.00    -0.115 A 
ATOM      2  N   UNL     1      45.799 130.493  19.629  1.00  0.00    -0.594 NA
ATOM      3  N   UNL     1      45.510 130.485  20.930  1.00  0.00    -0.424 N 
ATOM      4  H   UNL     1      46.164 130.003  21.587  1.00  0.00     0.144 HD
ATOM      5  C   UNL     1      44.391 131.087  21.412  1.00  0.00     0.258 A 
ATOM      6  O   UNL     1      44.152 131.060  22.650  1.00  0.00    -0.269 OA
ATOM      7  C   UNL     1      43.511 131.734  20.532  1.00  0.00     0.145 A 
ATOM      8  C   UNL     1      43.820 131.726  19.158  1.00  0.00     0.021 A 
ENDROOT
BRANCH   1   9
ATOM      9  C   UNL     1      45.372 131.063  17.279  1.00  0.00    -0.039 A 
ATOM     10  C   UNL     1      44.660 131.862  16.344  1.00  0.00     0.009 A 
ATOM     11  C   UNL     1      44.988 131.841  14.976  1.00  0.00     0.027 A 
ATOM     12  C   UNL     1      46.415 130.220  16.816  1.00  0.00     0.017 A 
ATOM     13  C   UNL     1      46.026 131.008  14.568  1.00  0.00     0.045 A 
ATOM     14  C   UNL     1      46.711 130.227  15.455  1.00  0.00    -0.000 A 
ATOM     15  N   UNL     1      46.490 130.835  13.319  1.00  0.00    -0.361 N 
ATOM     16  C   UNL     1      47.653 129.521  14.740  1.00  0.00     0.028 A 
ATOM     17  C   UNL     1      47.486 129.926  13.420  1.00  0.00     0.083 A 
ATOM     18  H   UNL     1      46.151 131.301  12.448  1.00  0.00     0.166 HD
ENDBRANCH   1   9
BRANCH   7  19
ATOM     19  N   UNL     1      42.437 132.299  21.017  1.00  0.00    -0.178 NA
BRANCH  19  20
ATOM     20  N   UNL     1      41.519 133.083  20.296  1.00  0.00    -0.323 N 
ATOM     21  H   UNL     1      41.874 133.695  19.529  1.00  0.00     0.179 HD
ATOM     22  H   UNL     1      40.487 132.995  20.404  1.00  0.00     0.179 HD
ENDBRANCH  19  20
ENDBRANCH   7  19
TORSDOF 3
ENDMDL
MODEL 5
REMARK VINA RESULT:      -8.7      2.836      6.540
REMARK SMILES N/N=c1\cc(-c2ccc3[nH]ccc3c2)[n-][nH]c1=O
REMARK SMILES IDX 5 1 15 2 16 3 17 5 18 6 3 7 4 8 6 9 7 10 8 11 14 12 9 13
REMARK SMILES IDX 13 14 10 15 12 16 11 17 2 19 1 20
REMARK H PARENT 16 4 10 18 1 21 1 22
ROOT
ATOM      1  C   UNL     1      44.110 131.535  18.213  1.00  0.00    -0.115 A 
ATOM      2  N   UNL     1      42.814 131.940  18.300  1.00  0.00    -0.594 NA
ATOM      3  N   UNL     1      42.218 132.159  19.472  1.00  0.00    -0.424 N 
ATOM      4  H   UNL     1      41.220 132.469  19.478  1.00  0.00     0.144 HD
ATOM      5  C   UNL     1      42.878 131.986  20.647  1.00  0.00     0.258 A 
ATOM      6  O   UNL     1      42.280 132.202  21.736  1.00  0.00    -0.269 OA
ATOM      7  C   UNL     1      44.218 131.572  20.641  1.00  0.00     0.145 A 
ATOM      8  C   UNL     1      44.841 131.355  19.397  1.00  0.00     0.021 A 
ENDROOT
BRANCH   1   9
ATOM      9  C   UNL     1      44.716 131.320  16.875  1.00  0.00    -0.039 A 
ATOM     10  C   UNL     1      44.046 131.796  15.715  1.00  0.00     0.009 A 
ATOM     11  C   UNL     1      44.592 131.599  14.433  1.00  0.00     0.027 A 
ATOM     12  C   UNL     1      45.941 130.620  16.729  1.00  0.00     0.017 A 
ATOM     13  C   UNL     1      45.802 130.917  14.338  1.00  0.00     0.045 A 
ATOM     14  C   UNL     1      46.449 130.445  15.444  1.00  0.00    -0.000 A 
ATOM     15  N   UNL     1      46.484 130.619  13.220  1.00  0.00    -0.361 N 
ATOM     16  C   UNL     1      47.596 129.815  15.013  1.00  0.00     0.028 A 
ATOM     17  C   UNL     1      47.583 129.945  13.628  1.00  0.00     0.083 A 
ATOM     18  H   UNL     1      46.222 130.854  12.237  1.00  0.00     0.166 HD
ENDBRANCH   1   9
BRANCH   7  19
ATOM     19  N   UNL     1      44.836 131.420  21.783  1.00  0.00    -0.178 NA
BRANCH  19  20
ATOM     20  N   UNL     1      44.518 130.476  22.775  1.00  0.00    -0.323 N 
ATOM     21  H   UNL     1      44.995 130.539  23.701  1.00  0.00     0.179 HD
ATOM     22  H   UNL     1      43.740 129.790  22.680  1.00  0.00     0.179 HD
ENDBRANCH  19  20
ENDBRANCH   7  19
TORSDOF 3
ENDMDL
MODEL 6
REMARK VINA RESULT:      -8.4      2.810      6.767
REMARK SMILES N/N=c1\cc(-c2ccc3[nH]ccc3c2)[n-][nH]c1=O
REMARK SMILES IDX 5 1 15 2 16 3 17 5 18 6 3 7 4 8 6 9 7 10 8 11 14 12 9 13
REMARK SMILES IDX 13 14 10 15 12 16 11 17 2 19 1 20
REMARK H PARENT 16 4 10 18 1 21 1 22
ROOT
ATOM      1  C   UNL     1      43.749 131.686  18.301  1.00  0.00    -0.115 A 
ATOM      2  N   UNL     1      42.617 132.281  17.837  1.00  0.00    -0.594 NA
ATOM      3  N   UNL     1      41.705 132.802  18.657  1.00  0.00    -0.424 N 
ATOM      4  H   UNL     1      40.854 133.247  18.245  1.00  0.00     0.144 HD
ATOM      5  C   UNL     1      41.859 132.763  20.007  1.00  0.00     0.258 A 
ATOM      6  O   UNL     1      40.973 133.265  20.751  1.00  0.00    -0.269 OA
ATOM      7  C   UNL     1      43.001 132.167  20.563  1.00  0.00     0.145 A 
ATOM      8  C   UNL     1      43.964 131.631  19.687  1.00  0.00     0.021 A 
ENDROOT
BRANCH   1   9
ATOM      9  C   UNL     1      44.730 131.136  17.332  1.00  0.00    -0.039 A 
ATOM     10  C   UNL     1      45.698 130.191  17.770  1.00  0.00     0.009 A 
ATOM     11  C   UNL     1      46.645 129.659  16.877  1.00  0.00     0.027 A 
ATOM     12  C   UNL     1      44.738 131.556  15.977  1.00  0.00     0.017 A 
ATOM     13  C   UNL     1      46.609 130.091  15.554  1.00  0.00     0.045 A 
ATOM     14  C   UNL     1      45.691 131.007  15.123  1.00  0.00    -0.000 A 
ATOM     15  N   UNL     1      47.420 129.718  14.550  1.00  0.00    -0.361 N 
ATOM     16  C   UNL     1      45.928 131.230  13.784  1.00  0.00     0.028 A 
ATOM     17  C   UNL     1      47.007 130.411  13.466  1.00  0.00     0.083 A 
ATOM     18  H   UNL     1      48.210 129.036  14.596  1.00  0.00     0.166 HD
ENDBRANCH   1   9
BRANCH   7  19
ATOM     19  N   UNL     1      43.132 132.149  21.863  1.00  0.00    -0.178 NA
BRANCH  19  20
ATOM     20  N   UNL     1      42.301 131.465  22.768  1.00  0.00    -0.323 N 
ATOM     21  H   UNL     1      42.454 131.598  23.791  1.00  0.00     0.179 HD
ATOM     22  H   UNL     1      41.458 130.928  22.473  1.00  0.00     0.179 HD
ENDBRANCH  19  20
ENDBRANCH   7  19
TORSDOF 3
ENDMDL
MODEL 7
REMARK VINA RESULT:      -8.2      1.312      1.941
REMARK SMILES N/N=c1\cc(-c2ccc3[nH]ccc3c2)[n-][nH]c1=O
REMARK SMILES IDX 5 1 15 2 16 3 17 5 18 6 3 7 4 8 6 9 7 10 8 11 14 12 9 13
REMARK SMILES IDX 13 14 10 15 12 16 11 17 2 19 1 20
REMARK H PARENT 16 4 10 18 1 21 1 22
ROOT
ATOM      1  C   UNL     1      44.901 131.194  17.495  1.00  0.00    -0.115 A 
ATOM      2  N   UNL     1      43.894 131.647  16.699  1.00  0.00    -0.594 NA
ATOM      3  N   UNL     1      43.989 131.649  15.370  1.00  0.00    -0.424 N 
ATOM      4  H   UNL     1      43.184 132.009  14.809  1.00  0.00     0.144 HD
ATOM      5  C   UNL     1      45.105 131.200  14.738  1.00  0.00     0.258 A 
ATOM      6  O   UNL     1      45.159 131.220  13.477  1.00  0.00    -0.269 OA
ATOM      7  C   UNL     1      46.187 130.716  15.489  1.00  0.00     0.145 A 
ATOM      8  C   UNL     1      46.070 130.706  16.891  1.00  0.00     0.021 A 
ENDROOT
BRANCH   1   9
ATOM      9  C   UNL     1      44.724 131.209  18.969  1.00  0.00    -0.039 A 
ATOM     10  C   UNL     1      45.735 130.661  19.804  1.00  0.00     0.009 A 
ATOM     11  C   UNL     1      45.592 130.653  21.203  1.00  0.00     0.027 A 
ATOM     12  C   UNL     1      43.548 131.737  19.561  1.00  0.00     0.017 A 
ATOM     13  C   UNL     1      44.427 131.192  21.742  1.00  0.00     0.045 A 
ATOM     14  C   UNL     1      43.443 131.711  20.950  1.00  0.00    -0.000 A 
ATOM     15  N   UNL     1      44.091 131.276  23.040  1.00  0.00    -0.361 N 
ATOM     16  C   UNL     1      42.432 132.144  21.779  1.00  0.00     0.028 A 
ATOM     17  C   UNL     1      42.871 131.858  23.067  1.00  0.00     0.083 A 
ATOM     18  H   UNL     1      44.652 130.955  23.861  1.00  0.00     0.166 HD
ENDBRANCH   1   9
BRANCH   7  19
ATOM     19  N   UNL     1      47.246 130.281  14.859  1.00  0.00    -0.178 NA
BRANCH  19  20
ATOM     20  N   UNL     1      47.407 129.002  14.298  1.00  0.00    -0.323 N 
ATOM     21  H   UNL     1      47.988 128.899  13.438  1.00  0.00     0.179 HD
ATOM     22  H   UNL     1      47.078 128.130  14.764  1.00  0.00     0.179 HD
ENDBRANCH  19  20
ENDBRANCH   7  19
TORSDOF 3
ENDMDL
MODEL 8
REMARK VINA RESULT:      -8.0      1.580      2.187
REMARK SMILES N/N=c1\cc(-c2ccc3[nH]ccc3c2)[n-][nH]c1=O
REMARK SMILES IDX 5 1 15 2 16 3 17 5 18 6 3 7 4 8 6 9 7 10 8 11 14 12 9 13
REMARK SMILES IDX 13 14 10 15 12 16 11 17 2 19 1 20
REMARK H PARENT 16 4 10 18 1 21 1 22
ROOT
ATOM      1  C   UNL     1      44.816 131.072  17.882  1.00  0.00    -0.115 A 
ATOM      2  N   UNL     1      45.998 130.401  17.938  1.00  0.00    -0.594 NA
ATOM      3  N   UNL     1      46.690 130.096  16.841  1.00  0.00    -0.424 N 
ATOM      4  H   UNL     1      47.592 129.579  16.944  1.00  0.00     0.144 HD
ATOM      5  C   UNL     1      46.246 130.438  15.603  1.00  0.00     0.258 A 
ATOM      6  O   UNL     1      46.928 130.129  14.588  1.00  0.00    -0.269 OA
ATOM      7  C   UNL     1      45.035 131.133  15.463  1.00  0.00     0.145 A 
ATOM      8  C   UNL     1      44.319 131.462  16.629  1.00  0.00     0.021 A 
ENDROOT
BRANCH   1   9
ATOM      9  C   UNL     1      44.101 131.391  19.144  1.00  0.00    -0.039 A 
ATOM     10  C   UNL     1      42.856 132.076  19.095  1.00  0.00     0.009 A 
ATOM     11  C   UNL     1      42.161 132.399  20.274  1.00  0.00     0.027 A 
ATOM     12  C   UNL     1      44.652 131.048  20.406  1.00  0.00     0.017 A 
ATOM     13  C   UNL     1      42.733 132.034  21.489  1.00  0.00     0.045 A 
ATOM     14  C   UNL     1      43.934 131.385  21.551  1.00  0.00    -0.000 A 
ATOM     15  N   UNL     1      42.243 132.252  22.720  1.00  0.00    -0.361 N 
ATOM     16  C   UNL     1      44.225 131.182  22.882  1.00  0.00     0.028 A 
ATOM     17  C   UNL     1      43.152 131.732  23.576  1.00  0.00     0.083 A 
ATOM     18  H   UNL     1      41.347 132.727  22.969  1.00  0.00     0.166 HD
ENDBRANCH   1   9
BRANCH   7  19
ATOM     19  N   UNL     1      44.632 131.459  14.263  1.00  0.00    -0.178 NA
BRANCH  19  20
ATOM     20  N   UNL     1      43.295 131.583  13.846  1.00  0.00    -0.323 N 
ATOM     21  H   UNL     1      43.084 132.149  12.996  1.00  0.00     0.179 HD
ATOM     22  H   UNL     1      42.514 131.036  14.267  1.00  0.00     0.179 HD
ENDBRANCH  19  20
ENDBRANCH   7  19
TORSDOF 3
ENDMDL
MODEL 9
REMARK VINA RESULT:      -7.9      1.304      1.777
REMARK SMILES N/N=c1\cc(-c2ccc3[nH]ccc3c2)[n-][nH]c1=O
REMARK SMILES IDX 5 1 15 2 16 3 17 5 18 6 3 7 4 8 6 9 7 10 8 11 14 12 9 13
REMARK SMILES IDX 13 14 10 15 12 16 11 17 2 19 1 20
REMARK H PARENT 16 4 10 18 1 21 1 22
ROOT
ATOM      1  C   UNL     1      45.218 130.692  16.866  1.00  0.00    -0.115 A 
ATOM      2  N   UNL     1      45.414 129.359  16.680  1.00  0.00    -0.594 NA
ATOM      3  N   UNL     1      46.171 128.887  15.690  1.00  0.00    -0.424 N 
ATOM      4  H   UNL     1      46.286 127.853  15.595  1.00  0.00     0.144 HD
ATOM      5  C   UNL     1      46.788 129.718  14.810  1.00  0.00     0.258 A 
ATOM      6  O   UNL     1      47.496 129.234  13.885  1.00  0.00    -0.269 OA
ATOM      7  C   UNL     1      46.636 131.107  14.936  1.00  0.00     0.145 A 
ATOM      8  C   UNL     1      45.844 131.595  15.993  1.00  0.00     0.021 A 
ENDROOT
BRANCH   1   9
ATOM      9  C   UNL     1      44.371 131.152  17.996  1.00  0.00    -0.039 A 
ATOM     10  C   UNL     1      43.105 131.741  17.732  1.00  0.00     0.009 A 
ATOM     11  C   UNL     1      42.284 132.193  18.781  1.00  0.00     0.027 A 
ATOM     12  C   UNL     1      44.815 131.037  19.339  1.00  0.00     0.017 A 
ATOM     13  C   UNL     1      42.754 132.051  20.083  1.00  0.00     0.045 A 
ATOM     14  C   UNL     1      43.974 131.496  20.350  1.00  0.00    -0.000 A 
ATOM     15  N   UNL     1      42.138 132.420  21.219  1.00  0.00    -0.361 N 
ATOM     16  C   UNL     1      44.145 131.514  21.717  1.00  0.00     0.028 A 
ATOM     17  C   UNL     1      42.985 132.093  22.220  1.00  0.00     0.083 A 
ATOM     18  H   UNL     1      41.200 132.870  21.312  1.00  0.00     0.166 HD
ENDBRANCH   1   9
BRANCH   7  19
ATOM     19  N   UNL     1      47.245 131.888  14.083  1.00  0.00    -0.178 NA
BRANCH  19  20
ATOM     20  N   UNL     1      47.712 131.516  12.811  1.00  0.00    -0.323 N 
ATOM     21  H   UNL     1      48.737 131.381  12.670  1.00  0.00     0.179 HD
ATOM     22  H   UNL     1      47.079 131.245  12.028  1.00  0.00     0.179 HD
ENDBRANCH  19  20
ENDBRANCH   7  19
TORSDOF 3
ENDMDL


