REMARK SMILES Cc1ccc(-c2ccc(Nc3cc4cc5ccccc5cc4[nH]3)c(C=O)c2)cc1
REMARK SMILES IDX 6 1 7 2 8 3 9 4 24 5 27 6 5 7 2 8 3 9 29 10 4 11 28 12 1 13
REMARK SMILES IDX 25 14 26 15 10 16 11 18 12 19 23 20 13 21 22 22 14 23 21 24
REMARK SMILES IDX 15 25 20 26 16 27 19 28 17 29 18 30
REMARK H PARENT 10 17 23 31
ROOT
ATOM      1  C   UNL     1       3.103  -0.636   0.182  1.00  0.00    -0.018 A 
ATOM      2  C   UNL     1       2.605  -1.910  -0.135  1.00  0.00     0.011 A 
ATOM      3  C   UNL     1       1.380  -2.337   0.377  1.00  0.00     0.027 A 
ATOM      4  C   UNL     1       0.623  -1.504   1.209  1.00  0.00     0.050 A 
ATOM      5  C   UNL     1       1.129  -0.231   1.572  1.00  0.00     0.038 A 
ATOM      6  C   UNL     1       2.357   0.193   1.037  1.00  0.00     0.022 A 
ENDROOT
BRANCH   1   7
ATOM      7  C   UNL     1       4.403  -0.178  -0.371  1.00  0.00    -0.018 A 
ATOM      8  C   UNL     1       6.867   0.702  -1.424  1.00  0.00    -0.051 A 
ATOM      9  C   UNL     1       5.968  -0.011  -2.229  1.00  0.00     0.004 A 
ATOM     10  C   UNL     1       6.541   0.951  -0.083  1.00  0.00     0.004 A 
ATOM     11  C   UNL     1       4.744  -0.442  -1.710  1.00  0.00     0.009 A 
ATOM     12  C   UNL     1       5.318   0.521   0.438  1.00  0.00     0.009 A 
ATOM     13  C   UNL     1       8.197   1.129  -1.971  1.00  0.00     0.044 C 
ENDBRANCH   1   7
BRANCH   5  14
ATOM     14  C   UNL     1       0.439   0.669   2.524  1.00  0.00     0.262 C 
ATOM     15  O   UNL     1      -0.495   0.262   3.263  1.00  0.00    -0.298 OA
ENDBRANCH   5  14
BRANCH   4  16
ATOM     16  N   UNL     1      -0.657  -1.968   1.655  1.00  0.00    -0.341 N 
ATOM     17  H   UNL     1      -0.706  -2.892   2.141  1.00  0.00     0.168 HD
BRANCH  16  18
ATOM     18  C   UNL     1      -1.884  -1.363   1.222  1.00  0.00     0.108 A 
ATOM     19  C   UNL     1      -3.147  -1.784   1.624  1.00  0.00     0.055 A 
ATOM     20  N   UNL     1      -1.956  -0.318   0.363  1.00  0.00    -0.341 N 
ATOM     21  C   UNL     1      -4.018  -0.938   0.971  1.00  0.00     0.002 A 
ATOM     22  C   UNL     1      -3.268  -0.068   0.221  1.00  0.00     0.048 A 
ATOM     23  C   UNL     1      -5.409  -0.886   0.993  1.00  0.00     0.019 A 
ATOM     24  C   UNL     1      -3.857   0.920  -0.566  1.00  0.00     0.035 A 
ATOM     25  C   UNL     1      -6.045   0.101   0.210  1.00  0.00    -0.018 A 
ATOM     26  C   UNL     1      -5.265   1.009  -0.573  1.00  0.00    -0.016 A 
ATOM     27  C   UNL     1      -7.444   0.202   0.194  1.00  0.00     0.009 A 
ATOM     28  C   UNL     1      -5.911   1.985  -1.346  1.00  0.00     0.009 A 
ATOM     29  C   UNL     1      -8.069   1.181  -0.584  1.00  0.00     0.001 A 
ATOM     30  C   UNL     1      -7.307   2.068  -1.349  1.00  0.00     0.001 A 
ATOM     31  H   UNL     1      -1.168   0.186  -0.101  1.00  0.00     0.168 HD
ENDBRANCH  16  18
ENDBRANCH   4  16
TORSDOF 4


