MODEL 1
REMARK VINA RESULT:      -5.4      0.000      0.000
REMARK SMILES Cc1ccc([NH2+][C@H]2CCC[C@@H](NN)[C@]2(O)c2nc3ccccc3[n-]2)cc1F
REMARK SMILES IDX 7 1 8 2 9 3 10 4 11 5 14 6 6 7 5 10 2 11 3 12 26 13 4 14
REMARK SMILES IDX 25 15 1 16 27 17 15 18 16 20 17 21 24 22 18 23 23 24 19 25
REMARK SMILES IDX 22 26 20 27 21 28 12 29 13 31
REMARK H PARENT 6 8 6 9 15 19 12 30 13 32 13 33
ROOT
ATOM      1  C   UNL     1      44.445 129.585  21.620  1.00  0.00     0.225 C 
ATOM      2  C   UNL     1      43.862 129.601  23.056  1.00  0.00     0.069 C 
ATOM      3  C   UNL     1      42.495 130.279  23.125  1.00  0.00     0.008 C 
ATOM      4  C   UNL     1      42.580 131.718  22.624  1.00  0.00     0.024 C 
ATOM      5  C   UNL     1      43.087 131.754  21.170  1.00  0.00     0.111 C 
ATOM      6  C   UNL     1      44.477 131.036  20.984  1.00  0.00     0.150 C 
ENDROOT
BRANCH   1   7
ATOM      7  N   UNL     1      45.781 128.930  21.658  1.00  0.00    -0.309 N 
ATOM      8  H   UNL     1      46.379 129.400  22.379  1.00  0.00     0.352 HD
ATOM      9  H   UNL     1      46.270 129.057  20.742  1.00  0.00     0.352 HD
BRANCH   7  10
ATOM     10  C   UNL     1      45.727 127.530  22.018  1.00  0.00     0.132 A 
ATOM     11  C   UNL     1      45.606 124.782  22.632  1.00  0.00    -0.015 A 
ATOM     12  C   UNL     1      44.446 125.570  22.680  1.00  0.00     0.012 A 
ATOM     13  C   UNL     1      46.837 125.387  22.331  1.00  0.00     0.132 A 
ATOM     14  C   UNL     1      44.506 126.934  22.380  1.00  0.00     0.068 A 
ATOM     15  C   UNL     1      46.896 126.750  22.028  1.00  0.00     0.107 A 
ATOM     16  C   UNL     1      45.540 123.315  22.941  1.00  0.00     0.047 C 
ATOM     17  F   UNL     1      47.977 124.651  22.308  1.00  0.00    -0.206 F 
ENDBRANCH   7  10
ENDBRANCH   1   7
BRANCH   6  18
ATOM     18  O   UNL     1      45.522 131.792  21.556  1.00  0.00    -0.378 OA
ATOM     19  H   UNL     1      46.361 131.269  21.502  1.00  0.00     0.212 HD
ENDBRANCH   6  18
BRANCH   6  20
ATOM     20  C   UNL     1      44.735 130.937  19.495  1.00  0.00    -0.042 A 
ATOM     21  N   UNL     1      43.940 131.533  18.565  1.00  0.00    -0.437 NA
ATOM     22  N   UNL     1      45.790 130.253  18.972  1.00  0.00    -0.437 NA
ATOM     23  C   UNL     1      44.521 131.180  17.410  1.00  0.00    -0.038 A 
ATOM     24  C   UNL     1      45.622 130.420  17.652  1.00  0.00    -0.038 A 
ATOM     25  C   UNL     1      44.094 131.472  16.118  1.00  0.00     0.004 A 
ATOM     26  C   UNL     1      46.392 129.887  16.621  1.00  0.00     0.004 A 
ATOM     27  C   UNL     1      44.846 130.952  15.049  1.00  0.00     0.000 A 
ATOM     28  C   UNL     1      45.992 130.162  15.299  1.00  0.00     0.000 A 
ENDBRANCH   6  20
BRANCH   5  29
ATOM     29  N   UNL     1      43.040 133.131  20.633  1.00  0.00    -0.254 NA
ATOM     30  H   UNL     1      43.008 133.809  21.431  1.00  0.00     0.141 HD
BRANCH  29  31
ATOM     31  N   UNL     1      41.895 133.312  19.834  1.00  0.00    -0.271 NA
ATOM     32  H   UNL     1      41.836 134.332  19.612  1.00  0.00     0.137 HD
ATOM     33  H   UNL     1      41.052 133.104  20.418  1.00  0.00     0.137 HD
ENDBRANCH  29  31
ENDBRANCH   5  29
TORSDOF 6
ENDMDL
MODEL 2
REMARK VINA RESULT:      -5.4      1.001      1.155
REMARK SMILES Cc1ccc([NH2+][C@H]2CCC[C@@H](NN)[C@]2(O)c2nc3ccccc3[n-]2)cc1F
REMARK SMILES IDX 7 1 8 2 9 3 10 4 11 5 14 6 6 7 5 10 2 11 3 12 26 13 4 14
REMARK SMILES IDX 25 15 1 16 27 17 15 18 16 20 17 21 24 22 18 23 23 24 19 25
REMARK SMILES IDX 22 26 20 27 21 28 12 29 13 31
REMARK H PARENT 6 8 6 9 15 19 12 30 13 32 13 33
ROOT
ATOM      1  C   UNL     1      44.060 129.143  22.474  1.00  0.00     0.225 C 
ATOM      2  C   UNL     1      43.475 128.872  23.883  1.00  0.00     0.069 C 
ATOM      3  C   UNL     1      42.063 129.432  24.049  1.00  0.00     0.008 C 
ATOM      4  C   UNL     1      42.049 130.939  23.803  1.00  0.00     0.024 C 
ATOM      5  C   UNL     1      42.554 131.259  22.384  1.00  0.00     0.111 C 
ATOM      6  C   UNL     1      43.991 130.681  22.097  1.00  0.00     0.150 C 
ENDROOT
BRANCH   1   7
ATOM      7  N   UNL     1      45.438 128.585  22.417  1.00  0.00    -0.309 N 
ATOM      8  H   UNL     1      45.976 128.898  23.260  1.00  0.00     0.352 HD
ATOM      9  H   UNL     1      45.946 128.966  21.586  1.00  0.00     0.352 HD
BRANCH   7  10
ATOM     10  C   UNL     1      45.474 127.139  22.419  1.00  0.00     0.132 A 
ATOM     11  C   UNL     1      45.527 124.322  22.336  1.00  0.00    -0.015 A 
ATOM     12  C   UNL     1      44.335 124.999  22.632  1.00  0.00     0.012 A 
ATOM     13  C   UNL     1      46.706 125.058  22.137  1.00  0.00     0.132 A 
ATOM     14  C   UNL     1      44.309 126.396  22.678  1.00  0.00     0.068 A 
ATOM     15  C   UNL     1      46.679 126.455  22.181  1.00  0.00     0.107 A 
ATOM     16  C   UNL     1      45.552 122.822  22.273  1.00  0.00     0.047 C 
ATOM     17  F   UNL     1      47.878 124.424  21.878  1.00  0.00    -0.206 F 
ENDBRANCH   7  10
ENDBRANCH   1   7
BRANCH   6  18
ATOM     18  O   UNL     1      44.979 131.397  22.804  1.00  0.00    -0.378 OA
ATOM     19  H   UNL     1      45.302 132.140  22.234  1.00  0.00     0.212 HD
ENDBRANCH   6  18
BRANCH   6  20
ATOM     20  C   UNL     1      44.258 130.857  20.616  1.00  0.00    -0.042 A 
ATOM     21  N   UNL     1      43.355 131.417  19.763  1.00  0.00    -0.437 NA
ATOM     22  N   UNL     1      45.425 130.480  20.025  1.00  0.00    -0.437 NA
ATOM     23  C   UNL     1      43.990 131.361  18.585  1.00  0.00    -0.038 A 
ATOM     24  C   UNL     1      45.222 130.805  18.741  1.00  0.00    -0.038 A 
ATOM     25  C   UNL     1      43.508 131.753  17.339  1.00  0.00     0.004 A 
ATOM     26  C   UNL     1      46.078 130.595  17.662  1.00  0.00     0.004 A 
ATOM     27  C   UNL     1      44.345 131.555  16.225  1.00  0.00     0.000 A 
ATOM     28  C   UNL     1      45.626 130.978  16.385  1.00  0.00     0.000 A 
ENDBRANCH   6  20
BRANCH   5  29
ATOM     29  N   UNL     1      42.411 132.701  22.091  1.00  0.00    -0.254 NA
ATOM     30  H   UNL     1      42.226 133.216  22.984  1.00  0.00     0.141 HD
BRANCH  29  31
ATOM     31  N   UNL     1      41.340 132.923  21.205  1.00  0.00    -0.271 NA
ATOM     32  H   UNL     1      40.582 133.391  21.753  1.00  0.00     0.137 HD
ATOM     33  H   UNL     1      40.949 131.993  20.926  1.00  0.00     0.137 HD
ENDBRANCH  29  31
ENDBRANCH   5  29
TORSDOF 6
ENDMDL
MODEL 3
REMARK VINA RESULT:      -5.4      1.464      1.788
REMARK SMILES Cc1ccc([NH2+][C@H]2CCC[C@@H](NN)[C@]2(O)c2nc3ccccc3[n-]2)cc1F
REMARK SMILES IDX 7 1 8 2 9 3 10 4 11 5 14 6 6 7 5 10 2 11 3 12 26 13 4 14
REMARK SMILES IDX 25 15 1 16 27 17 15 18 16 20 17 21 24 22 18 23 23 24 19 25
REMARK SMILES IDX 22 26 20 27 21 28 12 29 13 31
REMARK H PARENT 6 8 6 9 15 19 12 30 13 32 13 33
ROOT
ATOM      1  C   UNL     1      44.035 129.102  22.768  1.00  0.00     0.225 C 
ATOM      2  C   UNL     1      43.362 128.855  24.142  1.00  0.00     0.069 C 
ATOM      3  C   UNL     1      41.941 129.413  24.206  1.00  0.00     0.008 C 
ATOM      4  C   UNL     1      41.937 130.914  23.931  1.00  0.00     0.024 C 
ATOM      5  C   UNL     1      42.531 131.209  22.541  1.00  0.00     0.111 C 
ATOM      6  C   UNL     1      43.986 130.632  22.358  1.00  0.00     0.150 C 
ENDROOT
BRANCH   1   7
ATOM      7  N   UNL     1      45.416 128.548  22.810  1.00  0.00    -0.309 N 
ATOM      8  H   UNL     1      45.966 129.042  23.552  1.00  0.00     0.352 HD
ATOM      9  H   UNL     1      45.906 128.738  21.906  1.00  0.00     0.352 HD
BRANCH   7  10
ATOM     10  C   UNL     1      45.461 127.139  23.131  1.00  0.00     0.132 A 
ATOM     11  C   UNL     1      45.478 124.402  23.806  1.00  0.00    -0.015 A 
ATOM     12  C   UNL     1      46.199 125.326  24.577  1.00  0.00     0.012 A 
ATOM     13  C   UNL     1      44.793 124.845  22.663  1.00  0.00     0.132 A 
ATOM     14  C   UNL     1      46.196 126.683  24.240  1.00  0.00     0.068 A 
ATOM     15  C   UNL     1      44.788 126.202  22.328  1.00  0.00     0.107 A 
ATOM     16  C   UNL     1      45.471 122.947  24.176  1.00  0.00     0.047 C 
ATOM     17  F   UNL     1      44.112 123.966  21.885  1.00  0.00    -0.206 F 
ENDBRANCH   7  10
ENDBRANCH   1   7
BRANCH   6  18
ATOM     18  O   UNL     1      44.924 131.366  23.112  1.00  0.00    -0.378 OA
ATOM     19  H   UNL     1      44.704 131.272  24.073  1.00  0.00     0.212 HD
ENDBRANCH   6  18
BRANCH   6  20
ATOM     20  C   UNL     1      44.346 130.781  20.893  1.00  0.00    -0.042 A 
ATOM     21  N   UNL     1      43.592 131.498  20.015  1.00  0.00    -0.437 NA
ATOM     22  N   UNL     1      45.458 130.219  20.345  1.00  0.00    -0.437 NA
ATOM     23  C   UNL     1      44.261 131.352  18.865  1.00  0.00    -0.038 A 
ATOM     24  C   UNL     1      45.372 130.592  19.061  1.00  0.00    -0.038 A 
ATOM     25  C   UNL     1      43.911 131.837  17.608  1.00  0.00     0.004 A 
ATOM     26  C   UNL     1      46.229 130.254  18.016  1.00  0.00     0.004 A 
ATOM     27  C   UNL     1      44.752 131.516  16.527  1.00  0.00     0.000 A 
ATOM     28  C   UNL     1      45.907 130.727  16.729  1.00  0.00     0.000 A 
ENDBRANCH   6  20
BRANCH   5  29
ATOM     29  N   UNL     1      42.403 132.645  22.212  1.00  0.00    -0.254 NA
ATOM     30  H   UNL     1      42.116 133.170  23.071  1.00  0.00     0.141 HD
BRANCH  29  31
ATOM     31  N   UNL     1      41.431 132.839  21.212  1.00  0.00    -0.271 NA
ATOM     32  H   UNL     1      40.565 133.176  21.689  1.00  0.00     0.137 HD
ATOM     33  H   UNL     1      41.183 131.904  20.811  1.00  0.00     0.137 HD
ENDBRANCH  29  31
ENDBRANCH   5  29
TORSDOF 6
ENDMDL
MODEL 4
REMARK VINA RESULT:      -5.2      1.068      1.782
REMARK SMILES Cc1ccc([NH2+][C@H]2CCC[C@@H](NN)[C@]2(O)c2nc3ccccc3[n-]2)cc1F
REMARK SMILES IDX 7 1 8 2 9 3 10 4 11 5 14 6 6 7 5 10 2 11 3 12 26 13 4 14
REMARK SMILES IDX 25 15 1 16 27 17 15 18 16 20 17 21 24 22 18 23 23 24 19 25
REMARK SMILES IDX 22 26 20 27 21 28 12 29 13 31
REMARK H PARENT 6 8 6 9 15 19 12 30 13 32 13 33
ROOT
ATOM      1  C   UNL     1      44.292 129.706  21.667  1.00  0.00     0.225 C 
ATOM      2  C   UNL     1      43.688 129.768  23.093  1.00  0.00     0.069 C 
ATOM      3  C   UNL     1      42.327 130.463  23.123  1.00  0.00     0.008 C 
ATOM      4  C   UNL     1      42.437 131.887  22.584  1.00  0.00     0.024 C 
ATOM      5  C   UNL     1      42.966 131.877  21.137  1.00  0.00     0.111 C 
ATOM      6  C   UNL     1      44.350 131.139  20.993  1.00  0.00     0.150 C 
ENDROOT
BRANCH   1   7
ATOM      7  N   UNL     1      45.620 129.037  21.744  1.00  0.00    -0.309 N 
ATOM      8  H   UNL     1      46.244 129.577  22.390  1.00  0.00     0.352 HD
ATOM      9  H   UNL     1      46.084 129.052  20.806  1.00  0.00     0.352 HD
BRANCH   7  10
ATOM     10  C   UNL     1      45.556 127.689  22.262  1.00  0.00     0.132 A 
ATOM     11  C   UNL     1      45.486 125.085  23.339  1.00  0.00    -0.015 A 
ATOM     12  C   UNL     1      46.451 125.429  22.381  1.00  0.00     0.012 A 
ATOM     13  C   UNL     1      44.521 126.033  23.716  1.00  0.00     0.132 A 
ATOM     14  C   UNL     1      46.483 126.719  21.842  1.00  0.00     0.068 A 
ATOM     15  C   UNL     1      44.556 127.323  23.179  1.00  0.00     0.107 A 
ATOM     16  C   UNL     1      45.459 123.704  23.927  1.00  0.00     0.047 C 
ATOM     17  F   UNL     1      43.560 125.714  24.619  1.00  0.00    -0.206 F 
ENDBRANCH   7  10
ENDBRANCH   1   7
BRANCH   6  18
ATOM     18  O   UNL     1      45.395 131.899  21.559  1.00  0.00    -0.378 OA
ATOM     19  H   UNL     1      46.043 131.282  21.985  1.00  0.00     0.212 HD
ENDBRANCH   6  18
BRANCH   6  20
ATOM     20  C   UNL     1      44.630 130.996  19.510  1.00  0.00    -0.042 A 
ATOM     21  N   UNL     1      45.701 130.312  19.022  1.00  0.00    -0.437 NA
ATOM     22  N   UNL     1      43.824 131.531  18.552  1.00  0.00    -0.437 NA
ATOM     23  C   UNL     1      45.560 130.451  17.698  1.00  0.00    -0.038 A 
ATOM     24  C   UNL     1      44.443 131.175  17.417  1.00  0.00    -0.038 A 
ATOM     25  C   UNL     1      46.412 129.991  16.697  1.00  0.00     0.004 A 
ATOM     26  C   UNL     1      44.082 131.499  16.112  1.00  0.00     0.004 A 
ATOM     27  C   UNL     1      46.081 130.299  15.365  1.00  0.00     0.000 A 
ATOM     28  C   UNL     1      44.920 131.051  15.073  1.00  0.00     0.000 A 
ENDBRANCH   6  20
BRANCH   5  29
ATOM     29  N   UNL     1      42.943 133.239  20.563  1.00  0.00    -0.254 NA
ATOM     30  H   UNL     1      42.842 133.937  21.337  1.00  0.00     0.141 HD
BRANCH  29  31
ATOM     31  N   UNL     1      41.860 133.383  19.674  1.00  0.00    -0.271 NA
ATOM     32  H   UNL     1      41.002 133.077  20.185  1.00  0.00     0.137 HD
ATOM     33  H   UNL     1      41.983 132.694  18.896  1.00  0.00     0.137 HD
ENDBRANCH  29  31
ENDBRANCH   5  29
TORSDOF 6
ENDMDL
MODEL 5
REMARK VINA RESULT:      -5.0      0.758      1.357
REMARK SMILES Cc1ccc([NH2+][C@H]2CCC[C@@H](NN)[C@]2(O)c2nc3ccccc3[n-]2)cc1F
REMARK SMILES IDX 7 1 8 2 9 3 10 4 11 5 14 6 6 7 5 10 2 11 3 12 26 13 4 14
REMARK SMILES IDX 25 15 1 16 27 17 15 18 16 20 17 21 24 22 18 23 23 24 19 25
REMARK SMILES IDX 22 26 20 27 21 28 12 29 13 31
REMARK H PARENT 6 8 6 9 15 19 12 30 13 32 13 33
ROOT
ATOM      1  C   UNL     1      44.187 129.630  22.061  1.00  0.00     0.225 C 
ATOM      2  C   UNL     1      43.567 129.629  23.481  1.00  0.00     0.069 C 
ATOM      3  C   UNL     1      42.186 130.280  23.517  1.00  0.00     0.008 C 
ATOM      4  C   UNL     1      42.256 131.722  23.023  1.00  0.00     0.024 C 
ATOM      5  C   UNL     1      42.799 131.774  21.584  1.00  0.00     0.111 C 
ATOM      6  C   UNL     1      44.207 131.084  21.432  1.00  0.00     0.150 C 
ENDROOT
BRANCH   1   7
ATOM      7  N   UNL     1      45.534 129.001  22.131  1.00  0.00    -0.309 N 
ATOM      8  H   UNL     1      46.137 129.541  22.797  1.00  0.00     0.352 HD
ATOM      9  H   UNL     1      46.005 129.055  21.199  1.00  0.00     0.352 HD
BRANCH   7  10
ATOM     10  C   UNL     1      45.509 127.638  22.613  1.00  0.00     0.132 A 
ATOM     11  C   UNL     1      45.386 124.965  23.502  1.00  0.00    -0.015 A 
ATOM     12  C   UNL     1      44.761 125.986  24.235  1.00  0.00     0.012 A 
ATOM     13  C   UNL     1      46.120 125.295  22.351  1.00  0.00     0.132 A 
ATOM     14  C   UNL     1      44.826 127.312  23.798  1.00  0.00     0.068 A 
ATOM     15  C   UNL     1      46.182 126.621  21.912  1.00  0.00     0.107 A 
ATOM     16  C   UNL     1      45.305 123.540  23.965  1.00  0.00     0.047 C 
ATOM     17  F   UNL     1      46.756 124.330  21.641  1.00  0.00    -0.206 F 
ENDBRANCH   7  10
ENDBRANCH   1   7
BRANCH   6  18
ATOM     18  O   UNL     1      45.221 131.858  22.032  1.00  0.00    -0.378 OA
ATOM     19  H   UNL     1      46.083 131.653  21.590  1.00  0.00     0.212 HD
ENDBRANCH   6  18
BRANCH   6  20
ATOM     20  C   UNL     1      44.506 130.996  19.949  1.00  0.00    -0.042 A 
ATOM     21  N   UNL     1      45.585 130.333  19.449  1.00  0.00    -0.437 NA
ATOM     22  N   UNL     1      43.710 131.563  19.000  1.00  0.00    -0.437 NA
ATOM     23  C   UNL     1      45.460 130.520  18.129  1.00  0.00    -0.038 A 
ATOM     24  C   UNL     1      44.344 131.250  17.861  1.00  0.00    -0.038 A 
ATOM     25  C   UNL     1      46.327 130.099  17.124  1.00  0.00     0.004 A 
ATOM     26  C   UNL     1      43.999 131.621  16.564  1.00  0.00     0.004 A 
ATOM     27  C   UNL     1      46.011 130.455  15.799  1.00  0.00     0.000 A 
ATOM     28  C   UNL     1      44.851 131.213  15.520  1.00  0.00     0.000 A 
ENDBRANCH   6  20
BRANCH   5  29
ATOM     29  N   UNL     1      42.739 133.152  21.051  1.00  0.00    -0.254 NA
ATOM     30  H   UNL     1      42.614 133.822  21.846  1.00  0.00     0.141 HD
BRANCH  29  31
ATOM     31  N   UNL     1      41.656 133.292  20.161  1.00  0.00    -0.271 NA
ATOM     32  H   UNL     1      40.978 132.528  20.382  1.00  0.00     0.137 HD
ATOM     33  H   UNL     1      42.000 133.088  19.194  1.00  0.00     0.137 HD
ENDBRANCH  29  31
ENDBRANCH   5  29
TORSDOF 6
ENDMDL
MODEL 6
REMARK VINA RESULT:      -4.0      4.101      6.668
REMARK SMILES Cc1ccc([NH2+][C@H]2CCC[C@@H](NN)[C@]2(O)c2nc3ccccc3[n-]2)cc1F
REMARK SMILES IDX 7 1 8 2 9 3 10 4 11 5 14 6 6 7 5 10 2 11 3 12 26 13 4 14
REMARK SMILES IDX 25 15 1 16 27 17 15 18 16 20 17 21 24 22 18 23 23 24 19 25
REMARK SMILES IDX 22 26 20 27 21 28 12 29 13 31
REMARK H PARENT 6 8 6 9 15 19 12 30 13 32 13 33
ROOT
ATOM      1  C   UNL     1      44.538 131.688  18.888  1.00  0.00     0.225 C 
ATOM      2  C   UNL     1      43.349 131.290  17.977  1.00  0.00     0.069 C 
ATOM      3  C   UNL     1      42.075 132.067  18.307  1.00  0.00     0.008 C 
ATOM      4  C   UNL     1      41.666 131.841  19.760  1.00  0.00     0.024 C 
ATOM      5  C   UNL     1      42.790 132.289  20.712  1.00  0.00     0.111 C 
ATOM      6  C   UNL     1      44.164 131.576  20.423  1.00  0.00     0.150 C 
ENDROOT
BRANCH   1   7
ATOM      7  N   UNL     1      45.720 130.866  18.509  1.00  0.00    -0.309 N 
ATOM      8  H   UNL     1      45.537 129.862  18.747  1.00  0.00     0.352 HD
ATOM      9  H   UNL     1      46.554 131.154  19.072  1.00  0.00     0.352 HD
BRANCH   7  10
ATOM     10  C   UNL     1      46.020 130.905  17.095  1.00  0.00     0.132 A 
ATOM     11  C   UNL     1      46.688 131.005  14.358  1.00  0.00    -0.015 A 
ATOM     12  C   UNL     1      46.183 132.142  15.005  1.00  0.00     0.012 A 
ATOM     13  C   UNL     1      46.806 129.801  15.072  1.00  0.00     0.132 A 
ATOM     14  C   UNL     1      45.846 132.092  16.361  1.00  0.00     0.068 A 
ATOM     15  C   UNL     1      46.472 129.753  16.428  1.00  0.00     0.107 A 
ATOM     16  C   UNL     1      47.062 131.062  12.905  1.00  0.00     0.047 C 
ATOM     17  F   UNL     1      47.265 128.680  14.460  1.00  0.00    -0.206 F 
ENDBRANCH   7  10
ENDBRANCH   1   7
BRANCH   6  18
ATOM     18  O   UNL     1      44.128 130.222  20.816  1.00  0.00    -0.378 OA
ATOM     19  H   UNL     1      44.032 130.178  21.801  1.00  0.00     0.212 HD
ENDBRANCH   6  18
BRANCH   6  20
ATOM     20  C   UNL     1      45.217 132.276  21.259  1.00  0.00    -0.042 A 
ATOM     21  N   UNL     1      46.385 132.742  20.738  1.00  0.00    -0.437 NA
ATOM     22  N   UNL     1      45.071 132.501  22.593  1.00  0.00    -0.437 NA
ATOM     23  C   UNL     1      46.998 133.262  21.809  1.00  0.00    -0.038 A 
ATOM     24  C   UNL     1      46.216 133.120  22.913  1.00  0.00    -0.038 A 
ATOM     25  C   UNL     1      48.265 133.836  21.870  1.00  0.00     0.004 A 
ATOM     26  C   UNL     1      46.634 133.542  24.173  1.00  0.00     0.004 A 
ATOM     27  C   UNL     1      48.722 134.275  23.126  1.00  0.00     0.000 A 
ATOM     28  C   UNL     1      47.910 134.130  24.274  1.00  0.00     0.000 A 
ENDBRANCH   6  20
BRANCH   5  29
ATOM     29  N   UNL     1      42.347 132.204  22.120  1.00  0.00    -0.254 NA
ATOM     30  H   UNL     1      42.998 132.763  22.720  1.00  0.00     0.141 HD
BRANCH  29  31
ATOM     31  N   UNL     1      42.354 130.867  22.562  1.00  0.00    -0.271 NA
ATOM     32  H   UNL     1      41.383 130.644  22.879  1.00  0.00     0.137 HD
ATOM     33  H   UNL     1      42.949 130.810  23.421  1.00  0.00     0.137 HD
ENDBRANCH  29  31
ENDBRANCH   5  29
TORSDOF 6
ENDMDL
MODEL 7
REMARK VINA RESULT:      -3.6      4.192      6.632
REMARK SMILES Cc1ccc([NH2+][C@H]2CCC[C@@H](NN)[C@]2(O)c2nc3ccccc3[n-]2)cc1F
REMARK SMILES IDX 7 1 8 2 9 3 10 4 11 5 14 6 6 7 5 10 2 11 3 12 26 13 4 14
REMARK SMILES IDX 25 15 1 16 27 17 15 18 16 20 17 21 24 22 18 23 23 24 19 25
REMARK SMILES IDX 22 26 20 27 21 28 12 29 13 31
REMARK H PARENT 6 8 6 9 15 19 12 30 13 32 13 33
ROOT
ATOM      1  C   UNL     1      44.416 131.725  18.700  1.00  0.00     0.225 C 
ATOM      2  C   UNL     1      43.254 131.412  17.724  1.00  0.00     0.069 C 
ATOM      3  C   UNL     1      42.019 132.273  17.988  1.00  0.00     0.008 C 
ATOM      4  C   UNL     1      41.517 132.072  19.416  1.00  0.00     0.024 C 
ATOM      5  C   UNL     1      42.615 132.440  20.431  1.00  0.00     0.111 C 
ATOM      6  C   UNL     1      43.951 131.635  20.212  1.00  0.00     0.150 C 
ENDROOT
BRANCH   1   7
ATOM      7  N   UNL     1      45.558 130.825  18.381  1.00  0.00    -0.309 N 
ATOM      8  H   UNL     1      45.286 129.833  18.580  1.00  0.00     0.352 HD
ATOM      9  H   UNL     1      46.369 131.039  19.007  1.00  0.00     0.352 HD
BRANCH   7  10
ATOM     10  C   UNL     1      45.958 130.873  16.992  1.00  0.00     0.132 A 
ATOM     11  C   UNL     1      46.821 130.986  14.311  1.00  0.00    -0.015 A 
ATOM     12  C   UNL     1      46.281 132.124  14.930  1.00  0.00     0.012 A 
ATOM     13  C   UNL     1      46.876 129.776  15.022  1.00  0.00     0.132 A 
ATOM     14  C   UNL     1      45.848 132.067  16.258  1.00  0.00     0.068 A 
ATOM     15  C   UNL     1      46.446 129.721  16.350  1.00  0.00     0.107 A 
ATOM     16  C   UNL     1      47.298 131.051  12.889  1.00  0.00     0.047 C 
ATOM     17  F   UNL     1      47.367 128.656  14.434  1.00  0.00    -0.206 F 
ENDBRANCH   7  10
ENDBRANCH   1   7
BRANCH   6  18
ATOM     18  O   UNL     1      43.802 130.286  20.594  1.00  0.00    -0.378 OA
ATOM     19  H   UNL     1      42.972 130.196  21.127  1.00  0.00     0.212 HD
ENDBRANCH   6  18
BRANCH   6  20
ATOM     20  C   UNL     1      45.002 132.259  21.108  1.00  0.00    -0.042 A 
ATOM     21  N   UNL     1      44.850 132.377  22.456  1.00  0.00    -0.437 NA
ATOM     22  N   UNL     1      46.185 132.740  20.636  1.00  0.00    -0.437 NA
ATOM     23  C   UNL     1      45.986 132.980  22.829  1.00  0.00    -0.038 A 
ATOM     24  C   UNL     1      46.781 133.195  21.747  1.00  0.00    -0.038 A 
ATOM     25  C   UNL     1      46.349 133.396  24.107  1.00  0.00     0.004 A 
ATOM     26  C   UNL     1      48.009 133.843  21.851  1.00  0.00     0.004 A 
ATOM     27  C   UNL     1      47.584 134.055  24.252  1.00  0.00     0.000 A 
ATOM     28  C   UNL     1      48.412 134.278  23.128  1.00  0.00     0.000 A 
ENDBRANCH   6  20
BRANCH   5  29
ATOM     29  N   UNL     1      42.091 132.381  21.812  1.00  0.00    -0.254 NA
ATOM     30  H   UNL     1      41.864 131.387  22.051  1.00  0.00     0.141 HD
BRANCH  29  31
ATOM     31  N   UNL     1      40.923 133.158  21.933  1.00  0.00    -0.271 NA
ATOM     32  H   UNL     1      40.582 133.351  20.963  1.00  0.00     0.137 HD
ATOM     33  H   UNL     1      41.190 134.091  22.325  1.00  0.00     0.137 HD
ENDBRANCH  29  31
ENDBRANCH   5  29
TORSDOF 6
ENDMDL
MODEL 8
REMARK VINA RESULT:      -3.1      3.121      5.888
REMARK SMILES Cc1ccc([NH2+][C@H]2CCC[C@@H](NN)[C@]2(O)c2nc3ccccc3[n-]2)cc1F
REMARK SMILES IDX 7 1 8 2 9 3 10 4 11 5 14 6 6 7 5 10 2 11 3 12 26 13 4 14
REMARK SMILES IDX 25 15 1 16 27 17 15 18 16 20 17 21 24 22 18 23 23 24 19 25
REMARK SMILES IDX 22 26 20 27 21 28 12 29 13 31
REMARK H PARENT 6 8 6 9 15 19 12 30 13 32 13 33
ROOT
ATOM      1  C   UNL     1      42.868 129.708  22.548  1.00  0.00     0.225 C 
ATOM      2  C   UNL     1      42.360 131.131  22.199  1.00  0.00     0.069 C 
ATOM      3  C   UNL     1      42.788 131.578  20.802  1.00  0.00     0.008 C 
ATOM      4  C   UNL     1      44.309 131.563  20.672  1.00  0.00     0.024 C 
ATOM      5  C   UNL     1      44.860 130.150  20.940  1.00  0.00     0.111 C 
ATOM      6  C   UNL     1      44.433 129.578  22.344  1.00  0.00     0.150 C 
ENDROOT
BRANCH   1   7
ATOM      7  N   UNL     1      42.424 129.373  23.929  1.00  0.00    -0.309 N 
ATOM      8  H   UNL     1      42.052 130.235  24.394  1.00  0.00     0.352 HD
ATOM      9  H   UNL     1      43.241 129.059  24.502  1.00  0.00     0.352 HD
BRANCH   7  10
ATOM     10  C   UNL     1      41.363 128.392  23.970  1.00  0.00     0.132 A 
ATOM     11  C   UNL     1      39.264 126.510  23.975  1.00  0.00    -0.015 A 
ATOM     12  C   UNL     1      39.109 127.746  24.621  1.00  0.00     0.012 A 
ATOM     13  C   UNL     1      40.493 126.197  23.374  1.00  0.00     0.132 A 
ATOM     14  C   UNL     1      40.151 128.678  24.624  1.00  0.00     0.068 A 
ATOM     15  C   UNL     1      41.534 127.130  23.374  1.00  0.00     0.107 A 
ATOM     16  C   UNL     1      38.140 125.516  23.961  1.00  0.00     0.047 C 
ATOM     17  F   UNL     1      40.677 124.997  22.768  1.00  0.00    -0.206 F 
ENDBRANCH   7  10
ENDBRANCH   1   7
BRANCH   6  18
ATOM     18  O   UNL     1      45.115 130.235  23.390  1.00  0.00    -0.378 OA
ATOM     19  H   UNL     1      44.502 130.893  23.805  1.00  0.00     0.212 HD
ENDBRANCH   6  18
BRANCH   6  20
ATOM     20  C   UNL     1      44.834 128.117  22.373  1.00  0.00    -0.042 A 
ATOM     21  N   UNL     1      46.116 127.697  22.192  1.00  0.00    -0.437 NA
ATOM     22  N   UNL     1      43.943 127.111  22.594  1.00  0.00    -0.437 NA
ATOM     23  C   UNL     1      46.006 126.366  22.285  1.00  0.00    -0.038 A 
ATOM     24  C   UNL     1      44.713 126.017  22.525  1.00  0.00    -0.038 A 
ATOM     25  C   UNL     1      47.010 125.415  22.125  1.00  0.00     0.004 A 
ATOM     26  C   UNL     1      44.315 124.686  22.628  1.00  0.00     0.004 A 
ATOM     27  C   UNL     1      46.647 124.059  22.222  1.00  0.00     0.000 A 
ATOM     28  C   UNL     1      45.304 123.695  22.472  1.00  0.00     0.000 A 
ENDBRANCH   6  20
BRANCH   5  29
ATOM     29  N   UNL     1      46.314 130.098  20.680  1.00  0.00    -0.254 NA
ATOM     30  H   UNL     1      46.791 129.630  21.487  1.00  0.00     0.141 HD
BRANCH  29  31
ATOM     31  N   UNL     1      46.838 131.397  20.532  1.00  0.00    -0.271 NA
ATOM     32  H   UNL     1      46.272 131.872  19.792  1.00  0.00     0.137 HD
ATOM     33  H   UNL     1      47.803 131.316  20.136  1.00  0.00     0.137 HD
ENDBRANCH  29  31
ENDBRANCH   5  29
TORSDOF 6
ENDMDL
MODEL 9
REMARK VINA RESULT:      -2.9      4.219      6.697
REMARK SMILES Cc1ccc([NH2+][C@H]2CCC[C@@H](NN)[C@]2(O)c2nc3ccccc3[n-]2)cc1F
REMARK SMILES IDX 7 1 8 2 9 3 10 4 11 5 14 6 6 7 5 10 2 11 3 12 26 13 4 14
REMARK SMILES IDX 25 15 1 16 27 17 15 18 16 20 17 21 24 22 18 23 23 24 19 25
REMARK SMILES IDX 22 26 20 27 21 28 12 29 13 31
REMARK H PARENT 6 8 6 9 15 19 12 30 13 32 13 33
ROOT
ATOM      1  C   UNL     1      44.726 131.552  18.422  1.00  0.00     0.225 C 
ATOM      2  C   UNL     1      43.444 131.049  17.711  1.00  0.00     0.069 C 
ATOM      3  C   UNL     1      42.215 131.886  18.059  1.00  0.00     0.008 C 
ATOM      4  C   UNL     1      41.965 131.879  19.565  1.00  0.00     0.024 C 
ATOM      5  C   UNL     1      43.186 132.440  20.317  1.00  0.00     0.111 C 
ATOM      6  C   UNL     1      44.519 131.668  19.989  1.00  0.00     0.150 C 
ENDROOT
BRANCH   1   7
ATOM      7  N   UNL     1      45.858 130.663  18.042  1.00  0.00    -0.309 N 
ATOM      8  H   UNL     1      45.590 129.665  18.212  1.00  0.00     0.352 HD
ATOM      9  H   UNL     1      46.685 130.854  18.655  1.00  0.00     0.352 HD
BRANCH   7  10
ATOM     10  C   UNL     1      46.223 130.761  16.647  1.00  0.00     0.132 A 
ATOM     11  C   UNL     1      47.015 130.979  13.950  1.00  0.00    -0.015 A 
ATOM     12  C   UNL     1      46.375 132.051  14.589  1.00  0.00     0.012 A 
ATOM     13  C   UNL     1      47.207 129.776  14.649  1.00  0.00     0.132 A 
ATOM     14  C   UNL     1      45.977 131.942  15.925  1.00  0.00     0.068 A 
ATOM     15  C   UNL     1      46.812 129.669  15.986  1.00  0.00     0.107 A 
ATOM     16  C   UNL     1      47.454 131.101  12.520  1.00  0.00     0.047 C 
ATOM     17  F   UNL     1      47.798 128.715  14.043  1.00  0.00    -0.206 F 
ENDBRANCH   7  10
ENDBRANCH   1   7
BRANCH   6  18
ATOM     18  O   UNL     1      44.523 130.385  20.575  1.00  0.00    -0.378 OA
ATOM     19  H   UNL     1      45.407 129.966  20.418  1.00  0.00     0.212 HD
ENDBRANCH   6  18
BRANCH   6  20
ATOM     20  C   UNL     1      45.658 132.462  20.598  1.00  0.00    -0.042 A 
ATOM     21  N   UNL     1      46.697 131.879  21.256  1.00  0.00    -0.437 NA
ATOM     22  N   UNL     1      45.734 133.819  20.523  1.00  0.00    -0.437 NA
ATOM     23  C   UNL     1      47.440 132.931  21.624  1.00  0.00    -0.038 A 
ATOM     24  C   UNL     1      46.868 134.085  21.187  1.00  0.00    -0.038 A 
ATOM     25  C   UNL     1      48.609 132.925  22.380  1.00  0.00     0.004 A 
ATOM     26  C   UNL     1      47.419 135.333  21.468  1.00  0.00     0.004 A 
ATOM     27  C   UNL     1      49.194 134.168  22.684  1.00  0.00     0.000 A 
ATOM     28  C   UNL     1      48.602 135.368  22.230  1.00  0.00     0.000 A 
ENDBRANCH   6  20
BRANCH   5  29
ATOM     29  N   UNL     1      42.897 132.564  21.762  1.00  0.00    -0.254 NA
ATOM     30  H   UNL     1      43.773 132.846  22.263  1.00  0.00     0.141 HD
BRANCH  29  31
ATOM     31  N   UNL     1      42.446 131.338  22.285  1.00  0.00    -0.271 NA
ATOM     32  H   UNL     1      42.710 130.596  21.597  1.00  0.00     0.137 HD
ATOM     33  H   UNL     1      41.400 131.351  22.293  1.00  0.00     0.137 HD
ENDBRANCH  29  31
ENDBRANCH   5  29
TORSDOF 6
ENDMDL


