REMARK SMILES CC(=O)c1ccc([C@@H]2CC[C@@H]3CC(=O)N[C@]3([NH2+]c3ccc(C)c(F)c3)C2)cn1
REMARK SMILES IDX 8 1 9 2 10 3 11 4 12 5 13 6 14 7 15 8 16 9 26 10 7 12 4 13
REMARK SMILES IDX 5 14 28 15 6 16 27 17 2 18 1 19 3 20 17 21 18 24 19 25 25 26
REMARK SMILES IDX 20 27 23 28 21 29 24 30 22 31
REMARK H PARENT 15 11 17 22 17 23
ROOT
ATOM      1  C   UNL     1       0.391  -1.289  -1.080  1.00  0.00     0.029 C 
ATOM      2  C   UNL     1       1.519  -1.397  -2.116  1.00  0.00     0.009 C 
ATOM      3  C   UNL     1       1.421  -0.259  -3.134  1.00  0.00     0.013 C 
ATOM      4  C   UNL     1       1.365   1.143  -2.488  1.00  0.00     0.083 C 
ATOM      5  C   UNL     1       2.728   1.700  -2.050  1.00  0.00     0.112 C 
ATOM      6  C   UNL     1       2.335   2.607  -0.950  1.00  0.00     0.225 C 
ATOM      7  O   UNL     1       3.117   3.428  -0.401  1.00  0.00    -0.275 OA
ATOM      8  N   UNL     1       0.998   2.420  -0.524  1.00  0.00    -0.304 N 
ATOM      9  C   UNL     1       0.425   1.285  -1.242  1.00  0.00     0.179 C 
ATOM     10  C   UNL     1       0.523   0.035  -0.314  1.00  0.00     0.102 C 
ATOM     11  H   UNL     1       0.628   2.809   0.372  1.00  0.00     0.169 HD
ENDROOT
BRANCH   1  12
ATOM     12  C   UNL     1       0.397  -2.470  -0.127  1.00  0.00    -0.026 A 
ATOM     13  C   UNL     1       0.329  -4.638   1.639  1.00  0.00     0.106 A 
ATOM     14  C   UNL     1       1.488  -3.853   1.546  1.00  0.00     0.032 A 
ATOM     15  N   UNL     1      -0.748  -4.327   0.867  1.00  0.00    -0.253 NA
ATOM     16  C   UNL     1       1.518  -2.770   0.666  1.00  0.00     0.008 A 
ATOM     17  C   UNL     1      -0.743  -3.279   0.002  1.00  0.00     0.115 A 
BRANCH  13  18
ATOM     18  C   UNL     1       0.260  -5.792   2.561  1.00  0.00     0.178 C 
ATOM     19  C   UNL     1      -0.981  -6.624   2.651  1.00  0.00     0.095 C 
ATOM     20  O   UNL     1       1.252  -6.090   3.281  1.00  0.00    -0.293 OA
ENDBRANCH  13  18
ENDBRANCH   1  12
BRANCH   9  21
ATOM     21  N   UNL     1      -0.965   1.583  -1.686  1.00  0.00    -0.292 N 
ATOM     22  H   UNL     1      -0.963   2.458  -2.261  1.00  0.00     0.354 HD
ATOM     23  H   UNL     1      -1.301   0.822  -2.321  1.00  0.00     0.354 HD
BRANCH  21  24
ATOM     24  C   UNL     1      -1.911   1.759  -0.605  1.00  0.00     0.134 A 
ATOM     25  C   UNL     1      -2.072   3.014   0.007  1.00  0.00     0.068 A 
ATOM     26  C   UNL     1      -2.717   0.687  -0.179  1.00  0.00     0.107 A 
ATOM     27  C   UNL     1      -2.990   3.185   1.047  1.00  0.00     0.012 A 
ATOM     28  C   UNL     1      -3.635   0.856   0.862  1.00  0.00     0.132 A 
ATOM     29  C   UNL     1      -3.766   2.104   1.493  1.00  0.00    -0.015 A 
ATOM     30  F   UNL     1      -4.398  -0.197   1.252  1.00  0.00    -0.206 F 
ATOM     31  C   UNL     1      -4.770   2.294   2.592  1.00  0.00     0.047 C 
ENDBRANCH  21  24
ENDBRANCH   9  21
TORSDOF 4


