REMARK SMILES O/C(CC(F)(F)F)=N\c1cc(F)c[n-]/c1=N\c1c[nH]c2[nH+]ccc-2c1
REMARK SMILES IDX 8 1 2 2 1 3 3 5 4 6 5 7 6 8 7 9 9 10 10 11 15 12 11 13 14 14
REMARK SMILES IDX 13 15 12 16 16 17 17 18 25 19 18 20 24 21 19 22 23 23 20 24
REMARK SMILES IDX 22 25 21 26
REMARK H PARENT 1 4 19 27 21 28
ROOT
ATOM      1  N   UNL     1      -2.002   2.561  -0.196  1.00  0.00    -0.218 NA
ENDROOT
BRANCH   1   2
ATOM      2  C   UNL     1      -2.892   3.128  -0.957  1.00  0.00     0.195 C 
BRANCH   2   3
ATOM      3  O   UNL     1      -4.191   2.628  -1.038  1.00  0.00    -0.496 OA
ATOM      4  H   UNL     1      -4.880   3.050  -1.649  1.00  0.00     0.294 HD
ENDBRANCH   2   3
BRANCH   2   5
ATOM      5  C   UNL     1      -2.487   4.293  -1.812  1.00  0.00     0.212 C 
BRANCH   5   6
ATOM      6  C   UNL     1      -1.973   3.829  -3.175  1.00  0.00     0.397 C 
ATOM      7  F   UNL     1      -1.617   4.931  -3.931  1.00  0.00    -0.171 F 
ATOM      8  F   UNL     1      -0.863   3.018  -3.016  1.00  0.00    -0.171 F 
ATOM      9  F   UNL     1      -2.959   3.126  -3.845  1.00  0.00    -0.171 F 
ENDBRANCH   5   6
ENDBRANCH   2   5
ENDBRANCH   1   2
BRANCH   1  10
ATOM     10  C   UNL     1      -2.226   1.460   0.702  1.00  0.00     0.069 A 
ATOM     11  C   UNL     1      -3.408   1.348   1.455  1.00  0.00     0.067 A 
ATOM     12  C   UNL     1      -1.207   0.510   0.900  1.00  0.00    -0.032 A 
ATOM     13  C   UNL     1      -3.578   0.281   2.337  1.00  0.00     0.121 A 
ATOM     14  N   UNL     1      -1.410  -0.526   1.763  1.00  0.00    -0.438 NA
ATOM     15  C   UNL     1      -2.560  -0.661   2.474  1.00  0.00     0.018 A 
ATOM     16  F   UNL     1      -4.718   0.166   3.063  1.00  0.00    -0.207 F 
BRANCH  12  17
ATOM     17  N   UNL     1      -0.101   0.606   0.216  1.00  0.00    -0.431 NA
BRANCH  17  18
ATOM     18  C   UNL     1       1.057  -0.240   0.317  1.00  0.00    -0.001 A 
ATOM     19  C   UNL     1       1.513  -0.734   1.565  1.00  0.00     0.024 A 
ATOM     20  C   UNL     1       1.801  -0.507  -0.864  1.00  0.00     0.201 A 
ATOM     21  C   UNL     1       2.659  -1.511   1.561  1.00  0.00     0.068 A 
ATOM     22  N   UNL     1       2.935  -1.274  -0.839  1.00  0.00    -0.247 N 
ATOM     23  C   UNL     1       3.384  -2.126   2.556  1.00  0.00     0.060 A 
ATOM     24  C   UNL     1       3.353  -1.775   0.347  1.00  0.00     0.284 A 
ATOM     25  C   UNL     1       4.469  -2.732   1.914  1.00  0.00     0.198 A 
ATOM     26  N   UNL     1       4.447  -2.514   0.575  1.00  0.00    -0.247 N 
ATOM     27  H   UNL     1       3.468  -1.463  -1.716  1.00  0.00     0.312 HD
ATOM     28  H   UNL     1       5.145  -2.845  -0.128  1.00  0.00     0.311 HD
ENDBRANCH  17  18
ENDBRANCH  12  17
ENDBRANCH   1  10
TORSDOF 7


