MODEL 1
REMARK VINA RESULT:      -5.5      0.000      0.000
REMARK SMILES C[C@H]1CC[C@H](C(=O)N(c2cn3ccccc3n2)c2cc3cccc(F)c3[n-]2)S1
REMARK SMILES IDX 6 1 7 2 5 3 2 4 3 5 28 6 4 7 1 8 8 9 9 10 10 11 17 12 11 13
REMARK SMILES IDX 16 14 12 15 15 16 13 17 14 18 18 19 19 20 27 21 20 22 26 23
REMARK SMILES IDX 21 24 24 25 22 26 23 27 25 28
REMARK H PARENT
ROOT
ATOM      1  C   UNL     1      44.802 124.230  22.972  1.00  0.00     0.165 C 
ATOM      2  O   UNL     1      45.205 123.077  23.289  1.00  0.00    -0.297 OA
ENDROOT
BRANCH   1   3
ATOM      3  C   UNL     1      43.332 124.444  22.698  1.00  0.00     0.115 C 
ATOM      4  C   UNL     1      41.115 123.258  23.486  1.00  0.00     0.044 C 
ATOM      5  C   UNL     1      41.307 123.291  21.973  1.00  0.00     0.016 C 
ATOM      6  S   UNL     1      42.352 124.368  24.238  1.00  0.00    -0.148 SA
ATOM      7  C   UNL     1      42.800 123.390  21.731  1.00  0.00     0.023 C 
ATOM      8  C   UNL     1      39.702 123.673  23.892  1.00  0.00     0.019 C 
ENDBRANCH   1   3
BRANCH   1   9
ATOM      9  N   UNL     1      45.762 125.283  22.751  1.00  0.00    -0.370 N 
BRANCH   9  10
ATOM     10  C   UNL     1      45.356 126.658  22.911  1.00  0.00     0.076 A 
ATOM     11  C   UNL     1      44.994 127.266  24.108  1.00  0.00     0.117 A 
ATOM     12  N   UNL     1      45.292 127.544  21.885  1.00  0.00    -0.233 NA
ATOM     13  N   UNL     1      44.695 128.539  23.813  1.00  0.00    -0.307 N 
ATOM     14  C   UNL     1      44.882 128.678  22.489  1.00  0.00     0.136 A 
ATOM     15  C   UNL     1      44.285 129.547  24.625  1.00  0.00     0.093 A 
ATOM     16  C   UNL     1      44.660 129.902  21.862  1.00  0.00     0.048 A 
ATOM     17  C   UNL     1      44.042 130.801  24.046  1.00  0.00     0.018 A 
ATOM     18  C   UNL     1      44.233 130.976  22.661  1.00  0.00     0.005 A 
ENDBRANCH   9  10
BRANCH   9  19
ATOM     19  C   UNL     1      47.111 124.959  22.374  1.00  0.00    -0.049 A 
ATOM     20  C   UNL     1      47.461 124.168  21.282  1.00  0.00     0.008 A 
ATOM     21  N   UNL     1      48.196 125.431  23.036  1.00  0.00    -0.433 NA
ATOM     22  C   UNL     1      48.833 124.158  21.294  1.00  0.00    -0.020 A 
ATOM     23  C   UNL     1      49.240 124.924  22.356  1.00  0.00     0.002 A 
ATOM     24  C   UNL     1      49.741 123.532  20.444  1.00  0.00     0.008 A 
ATOM     25  C   UNL     1      50.592 125.110  22.642  1.00  0.00     0.127 A 
ATOM     26  C   UNL     1      51.114 123.704  20.709  1.00  0.00     0.004 A 
ATOM     27  C   UNL     1      51.537 124.489  21.805  1.00  0.00     0.039 A 
ATOM     28  F   UNL     1      50.987 125.865  23.698  1.00  0.00    -0.207 F 
ENDBRANCH   9  19
ENDBRANCH   1   9
TORSDOF 4
ENDMDL
MODEL 2
REMARK VINA RESULT:      -4.6      1.837      5.967
REMARK SMILES C[C@H]1CC[C@H](C(=O)N(c2cn3ccccc3n2)c2cc3cccc(F)c3[n-]2)S1
REMARK SMILES IDX 6 1 7 2 5 3 2 4 3 5 28 6 4 7 1 8 8 9 9 10 10 11 17 12 11 13
REMARK SMILES IDX 16 14 12 15 15 16 13 17 14 18 18 19 19 20 27 21 20 22 26 23
REMARK SMILES IDX 21 24 24 25 22 26 23 27 25 28
REMARK H PARENT
ROOT
ATOM      1  C   UNL     1      45.311 123.998  22.507  1.00  0.00     0.165 C 
ATOM      2  O   UNL     1      45.697 122.969  21.889  1.00  0.00    -0.297 OA
ENDROOT
BRANCH   1   3
ATOM      3  C   UNL     1      43.881 124.074  22.986  1.00  0.00     0.115 C 
ATOM      4  C   UNL     1      41.617 122.959  22.225  1.00  0.00     0.044 C 
ATOM      5  C   UNL     1      41.600 124.485  22.221  1.00  0.00     0.016 C 
ATOM      6  S   UNL     1      43.126 122.413  23.092  1.00  0.00    -0.148 SA
ATOM      7  C   UNL     1      43.037 124.931  22.046  1.00  0.00     0.023 C 
ATOM      8  C   UNL     1      40.373 122.375  22.892  1.00  0.00     0.019 C 
ENDBRANCH   1   3
BRANCH   1   9
ATOM      9  N   UNL     1      46.198 125.129  22.631  1.00  0.00    -0.370 N 
BRANCH   9  10
ATOM     10  C   UNL     1      47.623 124.926  22.545  1.00  0.00     0.076 A 
ATOM     11  C   UNL     1      48.541 125.154  23.563  1.00  0.00     0.117 A 
ATOM     12  N   UNL     1      48.247 124.463  21.431  1.00  0.00    -0.233 NA
ATOM     13  N   UNL     1      49.746 124.836  23.068  1.00  0.00    -0.307 N 
ATOM     14  C   UNL     1      49.543 124.427  21.804  1.00  0.00     0.136 A 
ATOM     15  C   UNL     1      50.968 124.883  23.656  1.00  0.00     0.093 A 
ATOM     16  C   UNL     1      50.609 124.016  21.007  1.00  0.00     0.048 A 
ATOM     17  C   UNL     1      52.079 124.484  22.899  1.00  0.00     0.018 A 
ATOM     18  C   UNL     1      51.895 124.047  21.572  1.00  0.00     0.005 A 
ENDBRANCH   9  10
BRANCH   9  19
ATOM     19  C   UNL     1      45.659 126.446  22.840  1.00  0.00    -0.049 A 
ATOM     20  C   UNL     1      45.175 126.922  24.056  1.00  0.00     0.008 A 
ATOM     21  N   UNL     1      45.602 127.383  21.861  1.00  0.00    -0.433 NA
ATOM     22  C   UNL     1      44.799 128.214  23.791  1.00  0.00    -0.020 A 
ATOM     23  C   UNL     1      45.068 128.457  22.469  1.00  0.00     0.002 A 
ATOM     24  C   UNL     1      44.244 129.184  24.623  1.00  0.00     0.008 A 
ATOM     25  C   UNL     1      44.794 129.695  21.887  1.00  0.00     0.127 A 
ATOM     26  C   UNL     1      43.958 130.443  24.061  1.00  0.00     0.004 A 
ATOM     27  C   UNL     1      44.230 130.697  22.698  1.00  0.00     0.039 A 
ATOM     28  F   UNL     1      45.059 129.926  20.577  1.00  0.00    -0.207 F 
ENDBRANCH   9  19
ENDBRANCH   1   9
TORSDOF 4
ENDMDL
MODEL 3
REMARK VINA RESULT:      -2.7      5.934      8.004
REMARK SMILES C[C@H]1CC[C@H](C(=O)N(c2cn3ccccc3n2)c2cc3cccc(F)c3[n-]2)S1
REMARK SMILES IDX 6 1 7 2 5 3 2 4 3 5 28 6 4 7 1 8 8 9 9 10 10 11 17 12 11 13
REMARK SMILES IDX 16 14 12 15 15 16 13 17 14 18 18 19 19 20 27 21 20 22 26 23
REMARK SMILES IDX 21 24 24 25 22 26 23 27 25 28
REMARK H PARENT
ROOT
ATOM      1  C   UNL     1      44.019 131.728  21.397  1.00  0.00     0.165 C 
ATOM      2  O   UNL     1      42.884 132.215  21.143  1.00  0.00    -0.297 OA
ENDROOT
BRANCH   1   3
ATOM      3  C   UNL     1      44.213 130.943  22.672  1.00  0.00     0.115 C 
ATOM      4  C   UNL     1      43.437 128.570  23.516  1.00  0.00     0.044 C 
ATOM      5  C   UNL     1      42.996 129.729  24.405  1.00  0.00     0.016 C 
ATOM      6  S   UNL     1      44.661 129.206  22.322  1.00  0.00    -0.148 SA
ATOM      7  C   UNL     1      42.942 130.956  23.517  1.00  0.00     0.023 C 
ATOM      8  C   UNL     1      44.027 127.419  24.329  1.00  0.00     0.019 C 
ENDBRANCH   1   3
BRANCH   1   9
ATOM      9  N   UNL     1      45.135 132.036  20.536  1.00  0.00    -0.370 N 
BRANCH   9  10
ATOM     10  C   UNL     1      46.213 132.852  21.036  1.00  0.00     0.076 A 
ATOM     11  C   UNL     1      46.496 134.157  20.647  1.00  0.00     0.117 A 
ATOM     12  N   UNL     1      47.093 132.433  21.982  1.00  0.00    -0.233 NA
ATOM     13  N   UNL     1      47.567 134.541  21.354  1.00  0.00    -0.307 N 
ATOM     14  C   UNL     1      47.900 133.502  22.139  1.00  0.00     0.136 A 
ATOM     15  C   UNL     1      48.239 135.721  21.345  1.00  0.00     0.093 A 
ATOM     16  C   UNL     1      48.983 133.584  23.012  1.00  0.00     0.048 A 
ATOM     17  C   UNL     1      49.341 135.859  22.201  1.00  0.00     0.018 A 
ATOM     18  C   UNL     1      49.709 134.787  23.038  1.00  0.00     0.005 A 
ENDBRANCH   9  10
BRANCH   9  19
ATOM     19  C   UNL     1      45.165 131.531  19.190  1.00  0.00    -0.049 A 
ATOM     20  C   UNL     1      46.021 130.530  18.737  1.00  0.00     0.008 A 
ATOM     21  N   UNL     1      44.320 131.963  18.221  1.00  0.00    -0.433 NA
ATOM     22  C   UNL     1      45.677 130.356  17.421  1.00  0.00    -0.020 A 
ATOM     23  C   UNL     1      44.656 131.229  17.145  1.00  0.00     0.002 A 
ATOM     24  C   UNL     1      46.191 129.492  16.457  1.00  0.00     0.008 A 
ATOM     25  C   UNL     1      44.082 131.298  15.875  1.00  0.00     0.127 A 
ATOM     26  C   UNL     1      45.628 129.540  15.167  1.00  0.00     0.004 A 
ATOM     27  C   UNL     1      44.579 130.441  14.877  1.00  0.00     0.039 A 
ATOM     28  F   UNL     1      43.076 132.168  15.609  1.00  0.00    -0.207 F 
ENDBRANCH   9  19
ENDBRANCH   1   9
TORSDOF 4
ENDMDL
MODEL 4
REMARK VINA RESULT:      -2.7      1.604      2.382
REMARK SMILES C[C@H]1CC[C@H](C(=O)N(c2cn3ccccc3n2)c2cc3cccc(F)c3[n-]2)S1
REMARK SMILES IDX 6 1 7 2 5 3 2 4 3 5 28 6 4 7 1 8 8 9 9 10 10 11 17 12 11 13
REMARK SMILES IDX 16 14 12 15 15 16 13 17 14 18 18 19 19 20 27 21 20 22 26 23
REMARK SMILES IDX 21 24 24 25 22 26 23 27 25 28
REMARK H PARENT
ROOT
ATOM      1  C   UNL     1      45.926 124.499  22.814  1.00  0.00     0.165 C 
ATOM      2  O   UNL     1      46.705 123.508  22.827  1.00  0.00    -0.297 OA
ENDROOT
BRANCH   1   3
ATOM      3  C   UNL     1      44.468 124.284  22.483  1.00  0.00     0.115 C 
ATOM      4  C   UNL     1      42.593 122.662  23.376  1.00  0.00     0.044 C 
ATOM      5  C   UNL     1      42.853 122.557  21.877  1.00  0.00     0.016 C 
ATOM      6  S   UNL     1      43.456 124.143  23.999  1.00  0.00    -0.148 SA
ATOM      7  C   UNL     1      44.281 123.015  21.655  1.00  0.00     0.023 C 
ATOM      8  C   UNL     1      41.100 122.737  23.693  1.00  0.00     0.019 C 
ENDBRANCH   1   3
BRANCH   1   9
ATOM      9  N   UNL     1      46.461 125.828  22.985  1.00  0.00    -0.370 N 
BRANCH   9  10
ATOM     10  C   UNL     1      45.561 126.952  23.049  1.00  0.00     0.076 A 
ATOM     11  C   UNL     1      45.246 127.804  21.997  1.00  0.00     0.117 A 
ATOM     12  N   UNL     1      44.890 127.311  24.174  1.00  0.00    -0.233 NA
ATOM     13  N   UNL     1      44.377 128.703  22.481  1.00  0.00    -0.307 N 
ATOM     14  C   UNL     1      44.181 128.387  23.773  1.00  0.00     0.136 A 
ATOM     15  C   UNL     1      43.768 129.746  21.862  1.00  0.00     0.093 A 
ATOM     16  C   UNL     1      43.316 129.134  24.568  1.00  0.00     0.048 A 
ATOM     17  C   UNL     1      42.888 130.537  22.615  1.00  0.00     0.018 A 
ATOM     18  C   UNL     1      42.661 130.226  23.971  1.00  0.00     0.005 A 
ENDBRANCH   9  10
BRANCH   9  19
ATOM     19  C   UNL     1      47.882 126.022  23.090  1.00  0.00    -0.049 A 
ATOM     20  C   UNL     1      48.539 126.476  24.231  1.00  0.00     0.008 A 
ATOM     21  N   UNL     1      48.741 125.740  22.080  1.00  0.00    -0.433 NA
ATOM     22  C   UNL     1      49.866 126.475  23.884  1.00  0.00    -0.020 A 
ATOM     23  C   UNL     1      49.952 126.029  22.591  1.00  0.00     0.002 A 
ATOM     24  C   UNL     1      50.994 126.833  24.619  1.00  0.00     0.008 A 
ATOM     25  C   UNL     1      51.181 125.915  21.941  1.00  0.00     0.127 A 
ATOM     26  C   UNL     1      52.248 126.727  23.987  1.00  0.00     0.004 A 
ATOM     27  C   UNL     1      52.341 126.271  22.653  1.00  0.00     0.039 A 
ATOM     28  F   UNL     1      51.257 125.477  20.659  1.00  0.00    -0.207 F 
ENDBRANCH   9  19
ENDBRANCH   1   9
TORSDOF 4
ENDMDL
MODEL 5
REMARK VINA RESULT:      -2.5      5.173      7.909
REMARK SMILES C[C@H]1CC[C@H](C(=O)N(c2cn3ccccc3n2)c2cc3cccc(F)c3[n-]2)S1
REMARK SMILES IDX 6 1 7 2 5 3 2 4 3 5 28 6 4 7 1 8 8 9 9 10 10 11 17 12 11 13
REMARK SMILES IDX 16 14 12 15 15 16 13 17 14 18 18 19 19 20 27 21 20 22 26 23
REMARK SMILES IDX 21 24 24 25 22 26 23 27 25 28
REMARK H PARENT
ROOT
ATOM      1  C   UNL     1      44.542 131.572  22.015  1.00  0.00     0.165 C 
ATOM      2  O   UNL     1      44.280 132.317  22.998  1.00  0.00    -0.297 OA
ENDROOT
BRANCH   1   3
ATOM      3  C   UNL     1      44.000 130.162  21.996  1.00  0.00     0.115 C 
ATOM      4  C   UNL     1      43.565 128.327  23.837  1.00  0.00     0.044 C 
ATOM      5  C   UNL     1      44.500 127.884  22.715  1.00  0.00     0.016 C 
ATOM      6  S   UNL     1      42.787 129.899  23.338  1.00  0.00    -0.148 SA
ATOM      7  C   UNL     1      45.127 129.145  22.154  1.00  0.00     0.023 C 
ATOM      8  C   UNL     1      42.503 127.274  24.145  1.00  0.00     0.019 C 
ENDBRANCH   1   3
BRANCH   1   9
ATOM      9  N   UNL     1      45.453 132.032  20.995  1.00  0.00    -0.370 N 
BRANCH   9  10
ATOM     10  C   UNL     1      45.273 131.594  19.633  1.00  0.00     0.076 A 
ATOM     11  C   UNL     1      44.291 132.041  18.757  1.00  0.00     0.117 A 
ATOM     12  N   UNL     1      46.074 130.679  19.029  1.00  0.00    -0.233 NA
ATOM     13  N   UNL     1      44.484 131.387  17.603  1.00  0.00    -0.307 N 
ATOM     14  C   UNL     1      45.548 130.587  17.791  1.00  0.00     0.136 A 
ATOM     15  C   UNL     1      43.796 131.460  16.435  1.00  0.00     0.093 A 
ATOM     16  C   UNL     1      46.016 129.769  16.765  1.00  0.00     0.048 A 
ATOM     17  C   UNL     1      44.220 130.655  15.368  1.00  0.00     0.018 A 
ATOM     18  C   UNL     1      45.336 129.811  15.536  1.00  0.00     0.005 A 
ENDBRANCH   9  10
BRANCH   9  19
ATOM     19  C   UNL     1      46.530 132.920  21.342  1.00  0.00    -0.049 A 
ATOM     20  C   UNL     1      46.696 134.204  20.829  1.00  0.00     0.008 A 
ATOM     21  N   UNL     1      47.486 132.600  22.248  1.00  0.00    -0.433 NA
ATOM     22  C   UNL     1      47.819 134.679  21.455  1.00  0.00    -0.020 A 
ATOM     23  C   UNL     1      48.267 133.694  22.297  1.00  0.00     0.002 A 
ATOM     24  C   UNL     1      48.470 135.905  21.341  1.00  0.00     0.008 A 
ATOM     25  C   UNL     1      49.406 133.871  23.083  1.00  0.00     0.127 A 
ATOM     26  C   UNL     1      49.622 136.112  22.124  1.00  0.00     0.004 A 
ATOM     27  C   UNL     1      50.089 135.097  22.990  1.00  0.00     0.039 A 
ATOM     28  F   UNL     1      49.846 132.890  23.910  1.00  0.00    -0.207 F 
ENDBRANCH   9  19
ENDBRANCH   1   9
TORSDOF 4
ENDMDL


