REMARK SMILES Cc1ccc(-c2ccc([O-])cc2)c2cn(C(=O)OCc3ccccc3F)[nH+]c12
REMARK SMILES IDX 16 1 17 2 15 3 2 4 3 5 28 6 4 7 27 8 13 9 5 10 14 11 1 12
REMARK SMILES IDX 6 14 7 15 12 16 8 17 11 18 9 19 10 20 18 21 19 22 20 23
REMARK SMILES IDX 21 24 25 25 22 26 24 27 23 28 26 29
REMARK H PARENT 27 13
ROOT
ATOM      1  C   UNL     1      -0.702  -1.355   0.571  1.00  0.00     0.467 C 
ATOM      2  O   UNL     1      -1.057  -2.456   0.066  1.00  0.00    -0.218 OA
ENDROOT
BRANCH   1   3
ATOM      3  N   UNL     1      -0.903  -0.139  -0.158  1.00  0.00    -0.054 N 
ATOM      4  C   UNL     1      -1.896   1.784  -2.938  1.00  0.00     0.024 A 
ATOM      5  C   UNL     1      -1.744   3.178  -3.099  1.00  0.00     0.011 A 
ATOM      6  C   UNL     1      -1.454   1.227  -1.734  1.00  0.00     0.240 A 
ATOM      7  C   UNL     1      -1.174   3.965  -2.074  1.00  0.00     0.010 A 
ATOM      8  N   UNL     1      -1.452  -0.067  -1.366  1.00  0.00    -0.112 N 
ATOM      9  C   UNL     1      -0.903   1.992  -0.736  1.00  0.00     0.079 A 
ATOM     10  C   UNL     1      -0.745   3.379  -0.861  1.00  0.00    -0.003 A 
ATOM     11  C   UNL     1      -0.549   1.099   0.260  1.00  0.00     0.181 A 
ATOM     12  C   UNL     1      -2.483   0.932  -4.025  1.00  0.00     0.052 C 
ATOM     13  H   UNL     1      -1.798  -0.881  -1.922  1.00  0.00     0.489 HD
BRANCH  10  14
ATOM     14  C   UNL     1      -0.155   4.209   0.214  1.00  0.00    -0.018 A 
ATOM     15  C   UNL     1       0.847   5.149  -0.085  1.00  0.00     0.008 A 
ATOM     16  C   UNL     1      -0.605   4.087   1.541  1.00  0.00     0.008 A 
ATOM     17  C   UNL     1       1.400   5.939   0.928  1.00  0.00    -0.008 A 
ATOM     18  C   UNL     1      -0.049   4.879   2.551  1.00  0.00    -0.008 A 
ATOM     19  C   UNL     1       0.953   5.804   2.245  1.00  0.00    -0.109 A 
ATOM     20  O   UNL     1       1.504   6.589   3.250  1.00  0.00    -0.872 OA
ENDBRANCH  10  14
ENDBRANCH   1   3
BRANCH   1  21
ATOM     21  O   UNL     1      -0.115  -1.313   1.841  1.00  0.00    -0.441 OA
BRANCH  21  22
ATOM     22  C   UNL     1       0.182  -2.480   2.606  1.00  0.00     0.274 C 
BRANCH  22  23
ATOM     23  C   UNL     1       1.347  -3.220   2.005  1.00  0.00     0.025 A 
ATOM     24  C   UNL     1       1.159  -4.480   1.412  1.00  0.00     0.010 A 
ATOM     25  C   UNL     1       2.630  -2.644   2.007  1.00  0.00     0.129 A 
ATOM     26  C   UNL     1       2.239  -5.157   0.838  1.00  0.00     0.001 A 
ATOM     27  C   UNL     1       3.707  -3.326   1.431  1.00  0.00     0.039 A 
ATOM     28  C   UNL     1       3.512  -4.581   0.848  1.00  0.00     0.003 A 
ATOM     29  F   UNL     1       2.837  -1.423   2.564  1.00  0.00    -0.207 F 
ENDBRANCH  22  23
ENDBRANCH  21  22
ENDBRANCH   1  21
TORSDOF 5


