REMARK SMILES CC[C@H](C)C(=O)[C@H](O)[N@H+]1CCC[C@@H](Cc2cc3ccccc3[nH]2)C1
REMARK SMILES IDX 7 1 5 2 6 3 3 4 4 5 2 6 1 7 8 8 9 10 10 11 24 12 11 13 13 14
REMARK SMILES IDX 12 15 14 17 15 18 16 19 23 20 17 21 22 22 18 23 21 24 19 25
REMARK SMILES IDX 20 26
REMARK H PARENT 8 9 9 16 23 27
ROOT
ATOM      1  C   UNL     1      -2.428   0.552   1.386  1.00  0.00     0.389 C 
ENDROOT
BRANCH   1   2
ATOM      2  C   UNL     1      -2.229   0.432  -0.116  1.00  0.00     0.221 C 
ATOM      3  O   UNL     1      -1.774   1.385  -0.733  1.00  0.00    -0.290 OA
BRANCH   2   4
ATOM      4  C   UNL     1      -2.602  -0.832  -0.863  1.00  0.00     0.062 C 
ATOM      5  C   UNL     1      -3.573  -0.489  -2.002  1.00  0.00     0.016 C 
BRANCH   4   6
ATOM      6  C   UNL     1      -1.326  -1.540  -1.371  1.00  0.00     0.008 C 
ATOM      7  C   UNL     1      -1.613  -2.848  -2.112  1.00  0.00     0.004 C 
ENDBRANCH   4   6
ENDBRANCH   2   4
ENDBRANCH   1   2
BRANCH   1   8
ATOM      8  O   UNL     1      -3.477   1.462   1.607  1.00  0.00    -0.339 OA
ATOM      9  H   UNL     1      -4.324   0.962   1.483  1.00  0.00     0.217 HD
ENDBRANCH   1   8
BRANCH   1  10
ATOM     10  N   UNL     1      -1.194   1.029   2.072  1.00  0.00    -0.303 N 
ATOM     11  C   UNL     1      -1.445   1.199   3.523  1.00  0.00     0.264 C 
ATOM     12  C   UNL     1      -0.072   0.081   1.861  1.00  0.00     0.268 C 
ATOM     13  C   UNL     1      -0.203   1.740   4.242  1.00  0.00     0.062 C 
ATOM     14  C   UNL     1       1.231   0.570   2.533  1.00  0.00     0.050 C 
ATOM     15  C   UNL     1       0.989   0.808   4.031  1.00  0.00     0.015 C 
ATOM     16  H   UNL     1      -0.932   1.961   1.667  1.00  0.00     0.350 HD
BRANCH  14  17
ATOM     17  C   UNL     1       2.385  -0.437   2.338  1.00  0.00     0.063 C 
BRANCH  17  18
ATOM     18  C   UNL     1       2.675  -0.685   0.884  1.00  0.00     0.016 A 
ATOM     19  C   UNL     1       2.306  -1.831   0.185  1.00  0.00     0.031 A 
ATOM     20  N   UNL     1       3.219   0.238   0.057  1.00  0.00    -0.358 N 
ATOM     21  C   UNL     1       2.652  -1.573  -1.121  1.00  0.00    -0.000 A 
ATOM     22  C   UNL     1       3.201  -0.319  -1.165  1.00  0.00     0.046 A 
ATOM     23  C   UNL     1       2.505  -2.351  -2.267  1.00  0.00     0.010 A 
ATOM     24  C   UNL     1       3.637   0.251  -2.362  1.00  0.00     0.026 A 
ATOM     25  C   UNL     1       2.938  -1.804  -3.488  1.00  0.00     0.001 A 
ATOM     26  C   UNL     1       3.503  -0.511  -3.536  1.00  0.00     0.002 A 
ATOM     27  H   UNL     1       3.556   1.191   0.312  1.00  0.00     0.166 HD
ENDBRANCH  17  18
ENDBRANCH  14  17
ENDBRANCH   1  10
TORSDOF 7


