REMARK SMILES Cc1ccc([C@H]2CC[C@@H](N)[C@@]3(C=O)CC=N[C@@H]23)cc1F
REMARK SMILES IDX 6 1 7 2 8 3 9 4 11 5 14 6 15 7 16 8 17 9 5 10 2 11 3 12
REMARK SMILES IDX 19 13 4 14 18 15 1 16 20 17 12 18 13 19 10 20
REMARK H PARENT 10 21 10 22
ROOT
ATOM      1  C   UNL     1       0.060   0.095   0.021  1.00  0.00     0.045 C 
ATOM      2  C   UNL     1      -0.753   1.194  -0.681  1.00  0.00     0.012 C 
ATOM      3  C   UNL     1      -1.689   1.934   0.292  1.00  0.00     0.020 C 
ATOM      4  C   UNL     1      -1.991   1.175   1.612  1.00  0.00     0.066 C 
ATOM      5  C   UNL     1      -2.086  -0.381   1.428  1.00  0.00     0.069 C 
ATOM      6  C   UNL     1      -3.324  -0.781   0.582  1.00  0.00     0.066 C 
ATOM      7  C   UNL     1      -2.756  -1.693  -0.440  1.00  0.00     0.079 C 
ATOM      8  N   UNL     1      -1.483  -1.777  -0.409  1.00  0.00    -0.292 NA
ATOM      9  C   UNL     1      -0.878  -0.978   0.625  1.00  0.00     0.127 C 
ENDROOT
BRANCH   1  10
ATOM     10  C   UNL     1       1.125  -0.521  -0.876  1.00  0.00    -0.040 A 
ATOM     11  C   UNL     1       3.125  -1.714  -2.474  1.00  0.00    -0.015 A 
ATOM     12  C   UNL     1       3.399  -1.352  -1.148  1.00  0.00     0.007 A 
ATOM     13  C   UNL     1       1.836  -1.507  -2.991  1.00  0.00     0.126 A 
ATOM     14  C   UNL     1       2.409  -0.762  -0.357  1.00  0.00     0.004 A 
ATOM     15  C   UNL     1       0.846  -0.917  -2.199  1.00  0.00     0.043 A 
ATOM     16  C   UNL     1       4.179  -2.376  -3.313  1.00  0.00     0.047 C 
ATOM     17  F   UNL     1       1.534  -1.884  -4.259  1.00  0.00    -0.207 F 
ENDBRANCH   1  10
BRANCH   5  18
ATOM     18  C   UNL     1      -2.145  -1.060   2.790  1.00  0.00     0.235 C 
ATOM     19  O   UNL     1      -2.319  -2.266   2.880  1.00  0.00    -0.303 OA
ENDBRANCH   5  18
BRANCH   4  20
ATOM     20  N   UNL     1      -3.223   1.712   2.204  1.00  0.00    -0.327 NA
ATOM     21  H   UNL     1      -3.113   2.746   2.320  1.00  0.00     0.119 HD
ATOM     22  H   UNL     1      -3.336   1.335   3.172  1.00  0.00     0.119 HD
ENDBRANCH   4  20
TORSDOF 3


