REMARK SMILES CC(=O)c1ccc(/C(O)=N/[C@@H]2C=CCC2)c(F)c1[O-]
REMARK SMILES IDX 7 1 6 2 5 3 4 4 18 5 19 6 16 7 17 8 8 9 9 10 10 12 11 13
REMARK SMILES IDX 12 14 15 15 13 16 14 17 2 18 3 19 1 20
REMARK H PARENT 9 11
ROOT
ATOM      1  C   UNL     1      -0.287  -0.074  -0.443  1.00  0.00     0.071 A 
ATOM      2  C   UNL     1      -1.066  -0.696   0.544  1.00  0.00     0.017 A 
ATOM      3  C   UNL     1      -1.611  -1.963   0.327  1.00  0.00     0.012 A 
ATOM      4  C   UNL     1      -1.399  -2.641  -0.888  1.00  0.00     0.012 A 
ATOM      5  C   UNL     1      -0.632  -2.005  -1.890  1.00  0.00    -0.060 A 
ATOM      6  O   UNL     1      -0.419  -2.614  -3.123  1.00  0.00    -0.870 OA
ATOM      7  C   UNL     1      -0.084  -0.735  -1.667  1.00  0.00     0.128 A 
ATOM      8  F   UNL     1       0.600  -0.131  -2.673  1.00  0.00    -0.207 F 
ENDROOT
BRANCH   1   9
ATOM      9  C   UNL     1       0.287   1.268  -0.190  1.00  0.00     0.217 C 
BRANCH   9  10
ATOM     10  O   UNL     1       1.553   1.606  -0.676  1.00  0.00    -0.493 OA
ATOM     11  H   UNL     1       2.157   0.926  -1.120  1.00  0.00     0.295 HD
ENDBRANCH   9  10
BRANCH   9  12
ATOM     12  N   UNL     1      -0.392   2.131   0.505  1.00  0.00    -0.244 NA
BRANCH  12  13
ATOM     13  C   UNL     1       0.080   3.479   0.817  1.00  0.00     0.132 C 
ATOM     14  C   UNL     1      -0.848   4.120   1.785  1.00  0.00    -0.005 C 
ATOM     15  C   UNL     1       0.033   4.398  -0.418  1.00  0.00     0.036 C 
ATOM     16  C   UNL     1      -1.359   5.247   1.324  1.00  0.00    -0.029 C 
ATOM     17  C   UNL     1      -0.875   5.573  -0.042  1.00  0.00     0.029 C 
ENDBRANCH  12  13
ENDBRANCH   9  12
ENDBRANCH   1   9
BRANCH   4  18
ATOM     18  C   UNL     1      -1.978  -3.999  -1.102  1.00  0.00     0.159 C 
ATOM     19  O   UNL     1      -1.555  -4.727  -2.040  1.00  0.00    -0.295 OA
ATOM     20  C   UNL     1      -3.045  -4.553  -0.204  1.00  0.00     0.093 C 
ENDBRANCH   4  18
TORSDOF 5


