MODEL 1
REMARK VINA RESULT:      -9.4      0.000      0.000
REMARK SMILES NN(C(=O)[NH+]1CCOCC1)c1ccc2cc3ccccc3cc2c1
REMARK SMILES IDX 2 1 1 2 3 5 4 6 5 7 6 8 10 9 7 10 9 11 8 12 11 14 12 15
REMARK SMILES IDX 24 16 13 17 23 18 14 19 22 20 15 21 21 22 16 23 20 24 17 25
REMARK SMILES IDX 19 26 18 27
REMARK H PARENT 1 3 1 4 5 13
ROOT
ATOM      1  N   UNL     1      43.938 131.143  22.702  1.00  0.00    -0.197 N 
ENDROOT
BRANCH   1   2
ATOM      2  N   UNL     1      44.823 131.970  23.416  1.00  0.00    -0.236 NA
ATOM      3  H   UNL     1      45.759 131.507  23.420  1.00  0.00     0.144 HD
ATOM      4  H   UNL     1      44.911 132.872  22.895  1.00  0.00     0.144 HD
ENDBRANCH   1   2
BRANCH   1   5
ATOM      5  C   UNL     1      43.109 130.199  23.415  1.00  0.00     0.436 C 
ATOM      6  O   UNL     1      42.321 130.627  24.304  1.00  0.00    -0.205 OA
BRANCH   5   7
ATOM      7  N   UNL     1      43.250 128.772  23.206  1.00  0.00    -0.246 N 
ATOM      8  C   UNL     1      42.373 128.015  24.123  1.00  0.00     0.300 C 
ATOM      9  C   UNL     1      44.657 128.374  23.399  1.00  0.00     0.300 C 
ATOM     10  C   UNL     1      42.614 126.507  23.957  1.00  0.00     0.222 C 
ATOM     11  C   UNL     1      44.799 126.849  23.270  1.00  0.00     0.222 C 
ATOM     12  O   UNL     1      43.970 126.187  24.206  1.00  0.00    -0.370 OA
ATOM     13  H   UNL     1      42.983 128.530  22.224  1.00  0.00     0.358 HD
ENDBRANCH   5   7
ENDBRANCH   1   5
BRANCH   1  14
ATOM     14  C   UNL     1      43.845 131.315  21.278  1.00  0.00     0.067 A 
ATOM     15  C   UNL     1      42.724 131.947  20.721  1.00  0.00     0.029 A 
ATOM     16  C   UNL     1      44.852 130.825  20.430  1.00  0.00     0.037 A 
ATOM     17  C   UNL     1      42.618 132.118  19.339  1.00  0.00     0.011 A 
ATOM     18  C   UNL     1      44.758 130.995  19.040  1.00  0.00    -0.016 A 
ATOM     19  C   UNL     1      43.631 131.650  18.490  1.00  0.00    -0.018 A 
ATOM     20  C   UNL     1      45.771 130.519  18.195  1.00  0.00     0.017 A 
ATOM     21  C   UNL     1      43.533 131.822  17.101  1.00  0.00     0.017 A 
ATOM     22  C   UNL     1      45.675 130.691  16.807  1.00  0.00    -0.018 A 
ATOM     23  C   UNL     1      44.547 131.349  16.255  1.00  0.00    -0.018 A 
ATOM     24  C   UNL     1      46.687 130.219  15.956  1.00  0.00     0.009 A 
ATOM     25  C   UNL     1      44.455 131.519  14.865  1.00  0.00     0.009 A 
ATOM     26  C   UNL     1      46.582 130.396  14.574  1.00  0.00     0.001 A 
ATOM     27  C   UNL     1      45.470 131.044  14.030  1.00  0.00     0.001 A 
ENDBRANCH   1  14
TORSDOF 4
ENDMDL
MODEL 2
REMARK VINA RESULT:      -8.9      1.059      1.198
REMARK SMILES NN(C(=O)[NH+]1CCOCC1)c1ccc2cc3ccccc3cc2c1
REMARK SMILES IDX 2 1 1 2 3 5 4 6 5 7 6 8 10 9 7 10 9 11 8 12 11 14 12 15
REMARK SMILES IDX 24 16 13 17 23 18 14 19 22 20 15 21 21 22 16 23 20 24 17 25
REMARK SMILES IDX 19 26 18 27
REMARK H PARENT 1 3 1 4 5 13
ROOT
ATOM      1  N   UNL     1      42.809 131.787  22.057  1.00  0.00    -0.197 N 
ENDROOT
BRANCH   1   2
ATOM      2  N   UNL     1      41.756 132.555  22.587  1.00  0.00    -0.236 NA
ATOM      3  H   UNL     1      42.177 133.330  23.146  1.00  0.00     0.144 HD
ATOM      4  H   UNL     1      41.235 132.980  21.786  1.00  0.00     0.144 HD
ENDBRANCH   1   2
BRANCH   1   5
ATOM      5  C   UNL     1      43.626 130.988  22.941  1.00  0.00     0.436 C 
ATOM      6  O   UNL     1      44.632 131.519  23.489  1.00  0.00    -0.205 OA
BRANCH   5   7
ATOM      7  N   UNL     1      43.376 129.571  23.115  1.00  0.00    -0.246 N 
ATOM      8  C   UNL     1      42.733 129.304  24.417  1.00  0.00     0.300 C 
ATOM      9  C   UNL     1      44.642 128.822  23.006  1.00  0.00     0.300 C 
ATOM     10  C   UNL     1      42.572 127.790  24.625  1.00  0.00     0.222 C 
ATOM     11  C   UNL     1      44.400 127.329  23.280  1.00  0.00     0.222 C 
ATOM     12  O   UNL     1      43.828 127.141  24.561  1.00  0.00    -0.370 OA
ATOM     13  H   UNL     1      42.739 129.229  22.359  1.00  0.00     0.358 HD
ENDBRANCH   5   7
ENDBRANCH   1   5
BRANCH   1  14
ATOM     14  C   UNL     1      42.993 131.776  20.631  1.00  0.00     0.067 A 
ATOM     15  C   UNL     1      41.991 132.287  19.793  1.00  0.00     0.029 A 
ATOM     16  C   UNL     1      44.154 131.227  20.063  1.00  0.00     0.037 A 
ATOM     17  C   UNL     1      42.155 132.280  18.406  1.00  0.00     0.011 A 
ATOM     18  C   UNL     1      44.331 131.219  18.671  1.00  0.00    -0.016 A 
ATOM     19  C   UNL     1      43.323 131.752  17.835  1.00  0.00    -0.018 A 
ATOM     20  C   UNL     1      45.497 130.684  18.105  1.00  0.00     0.017 A 
ATOM     21  C   UNL     1      43.494 131.747  16.443  1.00  0.00     0.017 A 
ATOM     22  C   UNL     1      45.671 130.678  16.713  1.00  0.00    -0.018 A 
ATOM     23  C   UNL     1      44.662 131.214  15.876  1.00  0.00    -0.018 A 
ATOM     24  C   UNL     1      46.838 130.146  16.142  1.00  0.00     0.009 A 
ATOM     25  C   UNL     1      44.840 131.206  14.484  1.00  0.00     0.009 A 
ATOM     26  C   UNL     1      47.002 130.146  14.754  1.00  0.00     0.001 A 
ATOM     27  C   UNL     1      46.007 130.673  13.927  1.00  0.00     0.001 A 
ENDBRANCH   1  14
TORSDOF 4
ENDMDL
MODEL 3
REMARK VINA RESULT:      -8.1      1.024      1.178
REMARK SMILES NN(C(=O)[NH+]1CCOCC1)c1ccc2cc3ccccc3cc2c1
REMARK SMILES IDX 2 1 1 2 3 5 4 6 5 7 6 8 10 9 7 10 9 11 8 12 11 14 12 15
REMARK SMILES IDX 24 16 13 17 23 18 14 19 22 20 15 21 21 22 16 23 20 24 17 25
REMARK SMILES IDX 19 26 18 27
REMARK H PARENT 1 3 1 4 5 13
ROOT
ATOM      1  N   UNL     1      43.638 131.139  22.356  1.00  0.00    -0.197 N 
ENDROOT
BRANCH   1   2
ATOM      2  N   UNL     1      43.745 132.291  23.156  1.00  0.00    -0.236 NA
ATOM      3  H   UNL     1      43.240 132.105  24.051  1.00  0.00     0.144 HD
ATOM      4  H   UNL     1      44.756 132.434  23.380  1.00  0.00     0.144 HD
ENDBRANCH   1   2
BRANCH   1   5
ATOM      5  C   UNL     1      43.447 129.850  22.979  1.00  0.00     0.436 C 
ATOM      6  O   UNL     1      42.326 129.581  23.495  1.00  0.00    -0.205 OA
BRANCH   5   7
ATOM      7  N   UNL     1      44.546 128.918  23.120  1.00  0.00    -0.246 N 
ATOM      8  C   UNL     1      44.436 127.819  22.139  1.00  0.00     0.300 C 
ATOM      9  C   UNL     1      44.572 128.377  24.493  1.00  0.00     0.300 C 
ATOM     10  C   UNL     1      45.551 126.788  22.375  1.00  0.00     0.222 C 
ATOM     11  C   UNL     1      45.678 127.319  24.625  1.00  0.00     0.222 C 
ATOM     12  O   UNL     1      45.486 126.273  23.691  1.00  0.00    -0.370 OA
ATOM     13  H   UNL     1      45.454 129.412  22.956  1.00  0.00     0.358 HD
ENDBRANCH   5   7
ENDBRANCH   1   5
BRANCH   1  14
ATOM     14  C   UNL     1      43.658 131.300  20.927  1.00  0.00     0.067 A 
ATOM     15  C   UNL     1      42.577 131.911  20.276  1.00  0.00     0.029 A 
ATOM     16  C   UNL     1      44.737 130.818  20.168  1.00  0.00     0.037 A 
ATOM     17  C   UNL     1      42.581 132.070  18.888  1.00  0.00     0.011 A 
ATOM     18  C   UNL     1      44.753 130.976  18.774  1.00  0.00    -0.016 A 
ATOM     19  C   UNL     1      43.666 131.610  18.128  1.00  0.00    -0.018 A 
ATOM     20  C   UNL     1      45.838 130.508  18.017  1.00  0.00     0.017 A 
ATOM     21  C   UNL     1      43.678 131.771  16.735  1.00  0.00     0.017 A 
ATOM     22  C   UNL     1      45.852 130.669  16.624  1.00  0.00    -0.018 A 
ATOM     23  C   UNL     1      44.763 131.305  15.978  1.00  0.00    -0.018 A 
ATOM     24  C   UNL     1      46.936 130.205  15.863  1.00  0.00     0.009 A 
ATOM     25  C   UNL     1      44.782 131.464  14.583  1.00  0.00     0.009 A 
ATOM     26  C   UNL     1      46.941 130.370  14.475  1.00  0.00     0.001 A 
ATOM     27  C   UNL     1      45.868 130.997  13.837  1.00  0.00     0.001 A 
ENDBRANCH   1  14
TORSDOF 4
ENDMDL
MODEL 4
REMARK VINA RESULT:      -7.7      1.482      2.473
REMARK SMILES NN(C(=O)[NH+]1CCOCC1)c1ccc2cc3ccccc3cc2c1
REMARK SMILES IDX 2 1 1 2 3 5 4 6 5 7 6 8 10 9 7 10 9 11 8 12 11 14 12 15
REMARK SMILES IDX 24 16 13 17 23 18 14 19 22 20 15 21 21 22 16 23 20 24 17 25
REMARK SMILES IDX 19 26 18 27
REMARK H PARENT 1 3 1 4 5 13
ROOT
ATOM      1  N   UNL     1      42.851 132.114  20.929  1.00  0.00    -0.197 N 
ENDROOT
BRANCH   1   2
ATOM      2  N   UNL     1      41.851 132.976  20.445  1.00  0.00    -0.236 NA
ATOM      3  H   UNL     1      41.718 133.737  21.149  1.00  0.00     0.144 HD
ATOM      4  H   UNL     1      42.203 133.413  19.562  1.00  0.00     0.144 HD
ENDBRANCH   1   2
BRANCH   1   5
ATOM      5  C   UNL     1      42.856 131.735  22.323  1.00  0.00     0.436 C 
ATOM      6  O   UNL     1      43.190 132.593  23.188  1.00  0.00    -0.205 OA
BRANCH   5   7
ATOM      7  N   UNL     1      42.597 130.369  22.728  1.00  0.00    -0.246 N 
ATOM      8  C   UNL     1      41.846 130.328  23.999  1.00  0.00     0.300 C 
ATOM      9  C   UNL     1      43.870 129.636  22.863  1.00  0.00     0.300 C 
ATOM     10  C   UNL     1      41.673 128.874  24.463  1.00  0.00     0.222 C 
ATOM     11  C   UNL     1      43.610 128.212  23.380  1.00  0.00     0.222 C 
ATOM     12  O   UNL     1      42.931 128.247  24.622  1.00  0.00    -0.370 OA
ATOM     13  H   UNL     1      42.027 129.885  21.996  1.00  0.00     0.358 HD
ENDBRANCH   5   7
ENDBRANCH   1   5
BRANCH   1  14
ATOM     14  C   UNL     1      43.806 131.586  19.992  1.00  0.00     0.067 A 
ATOM     15  C   UNL     1      44.875 130.803  20.451  1.00  0.00     0.029 A 
ATOM     16  C   UNL     1      43.700 131.874  18.622  1.00  0.00     0.037 A 
ATOM     17  C   UNL     1      45.813 130.286  19.553  1.00  0.00     0.011 A 
ATOM     18  C   UNL     1      44.633 131.357  17.711  1.00  0.00    -0.016 A 
ATOM     19  C   UNL     1      45.698 130.554  18.180  1.00  0.00    -0.018 A 
ATOM     20  C   UNL     1      44.518 131.633  16.341  1.00  0.00     0.017 A 
ATOM     21  C   UNL     1      46.634 130.034  17.274  1.00  0.00     0.017 A 
ATOM     22  C   UNL     1      45.452 131.113  15.432  1.00  0.00    -0.018 A 
ATOM     23  C   UNL     1      46.518 130.307  15.903  1.00  0.00    -0.018 A 
ATOM     24  C   UNL     1      45.339 131.384  14.059  1.00  0.00     0.009 A 
ATOM     25  C   UNL     1      47.450 129.790  14.990  1.00  0.00     0.009 A 
ATOM     26  C   UNL     1      46.275 130.862  13.162  1.00  0.00     0.001 A 
ATOM     27  C   UNL     1      47.327 130.067  13.626  1.00  0.00     0.001 A 
ENDBRANCH   1  14
TORSDOF 4
ENDMDL
MODEL 5
REMARK VINA RESULT:      -7.4      4.403      7.964
REMARK SMILES NN(C(=O)[NH+]1CCOCC1)c1ccc2cc3ccccc3cc2c1
REMARK SMILES IDX 2 1 1 2 3 5 4 6 5 7 6 8 10 9 7 10 9 11 8 12 11 14 12 15
REMARK SMILES IDX 24 16 13 17 23 18 14 19 22 20 15 21 21 22 16 23 20 24 17 25
REMARK SMILES IDX 19 26 18 27
REMARK H PARENT 1 3 1 4 5 13
ROOT
ATOM      1  N   UNL     1      45.224 131.340  16.110  1.00  0.00    -0.197 N 
ENDROOT
BRANCH   1   2
ATOM      2  N   UNL     1      45.949 132.442  15.625  1.00  0.00    -0.236 NA
ATOM      3  H   UNL     1      46.474 132.130  14.777  1.00  0.00     0.144 HD
ATOM      4  H   UNL     1      45.263 133.173  15.328  1.00  0.00     0.144 HD
ENDBRANCH   1   2
BRANCH   1   5
ATOM      5  C   UNL     1      45.297 130.074  15.418  1.00  0.00     0.436 C 
ATOM      6  O   UNL     1      44.633 129.096  15.863  1.00  0.00    -0.205 OA
BRANCH   5   7
ATOM      7  N   UNL     1      46.199 129.882  14.301  1.00  0.00    -0.246 N 
ATOM      8  C   UNL     1      47.529 129.440  14.766  1.00  0.00     0.300 C 
ATOM      9  C   UNL     1      46.316 131.135  13.531  1.00  0.00     0.300 C 
ATOM     10  C   UNL     1      48.498 129.344  13.578  1.00  0.00     0.222 C 
ATOM     11  C   UNL     1      47.342 130.967  12.399  1.00  0.00     0.222 C 
ATOM     12  O   UNL     1      48.603 130.590  12.916  1.00  0.00    -0.370 OA
ATOM     13  H   UNL     1      45.817 129.150  13.660  1.00  0.00     0.358 HD
ENDBRANCH   5   7
ENDBRANCH   1   5
BRANCH   1  14
ATOM     14  C   UNL     1      44.479 131.500  17.330  1.00  0.00     0.067 A 
ATOM     15  C   UNL     1      43.125 131.864  17.279  1.00  0.00     0.029 A 
ATOM     16  C   UNL     1      45.101 131.330  18.577  1.00  0.00     0.037 A 
ATOM     17  C   UNL     1      42.390 132.028  18.456  1.00  0.00     0.011 A 
ATOM     18  C   UNL     1      44.370 131.487  19.765  1.00  0.00    -0.016 A 
ATOM     19  C   UNL     1      43.001 131.837  19.703  1.00  0.00    -0.018 A 
ATOM     20  C   UNL     1      44.989 131.302  21.010  1.00  0.00     0.017 A 
ATOM     21  C   UNL     1      42.267 131.996  20.887  1.00  0.00     0.017 A 
ATOM     22  C   UNL     1      44.255 131.459  22.195  1.00  0.00    -0.018 A 
ATOM     23  C   UNL     1      42.884 131.809  22.133  1.00  0.00    -0.018 A 
ATOM     24  C   UNL     1      44.869 131.273  23.444  1.00  0.00     0.009 A 
ATOM     25  C   UNL     1      42.154 131.964  23.322  1.00  0.00     0.009 A 
ATOM     26  C   UNL     1      44.129 131.431  24.620  1.00  0.00     0.001 A 
ATOM     27  C   UNL     1      42.777 131.776  24.559  1.00  0.00     0.001 A 
ENDBRANCH   1  14
TORSDOF 4
ENDMDL
MODEL 6
REMARK VINA RESULT:      -7.2      1.370      1.969
REMARK SMILES NN(C(=O)[NH+]1CCOCC1)c1ccc2cc3ccccc3cc2c1
REMARK SMILES IDX 2 1 1 2 3 5 4 6 5 7 6 8 10 9 7 10 9 11 8 12 11 14 12 15
REMARK SMILES IDX 24 16 13 17 23 18 14 19 22 20 15 21 21 22 16 23 20 24 17 25
REMARK SMILES IDX 19 26 18 27
REMARK H PARENT 1 3 1 4 5 13
ROOT
ATOM      1  N   UNL     1      43.435 131.435  21.262  1.00  0.00    -0.197 N 
ENDROOT
BRANCH   1   2
ATOM      2  N   UNL     1      42.157 131.704  21.784  1.00  0.00    -0.236 NA
ATOM      3  H   UNL     1      41.462 131.164  21.221  1.00  0.00     0.144 HD
ATOM      4  H   UNL     1      42.128 131.343  22.766  1.00  0.00     0.144 HD
ENDBRANCH   1   2
BRANCH   1   5
ATOM      5  C   UNL     1      44.507 131.060  22.154  1.00  0.00     0.436 C 
ATOM      6  O   UNL     1      45.516 131.814  22.246  1.00  0.00    -0.205 OA
BRANCH   5   7
ATOM      7  N   UNL     1      44.493 129.789  22.849  1.00  0.00    -0.246 N 
ATOM      8  C   UNL     1      45.081 128.723  22.012  1.00  0.00     0.300 C 
ATOM      9  C   UNL     1      43.111 129.439  23.227  1.00  0.00     0.300 C 
ATOM     10  C   UNL     1      44.962 127.368  22.725  1.00  0.00     0.222 C 
ATOM     11  C   UNL     1      43.077 128.050  23.883  1.00  0.00     0.222 C 
ATOM     12  O   UNL     1      43.609 127.070  23.011  1.00  0.00    -0.370 OA
ATOM     13  H   UNL     1      45.055 129.861  23.729  1.00  0.00     0.358 HD
ENDBRANCH   5   7
ENDBRANCH   1   5
BRANCH   1  14
ATOM     14  C   UNL     1      43.610 131.482  19.836  1.00  0.00     0.067 A 
ATOM     15  C   UNL     1      42.625 132.070  19.029  1.00  0.00     0.029 A 
ATOM     16  C   UNL     1      44.745 130.913  19.235  1.00  0.00     0.037 A 
ATOM     17  C   UNL     1      42.781 132.119  17.642  1.00  0.00     0.011 A 
ATOM     18  C   UNL     1      44.913 130.961  17.843  1.00  0.00    -0.016 A 
ATOM     19  C   UNL     1      43.923 131.572  17.039  1.00  0.00    -0.018 A 
ATOM     20  C   UNL     1      46.054 130.406  17.245  1.00  0.00     0.017 A 
ATOM     21  C   UNL     1      44.086 131.622  15.647  1.00  0.00     0.017 A 
ATOM     22  C   UNL     1      46.219 130.456  15.853  1.00  0.00    -0.018 A 
ATOM     23  C   UNL     1      45.228 131.070  15.048  1.00  0.00    -0.018 A 
ATOM     24  C   UNL     1      47.361 129.905  15.249  1.00  0.00     0.009 A 
ATOM     25  C   UNL     1      45.398 131.118  13.655  1.00  0.00     0.009 A 
ATOM     26  C   UNL     1      47.517 129.960  13.861  1.00  0.00     0.001 A 
ATOM     27  C   UNL     1      46.539 130.564  13.067  1.00  0.00     0.001 A 
ENDBRANCH   1  14
TORSDOF 4
ENDMDL
MODEL 7
REMARK VINA RESULT:      -7.0      0.797      1.856
REMARK SMILES NN(C(=O)[NH+]1CCOCC1)c1ccc2cc3ccccc3cc2c1
REMARK SMILES IDX 2 1 1 2 3 5 4 6 5 7 6 8 10 9 7 10 9 11 8 12 11 14 12 15
REMARK SMILES IDX 24 16 13 17 23 18 14 19 22 20 15 21 21 22 16 23 20 24 17 25
REMARK SMILES IDX 19 26 18 27
REMARK H PARENT 1 3 1 4 5 13
ROOT
ATOM      1  N   UNL     1      43.560 131.339  22.881  1.00  0.00    -0.197 N 
ENDROOT
BRANCH   1   2
ATOM      2  N   UNL     1      43.679 132.593  23.506  1.00  0.00    -0.236 NA
ATOM      3  H   UNL     1      44.584 132.605  24.027  1.00  0.00     0.144 HD
ATOM      4  H   UNL     1      43.727 133.322  22.757  1.00  0.00     0.144 HD
ENDBRANCH   1   2
BRANCH   1   5
ATOM      5  C   UNL     1      42.772 130.301  23.504  1.00  0.00     0.436 C 
ATOM      6  O   UNL     1      41.798 130.631  24.237  1.00  0.00    -0.205 OA
BRANCH   5   7
ATOM      7  N   UNL     1      43.149 128.907  23.395  1.00  0.00    -0.246 N 
ATOM      8  C   UNL     1      42.024 128.024  23.765  1.00  0.00     0.300 C 
ATOM      9  C   UNL     1      44.317 128.634  24.254  1.00  0.00     0.300 C 
ATOM     10  C   UNL     1      42.475 126.556  23.742  1.00  0.00     0.222 C 
ATOM     11  C   UNL     1      44.666 127.138  24.214  1.00  0.00     0.222 C 
ATOM     12  O   UNL     1      43.562 126.354  24.625  1.00  0.00    -0.370 OA
ATOM     13  H   UNL     1      43.423 128.691  22.408  1.00  0.00     0.358 HD
ENDBRANCH   5   7
ENDBRANCH   1   5
BRANCH   1  14
ATOM     14  C   UNL     1      44.184 131.156  21.599  1.00  0.00     0.067 A 
ATOM     15  C   UNL     1      45.496 130.666  21.523  1.00  0.00     0.029 A 
ATOM     16  C   UNL     1      43.505 131.496  20.417  1.00  0.00     0.037 A 
ATOM     17  C   UNL     1      46.117 130.487  20.284  1.00  0.00     0.011 A 
ATOM     18  C   UNL     1      44.117 131.316  19.167  1.00  0.00    -0.016 A 
ATOM     19  C   UNL     1      45.435 130.805  19.100  1.00  0.00    -0.018 A 
ATOM     20  C   UNL     1      43.433 131.642  17.987  1.00  0.00     0.017 A 
ATOM     21  C   UNL     1      46.051 130.623  17.853  1.00  0.00     0.017 A 
ATOM     22  C   UNL     1      44.048 131.459  16.739  1.00  0.00    -0.018 A 
ATOM     23  C   UNL     1      45.367 130.946  16.672  1.00  0.00    -0.018 A 
ATOM     24  C   UNL     1      43.367 131.781  15.554  1.00  0.00     0.009 A 
ATOM     25  C   UNL     1      45.977 130.766  15.421  1.00  0.00     0.009 A 
ATOM     26  C   UNL     1      43.987 131.596  14.316  1.00  0.00     0.001 A 
ATOM     27  C   UNL     1      45.288 131.090  14.249  1.00  0.00     0.001 A 
ENDBRANCH   1  14
TORSDOF 4
ENDMDL
MODEL 8
REMARK VINA RESULT:      -6.9      1.795      3.223
REMARK SMILES NN(C(=O)[NH+]1CCOCC1)c1ccc2cc3ccccc3cc2c1
REMARK SMILES IDX 2 1 1 2 3 5 4 6 5 7 6 8 10 9 7 10 9 11 8 12 11 14 12 15
REMARK SMILES IDX 24 16 13 17 23 18 14 19 22 20 15 21 21 22 16 23 20 24 17 25
REMARK SMILES IDX 19 26 18 27
REMARK H PARENT 1 3 1 4 5 13
ROOT
ATOM      1  N   UNL     1      42.511 132.399  19.798  1.00  0.00    -0.197 N 
ENDROOT
BRANCH   1   2
ATOM      2  N   UNL     1      41.538 133.120  19.085  1.00  0.00    -0.236 NA
ATOM      3  H   UNL     1      40.654 132.564  19.100  1.00  0.00     0.144 HD
ATOM      4  H   UNL     1      41.363 134.017  19.596  1.00  0.00     0.144 HD
ENDBRANCH   1   2
BRANCH   1   5
ATOM      5  C   UNL     1      42.378 132.238  21.228  1.00  0.00     0.436 C 
ATOM      6  O   UNL     1      41.517 132.929  21.842  1.00  0.00    -0.205 OA
BRANCH   5   7
ATOM      7  N   UNL     1      43.286 131.392  21.974  1.00  0.00    -0.246 N 
ATOM      8  C   UNL     1      42.667 130.083  22.268  1.00  0.00     0.300 C 
ATOM      9  C   UNL     1      43.683 132.063  23.226  1.00  0.00     0.300 C 
ATOM     10  C   UNL     1      43.605 129.242  23.147  1.00  0.00     0.222 C 
ATOM     11  C   UNL     1      44.573 131.134  24.066  1.00  0.00     0.222 C 
ATOM     12  O   UNL     1      43.903 129.921  24.352  1.00  0.00    -0.370 OA
ATOM     13  H   UNL     1      44.154 131.224  21.414  1.00  0.00     0.358 HD
ENDBRANCH   5   7
ENDBRANCH   1   5
BRANCH   1  14
ATOM     14  C   UNL     1      43.582 131.787  19.059  1.00  0.00     0.067 A 
ATOM     15  C   UNL     1      44.525 130.990  19.725  1.00  0.00     0.029 A 
ATOM     16  C   UNL     1      43.716 132.007  17.678  1.00  0.00     0.037 A 
ATOM     17  C   UNL     1      45.573 130.393  19.020  1.00  0.00     0.011 A 
ATOM     18  C   UNL     1      44.762 131.408  16.960  1.00  0.00    -0.016 A 
ATOM     19  C   UNL     1      45.698 130.592  17.637  1.00  0.00    -0.018 A 
ATOM     20  C   UNL     1      44.887 131.615  15.579  1.00  0.00     0.017 A 
ATOM     21  C   UNL     1      46.746 129.991  16.924  1.00  0.00     0.017 A 
ATOM     22  C   UNL     1      45.933 131.014  14.864  1.00  0.00    -0.018 A 
ATOM     23  C   UNL     1      46.870 130.196  15.542  1.00  0.00    -0.018 A 
ATOM     24  C   UNL     1      46.061 131.216  13.480  1.00  0.00     0.009 A 
ATOM     25  C   UNL     1      47.915 129.596  14.822  1.00  0.00     0.009 A 
ATOM     26  C   UNL     1      47.106 130.613  12.776  1.00  0.00     0.001 A 
ATOM     27  C   UNL     1      48.031 129.806  13.444  1.00  0.00     0.001 A 
ENDBRANCH   1  14
TORSDOF 4
ENDMDL
MODEL 9
REMARK VINA RESULT:      -6.6      1.672      2.942
REMARK SMILES NN(C(=O)[NH+]1CCOCC1)c1ccc2cc3ccccc3cc2c1
REMARK SMILES IDX 2 1 1 2 3 5 4 6 5 7 6 8 10 9 7 10 9 11 8 12 11 14 12 15
REMARK SMILES IDX 24 16 13 17 23 18 14 19 22 20 15 21 21 22 16 23 20 24 17 25
REMARK SMILES IDX 19 26 18 27
REMARK H PARENT 1 3 1 4 5 13
ROOT
ATOM      1  N   UNL     1      43.562 131.347  20.223  1.00  0.00    -0.197 N 
ENDROOT
BRANCH   1   2
ATOM      2  N   UNL     1      42.225 131.108  20.589  1.00  0.00    -0.236 NA
ATOM      3  H   UNL     1      42.152 130.114  20.901  1.00  0.00     0.144 HD
ATOM      4  H   UNL     1      42.000 131.721  21.406  1.00  0.00     0.144 HD
ENDBRANCH   1   2
BRANCH   1   5
ATOM      5  C   UNL     1      44.568 131.492  21.249  1.00  0.00     0.436 C 
ATOM      6  O   UNL     1      45.671 132.031  20.951  1.00  0.00    -0.205 OA
BRANCH   5   7
ATOM      7  N   UNL     1      44.377 130.930  22.571  1.00  0.00    -0.246 N 
ATOM      8  C   UNL     1      44.146 129.473  22.497  1.00  0.00     0.300 C 
ATOM      9  C   UNL     1      43.242 131.595  23.238  1.00  0.00     0.300 C 
ATOM     10  C   UNL     1      43.843 128.916  23.897  1.00  0.00     0.222 C 
ATOM     11  C   UNL     1      42.974 130.943  24.604  1.00  0.00     0.222 C 
ATOM     12  O   UNL     1      42.715 129.559  24.457  1.00  0.00    -0.370 OA
ATOM     13  H   UNL     1      45.230 131.097  23.153  1.00  0.00     0.358 HD
ENDBRANCH   5   7
ENDBRANCH   1   5
BRANCH   1  14
ATOM     14  C   UNL     1      43.890 131.374  18.824  1.00  0.00     0.067 A 
ATOM     15  C   UNL     1      42.989 131.932  17.905  1.00  0.00     0.029 A 
ATOM     16  C   UNL     1      45.091 130.814  18.359  1.00  0.00     0.037 A 
ATOM     17  C   UNL     1      43.293 131.961  16.542  1.00  0.00     0.011 A 
ATOM     18  C   UNL     1      45.408 130.842  16.992  1.00  0.00    -0.016 A 
ATOM     19  C   UNL     1      44.502 131.423  16.075  1.00  0.00    -0.018 A 
ATOM     20  C   UNL     1      46.615 130.297  16.531  1.00  0.00     0.017 A 
ATOM     21  C   UNL     1      44.814 131.454  14.708  1.00  0.00     0.017 A 
ATOM     22  C   UNL     1      46.930 130.328  15.164  1.00  0.00    -0.018 A 
ATOM     23  C   UNL     1      46.022 130.911  14.246  1.00  0.00    -0.018 A 
ATOM     24  C   UNL     1      48.137 129.786  14.697  1.00  0.00     0.009 A 
ATOM     25  C   UNL     1      46.341 130.940  12.879  1.00  0.00     0.009 A 
ATOM     26  C   UNL     1      48.442 129.821  13.334  1.00  0.00     0.001 A 
ATOM     27  C   UNL     1      47.547 130.396  12.427  1.00  0.00     0.001 A 
ENDBRANCH   1  14
TORSDOF 4
ENDMDL


