REMARK SMILES Cc1cc(C#N)ccc1C(=O)N[C@H]1CC12CCC2
REMARK SMILES IDX 1 1 2 2 3 3 4 4 7 5 8 6 9 7 10 8 12 9 11 10 13 12 14 13
REMARK SMILES IDX 15 14 16 15 18 16 17 17 5 18 6 19
REMARK H PARENT 12 11
ROOT
ATOM      1  C   UNL     1       1.713  -1.637  -2.127  1.00  0.00     0.045 C 
ATOM      2  C   UNL     1       0.260  -1.968  -1.906  1.00  0.00    -0.037 A 
ATOM      3  C   UNL     1      -0.206  -3.244  -2.273  1.00  0.00     0.023 A 
ATOM      4  C   UNL     1      -1.552  -3.587  -2.108  1.00  0.00     0.052 A 
ATOM      5  C   UNL     1      -2.444  -2.660  -1.566  1.00  0.00     0.020 A 
ATOM      6  C   UNL     1      -1.995  -1.395  -1.183  1.00  0.00     0.015 A 
ATOM      7  C   UNL     1      -0.645  -1.033  -1.338  1.00  0.00     0.042 A 
ENDROOT
BRANCH   7   8
ATOM      8  C   UNL     1      -0.214   0.311  -0.883  1.00  0.00     0.251 C 
ATOM      9  N   UNL     1      -1.069   1.448  -1.069  1.00  0.00    -0.349 N 
ATOM     10  O   UNL     1       0.897   0.454  -0.304  1.00  0.00    -0.269 OA
ATOM     11  H   UNL     1      -1.900   1.371  -1.697  1.00  0.00     0.164 HD
BRANCH   9  12
ATOM     12  C   UNL     1      -0.727   2.755  -0.517  1.00  0.00     0.089 C 
ATOM     13  C   UNL     1      -1.934   3.572  -0.037  1.00  0.00     0.034 C 
ATOM     14  C   UNL     1      -1.027   2.863   0.961  1.00  0.00    -0.007 C 
ATOM     15  C   UNL     1      -0.378   3.707   2.018  1.00  0.00     0.009 C 
ATOM     16  C   UNL     1      -1.680   1.912   1.925  1.00  0.00     0.009 C 
ATOM     17  C   UNL     1      -1.030   2.754   3.043  1.00  0.00     0.001 C 
ENDBRANCH   9  12
ENDBRANCH   7   8
BRANCH   4  18
ATOM     18  C   UNL     1      -2.016  -4.893  -2.494  1.00  0.00     0.099 C 
ATOM     19  N   UNL     1      -2.390  -5.944  -2.805  1.00  0.00    -0.192 NA
ENDBRANCH   4  18
TORSDOF 3


