MODEL 1
REMARK VINA RESULT:      -2.7      0.000      0.000
REMARK SMILES C[C@@]1(C(=O)N(c2ccc3[nH]ccc3c2)c2cccc3c2CCC3)CC[C@H](N)C1
REMARK SMILES IDX 3 1 4 2 2 3 24 4 28 5 25 6 26 7 1 8 27 9 5 12 6 13 7 14
REMARK SMILES IDX 14 15 8 16 13 17 9 18 12 19 10 20 11 21 15 23 16 24 20 25
REMARK SMILES IDX 17 26 19 27 21 28 18 29 23 30 22 31
REMARK H PARENT 27 10 27 11 10 22
ROOT
ATOM      1  C   UNL     1      44.853 129.650  21.857  1.00  0.00     0.237 C 
ATOM      2  O   UNL     1      45.689 129.039  21.135  1.00  0.00    -0.273 OA
ENDROOT
BRANCH   1   3
ATOM      3  C   UNL     1      44.094 128.862  22.933  1.00  0.00     0.049 C 
ATOM      4  C   UNL     1      44.784 128.892  24.325  1.00  0.00     0.018 C 
ATOM      5  C   UNL     1      44.005 127.367  22.546  1.00  0.00     0.035 C 
ATOM      6  C   UNL     1      45.244 127.472  24.621  1.00  0.00     0.020 C 
ATOM      7  C   UNL     1      44.332 126.571  23.805  1.00  0.00     0.051 C 
ATOM      8  C   UNL     1      42.663 129.438  23.075  1.00  0.00     0.022 C 
BRANCH   7   9
ATOM      9  N   UNL     1      44.994 125.308  23.478  1.00  0.00    -0.328 NA
ATOM     10  H   UNL     1      45.186 125.300  22.450  1.00  0.00     0.119 HD
ATOM     11  H   UNL     1      44.316 124.532  23.656  1.00  0.00     0.119 HD
ENDBRANCH   7   9
ENDBRANCH   1   3
BRANCH   1  12
ATOM     12  N   UNL     1      44.674 131.068  21.645  1.00  0.00    -0.280 N 
BRANCH  12  13
ATOM     13  C   UNL     1      45.502 132.022  22.333  1.00  0.00     0.050 A 
ATOM     14  C   UNL     1      45.170 132.421  23.653  1.00  0.00     0.029 A 
ATOM     15  C   UNL     1      46.609 132.609  21.682  1.00  0.00     0.037 A 
ATOM     16  C   UNL     1      45.965 133.353  24.343  1.00  0.00     0.029 A 
ATOM     17  C   UNL     1      47.377 133.524  22.395  1.00  0.00     0.001 A 
ATOM     18  C   UNL     1      47.071 133.881  23.680  1.00  0.00     0.045 A 
ATOM     19  C   UNL     1      48.503 134.229  22.030  1.00  0.00     0.028 A 
ATOM     20  N   UNL     1      47.953 134.777  24.150  1.00  0.00    -0.361 N 
ATOM     21  C   UNL     1      48.831 134.994  23.145  1.00  0.00     0.083 A 
ATOM     22  H   UNL     1      47.961 135.223  25.096  1.00  0.00     0.166 HD
ENDBRANCH  12  13
BRANCH  12  23
ATOM     23  C   UNL     1      43.850 131.528  20.553  1.00  0.00     0.052 A 
ATOM     24  C   UNL     1      42.580 132.091  20.804  1.00  0.00     0.027 A 
ATOM     25  C   UNL     1      44.263 131.406  19.211  1.00  0.00    -0.021 A 
ATOM     26  C   UNL     1      41.761 132.512  19.744  1.00  0.00     0.002 A 
ATOM     27  C   UNL     1      43.447 131.809  18.180  1.00  0.00    -0.043 A 
ATOM     28  C   UNL     1      45.535 130.840  18.698  1.00  0.00     0.038 C 
ATOM     29  C   UNL     1      42.192 132.369  18.420  1.00  0.00     0.004 A 
ATOM     30  C   UNL     1      44.054 131.560  16.852  1.00  0.00     0.036 C 
ATOM     31  C   UNL     1      45.336 130.775  17.174  1.00  0.00     0.010 C 
ENDBRANCH  12  23
ENDBRANCH   1  12
TORSDOF 5
ENDMDL
MODEL 2
REMARK VINA RESULT:      -1.8      3.358      6.622
REMARK SMILES C[C@@]1(C(=O)N(c2ccc3[nH]ccc3c2)c2cccc3c2CCC3)CC[C@H](N)C1
REMARK SMILES IDX 3 1 4 2 2 3 24 4 28 5 25 6 26 7 1 8 27 9 5 12 6 13 7 14
REMARK SMILES IDX 14 15 8 16 13 17 9 18 12 19 10 20 11 21 15 23 16 24 20 25
REMARK SMILES IDX 17 26 19 27 21 28 18 29 23 30 22 31
REMARK H PARENT 27 10 27 11 10 22
ROOT
ATOM      1  C   UNL     1      46.554 125.742  23.448  1.00  0.00     0.237 C 
ATOM      2  O   UNL     1      46.907 126.047  24.621  1.00  0.00    -0.273 OA
ENDROOT
BRANCH   1   3
ATOM      3  C   UNL     1      47.478 124.848  22.608  1.00  0.00     0.049 C 
ATOM      4  C   UNL     1      47.638 123.412  23.180  1.00  0.00     0.018 C 
ATOM      5  C   UNL     1      48.907 125.439  22.565  1.00  0.00     0.035 C 
ATOM      6  C   UNL     1      49.086 123.272  23.627  1.00  0.00     0.020 C 
ATOM      7  C   UNL     1      49.867 124.275  22.795  1.00  0.00     0.051 C 
ATOM      8  C   UNL     1      46.923 124.751  21.166  1.00  0.00     0.022 C 
BRANCH   7   9
ATOM      9  N   UNL     1      51.076 124.713  23.493  1.00  0.00    -0.328 NA
ATOM     10  H   UNL     1      51.004 124.401  24.489  1.00  0.00     0.119 HD
ATOM     11  H   UNL     1      51.077 125.758  23.511  1.00  0.00     0.119 HD
ENDBRANCH   7   9
ENDBRANCH   1   3
BRANCH   1  12
ATOM     12  N   UNL     1      45.283 126.232  22.967  1.00  0.00    -0.280 N 
BRANCH  12  13
ATOM     13  C   UNL     1      45.157 127.576  22.471  1.00  0.00     0.050 A 
ATOM     14  C   UNL     1      45.785 127.940  21.252  1.00  0.00     0.029 A 
ATOM     15  C   UNL     1      44.462 128.552  23.218  1.00  0.00     0.037 A 
ATOM     16  C   UNL     1      45.674 129.248  20.750  1.00  0.00     0.029 A 
ATOM     17  C   UNL     1      44.368 129.836  22.690  1.00  0.00     0.001 A 
ATOM     18  C   UNL     1      44.948 130.173  21.497  1.00  0.00     0.045 A 
ATOM     19  C   UNL     1      43.748 130.965  23.179  1.00  0.00     0.028 A 
ATOM     20  N   UNL     1      44.723 131.463  21.204  1.00  0.00    -0.361 N 
ATOM     21  C   UNL     1      43.990 131.953  22.229  1.00  0.00     0.083 A 
ATOM     22  H   UNL     1      45.049 131.987  20.361  1.00  0.00     0.166 HD
ENDBRANCH  12  13
BRANCH  12  23
ATOM     23  C   UNL     1      44.202 125.305  22.734  1.00  0.00     0.052 A 
ATOM     24  C   UNL     1      44.402 124.162  21.929  1.00  0.00     0.027 A 
ATOM     25  C   UNL     1      42.916 125.517  23.268  1.00  0.00    -0.021 A 
ATOM     26  C   UNL     1      43.346 123.272  21.674  1.00  0.00     0.002 A 
ATOM     27  C   UNL     1      41.885 124.647  23.000  1.00  0.00    -0.043 A 
ATOM     28  C   UNL     1      42.460 126.642  24.122  1.00  0.00     0.038 C 
ATOM     29  C   UNL     1      42.075 123.514  22.209  1.00  0.00     0.004 A 
ATOM     30  C   UNL     1      40.612 125.073  23.626  1.00  0.00     0.036 C 
ATOM     31  C   UNL     1      40.935 126.456  24.214  1.00  0.00     0.010 C 
ENDBRANCH  12  23
ENDBRANCH   1  12
TORSDOF 5
ENDMDL
MODEL 3
REMARK VINA RESULT:      -1.4      1.862      6.349
REMARK SMILES C[C@@]1(C(=O)N(c2ccc3[nH]ccc3c2)c2cccc3c2CCC3)CC[C@H](N)C1
REMARK SMILES IDX 3 1 4 2 2 3 24 4 28 5 25 6 26 7 1 8 27 9 5 12 6 13 7 14
REMARK SMILES IDX 14 15 8 16 13 17 9 18 12 19 10 20 11 21 15 23 16 24 20 25
REMARK SMILES IDX 17 26 19 27 21 28 18 29 23 30 22 31
REMARK H PARENT 27 10 27 11 10 22
ROOT
ATOM      1  C   UNL     1      46.611 132.334  21.384  1.00  0.00     0.237 C 
ATOM      2  O   UNL     1      47.571 131.720  20.841  1.00  0.00    -0.273 OA
ENDROOT
BRANCH   1   3
ATOM      3  C   UNL     1      46.921 133.541  22.281  1.00  0.00     0.049 C 
ATOM      4  C   UNL     1      46.842 134.902  21.536  1.00  0.00     0.018 C 
ATOM      5  C   UNL     1      48.365 133.451  22.828  1.00  0.00     0.035 C 
ATOM      6  C   UNL     1      48.254 135.469  21.498  1.00  0.00     0.020 C 
ATOM      7  C   UNL     1      48.976 134.841  22.679  1.00  0.00     0.051 C 
ATOM      8  C   UNL     1      45.928 133.565  23.468  1.00  0.00     0.022 C 
BRANCH   7   9
ATOM      9  N   UNL     1      50.417 134.766  22.437  1.00  0.00    -0.328 NA
ATOM     10  H   UNL     1      50.667 133.762  22.286  1.00  0.00     0.119 HD
ATOM     11  H   UNL     1      50.906 135.062  23.313  1.00  0.00     0.119 HD
ENDBRANCH   7   9
ENDBRANCH   1   3
BRANCH   1  12
ATOM     12  N   UNL     1      45.267 131.880  21.112  1.00  0.00    -0.280 N 
BRANCH  12  13
ATOM     13  C   UNL     1      44.775 131.813  19.763  1.00  0.00     0.050 A 
ATOM     14  C   UNL     1      43.391 131.988  19.507  1.00  0.00     0.029 A 
ATOM     15  C   UNL     1      45.651 131.514  18.696  1.00  0.00     0.037 A 
ATOM     16  C   UNL     1      42.890 131.926  18.195  1.00  0.00     0.029 A 
ATOM     17  C   UNL     1      45.122 131.464  17.410  1.00  0.00     0.001 A 
ATOM     18  C   UNL     1      43.791 131.667  17.165  1.00  0.00     0.045 A 
ATOM     19  C   UNL     1      45.730 131.217  16.198  1.00  0.00     0.028 A 
ATOM     20  N   UNL     1      43.526 131.564  15.854  1.00  0.00    -0.361 N 
ATOM     21  C   UNL     1      44.708 131.289  15.257  1.00  0.00     0.083 A 
ATOM     22  H   UNL     1      42.597 131.669  15.385  1.00  0.00     0.166 HD
ENDBRANCH  12  13
BRANCH  12  23
ATOM     23  C   UNL     1      44.503 131.244  22.159  1.00  0.00     0.052 A 
ATOM     24  C   UNL     1      43.676 132.013  23.007  1.00  0.00     0.027 A 
ATOM     25  C   UNL     1      44.576 129.857  22.391  1.00  0.00    -0.021 A 
ATOM     26  C   UNL     1      42.954 131.405  24.047  1.00  0.00     0.002 A 
ATOM     27  C   UNL     1      43.875 129.273  23.421  1.00  0.00    -0.043 A 
ATOM     28  C   UNL     1      45.378 128.852  21.652  1.00  0.00     0.038 C 
ATOM     29  C   UNL     1      43.054 130.025  24.261  1.00  0.00     0.004 A 
ATOM     30  C   UNL     1      44.120 127.816  23.513  1.00  0.00     0.036 C 
ATOM     31  C   UNL     1      45.225 127.562  22.476  1.00  0.00     0.010 C 
ENDBRANCH  12  23
ENDBRANCH   1  12
TORSDOF 5
ENDMDL
MODEL 4
REMARK VINA RESULT:      -1.3      1.466      1.966
REMARK SMILES C[C@@]1(C(=O)N(c2ccc3[nH]ccc3c2)c2cccc3c2CCC3)CC[C@H](N)C1
REMARK SMILES IDX 3 1 4 2 2 3 24 4 28 5 25 6 26 7 1 8 27 9 5 12 6 13 7 14
REMARK SMILES IDX 14 15 8 16 13 17 9 18 12 19 10 20 11 21 15 23 16 24 20 25
REMARK SMILES IDX 17 26 19 27 21 28 18 29 23 30 22 31
REMARK H PARENT 27 10 27 11 10 22
ROOT
ATOM      1  C   UNL     1      44.945 130.471  21.820  1.00  0.00     0.237 C 
ATOM      2  O   UNL     1      45.626 129.512  21.362  1.00  0.00    -0.273 OA
ENDROOT
BRANCH   1   3
ATOM      3  C   UNL     1      44.186 130.272  23.140  1.00  0.00     0.049 C 
ATOM      4  C   UNL     1      44.618 128.998  23.916  1.00  0.00     0.018 C 
ATOM      5  C   UNL     1      42.672 130.102  22.872  1.00  0.00     0.035 C 
ATOM      6  C   UNL     1      43.425 128.052  23.913  1.00  0.00     0.020 C 
ATOM      7  C   UNL     1      42.203 128.940  23.741  1.00  0.00     0.051 C 
ATOM      8  C   UNL     1      44.407 131.507  24.048  1.00  0.00     0.022 C 
BRANCH   7   9
ATOM      9  N   UNL     1      41.106 128.210  23.106  1.00  0.00    -0.328 NA
ATOM     10  H   UNL     1      41.195 127.201  23.367  1.00  0.00     0.119 HD
ATOM     11  H   UNL     1      41.243 128.258  22.070  1.00  0.00     0.119 HD
ENDBRANCH   7   9
ENDBRANCH   1   3
BRANCH   1  12
ATOM     12  N   UNL     1      44.937 131.716  21.087  1.00  0.00    -0.280 N 
BRANCH  12  13
ATOM     13  C   UNL     1      45.950 132.709  21.318  1.00  0.00     0.050 A 
ATOM     14  C   UNL     1      45.916 133.932  20.599  1.00  0.00     0.029 A 
ATOM     15  C   UNL     1      47.013 132.453  22.213  1.00  0.00     0.037 A 
ATOM     16  C   UNL     1      46.897 134.917  20.810  1.00  0.00     0.029 A 
ATOM     17  C   UNL     1      47.964 133.451  22.401  1.00  0.00     0.001 A 
ATOM     18  C   UNL     1      47.908 134.642  21.728  1.00  0.00     0.045 A 
ATOM     19  C   UNL     1      49.079 133.487  23.209  1.00  0.00     0.028 A 
ATOM     20  N   UNL     1      48.934 135.435  22.075  1.00  0.00    -0.361 N 
ATOM     21  C   UNL     1      49.654 134.734  22.980  1.00  0.00     0.083 A 
ATOM     22  H   UNL     1      49.141 136.395  21.718  1.00  0.00     0.166 HD
ENDBRANCH  12  13
BRANCH  12  23
ATOM     23  C   UNL     1      44.075 131.861  19.938  1.00  0.00     0.052 A 
ATOM     24  C   UNL     1      42.759 132.350  20.089  1.00  0.00     0.027 A 
ATOM     25  C   UNL     1      44.497 131.496  18.644  1.00  0.00    -0.021 A 
ATOM     26  C   UNL     1      41.906 132.465  18.980  1.00  0.00     0.002 A 
ATOM     27  C   UNL     1      43.649 131.599  17.567  1.00  0.00    -0.043 A 
ATOM     28  C   UNL     1      45.815 130.948  18.238  1.00  0.00     0.038 C 
ATOM     29  C   UNL     1      42.349 132.085  17.708  1.00  0.00     0.004 A 
ATOM     30  C   UNL     1      44.276 131.131  16.310  1.00  0.00     0.036 C 
ATOM     31  C   UNL     1      45.623 130.547  16.765  1.00  0.00     0.010 C 
ENDBRANCH  12  23
ENDBRANCH   1  12
TORSDOF 5
ENDMDL
MODEL 5
REMARK VINA RESULT:      -0.7      1.878      6.547
REMARK SMILES C[C@@]1(C(=O)N(c2ccc3[nH]ccc3c2)c2cccc3c2CCC3)CC[C@H](N)C1
REMARK SMILES IDX 3 1 4 2 2 3 24 4 28 5 25 6 26 7 1 8 27 9 5 12 6 13 7 14
REMARK SMILES IDX 14 15 8 16 13 17 9 18 12 19 10 20 11 21 15 23 16 24 20 25
REMARK SMILES IDX 17 26 19 27 21 28 18 29 23 30 22 31
REMARK H PARENT 27 10 27 11 10 22
ROOT
ATOM      1  C   UNL     1      46.747 132.007  21.026  1.00  0.00     0.237 C 
ATOM      2  O   UNL     1      47.821 131.591  20.511  1.00  0.00    -0.273 OA
ENDROOT
BRANCH   1   3
ATOM      3  C   UNL     1      46.798 133.233  21.949  1.00  0.00     0.049 C 
ATOM      4  C   UNL     1      46.639 134.582  21.196  1.00  0.00     0.018 C 
ATOM      5  C   UNL     1      48.168 133.315  22.663  1.00  0.00     0.035 C 
ATOM      6  C   UNL     1      47.965 135.319  21.323  1.00  0.00     0.020 C 
ATOM      7  C   UNL     1      48.615 134.771  22.583  1.00  0.00     0.051 C 
ATOM      8  C   UNL     1      45.677 133.120  23.011  1.00  0.00     0.022 C 
BRANCH   7   9
ATOM      9  N   UNL     1      50.072 134.877  22.513  1.00  0.00    -0.328 NA
ATOM     10  H   UNL     1      50.341 135.843  22.809  1.00  0.00     0.119 HD
ATOM     11  H   UNL     1      50.354 134.788  21.509  1.00  0.00     0.119 HD
ENDBRANCH   7   9
ENDBRANCH   1   3
BRANCH   1  12
ATOM     12  N   UNL     1      45.520 131.319  20.698  1.00  0.00    -0.280 N 
BRANCH  12  13
ATOM     13  C   UNL     1      44.951 131.423  19.382  1.00  0.00     0.050 A 
ATOM     14  C   UNL     1      43.602 131.833  19.227  1.00  0.00     0.029 A 
ATOM     15  C   UNL     1      45.707 131.061  18.245  1.00  0.00     0.037 A 
ATOM     16  C   UNL     1      43.027 131.941  17.948  1.00  0.00     0.029 A 
ATOM     17  C   UNL     1      45.108 131.183  16.995  1.00  0.00     0.001 A 
ATOM     18  C   UNL     1      43.817 131.611  16.849  1.00  0.00     0.045 A 
ATOM     19  C   UNL     1      45.601 130.925  15.735  1.00  0.00     0.028 A 
ATOM     20  N   UNL     1      43.467 131.641  15.554  1.00  0.00    -0.361 N 
ATOM     21  C   UNL     1      44.554 131.222  14.867  1.00  0.00     0.083 A 
ATOM     22  H   UNL     1      42.544 131.924  15.153  1.00  0.00     0.166 HD
ENDBRANCH  12  13
BRANCH  12  23
ATOM     23  C   UNL     1      45.000 130.318  21.599  1.00  0.00     0.052 A 
ATOM     24  C   UNL     1      45.530 129.010  21.596  1.00  0.00     0.027 A 
ATOM     25  C   UNL     1      43.937 130.596  22.482  1.00  0.00    -0.021 A 
ATOM     26  C   UNL     1      45.008 128.023  22.449  1.00  0.00     0.002 A 
ATOM     27  C   UNL     1      43.424 129.619  23.303  1.00  0.00    -0.043 A 
ATOM     28  C   UNL     1      43.211 131.879  22.657  1.00  0.00     0.038 C 
ATOM     29  C   UNL     1      43.945 128.325  23.308  1.00  0.00     0.004 A 
ATOM     30  C   UNL     1      42.292 130.109  24.121  1.00  0.00     0.036 C 
ATOM     31  C   UNL     1      42.036 131.527  23.585  1.00  0.00     0.010 C 
ENDBRANCH  12  23
ENDBRANCH   1  12
TORSDOF 5
ENDMDL
MODEL 6
REMARK VINA RESULT:      -0.5      0.471      1.826
REMARK SMILES C[C@@]1(C(=O)N(c2ccc3[nH]ccc3c2)c2cccc3c2CCC3)CC[C@H](N)C1
REMARK SMILES IDX 3 1 4 2 2 3 24 4 28 5 25 6 26 7 1 8 27 9 5 12 6 13 7 14
REMARK SMILES IDX 14 15 8 16 13 17 9 18 12 19 10 20 11 21 15 23 16 24 20 25
REMARK SMILES IDX 17 26 19 27 21 28 18 29 23 30 22 31
REMARK H PARENT 27 10 27 11 10 22
ROOT
ATOM      1  C   UNL     1      45.132 129.373  21.739  1.00  0.00     0.237 C 
ATOM      2  O   UNL     1      45.976 128.582  21.235  1.00  0.00    -0.273 OA
ENDROOT
BRANCH   1   3
ATOM      3  C   UNL     1      44.200 128.853  22.843  1.00  0.00     0.049 C 
ATOM      4  C   UNL     1      44.874 128.789  24.242  1.00  0.00     0.018 C 
ATOM      5  C   UNL     1      43.750 127.406  22.532  1.00  0.00     0.035 C 
ATOM      6  C   UNL     1      44.973 127.317  24.618  1.00  0.00     0.020 C 
ATOM      7  C   UNL     1      43.871 126.623  23.835  1.00  0.00     0.051 C 
ATOM      8  C   UNL     1      42.953 129.767  22.933  1.00  0.00     0.022 C 
BRANCH   7   9
ATOM      9  N   UNL     1      44.206 125.221  23.584  1.00  0.00    -0.328 NA
ATOM     10  H   UNL     1      43.790 124.647  24.353  1.00  0.00     0.119 HD
ATOM     11  H   UNL     1      45.243 125.117  23.667  1.00  0.00     0.119 HD
ENDBRANCH   7   9
ENDBRANCH   1   3
BRANCH   1  12
ATOM     12  N   UNL     1      45.105 130.737  21.264  1.00  0.00    -0.280 N 
BRANCH  12  13
ATOM     13  C   UNL     1      45.738 131.787  22.015  1.00  0.00     0.050 A 
ATOM     14  C   UNL     1      45.189 132.196  23.257  1.00  0.00     0.029 A 
ATOM     15  C   UNL     1      46.870 132.456  21.496  1.00  0.00     0.037 A 
ATOM     16  C   UNL     1      45.793 133.221  24.006  1.00  0.00     0.029 A 
ATOM     17  C   UNL     1      47.444 133.462  22.265  1.00  0.00     0.001 A 
ATOM     18  C   UNL     1      46.930 133.830  23.479  1.00  0.00     0.045 A 
ATOM     19  C   UNL     1      48.543 134.258  22.026  1.00  0.00     0.028 A 
ATOM     20  N   UNL     1      47.653 134.821  24.024  1.00  0.00    -0.361 N 
ATOM     21  C   UNL     1      48.641 135.087  23.140  1.00  0.00     0.083 A 
ATOM     22  H   UNL     1      47.487 135.296  24.940  1.00  0.00     0.166 HD
ENDBRANCH  12  13
BRANCH  12  23
ATOM     23  C   UNL     1      44.676 131.014  19.914  1.00  0.00     0.052 A 
ATOM     24  C   UNL     1      45.495 130.665  18.818  1.00  0.00     0.027 A 
ATOM     25  C   UNL     1      43.455 131.663  19.643  1.00  0.00    -0.021 A 
ATOM     26  C   UNL     1      45.097 130.959  17.504  1.00  0.00     0.002 A 
ATOM     27  C   UNL     1      43.081 131.960  18.353  1.00  0.00    -0.043 A 
ATOM     28  C   UNL     1      42.441 132.138  20.617  1.00  0.00     0.038 C 
ATOM     29  C   UNL     1      43.883 131.614  17.265  1.00  0.00     0.004 A 
ATOM     30  C   UNL     1      41.785 132.673  18.292  1.00  0.00     0.036 C 
ATOM     31  C   UNL     1      41.445 132.945  19.766  1.00  0.00     0.010 C 
ENDBRANCH  12  23
ENDBRANCH   1  12
TORSDOF 5
ENDMDL
MODEL 7
REMARK VINA RESULT:      -0.4      1.615      5.099
REMARK SMILES C[C@@]1(C(=O)N(c2ccc3[nH]ccc3c2)c2cccc3c2CCC3)CC[C@H](N)C1
REMARK SMILES IDX 3 1 4 2 2 3 24 4 28 5 25 6 26 7 1 8 27 9 5 12 6 13 7 14
REMARK SMILES IDX 14 15 8 16 13 17 9 18 12 19 10 20 11 21 15 23 16 24 20 25
REMARK SMILES IDX 17 26 19 27 21 28 18 29 23 30 22 31
REMARK H PARENT 27 10 27 11 10 22
ROOT
ATOM      1  C   UNL     1      43.804 131.240  20.554  1.00  0.00     0.237 C 
ATOM      2  O   UNL     1      42.548 131.160  20.639  1.00  0.00    -0.273 OA
ENDROOT
BRANCH   1   3
ATOM      3  C   UNL     1      44.424 131.767  19.252  1.00  0.00     0.049 C 
ATOM      4  C   UNL     1      43.435 131.769  18.053  1.00  0.00     0.018 C 
ATOM      5  C   UNL     1      45.605 130.870  18.814  1.00  0.00     0.035 C 
ATOM      6  C   UNL     1      43.953 130.748  17.050  1.00  0.00     0.020 C 
ATOM      7  C   UNL     1      45.446 130.641  17.314  1.00  0.00     0.051 C 
ATOM      8  C   UNL     1      44.936 133.210  19.477  1.00  0.00     0.022 C 
BRANCH   7   9
ATOM      9  N   UNL     1      45.958 129.329  16.919  1.00  0.00    -0.328 NA
ATOM     10  H   UNL     1      45.418 128.600  17.440  1.00  0.00     0.119 HD
ATOM     11  H   UNL     1      46.947 129.255  17.252  1.00  0.00     0.119 HD
ENDBRANCH   7   9
ENDBRANCH   1   3
BRANCH   1  12
ATOM     12  N   UNL     1      44.593 130.852  21.700  1.00  0.00    -0.280 N 
BRANCH  12  13
ATOM     13  C   UNL     1      45.272 131.842  22.492  1.00  0.00     0.050 A 
ATOM     14  C   UNL     1      44.740 132.226  23.749  1.00  0.00     0.029 A 
ATOM     15  C   UNL     1      46.433 132.479  21.999  1.00  0.00     0.037 A 
ATOM     16  C   UNL     1      45.387 133.193  24.539  1.00  0.00     0.029 A 
ATOM     17  C   UNL     1      47.051 133.428  22.808  1.00  0.00     0.001 A 
ATOM     18  C   UNL     1      46.551 133.770  24.035  1.00  0.00     0.045 A 
ATOM     19  C   UNL     1      48.184 134.183  22.601  1.00  0.00     0.028 A 
ATOM     20  N   UNL     1      47.316 134.706  24.619  1.00  0.00    -0.361 N 
ATOM     21  C   UNL     1      48.317 134.962  23.746  1.00  0.00     0.083 A 
ATOM     22  H   UNL     1      47.171 135.151  25.553  1.00  0.00     0.166 HD
ENDBRANCH  12  13
BRANCH  12  23
ATOM     23  C   UNL     1      44.493 129.506  22.214  1.00  0.00     0.052 A 
ATOM     24  C   UNL     1      45.397 128.510  21.786  1.00  0.00     0.027 A 
ATOM     25  C   UNL     1      43.484 129.134  23.124  1.00  0.00    -0.021 A 
ATOM     26  C   UNL     1      45.286 127.192  22.259  1.00  0.00     0.002 A 
ATOM     27  C   UNL     1      43.375 127.838  23.569  1.00  0.00    -0.043 A 
ATOM     28  C   UNL     1      42.419 129.991  23.701  1.00  0.00     0.038 C 
ATOM     29  C   UNL     1      44.267 126.848  23.154  1.00  0.00     0.004 A 
ATOM     30  C   UNL     1      42.229 127.652  24.488  1.00  0.00     0.036 C 
ATOM     31  C   UNL     1      41.501 129.006  24.446  1.00  0.00     0.010 C 
ENDBRANCH  12  23
ENDBRANCH   1  12
TORSDOF 5
ENDMDL
MODEL 8
REMARK VINA RESULT:       0.2      1.288      2.241
REMARK SMILES C[C@@]1(C(=O)N(c2ccc3[nH]ccc3c2)c2cccc3c2CCC3)CC[C@H](N)C1
REMARK SMILES IDX 3 1 4 2 2 3 24 4 28 5 25 6 26 7 1 8 27 9 5 12 6 13 7 14
REMARK SMILES IDX 14 15 8 16 13 17 9 18 12 19 10 20 11 21 15 23 16 24 20 25
REMARK SMILES IDX 17 26 19 27 21 28 18 29 23 30 22 31
REMARK H PARENT 27 10 27 11 10 22
ROOT
ATOM      1  C   UNL     1      44.434 130.794  23.405  1.00  0.00     0.237 C 
ATOM      2  O   UNL     1      44.329 131.168  24.606  1.00  0.00    -0.273 OA
ENDROOT
BRANCH   1   3
ATOM      3  C   UNL     1      43.911 129.404  23.017  1.00  0.00     0.049 C 
ATOM      4  C   UNL     1      43.700 128.460  24.233  1.00  0.00     0.018 C 
ATOM      5  C   UNL     1      44.928 128.681  22.102  1.00  0.00     0.035 C 
ATOM      6  C   UNL     1      44.715 127.333  24.100  1.00  0.00     0.020 C 
ATOM      7  C   UNL     1      45.036 127.249  22.617  1.00  0.00     0.051 C 
ATOM      8  C   UNL     1      42.566 129.555  22.265  1.00  0.00     0.022 C 
BRANCH   7   9
ATOM      9  N   UNL     1      46.377 126.706  22.398  1.00  0.00    -0.328 NA
ATOM     10  H   UNL     1      46.456 126.439  21.390  1.00  0.00     0.119 HD
ATOM     11  H   UNL     1      46.458 125.818  22.945  1.00  0.00     0.119 HD
ENDBRANCH   7   9
ENDBRANCH   1   3
BRANCH   1  12
ATOM     12  N   UNL     1      45.021 131.709  22.453  1.00  0.00    -0.280 N 
BRANCH  12  13
ATOM     13  C   UNL     1      46.056 132.621  22.857  1.00  0.00     0.050 A 
ATOM     14  C   UNL     1      46.141 133.039  24.210  1.00  0.00     0.029 A 
ATOM     15  C   UNL     1      46.953 133.153  21.904  1.00  0.00     0.037 A 
ATOM     16  C   UNL     1      47.145 133.931  24.625  1.00  0.00     0.029 A 
ATOM     17  C   UNL     1      47.937 134.030  22.349  1.00  0.00     0.001 A 
ATOM     18  C   UNL     1      48.034 134.403  23.662  1.00  0.00     0.045 A 
ATOM     19  C   UNL     1      48.941 134.677  21.662  1.00  0.00     0.028 A 
ATOM     20  N   UNL     1      49.056 135.255  23.842  1.00  0.00    -0.361 N 
ATOM     21  C   UNL     1      49.614 135.426  22.622  1.00  0.00     0.083 A 
ATOM     22  H   UNL     1      49.358 135.701  24.738  1.00  0.00     0.166 HD
ENDBRANCH  12  13
BRANCH  12  23
ATOM     23  C   UNL     1      44.764 131.533  21.044  1.00  0.00     0.052 A 
ATOM     24  C   UNL     1      45.759 130.997  20.198  1.00  0.00     0.027 A 
ATOM     25  C   UNL     1      43.540 131.915  20.461  1.00  0.00    -0.021 A 
ATOM     26  C   UNL     1      45.526 130.852  18.820  1.00  0.00     0.002 A 
ATOM     27  C   UNL     1      43.327 131.782  19.108  1.00  0.00    -0.043 A 
ATOM     28  C   UNL     1      42.359 132.510  21.133  1.00  0.00     0.038 C 
ATOM     29  C   UNL     1      44.304 131.250  18.267  1.00  0.00     0.004 A 
ATOM     30  C   UNL     1      41.993 132.274  18.697  1.00  0.00     0.036 C 
ATOM     31  C   UNL     1      41.423 132.906  19.978  1.00  0.00     0.010 C 
ENDBRANCH  12  23
ENDBRANCH   1  12
TORSDOF 5
ENDMDL


