MODEL 1
REMARK VINA RESULT:      -6.2      0.000      0.000
REMARK SMILES CO[C@H]1CCC[C@H](c2cc3cc(F)ccc3[nH]2)N1C(=O)c1ccc(Cl)c(C)c1
REMARK SMILES IDX 3 1 4 2 5 3 6 4 7 5 18 6 2 7 1 8 19 9 20 10 21 11 22 12
REMARK SMILES IDX 28 13 23 14 26 15 24 16 27 17 25 18 8 19 9 20 17 21 10 22
REMARK SMILES IDX 16 23 11 24 15 25 12 26 14 27 13 29
REMARK H PARENT 17 28
ROOT
ATOM      1  C   UNL     1      43.990 131.395  22.695  1.00  0.00     0.217 C 
ATOM      2  C   UNL     1      42.460 131.493  22.601  1.00  0.00     0.055 C 
ATOM      3  C   UNL     1      42.031 132.488  21.512  1.00  0.00     0.007 C 
ATOM      4  C   UNL     1      42.642 132.124  20.153  1.00  0.00     0.032 C 
ATOM      5  C   UNL     1      44.176 132.006  20.257  1.00  0.00     0.135 C 
ATOM      6  N   UNL     1      44.524 131.080  21.360  1.00  0.00    -0.304 N 
ENDROOT
BRANCH   1   7
ATOM      7  O   UNL     1      44.494 132.636  23.163  1.00  0.00    -0.362 OA
ATOM      8  C   UNL     1      45.145 132.475  24.403  1.00  0.00     0.197 C 
ENDBRANCH   1   7
BRANCH   6   9
ATOM      9  C   UNL     1      45.397 129.939  21.208  1.00  0.00     0.256 C 
ATOM     10  O   UNL     1      46.395 130.017  20.443  1.00  0.00    -0.269 OA
BRANCH   9  11
ATOM     11  C   UNL     1      45.154 128.681  21.944  1.00  0.00     0.040 A 
ATOM     12  C   UNL     1      45.883 127.527  21.623  1.00  0.00     0.015 A 
ATOM     13  C   UNL     1      44.167 128.617  22.938  1.00  0.00     0.018 A 
ATOM     14  C   UNL     1      45.592 126.314  22.248  1.00  0.00     0.021 A 
ATOM     15  C   UNL     1      43.868 127.400  23.573  1.00  0.00    -0.032 A 
ATOM     16  C   UNL     1      44.582 126.240  23.213  1.00  0.00     0.044 A 
ATOM     17  C   UNL     1      42.771 127.341  24.600  1.00  0.00     0.046 C 
ATOM     18  Cl  UNL     1      44.230 124.678  23.943  1.00  0.00    -0.084 Cl
ENDBRANCH   9  11
ENDBRANCH   6   9
BRANCH   5  19
ATOM     19  C   UNL     1      44.831 131.647  18.939  1.00  0.00     0.039 A 
ATOM     20  C   UNL     1      45.108 132.517  17.878  1.00  0.00     0.034 A 
ATOM     21  N   UNL     1      45.101 130.366  18.586  1.00  0.00    -0.357 N 
ATOM     22  C   UNL     1      45.540 131.707  16.853  1.00  0.00     0.003 A 
ATOM     23  C   UNL     1      45.527 130.417  17.313  1.00  0.00     0.046 A 
ATOM     24  C   UNL     1      45.880 132.016  15.538  1.00  0.00     0.049 A 
ATOM     25  C   UNL     1      45.857 129.343  16.488  1.00  0.00     0.029 A 
ATOM     26  C   UNL     1      46.226 130.954  14.683  1.00  0.00     0.123 A 
ATOM     27  C   UNL     1      46.216 129.622  15.157  1.00  0.00     0.041 A 
ATOM     28  H   UNL     1      44.949 129.510  19.164  1.00  0.00     0.166 HD
ATOM     29  F   UNL     1      46.561 131.209  13.395  1.00  0.00    -0.207 F 
ENDBRANCH   5  19
TORSDOF 4
ENDMDL
MODEL 2
REMARK VINA RESULT:      -4.6      3.719      7.106
REMARK SMILES CO[C@H]1CCC[C@H](c2cc3cc(F)ccc3[nH]2)N1C(=O)c1ccc(Cl)c(C)c1
REMARK SMILES IDX 3 1 4 2 5 3 6 4 7 5 18 6 2 7 1 8 19 9 20 10 21 11 22 12
REMARK SMILES IDX 28 13 23 14 26 15 24 16 27 17 25 18 8 19 9 20 17 21 10 22
REMARK SMILES IDX 16 23 11 24 15 25 12 26 14 27 13 29
REMARK H PARENT 17 28
ROOT
ATOM      1  C   UNL     1      43.917 131.697  21.970  1.00  0.00     0.217 C 
ATOM      2  C   UNL     1      44.256 132.507  23.230  1.00  0.00     0.055 C 
ATOM      3  C   UNL     1      43.781 131.787  24.501  1.00  0.00     0.007 C 
ATOM      4  C   UNL     1      44.360 130.369  24.587  1.00  0.00     0.032 C 
ATOM      5  C   UNL     1      44.035 129.566  23.311  1.00  0.00     0.135 C 
ATOM      6  N   UNL     1      44.465 130.339  22.122  1.00  0.00    -0.304 N 
ENDROOT
BRANCH   1   7
ATOM      7  O   UNL     1      42.506 131.661  21.822  1.00  0.00    -0.362 OA
ATOM      8  C   UNL     1      42.134 131.986  20.502  1.00  0.00     0.197 C 
ENDBRANCH   1   7
BRANCH   6   9
ATOM      9  C   UNL     1      45.328 129.814  21.090  1.00  0.00     0.256 C 
ATOM     10  O   UNL     1      46.026 128.792  21.323  1.00  0.00    -0.269 OA
BRANCH   9  11
ATOM     11  C   UNL     1      45.400 130.443  19.754  1.00  0.00     0.040 A 
ATOM     12  C   UNL     1      44.998 131.775  19.582  1.00  0.00     0.015 A 
ATOM     13  C   UNL     1      45.828 129.704  18.642  1.00  0.00     0.018 A 
ATOM     14  C   UNL     1      44.973 132.344  18.308  1.00  0.00     0.021 A 
ATOM     15  C   UNL     1      45.807 130.269  17.356  1.00  0.00    -0.032 A 
ATOM     16  C   UNL     1      45.364 131.596  17.192  1.00  0.00     0.044 A 
ATOM     17  C   UNL     1      46.222 129.444  16.169  1.00  0.00     0.046 C 
ATOM     18  Cl  UNL     1      45.278 132.349  15.604  1.00  0.00    -0.084 Cl
ENDBRANCH   9  11
ENDBRANCH   6   9
BRANCH   5  19
ATOM     19  C   UNL     1      44.587 128.155  23.344  1.00  0.00     0.039 A 
ATOM     20  C   UNL     1      43.995 127.014  22.792  1.00  0.00     0.034 A 
ATOM     21  N   UNL     1      45.688 127.821  24.061  1.00  0.00    -0.357 N 
ATOM     22  C   UNL     1      44.773 125.963  23.222  1.00  0.00     0.003 A 
ATOM     23  C   UNL     1      45.786 126.484  23.982  1.00  0.00     0.046 A 
ATOM     24  C   UNL     1      44.617 124.591  23.044  1.00  0.00     0.049 A 
ATOM     25  C   UNL     1      46.719 125.666  24.618  1.00  0.00     0.029 A 
ATOM     26  C   UNL     1      45.548 123.739  23.667  1.00  0.00     0.123 A 
ATOM     27  C   UNL     1      46.596 124.274  24.449  1.00  0.00     0.041 A 
ATOM     28  H   UNL     1      46.297 128.465  24.614  1.00  0.00     0.166 HD
ATOM     29  F   UNL     1      45.432 122.396  23.523  1.00  0.00    -0.207 F 
ENDBRANCH   5  19
TORSDOF 4
ENDMDL
MODEL 3
REMARK VINA RESULT:      -4.4      0.852      1.298
REMARK SMILES CO[C@H]1CCC[C@H](c2cc3cc(F)ccc3[nH]2)N1C(=O)c1ccc(Cl)c(C)c1
REMARK SMILES IDX 3 1 4 2 5 3 6 4 7 5 18 6 2 7 1 8 19 9 20 10 21 11 22 12
REMARK SMILES IDX 28 13 23 14 26 15 24 16 27 17 25 18 8 19 9 20 17 21 10 22
REMARK SMILES IDX 16 23 11 24 15 25 12 26 14 27 13 29
REMARK H PARENT 17 28
ROOT
ATOM      1  C   UNL     1      44.149 131.607  22.469  1.00  0.00     0.217 C 
ATOM      2  C   UNL     1      42.615 131.679  22.498  1.00  0.00     0.055 C 
ATOM      3  C   UNL     1      42.077 132.584  21.380  1.00  0.00     0.007 C 
ATOM      4  C   UNL     1      42.579 132.127  20.004  1.00  0.00     0.032 C 
ATOM      5  C   UNL     1      44.118 132.036  19.985  1.00  0.00     0.135 C 
ATOM      6  N   UNL     1      44.575 131.199  21.119  1.00  0.00    -0.304 N 
ENDROOT
BRANCH   1   7
ATOM      7  O   UNL     1      44.668 132.886  22.799  1.00  0.00    -0.362 OA
ATOM      8  C   UNL     1      46.068 132.913  22.640  1.00  0.00     0.197 C 
ENDBRANCH   1   7
BRANCH   6   9
ATOM      9  C   UNL     1      45.453 130.061  20.978  1.00  0.00     0.256 C 
ATOM     10  O   UNL     1      46.410 130.112  20.159  1.00  0.00    -0.269 OA
BRANCH   9  11
ATOM     11  C   UNL     1      45.265 128.839  21.787  1.00  0.00     0.040 A 
ATOM     12  C   UNL     1      46.002 127.682  21.494  1.00  0.00     0.015 A 
ATOM     13  C   UNL     1      44.320 128.809  22.822  1.00  0.00     0.018 A 
ATOM     14  C   UNL     1      45.760 126.498  22.191  1.00  0.00     0.021 A 
ATOM     15  C   UNL     1      44.070 127.621  23.530  1.00  0.00    -0.032 A 
ATOM     16  C   UNL     1      44.791 126.456  23.200  1.00  0.00     0.044 A 
ATOM     17  C   UNL     1      43.017 127.596  24.603  1.00  0.00     0.046 C 
ATOM     18  Cl  UNL     1      44.499 124.929  24.021  1.00  0.00    -0.084 Cl
ENDBRANCH   9  11
ENDBRANCH   6   9
BRANCH   5  19
ATOM     19  C   UNL     1      44.667 131.587  18.646  1.00  0.00     0.039 A 
ATOM     20  C   UNL     1      45.183 130.323  18.336  1.00  0.00     0.034 A 
ATOM     21  N   UNL     1      44.848 132.441  17.610  1.00  0.00    -0.357 N 
ATOM     22  C   UNL     1      45.706 130.451  17.070  1.00  0.00     0.003 A 
ATOM     23  C   UNL     1      45.486 131.739  16.660  1.00  0.00     0.046 A 
ATOM     24  C   UNL     1      46.411 129.540  16.287  1.00  0.00     0.049 A 
ATOM     25  C   UNL     1      45.954 132.206  15.432  1.00  0.00     0.029 A 
ATOM     26  C   UNL     1      46.890 129.979  15.039  1.00  0.00     0.123 A 
ATOM     27  C   UNL     1      46.661 131.307  14.613  1.00  0.00     0.041 A 
ATOM     28  H   UNL     1      44.599 133.456  17.581  1.00  0.00     0.166 HD
ATOM     29  F   UNL     1      47.584 129.126  14.246  1.00  0.00    -0.207 F 
ENDBRANCH   5  19
TORSDOF 4
ENDMDL
MODEL 4
REMARK VINA RESULT:      -4.3      3.623      6.821
REMARK SMILES CO[C@H]1CCC[C@H](c2cc3cc(F)ccc3[nH]2)N1C(=O)c1ccc(Cl)c(C)c1
REMARK SMILES IDX 3 1 4 2 5 3 6 4 7 5 18 6 2 7 1 8 19 9 20 10 21 11 22 12
REMARK SMILES IDX 28 13 23 14 26 15 24 16 27 17 25 18 8 19 9 20 17 21 10 22
REMARK SMILES IDX 16 23 11 24 15 25 12 26 14 27 13 29
REMARK H PARENT 17 28
ROOT
ATOM      1  C   UNL     1      43.701 131.608  22.036  1.00  0.00     0.217 C 
ATOM      2  C   UNL     1      43.937 132.370  23.348  1.00  0.00     0.055 C 
ATOM      3  C   UNL     1      43.380 131.595  24.552  1.00  0.00     0.007 C 
ATOM      4  C   UNL     1      43.970 130.180  24.624  1.00  0.00     0.032 C 
ATOM      5  C   UNL     1      43.750 129.426  23.298  1.00  0.00     0.135 C 
ATOM      6  N   UNL     1      44.254 130.250  22.174  1.00  0.00    -0.304 N 
ENDROOT
BRANCH   1   7
ATOM      7  O   UNL     1      42.306 131.563  21.784  1.00  0.00    -0.362 OA
ATOM      8  C   UNL     1      41.883 132.724  21.106  1.00  0.00     0.197 C 
ENDBRANCH   1   7
BRANCH   6   9
ATOM      9  C   UNL     1      45.197 129.777  21.188  1.00  0.00     0.256 C 
ATOM     10  O   UNL     1      45.939 128.794  21.459  1.00  0.00    -0.269 OA
BRANCH   9  11
ATOM     11  C   UNL     1      45.303 130.410  19.858  1.00  0.00     0.040 A 
ATOM     12  C   UNL     1      44.830 131.717  19.662  1.00  0.00     0.015 A 
ATOM     13  C   UNL     1      45.834 129.701  18.772  1.00  0.00     0.018 A 
ATOM     14  C   UNL     1      44.840 132.285  18.387  1.00  0.00     0.021 A 
ATOM     15  C   UNL     1      45.848 130.266  17.485  1.00  0.00    -0.032 A 
ATOM     16  C   UNL     1      45.335 131.564  17.295  1.00  0.00     0.044 A 
ATOM     17  C   UNL     1      46.376 129.469  16.324  1.00  0.00     0.046 C 
ATOM     18  Cl  UNL     1      45.289 132.313  15.704  1.00  0.00    -0.084 Cl
ENDBRANCH   9  11
ENDBRANCH   6   9
BRANCH   5  19
ATOM     19  C   UNL     1      44.316 128.021  23.316  1.00  0.00     0.039 A 
ATOM     20  C   UNL     1      45.483 127.599  23.964  1.00  0.00     0.034 A 
ATOM     21  N   UNL     1      43.802 127.020  22.561  1.00  0.00    -0.357 N 
ATOM     22  C   UNL     1      45.670 126.299  23.553  1.00  0.00     0.003 A 
ATOM     23  C   UNL     1      44.639 125.979  22.710  1.00  0.00     0.046 A 
ATOM     24  C   UNL     1      46.708 125.408  23.816  1.00  0.00     0.049 A 
ATOM     25  C   UNL     1      44.570 124.741  22.074  1.00  0.00     0.029 A 
ATOM     26  C   UNL     1      46.664 124.147  23.194  1.00  0.00     0.123 A 
ATOM     27  C   UNL     1      45.598 123.814  22.327  1.00  0.00     0.041 A 
ATOM     28  H   UNL     1      42.963 127.067  21.941  1.00  0.00     0.166 HD
ATOM     29  F   UNL     1      47.654 123.250  23.420  1.00  0.00    -0.207 F 
ENDBRANCH   5  19
TORSDOF 4
ENDMDL


