MODEL 1
REMARK VINA RESULT:      -6.1      0.000      0.000
REMARK SMILES CC(C)C[C@H](C)OC(=O)n1[nH]c(-c2ccc3[nH]ccc3c2)c/c(=N\N)c1=O
REMARK SMILES IDX 8 1 9 2 10 3 12 4 22 5 11 6 23 7 26 8 27 10 13 11 14 12
REMARK SMILES IDX 15 13 21 14 16 15 20 16 17 17 19 18 18 19 24 21 25 22 7 25
REMARK SMILES IDX 5 26 6 27 4 28 2 29 1 30 3 31
REMARK H PARENT 11 9 17 20 25 23 25 24
ROOT
ATOM      1  C   UNL     1      45.577 131.048  20.338  1.00  0.00     0.436 C 
ATOM      2  O   UNL     1      46.816 131.290  20.295  1.00  0.00    -0.222 OA
ENDROOT
BRANCH   1   3
ATOM      3  N   UNL     1      45.044 130.192  21.377  1.00  0.00    -0.148 N 
ATOM      4  C   UNL     1      44.932 128.025  22.332  1.00  0.00     0.065 A 
ATOM      5  C   UNL     1      44.090 128.498  23.340  1.00  0.00     0.064 A 
ATOM      6  N   UNL     1      45.379 128.892  21.378  1.00  0.00    -0.285 N 
ATOM      7  C   UNL     1      43.707 129.847  23.352  1.00  0.00     0.152 A 
ATOM      8  C   UNL     1      44.208 130.690  22.348  1.00  0.00     0.302 A 
ATOM      9  H   UNL     1      46.001 128.517  20.626  1.00  0.00     0.189 HD
ATOM     10  O   UNL     1      43.865 131.906  22.342  1.00  0.00    -0.265 OA
BRANCH   4  11
ATOM     11  C   UNL     1      45.352 126.601  22.308  1.00  0.00     0.000 A 
ATOM     12  C   UNL     1      44.392 125.564  22.460  1.00  0.00     0.012 A 
ATOM     13  C   UNL     1      44.782 124.213  22.436  1.00  0.00     0.027 A 
ATOM     14  C   UNL     1      46.715 126.267  22.130  1.00  0.00     0.020 A 
ATOM     15  C   UNL     1      46.133 123.928  22.261  1.00  0.00     0.045 A 
ATOM     16  C   UNL     1      47.064 124.918  22.113  1.00  0.00     0.000 A 
ATOM     17  N   UNL     1      46.713 122.717  22.211  1.00  0.00    -0.361 N 
ATOM     18  C   UNL     1      48.292 124.312  21.965  1.00  0.00     0.028 A 
ATOM     19  C   UNL     1      48.033 122.947  22.031  1.00  0.00     0.083 A 
ATOM     20  H   UNL     1      46.244 121.787  22.296  1.00  0.00     0.166 HD
ENDBRANCH   4  11
BRANCH   7  21
ATOM     21  N   UNL     1      42.919 130.353  24.263  1.00  0.00    -0.177 NA
BRANCH  21  22
ATOM     22  N   UNL     1      41.766 131.122  24.026  1.00  0.00    -0.323 N 
ATOM     23  H   UNL     1      40.923 130.959  24.618  1.00  0.00     0.179 HD
ATOM     24  H   UNL     1      41.745 131.932  23.371  1.00  0.00     0.179 HD
ENDBRANCH  21  22
ENDBRANCH   7  21
ENDBRANCH   1   3
BRANCH   1  25
ATOM     25  O   UNL     1      44.723 131.637  19.395  1.00  0.00    -0.445 OA
BRANCH  25  26
ATOM     26  C   UNL     1      44.529 131.134  18.073  1.00  0.00     0.175 C 
ATOM     27  C   UNL     1      43.222 131.694  17.502  1.00  0.00     0.053 C 
BRANCH  26  28
ATOM     28  C   UNL     1      45.717 131.554  17.181  1.00  0.00     0.048 C 
BRANCH  28  29
ATOM     29  C   UNL     1      45.888 130.746  15.868  1.00  0.00    -0.014 C 
ATOM     30  C   UNL     1      45.282 131.459  14.652  1.00  0.00     0.007 C 
ATOM     31  C   UNL     1      45.366 129.306  15.974  1.00  0.00     0.007 C 
ENDBRANCH  28  29
ENDBRANCH  26  28
ENDBRANCH  25  26
ENDBRANCH   1  25
TORSDOF 8
ENDMDL
MODEL 2
REMARK VINA RESULT:      -5.4      3.397      7.372
REMARK SMILES CC(C)C[C@H](C)OC(=O)n1[nH]c(-c2ccc3[nH]ccc3c2)c/c(=N\N)c1=O
REMARK SMILES IDX 8 1 9 2 10 3 12 4 22 5 11 6 23 7 26 8 27 10 13 11 14 12
REMARK SMILES IDX 15 13 21 14 16 15 20 16 17 17 19 18 18 19 24 21 25 22 7 25
REMARK SMILES IDX 5 26 6 27 4 28 2 29 1 30 3 31
REMARK H PARENT 11 9 17 20 25 23 25 24
ROOT
ATOM      1  C   UNL     1      45.066 130.581  21.419  1.00  0.00     0.436 C 
ATOM      2  O   UNL     1      46.190 131.076  21.711  1.00  0.00    -0.222 OA
ENDROOT
BRANCH   1   3
ATOM      3  N   UNL     1      44.339 131.070  20.266  1.00  0.00    -0.148 N 
ATOM      4  C   UNL     1      44.261 131.352  17.914  1.00  0.00     0.065 A 
ATOM      5  C   UNL     1      43.005 131.955  18.015  1.00  0.00     0.064 A 
ATOM      6  N   UNL     1      44.890 130.932  19.049  1.00  0.00    -0.285 N 
ATOM      7  C   UNL     1      42.416 132.130  19.274  1.00  0.00     0.152 A 
ATOM      8  C   UNL     1      43.109 131.668  20.405  1.00  0.00     0.302 A 
ATOM      9  H   UNL     1      45.833 130.493  18.955  1.00  0.00     0.189 HD
ATOM     10  O   UNL     1      42.593 131.827  21.546  1.00  0.00    -0.265 OA
BRANCH   4  11
ATOM     11  C   UNL     1      44.896 131.153  16.587  1.00  0.00     0.000 A 
ATOM     12  C   UNL     1      44.304 131.697  15.415  1.00  0.00     0.012 A 
ATOM     13  C   UNL     1      44.901 131.516  14.155  1.00  0.00     0.027 A 
ATOM     14  C   UNL     1      46.102 130.421  16.481  1.00  0.00     0.020 A 
ATOM     15  C   UNL     1      46.085 130.787  14.095  1.00  0.00     0.045 A 
ATOM     16  C   UNL     1      46.664 130.260  15.217  1.00  0.00     0.000 A 
ATOM     17  N   UNL     1      46.812 130.496  13.003  1.00  0.00    -0.361 N 
ATOM     18  C   UNL     1      47.808 129.602  14.821  1.00  0.00     0.028 A 
ATOM     19  C   UNL     1      47.866 129.772  13.442  1.00  0.00     0.083 A 
ATOM     20  H   UNL     1      46.607 130.770  12.016  1.00  0.00     0.166 HD
ENDBRANCH   4  11
BRANCH   7  21
ATOM     21  N   UNL     1      41.246 132.689  19.439  1.00  0.00    -0.177 NA
BRANCH  21  22
ATOM     22  N   UNL     1      40.874 133.532  20.501  1.00  0.00    -0.323 N 
ATOM     23  H   UNL     1      40.651 134.530  20.296  1.00  0.00     0.179 HD
ATOM     24  H   UNL     1      40.689 133.186  21.467  1.00  0.00     0.179 HD
ENDBRANCH  21  22
ENDBRANCH   7  21
ENDBRANCH   1   3
BRANCH   1  25
ATOM     25  O   UNL     1      44.545 129.539  22.199  1.00  0.00    -0.445 OA
BRANCH  25  26
ATOM     26  C   UNL     1      44.758 129.413  23.605  1.00  0.00     0.175 C 
ATOM     27  C   UNL     1      43.907 130.450  24.345  1.00  0.00     0.053 C 
BRANCH  26  28
ATOM     28  C   UNL     1      44.370 127.989  24.060  1.00  0.00     0.048 C 
BRANCH  28  29
ATOM     29  C   UNL     1      42.889 127.801  24.479  1.00  0.00    -0.014 C 
ATOM     30  C   UNL     1      42.399 126.360  24.287  1.00  0.00     0.007 C 
ATOM     31  C   UNL     1      41.938 128.796  23.799  1.00  0.00     0.007 C 
ENDBRANCH  28  29
ENDBRANCH  26  28
ENDBRANCH  25  26
ENDBRANCH   1  25
TORSDOF 8
ENDMDL
MODEL 3
REMARK VINA RESULT:      -5.2      3.036      7.312
REMARK SMILES CC(C)C[C@H](C)OC(=O)n1[nH]c(-c2ccc3[nH]ccc3c2)c/c(=N\N)c1=O
REMARK SMILES IDX 8 1 9 2 10 3 12 4 22 5 11 6 23 7 26 8 27 10 13 11 14 12
REMARK SMILES IDX 15 13 21 14 16 15 20 16 17 17 19 18 18 19 24 21 25 22 7 25
REMARK SMILES IDX 5 26 6 27 4 28 2 29 1 30 3 31
REMARK H PARENT 11 9 17 20 25 23 25 24
ROOT
ATOM      1  C   UNL     1      45.497 131.563  21.137  1.00  0.00     0.436 C 
ATOM      2  O   UNL     1      46.752 131.699  21.161  1.00  0.00    -0.222 OA
ENDROOT
BRANCH   1   3
ATOM      3  N   UNL     1      44.793 131.570  19.871  1.00  0.00    -0.148 N 
ATOM      4  C   UNL     1      44.853 131.151  17.539  1.00  0.00     0.065 A 
ATOM      5  C   UNL     1      43.515 131.532  17.423  1.00  0.00     0.064 A 
ATOM      6  N   UNL     1      45.451 131.187  18.765  1.00  0.00    -0.285 N 
ATOM      7  C   UNL     1      42.810 131.955  18.558  1.00  0.00     0.152 A 
ATOM      8  C   UNL     1      43.478 131.962  19.793  1.00  0.00     0.302 A 
ATOM      9  H   UNL     1      46.456 130.908  18.830  1.00  0.00     0.189 HD
ATOM     10  O   UNL     1      42.858 132.349  20.823  1.00  0.00    -0.265 OA
BRANCH   4  11
ATOM     11  C   UNL     1      45.612 130.694  16.348  1.00  0.00     0.000 A 
ATOM     12  C   UNL     1      45.681 129.312  16.023  1.00  0.00     0.012 A 
ATOM     13  C   UNL     1      46.396 128.872  14.894  1.00  0.00     0.027 A 
ATOM     14  C   UNL     1      46.270 131.636  15.523  1.00  0.00     0.020 A 
ATOM     15  C   UNL     1      47.031 129.831  14.111  1.00  0.00     0.045 A 
ATOM     16  C   UNL     1      46.970 131.163  14.415  1.00  0.00     0.000 A 
ATOM     17  N   UNL     1      47.762 129.628  13.002  1.00  0.00    -0.361 N 
ATOM     18  C   UNL     1      47.696 131.839  13.458  1.00  0.00     0.028 A 
ATOM     19  C   UNL     1      48.171 130.853  12.600  1.00  0.00     0.083 A 
ATOM     20  H   UNL     1      47.974 128.714  12.544  1.00  0.00     0.166 HD
ENDBRANCH   4  11
BRANCH   7  21
ATOM     21  N   UNL     1      41.558 132.329  18.519  1.00  0.00    -0.177 NA
BRANCH  21  22
ATOM     22  N   UNL     1      40.915 133.170  19.444  1.00  0.00    -0.323 N 
ATOM     23  H   UNL     1      40.178 132.768  20.062  1.00  0.00     0.179 HD
ATOM     24  H   UNL     1      41.220 134.149  19.632  1.00  0.00     0.179 HD
ENDBRANCH  21  22
ENDBRANCH   7  21
ENDBRANCH   1   3
BRANCH   1  25
ATOM     25  O   UNL     1      44.798 131.375  22.337  1.00  0.00    -0.445 OA
BRANCH  25  26
ATOM     26  C   UNL     1      44.993 130.260  23.207  1.00  0.00     0.175 C 
ATOM     27  C   UNL     1      44.298 130.531  24.546  1.00  0.00     0.053 C 
BRANCH  26  28
ATOM     28  C   UNL     1      44.409 128.988  22.556  1.00  0.00     0.048 C 
BRANCH  28  29
ATOM     29  C   UNL     1      43.956 127.879  23.542  1.00  0.00    -0.014 C 
ATOM     30  C   UNL     1      44.528 126.502  23.185  1.00  0.00     0.007 C 
ATOM     31  C   UNL     1      42.432 127.811  23.713  1.00  0.00     0.007 C 
ENDBRANCH  28  29
ENDBRANCH  26  28
ENDBRANCH  25  26
ENDBRANCH   1  25
TORSDOF 8
ENDMDL
MODEL 4
REMARK VINA RESULT:      -5.1      3.065      7.310
REMARK SMILES CC(C)C[C@H](C)OC(=O)n1[nH]c(-c2ccc3[nH]ccc3c2)c/c(=N\N)c1=O
REMARK SMILES IDX 8 1 9 2 10 3 12 4 22 5 11 6 23 7 26 8 27 10 13 11 14 12
REMARK SMILES IDX 15 13 21 14 16 15 20 16 17 17 19 18 18 19 24 21 25 22 7 25
REMARK SMILES IDX 5 26 6 27 4 28 2 29 1 30 3 31
REMARK H PARENT 11 9 17 20 25 23 25 24
ROOT
ATOM      1  C   UNL     1      45.121 131.089  21.268  1.00  0.00     0.436 C 
ATOM      2  O   UNL     1      45.904 131.934  21.784  1.00  0.00    -0.222 OA
ENDROOT
BRANCH   1   3
ATOM      3  N   UNL     1      44.524 131.352  19.975  1.00  0.00    -0.148 N 
ATOM      4  C   UNL     1      44.788 131.436  17.622  1.00  0.00     0.065 A 
ATOM      5  C   UNL     1      43.452 131.813  17.471  1.00  0.00     0.064 A 
ATOM      6  N   UNL     1      45.282 131.222  18.875  1.00  0.00    -0.285 N 
ATOM      7  C   UNL     1      42.643 131.976  18.604  1.00  0.00     0.152 A 
ATOM      8  C   UNL     1      43.207 131.732  19.866  1.00  0.00     0.302 A 
ATOM      9  H   UNL     1      46.287 130.951  18.968  1.00  0.00     0.189 HD
ATOM     10  O   UNL     1      42.492 131.883  20.896  1.00  0.00    -0.265 OA
BRANCH   4  11
ATOM     11  C   UNL     1      45.657 131.253  16.431  1.00  0.00     0.000 A 
ATOM     12  C   UNL     1      45.916 132.340  15.553  1.00  0.00     0.012 A 
ATOM     13  C   UNL     1      46.740 132.175  14.425  1.00  0.00     0.027 A 
ATOM     14  C   UNL     1      46.238 129.991  16.165  1.00  0.00     0.020 A 
ATOM     15  C   UNL     1      47.289 130.916  14.199  1.00  0.00     0.045 A 
ATOM     16  C   UNL     1      47.046 129.863  15.038  1.00  0.00     0.000 A 
ATOM     17  N   UNL     1      48.093 130.544  13.189  1.00  0.00    -0.361 N 
ATOM     18  C   UNL     1      47.725 128.772  14.539  1.00  0.00     0.028 A 
ATOM     19  C   UNL     1      48.362 129.235  13.393  1.00  0.00     0.083 A 
ATOM     20  H   UNL     1      48.440 131.141  12.405  1.00  0.00     0.166 HD
ENDBRANCH   4  11
BRANCH   7  21
ATOM     21  N   UNL     1      41.387 132.330  18.535  1.00  0.00    -0.177 NA
BRANCH  21  22
ATOM     22  N   UNL     1      40.282 131.539  18.897  1.00  0.00    -0.323 N 
ATOM     23  H   UNL     1      39.562 131.943  19.533  1.00  0.00     0.179 HD
ATOM     24  H   UNL     1      40.079 130.612  18.467  1.00  0.00     0.179 HD
ENDBRANCH  21  22
ENDBRANCH   7  21
ENDBRANCH   1   3
BRANCH   1  25
ATOM     25  O   UNL     1      44.861 129.886  21.940  1.00  0.00    -0.445 OA
BRANCH  25  26
ATOM     26  C   UNL     1      44.396 129.811  23.287  1.00  0.00     0.175 C 
ATOM     27  C   UNL     1      43.694 131.121  23.658  1.00  0.00     0.053 C 
BRANCH  26  28
ATOM     28  C   UNL     1      43.415 128.627  23.430  1.00  0.00     0.048 C 
BRANCH  28  29
ATOM     29  C   UNL     1      44.042 127.292  23.909  1.00  0.00    -0.014 C 
ATOM     30  C   UNL     1      45.557 127.233  23.674  1.00  0.00     0.007 C 
ATOM     31  C   UNL     1      43.349 126.055  23.321  1.00  0.00     0.007 C 
ENDBRANCH  28  29
ENDBRANCH  26  28
ENDBRANCH  25  26
ENDBRANCH   1  25
TORSDOF 8
ENDMDL
MODEL 5
REMARK VINA RESULT:      -4.9      1.038      1.280
REMARK SMILES CC(C)C[C@H](C)OC(=O)n1[nH]c(-c2ccc3[nH]ccc3c2)c/c(=N\N)c1=O
REMARK SMILES IDX 8 1 9 2 10 3 12 4 22 5 11 6 23 7 26 8 27 10 13 11 14 12
REMARK SMILES IDX 15 13 21 14 16 15 20 16 17 17 19 18 18 19 24 21 25 22 7 25
REMARK SMILES IDX 5 26 6 27 4 28 2 29 1 30 3 31
REMARK H PARENT 11 9 17 20 25 23 25 24
ROOT
ATOM      1  C   UNL     1      45.457 131.034  19.403  1.00  0.00     0.436 C 
ATOM      2  O   UNL     1      45.447 132.287  19.241  1.00  0.00    -0.222 OA
ENDROOT
BRANCH   1   3
ATOM      3  N   UNL     1      45.029 130.466  20.664  1.00  0.00    -0.148 N 
ATOM      4  C   UNL     1      45.014 128.598  22.122  1.00  0.00     0.065 A 
ATOM      5  C   UNL     1      44.270 129.318  23.060  1.00  0.00     0.064 A 
ATOM      6  N   UNL     1      45.366 129.198  20.949  1.00  0.00    -0.285 N 
ATOM      7  C   UNL     1      43.887 130.636  22.779  1.00  0.00     0.152 A 
ATOM      8  C   UNL     1      44.288 131.202  21.558  1.00  0.00     0.302 A 
ATOM      9  H   UNL     1      45.913 128.640  20.256  1.00  0.00     0.189 HD
ATOM     10  O   UNL     1      43.942 132.386  21.290  1.00  0.00    -0.265 OA
BRANCH   4  11
ATOM     11  C   UNL     1      45.434 127.202  22.406  1.00  0.00     0.000 A 
ATOM     12  C   UNL     1      44.633 126.360  23.225  1.00  0.00     0.012 A 
ATOM     13  C   UNL     1      45.022 125.036  23.497  1.00  0.00     0.027 A 
ATOM     14  C   UNL     1      46.636 126.697  21.858  1.00  0.00     0.020 A 
ATOM     15  C   UNL     1      46.214 124.581  22.939  1.00  0.00     0.045 A 
ATOM     16  C   UNL     1      46.991 125.382  22.149  1.00  0.00     0.000 A 
ATOM     17  N   UNL     1      46.766 123.364  23.072  1.00  0.00    -0.361 N 
ATOM     18  C   UNL     1      48.088 124.643  21.763  1.00  0.00     0.028 A 
ATOM     19  C   UNL     1      47.912 123.397  22.356  1.00  0.00     0.083 A 
ATOM     20  H   UNL     1      46.391 122.556  23.618  1.00  0.00     0.166 HD
ENDBRANCH   4  11
BRANCH   7  21
ATOM     21  N   UNL     1      43.189 131.364  23.610  1.00  0.00    -0.177 NA
BRANCH  21  22
ATOM     22  N   UNL     1      41.817 131.656  23.504  1.00  0.00    -0.323 N 
ATOM     23  H   UNL     1      41.188 130.956  23.055  1.00  0.00     0.179 HD
ATOM     24  H   UNL     1      41.373 132.481  23.959  1.00  0.00     0.179 HD
ENDBRANCH  21  22
ENDBRANCH   7  21
ENDBRANCH   1   3
BRANCH   1  25
ATOM     25  O   UNL     1      45.855 130.203  18.347  1.00  0.00    -0.445 OA
BRANCH  25  26
ATOM     26  C   UNL     1      45.384 130.337  17.006  1.00  0.00     0.175 C 
ATOM     27  C   UNL     1      44.139 131.231  16.991  1.00  0.00     0.053 C 
BRANCH  26  28
ATOM     28  C   UNL     1      46.492 130.959  16.129  1.00  0.00     0.048 C 
BRANCH  28  29
ATOM     29  C   UNL     1      46.061 131.365  14.695  1.00  0.00    -0.014 C 
ATOM     30  C   UNL     1      44.792 130.640  14.231  1.00  0.00     0.007 C 
ATOM     31  C   UNL     1      47.187 131.214  13.662  1.00  0.00     0.007 C 
ENDBRANCH  28  29
ENDBRANCH  26  28
ENDBRANCH  25  26
ENDBRANCH   1  25
TORSDOF 8
ENDMDL
MODEL 6
REMARK VINA RESULT:      -4.9      1.353      2.152
REMARK SMILES CC(C)C[C@H](C)OC(=O)n1[nH]c(-c2ccc3[nH]ccc3c2)c/c(=N\N)c1=O
REMARK SMILES IDX 8 1 9 2 10 3 12 4 22 5 11 6 23 7 26 8 27 10 13 11 14 12
REMARK SMILES IDX 15 13 21 14 16 15 20 16 17 17 19 18 18 19 24 21 25 22 7 25
REMARK SMILES IDX 5 26 6 27 4 28 2 29 1 30 3 31
REMARK H PARENT 11 9 17 20 25 23 25 24
ROOT
ATOM      1  C   UNL     1      45.555 130.744  19.184  1.00  0.00     0.436 C 
ATOM      2  O   UNL     1      46.631 130.251  18.743  1.00  0.00    -0.222 OA
ENDROOT
BRANCH   1   3
ATOM      3  N   UNL     1      45.091 130.394  20.510  1.00  0.00    -0.148 N 
ATOM      4  C   UNL     1      44.847 128.727  22.177  1.00  0.00     0.065 A 
ATOM      5  C   UNL     1      44.254 129.655  23.037  1.00  0.00     0.064 A 
ATOM      6  N   UNL     1      45.243 129.130  20.936  1.00  0.00    -0.285 N 
ATOM      7  C   UNL     1      44.064 130.976  22.611  1.00  0.00     0.152 A 
ATOM      8  C   UNL     1      44.501 131.331  21.325  1.00  0.00     0.302 A 
ATOM      9  H   UNL     1      45.675 128.419  20.303  1.00  0.00     0.189 HD
ATOM     10  O   UNL     1      44.329 132.517  20.926  1.00  0.00    -0.265 OA
BRANCH   4  11
ATOM     11  C   UNL     1      45.061 127.325  22.615  1.00  0.00     0.000 A 
ATOM     12  C   UNL     1      46.292 126.666  22.349  1.00  0.00     0.012 A 
ATOM     13  C   UNL     1      46.503 125.338  22.762  1.00  0.00     0.027 A 
ATOM     14  C   UNL     1      44.039 126.634  23.306  1.00  0.00     0.020 A 
ATOM     15  C   UNL     1      45.470 124.695  23.437  1.00  0.00     0.045 A 
ATOM     16  C   UNL     1      44.282 125.320  23.699  1.00  0.00     0.000 A 
ATOM     17  N   UNL     1      45.462 123.438  23.913  1.00  0.00    -0.361 N 
ATOM     18  C   UNL     1      43.481 124.421  24.370  1.00  0.00     0.028 A 
ATOM     19  C   UNL     1      44.248 123.267  24.483  1.00  0.00     0.083 A 
ATOM     20  H   UNL     1      46.232 122.735  23.854  1.00  0.00     0.166 HD
ENDBRANCH   4  11
BRANCH   7  21
ATOM     21  N   UNL     1      43.513 131.892  23.363  1.00  0.00    -0.177 NA
BRANCH  21  22
ATOM     22  N   UNL     1      42.860 131.674  24.589  1.00  0.00    -0.323 N 
ATOM     23  H   UNL     1      42.639 130.696  24.874  1.00  0.00     0.179 HD
ATOM     24  H   UNL     1      42.694 132.429  25.289  1.00  0.00     0.179 HD
ENDBRANCH  21  22
ENDBRANCH   7  21
ENDBRANCH   1   3
BRANCH   1  25
ATOM     25  O   UNL     1      44.834 131.650  18.395  1.00  0.00    -0.445 OA
BRANCH  25  26
ATOM     26  C   UNL     1      43.810 131.269  17.476  1.00  0.00     0.175 C 
ATOM     27  C   UNL     1      42.463 131.815  17.960  1.00  0.00     0.053 C 
BRANCH  26  28
ATOM     28  C   UNL     1      44.136 131.831  16.076  1.00  0.00     0.048 C 
BRANCH  28  29
ATOM     29  C   UNL     1      44.993 130.912  15.167  1.00  0.00    -0.014 C 
ATOM     30  C   UNL     1      45.085 129.476  15.699  1.00  0.00     0.007 C 
ATOM     31  C   UNL     1      46.390 131.480  14.881  1.00  0.00     0.007 C 
ENDBRANCH  28  29
ENDBRANCH  26  28
ENDBRANCH  25  26
ENDBRANCH   1  25
TORSDOF 8
ENDMDL
MODEL 7
REMARK VINA RESULT:      -4.7      2.973      7.180
REMARK SMILES CC(C)C[C@H](C)OC(=O)n1[nH]c(-c2ccc3[nH]ccc3c2)c/c(=N\N)c1=O
REMARK SMILES IDX 8 1 9 2 10 3 12 4 22 5 11 6 23 7 26 8 27 10 13 11 14 12
REMARK SMILES IDX 15 13 21 14 16 15 20 16 17 17 19 18 18 19 24 21 25 22 7 25
REMARK SMILES IDX 5 26 6 27 4 28 2 29 1 30 3 31
REMARK H PARENT 11 9 17 20 25 23 25 24
ROOT
ATOM      1  C   UNL     1      44.505 129.355  23.046  1.00  0.00     0.436 C 
ATOM      2  O   UNL     1      44.710 129.794  24.212  1.00  0.00    -0.222 OA
ENDROOT
BRANCH   1   3
ATOM      3  N   UNL     1      44.132 130.269  21.986  1.00  0.00    -0.148 N 
ATOM      4  C   UNL     1      44.456 130.993  19.753  1.00  0.00     0.065 A 
ATOM      5  C   UNL     1      43.459 131.959  19.908  1.00  0.00     0.064 A 
ATOM      6  N   UNL     1      44.762 130.180  20.805  1.00  0.00    -0.285 N 
ATOM      7  C   UNL     1      42.799 132.088  21.137  1.00  0.00     0.152 A 
ATOM      8  C   UNL     1      43.153 131.215  22.178  1.00  0.00     0.302 A 
ATOM      9  H   UNL     1      45.518 129.470  20.673  1.00  0.00     0.189 HD
ATOM     10  O   UNL     1      42.572 131.325  23.294  1.00  0.00    -0.265 OA
BRANCH   4  11
ATOM     11  C   UNL     1      45.160 130.839  18.456  1.00  0.00     0.000 A 
ATOM     12  C   UNL     1      45.969 129.697  18.204  1.00  0.00     0.012 A 
ATOM     13  C   UNL     1      46.637 129.544  16.976  1.00  0.00     0.027 A 
ATOM     14  C   UNL     1      45.029 131.831  17.456  1.00  0.00     0.020 A 
ATOM     15  C   UNL     1      46.483 130.544  16.021  1.00  0.00     0.045 A 
ATOM     16  C   UNL     1      45.707 131.647  16.253  1.00  0.00     0.000 A 
ATOM     17  N   UNL     1      47.030 130.596  14.796  1.00  0.00    -0.361 N 
ATOM     18  C   UNL     1      45.765 132.437  15.126  1.00  0.00     0.028 A 
ATOM     19  C   UNL     1      46.594 131.752  14.244  1.00  0.00     0.083 A 
ATOM     20  H   UNL     1      47.664 129.892  14.356  1.00  0.00     0.166 HD
ENDBRANCH   4  11
BRANCH   7  21
ATOM     21  N   UNL     1      41.861 132.972  21.350  1.00  0.00    -0.177 NA
BRANCH  21  22
ATOM     22  N   UNL     1      40.910 133.414  20.413  1.00  0.00    -0.323 N 
ATOM     23  H   UNL     1      41.084 133.236  19.400  1.00  0.00     0.179 HD
ATOM     24  H   UNL     1      39.981 133.801  20.682  1.00  0.00     0.179 HD
ENDBRANCH  21  22
ENDBRANCH   7  21
ENDBRANCH   1   3
BRANCH   1  25
ATOM     25  O   UNL     1      44.671 127.989  22.781  1.00  0.00    -0.445 OA
BRANCH  25  26
ATOM     26  C   UNL     1      44.360 126.953  23.713  1.00  0.00     0.175 C 
ATOM     27  C   UNL     1      45.567 126.708  24.624  1.00  0.00     0.053 C 
BRANCH  26  28
ATOM     28  C   UNL     1      43.136 127.368  24.558  1.00  0.00     0.048 C 
BRANCH  28  29
ATOM     29  C   UNL     1      41.789 126.717  24.149  1.00  0.00    -0.014 C 
ATOM     30  C   UNL     1      41.971 125.530  23.195  1.00  0.00     0.007 C 
ATOM     31  C   UNL     1      40.779 127.725  23.583  1.00  0.00     0.007 C 
ENDBRANCH  28  29
ENDBRANCH  26  28
ENDBRANCH  25  26
ENDBRANCH   1  25
TORSDOF 8
ENDMDL
MODEL 8
REMARK VINA RESULT:      -4.4      4.354      7.082
REMARK SMILES CC(C)C[C@H](C)OC(=O)n1[nH]c(-c2ccc3[nH]ccc3c2)c/c(=N\N)c1=O
REMARK SMILES IDX 8 1 9 2 10 3 12 4 22 5 11 6 23 7 26 8 27 10 13 11 14 12
REMARK SMILES IDX 15 13 21 14 16 15 20 16 17 17 19 18 18 19 24 21 25 22 7 25
REMARK SMILES IDX 5 26 6 27 4 28 2 29 1 30 3 31
REMARK H PARENT 11 9 17 20 25 23 25 24
ROOT
ATOM      1  C   UNL     1      45.574 130.737  19.203  1.00  0.00     0.436 C 
ATOM      2  O   UNL     1      45.672 129.478  19.177  1.00  0.00    -0.222 OA
ENDROOT
BRANCH   1   3
ATOM      3  N   UNL     1      45.602 131.437  20.470  1.00  0.00    -0.148 N 
ATOM      4  C   UNL     1      46.694 133.002  21.876  1.00  0.00     0.065 A 
ATOM      5  C   UNL     1      45.712 132.829  22.854  1.00  0.00     0.064 A 
ATOM      6  N   UNL     1      46.607 132.293  20.714  1.00  0.00    -0.285 N 
ATOM      7  C   UNL     1      44.662 131.927  22.635  1.00  0.00     0.152 A 
ATOM      8  C   UNL     1      44.623 131.233  21.414  1.00  0.00     0.302 A 
ATOM      9  H   UNL     1      47.356 132.428  19.999  1.00  0.00     0.189 HD
ATOM     10  O   UNL     1      43.688 130.411  21.207  1.00  0.00    -0.265 OA
BRANCH   4  11
ATOM     11  C   UNL     1      47.808 133.959  22.089  1.00  0.00     0.000 A 
ATOM     12  C   UNL     1      48.757 133.742  23.125  1.00  0.00     0.012 A 
ATOM     13  C   UNL     1      49.817 134.642  23.333  1.00  0.00     0.027 A 
ATOM     14  C   UNL     1      47.936 135.096  21.258  1.00  0.00     0.020 A 
ATOM     15  C   UNL     1      49.904 135.749  22.493  1.00  0.00     0.045 A 
ATOM     16  C   UNL     1      48.997 135.967  21.493  1.00  0.00     0.000 A 
ATOM     17  N   UNL     1      50.828 136.724  22.520  1.00  0.00    -0.361 N 
ATOM     18  C   UNL     1      49.358 137.134  20.856  1.00  0.00     0.028 A 
ATOM     19  C   UNL     1      50.498 137.574  21.521  1.00  0.00     0.083 A 
ATOM     20  H   UNL     1      51.635 136.813  23.177  1.00  0.00     0.166 HD
ENDBRANCH   4  11
BRANCH   7  21
ATOM     21  N   UNL     1      43.714 131.715  23.508  1.00  0.00    -0.177 NA
BRANCH  21  22
ATOM     22  N   UNL     1      42.365 132.090  23.375  1.00  0.00    -0.323 N 
ATOM     23  H   UNL     1      41.625 131.387  23.585  1.00  0.00     0.179 HD
ATOM     24  H   UNL     1      42.061 133.070  23.196  1.00  0.00     0.179 HD
ENDBRANCH  21  22
ENDBRANCH   7  21
ENDBRANCH   1   3
BRANCH   1  25
ATOM     25  O   UNL     1      45.470 131.448  18.000  1.00  0.00    -0.445 OA
BRANCH  25  26
ATOM     26  C   UNL     1      44.513 131.156  16.982  1.00  0.00     0.175 C 
ATOM     27  C   UNL     1      43.166 131.783  17.355  1.00  0.00     0.053 C 
BRANCH  26  28
ATOM     28  C   UNL     1      45.004 131.723  15.633  1.00  0.00     0.048 C 
BRANCH  28  29
ATOM     29  C   UNL     1      45.505 130.672  14.607  1.00  0.00    -0.014 C 
ATOM     30  C   UNL     1      45.654 129.273  15.219  1.00  0.00     0.007 C 
ATOM     31  C   UNL     1      46.793 131.096  13.889  1.00  0.00     0.007 C 
ENDBRANCH  28  29
ENDBRANCH  26  28
ENDBRANCH  25  26
ENDBRANCH   1  25
TORSDOF 8
ENDMDL
MODEL 9
REMARK VINA RESULT:      -4.2      4.516      7.029
REMARK SMILES CC(C)C[C@H](C)OC(=O)n1[nH]c(-c2ccc3[nH]ccc3c2)c/c(=N\N)c1=O
REMARK SMILES IDX 8 1 9 2 10 3 12 4 22 5 11 6 23 7 26 8 27 10 13 11 14 12
REMARK SMILES IDX 15 13 21 14 16 15 20 16 17 17 19 18 18 19 24 21 25 22 7 25
REMARK SMILES IDX 5 26 6 27 4 28 2 29 1 30 3 31
REMARK H PARENT 11 9 17 20 25 23 25 24
ROOT
ATOM      1  C   UNL     1      44.718 131.598  19.074  1.00  0.00     0.436 C 
ATOM      2  O   UNL     1      43.534 131.770  18.668  1.00  0.00    -0.222 OA
ENDROOT
BRANCH   1   3
ATOM      3  N   UNL     1      45.066 131.916  20.443  1.00  0.00    -0.148 N 
ATOM      4  C   UNL     1      46.539 133.022  21.934  1.00  0.00     0.065 A 
ATOM      5  C   UNL     1      45.783 132.586  23.025  1.00  0.00     0.064 A 
ATOM      6  N   UNL     1      46.155 132.666  20.675  1.00  0.00    -0.285 N 
ATOM      7  C   UNL     1      44.653 131.785  22.813  1.00  0.00     0.152 A 
ATOM      8  C   UNL     1      44.304 131.460  21.492  1.00  0.00     0.302 A 
ATOM      9  H   UNL     1      46.739 132.993  19.872  1.00  0.00     0.189 HD
ATOM     10  O   UNL     1      43.293 130.732  21.287  1.00  0.00    -0.265 OA
BRANCH   4  11
ATOM     11  C   UNL     1      47.735 133.877  22.141  1.00  0.00     0.000 A 
ATOM     12  C   UNL     1      48.670 133.574  23.168  1.00  0.00     0.012 A 
ATOM     13  C   UNL     1      49.806 134.377  23.369  1.00  0.00     0.027 A 
ATOM     14  C   UNL     1      47.955 135.001  21.311  1.00  0.00     0.020 A 
ATOM     15  C   UNL     1      49.983 135.475  22.532  1.00  0.00     0.045 A 
ATOM     16  C   UNL     1      49.090 135.775  21.540  1.00  0.00     0.000 A 
ATOM     17  N   UNL     1      50.988 136.366  22.553  1.00  0.00    -0.361 N 
ATOM     18  C   UNL     1      49.546 136.909  20.903  1.00  0.00     0.028 A 
ATOM     19  C   UNL     1      50.725 137.244  21.559  1.00  0.00     0.083 A 
ATOM     20  H   UNL     1      51.806 136.381  23.203  1.00  0.00     0.166 HD
ENDBRANCH   4  11
BRANCH   7  21
ATOM     21  N   UNL     1      43.905 131.341  23.788  1.00  0.00    -0.177 NA
BRANCH  21  22
ATOM     22  N   UNL     1      43.872 130.020  24.271  1.00  0.00    -0.323 N 
ATOM     23  H   UNL     1      42.950 129.544  24.370  1.00  0.00     0.179 HD
ATOM     24  H   UNL     1      44.729 129.447  24.422  1.00  0.00     0.179 HD
ENDBRANCH  21  22
ENDBRANCH   7  21
ENDBRANCH   1   3
BRANCH   1  25
ATOM     25  O   UNL     1      45.678 131.070  18.200  1.00  0.00    -0.445 OA
BRANCH  25  26
ATOM     26  C   UNL     1      45.508 130.986  16.785  1.00  0.00     0.175 C 
ATOM     27  C   UNL     1      45.828 132.345  16.152  1.00  0.00     0.053 C 
BRANCH  26  28
ATOM     28  C   UNL     1      46.449 129.903  16.214  1.00  0.00     0.048 C 
BRANCH  28  29
ATOM     29  C   UNL     1      46.373 129.691  14.680  1.00  0.00    -0.014 C 
ATOM     30  C   UNL     1      47.742 129.805  13.998  1.00  0.00     0.007 C 
ATOM     31  C   UNL     1      45.343 130.600  13.995  1.00  0.00     0.007 C 
ENDBRANCH  28  29
ENDBRANCH  26  28
ENDBRANCH  25  26
ENDBRANCH   1  25
TORSDOF 8
ENDMDL


