MODEL 1
REMARK VINA RESULT:      -9.6      0.000      0.000
REMARK SMILES CC(=O)c1ccc(-c2nccc(C)c2F)c2cn[nH]c12
REMARK SMILES IDX 4 1 5 2 6 3 7 4 16 5 17 6 18 7 19 8 20 9 2 11 1 12 3 13 8 14
REMARK SMILES IDX 9 15 14 16 10 17 12 18 11 19 15 20 13 21
REMARK H PARENT 19 10
ROOT
ATOM      1  C   UNL     1      44.442 131.144  21.217  1.00  0.00     0.043 A 
ATOM      2  C   UNL     1      45.604 130.587  20.631  1.00  0.00     0.015 A 
ATOM      3  C   UNL     1      45.776 130.567  19.230  1.00  0.00     0.012 A 
ATOM      4  C   UNL     1      44.793 131.103  18.370  1.00  0.00     0.014 A 
ATOM      5  C   UNL     1      43.647 131.634  18.974  1.00  0.00     0.030 A 
ATOM      6  C   UNL     1      42.510 132.217  18.451  1.00  0.00     0.144 A 
ATOM      7  N   UNL     1      41.692 132.554  19.474  1.00  0.00    -0.183 NA
ATOM      8  N   UNL     1      42.279 132.212  20.614  1.00  0.00    -0.277 N 
ATOM      9  C   UNL     1      43.476 131.659  20.334  1.00  0.00     0.076 A 
ATOM     10  H   UNL     1      41.842 132.350  21.549  1.00  0.00     0.190 HD
ENDROOT
BRANCH   1  11
ATOM     11  C   UNL     1      44.283 131.187  22.693  1.00  0.00     0.161 C 
ATOM     12  C   UNL     1      43.925 129.959  23.475  1.00  0.00     0.093 C 
ATOM     13  O   UNL     1      44.506 132.255  23.323  1.00  0.00    -0.294 OA
ENDBRANCH   1  11
BRANCH   4  14
ATOM     14  C   UNL     1      44.951 131.058  16.899  1.00  0.00     0.107 A 
ATOM     15  N   UNL     1      44.027 131.676  16.113  1.00  0.00    -0.253 NA
ATOM     16  C   UNL     1      46.034 130.390  16.297  1.00  0.00     0.152 A 
ATOM     17  C   UNL     1      44.111 131.669  14.756  1.00  0.00     0.112 A 
ATOM     18  C   UNL     1      46.134 130.357  14.896  1.00  0.00    -0.012 A 
ATOM     19  C   UNL     1      45.166 131.012  14.124  1.00  0.00     0.026 A 
ATOM     20  F   UNL     1      47.001 129.814  17.059  1.00  0.00    -0.204 F 
ATOM     21  C   UNL     1      47.299 129.678  14.235  1.00  0.00     0.047 C 
ENDBRANCH   4  14
TORSDOF 2
ENDMDL
MODEL 2
REMARK VINA RESULT:      -8.9      2.505      6.121
REMARK SMILES CC(=O)c1ccc(-c2nccc(C)c2F)c2cn[nH]c12
REMARK SMILES IDX 4 1 5 2 6 3 7 4 16 5 17 6 18 7 19 8 20 9 2 11 1 12 3 13 8 14
REMARK SMILES IDX 9 15 14 16 10 17 12 18 11 19 15 20 13 21
REMARK H PARENT 19 10
ROOT
ATOM      1  C   UNL     1      44.732 131.393  17.558  1.00  0.00     0.043 A 
ATOM      2  C   UNL     1      45.800 130.812  18.284  1.00  0.00     0.015 A 
ATOM      3  C   UNL     1      45.703 130.594  19.675  1.00  0.00     0.012 A 
ATOM      4  C   UNL     1      44.537 130.951  20.386  1.00  0.00     0.014 A 
ATOM      5  C   UNL     1      43.502 131.538  19.648  1.00  0.00     0.030 A 
ATOM      6  C   UNL     1      42.255 132.007  20.012  1.00  0.00     0.144 A 
ATOM      7  N   UNL     1      41.642 132.493  18.910  1.00  0.00    -0.183 NA
ATOM      8  N   UNL     1      42.454 132.338  17.872  1.00  0.00    -0.277 N 
ATOM      9  C   UNL     1      43.589 131.748  18.296  1.00  0.00     0.076 A 
ATOM     10  H   UNL     1      42.219 132.652  16.907  1.00  0.00     0.190 HD
ENDROOT
BRANCH   1  11
ATOM     11  C   UNL     1      44.832 131.592  16.090  1.00  0.00     0.161 C 
ATOM     12  C   UNL     1      46.161 131.712  15.408  1.00  0.00     0.093 C 
ATOM     13  O   UNL     1      43.791 131.603  15.381  1.00  0.00    -0.294 OA
ENDBRANCH   1  11
BRANCH   4  14
ATOM     14  C   UNL     1      44.439 130.755  21.850  1.00  0.00     0.107 A 
ATOM     15  N   UNL     1      44.133 131.818  22.643  1.00  0.00    -0.253 NA
ATOM     16  C   UNL     1      44.657 129.495  22.439  1.00  0.00     0.152 A 
ATOM     17  C   UNL     1      44.032 131.708  23.994  1.00  0.00     0.112 A 
ATOM     18  C   UNL     1      44.572 129.359  23.835  1.00  0.00    -0.012 A 
ATOM     19  C   UNL     1      44.248 130.478  24.613  1.00  0.00     0.026 A 
ATOM     20  F   UNL     1      44.906 128.405  21.666  1.00  0.00    -0.204 F 
ATOM     21  C   UNL     1      44.767 128.018  24.479  1.00  0.00     0.047 C 
ENDBRANCH   4  14
TORSDOF 2
ENDMDL
MODEL 3
REMARK VINA RESULT:      -8.6      2.738      6.164
REMARK SMILES CC(=O)c1ccc(-c2nccc(C)c2F)c2cn[nH]c12
REMARK SMILES IDX 4 1 5 2 6 3 7 4 16 5 17 6 18 7 19 8 20 9 2 11 1 12 3 13 8 14
REMARK SMILES IDX 9 15 14 16 10 17 12 18 11 19 15 20 13 21
REMARK H PARENT 19 10
ROOT
ATOM      1  C   UNL     1      46.453 130.365  15.187  1.00  0.00     0.043 A 
ATOM      2  C   UNL     1      46.915 130.138  16.506  1.00  0.00     0.015 A 
ATOM      3  C   UNL     1      46.123 130.480  17.623  1.00  0.00     0.012 A 
ATOM      4  C   UNL     1      44.846 131.059  17.460  1.00  0.00     0.014 A 
ATOM      5  C   UNL     1      44.421 131.286  16.146  1.00  0.00     0.030 A 
ATOM      6  C   UNL     1      43.261 131.831  15.629  1.00  0.00     0.144 A 
ATOM      7  N   UNL     1      43.354 131.833  14.280  1.00  0.00    -0.183 NA
ATOM      8  N   UNL     1      44.521 131.304  13.936  1.00  0.00    -0.277 N 
ATOM      9  C   UNL     1      45.183 130.953  15.056  1.00  0.00     0.076 A 
ATOM     10  H   UNL     1      44.840 131.210  12.949  1.00  0.00     0.190 HD
ENDROOT
BRANCH   1  11
ATOM     11  C   UNL     1      47.281 129.975  14.016  1.00  0.00     0.161 C 
ATOM     12  C   UNL     1      47.593 130.952  12.923  1.00  0.00     0.093 C 
ATOM     13  O   UNL     1      47.785 128.823  13.954  1.00  0.00    -0.294 OA
ENDBRANCH   1  11
BRANCH   4  14
ATOM     14  C   UNL     1      44.024 131.448  18.627  1.00  0.00     0.107 A 
ATOM     15  N   UNL     1      42.805 132.019  18.419  1.00  0.00    -0.253 NA
ATOM     16  C   UNL     1      44.474 131.244  19.944  1.00  0.00     0.152 A 
ATOM     17  C   UNL     1      42.002 132.403  19.445  1.00  0.00     0.112 A 
ATOM     18  C   UNL     1      43.667 131.646  21.022  1.00  0.00    -0.012 A 
ATOM     19  C   UNL     1      42.417 132.223  20.764  1.00  0.00     0.026 A 
ATOM     20  F   UNL     1      45.660 130.624  20.181  1.00  0.00    -0.204 F 
ATOM     21  C   UNL     1      44.115 131.406  22.435  1.00  0.00     0.047 C 
ENDBRANCH   4  14
TORSDOF 2
ENDMDL
MODEL 4
REMARK VINA RESULT:      -8.5      2.097      2.957
REMARK SMILES CC(=O)c1ccc(-c2nccc(C)c2F)c2cn[nH]c12
REMARK SMILES IDX 4 1 5 2 6 3 7 4 16 5 17 6 18 7 19 8 20 9 2 11 1 12 3 13 8 14
REMARK SMILES IDX 9 15 14 16 10 17 12 18 11 19 15 20 13 21
REMARK H PARENT 19 10
ROOT
ATOM      1  C   UNL     1      43.061 132.055  19.778  1.00  0.00     0.043 A 
ATOM      2  C   UNL     1      42.523 132.070  18.469  1.00  0.00     0.015 A 
ATOM      3  C   UNL     1      43.258 131.569  17.373  1.00  0.00     0.012 A 
ATOM      4  C   UNL     1      44.554 131.038  17.549  1.00  0.00     0.014 A 
ATOM      5  C   UNL     1      45.069 131.049  18.851  1.00  0.00     0.030 A 
ATOM      6  C   UNL     1      46.276 130.627  19.373  1.00  0.00     0.144 A 
ATOM      7  N   UNL     1      46.277 130.873  20.702  1.00  0.00    -0.183 NA
ATOM      8  N   UNL     1      45.114 131.424  21.030  1.00  0.00    -0.277 N 
ATOM      9  C   UNL     1      44.358 131.530  19.920  1.00  0.00     0.076 A 
ATOM     10  H   UNL     1      44.874 131.725  21.999  1.00  0.00     0.190 HD
ENDROOT
BRANCH   1  11
ATOM     11  C   UNL     1      42.269 132.556  20.930  1.00  0.00     0.161 C 
ATOM     12  C   UNL     1      41.112 133.488  20.734  1.00  0.00     0.093 C 
ATOM     13  O   UNL     1      42.526 132.156  22.097  1.00  0.00    -0.294 OA
ENDBRANCH   1  11
BRANCH   4  14
ATOM     14  C   UNL     1      45.343 130.540  16.400  1.00  0.00     0.107 A 
ATOM     15  N   UNL     1      45.342 129.207  16.123  1.00  0.00    -0.253 NA
ATOM     16  C   UNL     1      46.094 131.413  15.591  1.00  0.00     0.152 A 
ATOM     17  C   UNL     1      46.049 128.684  15.086  1.00  0.00     0.112 A 
ATOM     18  C   UNL     1      46.844 130.894  14.522  1.00  0.00    -0.012 A 
ATOM     19  C   UNL     1      46.809 129.517  14.267  1.00  0.00     0.026 A 
ATOM     20  F   UNL     1      46.067 132.755  15.810  1.00  0.00    -0.204 F 
ATOM     21  C   UNL     1      47.624 131.812  13.627  1.00  0.00     0.047 C 
ENDBRANCH   4  14
TORSDOF 2
ENDMDL
MODEL 5
REMARK VINA RESULT:      -8.3      1.486      1.747
REMARK SMILES CC(=O)c1ccc(-c2nccc(C)c2F)c2cn[nH]c12
REMARK SMILES IDX 4 1 5 2 6 3 7 4 16 5 17 6 18 7 19 8 20 9 2 11 1 12 3 13 8 14
REMARK SMILES IDX 9 15 14 16 10 17 12 18 11 19 15 20 13 21
REMARK H PARENT 19 10
ROOT
ATOM      1  C   UNL     1      43.946 131.499  20.759  1.00  0.00     0.043 A 
ATOM      2  C   UNL     1      45.192 130.838  20.651  1.00  0.00     0.015 A 
ATOM      3  C   UNL     1      45.730 130.496  19.391  1.00  0.00     0.012 A 
ATOM      4  C   UNL     1      45.038 130.804  18.199  1.00  0.00     0.014 A 
ATOM      5  C   UNL     1      43.801 131.444  18.335  1.00  0.00     0.030 A 
ATOM      6  C   UNL     1      42.874 131.874  17.406  1.00  0.00     0.144 A 
ATOM      7  N   UNL     1      41.832 132.428  18.065  1.00  0.00    -0.183 NA
ATOM      8  N   UNL     1      42.077 132.367  19.369  1.00  0.00    -0.277 N 
ATOM      9  C   UNL     1      43.276 131.782  19.556  1.00  0.00     0.076 A 
ATOM     10  H   UNL     1      41.414 132.712  20.094  1.00  0.00     0.190 HD
ENDROOT
BRANCH   1  11
ATOM     11  C   UNL     1      43.402 131.881  22.088  1.00  0.00     0.161 C 
ATOM     12  C   UNL     1      44.164 131.609  23.349  1.00  0.00     0.093 C 
ATOM     13  O   UNL     1      42.307 132.498  22.170  1.00  0.00    -0.294 OA
ENDBRANCH   1  11
BRANCH   4  14
ATOM     14  C   UNL     1      45.580 130.421  16.876  1.00  0.00     0.107 A 
ATOM     15  N   UNL     1      45.531 129.116  16.491  1.00  0.00    -0.253 NA
ATOM     16  C   UNL     1      46.144 131.375  16.009  1.00  0.00     0.152 A 
ATOM     17  C   UNL     1      46.014 128.697  15.292  1.00  0.00     0.112 A 
ATOM     18  C   UNL     1      46.663 130.964  14.770  1.00  0.00    -0.012 A 
ATOM     19  C   UNL     1      46.587 129.612  14.410  1.00  0.00     0.026 A 
ATOM     20  F   UNL     1      46.153 132.693  16.343  1.00  0.00    -0.204 F 
ATOM     21  C   UNL     1      47.239 131.971  13.817  1.00  0.00     0.047 C 
ENDBRANCH   4  14
TORSDOF 2
ENDMDL
MODEL 6
REMARK VINA RESULT:      -7.8      1.367      1.871
REMARK SMILES CC(=O)c1ccc(-c2nccc(C)c2F)c2cn[nH]c12
REMARK SMILES IDX 4 1 5 2 6 3 7 4 16 5 17 6 18 7 19 8 20 9 2 11 1 12 3 13 8 14
REMARK SMILES IDX 9 15 14 16 10 17 12 18 11 19 15 20 13 21
REMARK H PARENT 19 10
ROOT
ATOM      1  C   UNL     1      44.173 131.178  21.601  1.00  0.00     0.043 A 
ATOM      2  C   UNL     1      45.339 130.553  21.097  1.00  0.00     0.015 A 
ATOM      3  C   UNL     1      45.617 130.536  19.714  1.00  0.00     0.012 A 
ATOM      4  C   UNL     1      44.739 131.141  18.789  1.00  0.00     0.014 A 
ATOM      5  C   UNL     1      43.586 131.739  19.312  1.00  0.00     0.030 A 
ATOM      6  C   UNL     1      42.531 132.398  18.712  1.00  0.00     0.144 A 
ATOM      7  N   UNL     1      41.660 132.777  19.674  1.00  0.00    -0.183 NA
ATOM      8  N   UNL     1      42.135 132.387  20.851  1.00  0.00    -0.277 N 
ATOM      9  C   UNL     1      43.313 131.762  20.655  1.00  0.00     0.076 A 
ATOM     10  H   UNL     1      41.637 132.545  21.752  1.00  0.00     0.190 HD
ENDROOT
BRANCH   1  11
ATOM     11  C   UNL     1      43.905 131.218  23.062  1.00  0.00     0.161 C 
ATOM     12  C   UNL     1      44.247 130.059  23.949  1.00  0.00     0.093 C 
ATOM     13  O   UNL     1      43.433 132.259  23.590  1.00  0.00    -0.294 OA
ENDBRANCH   1  11
BRANCH   4  14
ATOM     14  C   UNL     1      45.006 131.100  17.334  1.00  0.00     0.107 A 
ATOM     15  N   UNL     1      46.239 130.720  16.897  1.00  0.00    -0.253 NA
ATOM     16  C   UNL     1      44.017 131.445  16.394  1.00  0.00     0.152 A 
ATOM     17  C   UNL     1      46.552 130.665  15.575  1.00  0.00     0.112 A 
ATOM     18  C   UNL     1      44.322 131.409  15.023  1.00  0.00    -0.012 A 
ATOM     19  C   UNL     1      45.600 131.006  14.616  1.00  0.00     0.026 A 
ATOM     20  F   UNL     1      42.762 131.772  16.801  1.00  0.00    -0.204 F 
ATOM     21  C   UNL     1      43.271 131.742  14.005  1.00  0.00     0.047 C 
ENDBRANCH   4  14
TORSDOF 2
ENDMDL
MODEL 7
REMARK VINA RESULT:      -7.8      3.143      6.461
REMARK SMILES CC(=O)c1ccc(-c2nccc(C)c2F)c2cn[nH]c12
REMARK SMILES IDX 4 1 5 2 6 3 7 4 16 5 17 6 18 7 19 8 20 9 2 11 1 12 3 13 8 14
REMARK SMILES IDX 9 15 14 16 10 17 12 18 11 19 15 20 13 21
REMARK H PARENT 19 10
ROOT
ATOM      1  C   UNL     1      46.761 130.921  14.444  1.00  0.00     0.043 A 
ATOM      2  C   UNL     1      46.612 132.220  14.985  1.00  0.00     0.015 A 
ATOM      3  C   UNL     1      45.786 132.454  16.105  1.00  0.00     0.012 A 
ATOM      4  C   UNL     1      45.081 131.396  16.721  1.00  0.00     0.014 A 
ATOM      5  C   UNL     1      45.235 130.124  16.157  1.00  0.00     0.030 A 
ATOM      6  C   UNL     1      44.700 128.894  16.489  1.00  0.00     0.144 A 
ATOM      7  N   UNL     1      45.164 127.976  15.611  1.00  0.00    -0.183 NA
ATOM      8  N   UNL     1      45.972 128.583  14.752  1.00  0.00    -0.277 N 
ATOM      9  C   UNL     1      46.039 129.891  15.072  1.00  0.00     0.076 A 
ATOM     10  H   UNL     1      46.444 128.094  13.962  1.00  0.00     0.190 HD
ENDROOT
BRANCH   1  11
ATOM     11  C   UNL     1      47.656 130.680  13.283  1.00  0.00     0.161 C 
ATOM     12  C   UNL     1      48.678 129.584  13.301  1.00  0.00     0.093 C 
ATOM     13  O   UNL     1      47.528 131.364  12.233  1.00  0.00    -0.294 OA
ENDBRANCH   1  11
BRANCH   4  14
ATOM     14  C   UNL     1      44.189 131.638  17.876  1.00  0.00     0.107 A 
ATOM     15  N   UNL     1      42.897 132.005  17.651  1.00  0.00    -0.253 NA
ATOM     16  C   UNL     1      44.645 131.497  19.200  1.00  0.00     0.152 A 
ATOM     17  C   UNL     1      42.026 132.246  18.666  1.00  0.00     0.112 A 
ATOM     18  C   UNL     1      43.767 131.755  20.266  1.00  0.00    -0.012 A 
ATOM     19  C   UNL     1      42.445 132.124  19.990  1.00  0.00     0.026 A 
ATOM     20  F   UNL     1      45.913 131.076  19.453  1.00  0.00    -0.204 F 
ATOM     21  C   UNL     1      44.226 131.578  21.684  1.00  0.00     0.047 C 
ENDBRANCH   4  14
TORSDOF 2
ENDMDL
MODEL 8
REMARK VINA RESULT:      -7.4      2.672      6.316
REMARK SMILES CC(=O)c1ccc(-c2nccc(C)c2F)c2cn[nH]c12
REMARK SMILES IDX 4 1 5 2 6 3 7 4 16 5 17 6 18 7 19 8 20 9 2 11 1 12 3 13 8 14
REMARK SMILES IDX 9 15 14 16 10 17 12 18 11 19 15 20 13 21
REMARK H PARENT 19 10
ROOT
ATOM      1  C   UNL     1      45.066 131.069  17.665  1.00  0.00     0.043 A 
ATOM      2  C   UNL     1      45.976 130.596  18.641  1.00  0.00     0.015 A 
ATOM      3  C   UNL     1      45.663 130.649  20.016  1.00  0.00     0.012 A 
ATOM      4  C   UNL     1      44.431 131.176  20.461  1.00  0.00     0.014 A 
ATOM      5  C   UNL     1      43.555 131.650  19.477  1.00  0.00     0.030 A 
ATOM      6  C   UNL     1      42.301 132.224  19.552  1.00  0.00     0.144 A 
ATOM      7  N   UNL     1      41.889 132.516  18.299  1.00  0.00    -0.183 NA
ATOM      8  N   UNL     1      42.832 132.138  17.445  1.00  0.00    -0.277 N 
ATOM      9  C   UNL     1      43.852 131.598  18.140  1.00  0.00     0.076 A 
ATOM     10  H   UNL     1      42.761 132.273  16.414  1.00  0.00     0.190 HD
ENDROOT
BRANCH   1  11
ATOM     11  C   UNL     1      45.391 130.982  16.218  1.00  0.00     0.161 C 
ATOM     12  C   UNL     1      46.360 129.965  15.697  1.00  0.00     0.093 C 
ATOM     13  O   UNL     1      44.807 131.733  15.393  1.00  0.00    -0.294 OA
ENDBRANCH   1  11
BRANCH   4  14
ATOM     14  C   UNL     1      44.109 131.263  21.903  1.00  0.00     0.107 A 
ATOM     15  N   UNL     1      44.754 132.182  22.673  1.00  0.00    -0.253 NA
ATOM     16  C   UNL     1      43.151 130.418  22.494  1.00  0.00     0.152 A 
ATOM     17  C   UNL     1      44.509 132.311  24.003  1.00  0.00     0.112 A 
ATOM     18  C   UNL     1      42.891 130.523  23.871  1.00  0.00    -0.012 A 
ATOM     19  C   UNL     1      43.572 131.487  24.625  1.00  0.00     0.026 A 
ATOM     20  F   UNL     1      42.450 129.532  21.739  1.00  0.00    -0.204 F 
ATOM     21  C   UNL     1      41.849 129.654  24.514  1.00  0.00     0.047 C 
ENDBRANCH   4  14
TORSDOF 2
ENDMDL
MODEL 9
REMARK VINA RESULT:      -7.3      2.786      6.275
REMARK SMILES CC(=O)c1ccc(-c2nccc(C)c2F)c2cn[nH]c12
REMARK SMILES IDX 4 1 5 2 6 3 7 4 16 5 17 6 18 7 19 8 20 9 2 11 1 12 3 13 8 14
REMARK SMILES IDX 9 15 14 16 10 17 12 18 11 19 15 20 13 21
REMARK H PARENT 19 10
ROOT
ATOM      1  C   UNL     1      44.845 131.348  17.189  1.00  0.00     0.043 A 
ATOM      2  C   UNL     1      45.894 130.746  17.924  1.00  0.00     0.015 A 
ATOM      3  C   UNL     1      45.758 130.477  19.302  1.00  0.00     0.012 A 
ATOM      4  C   UNL     1      44.569 130.801  19.992  1.00  0.00     0.014 A 
ATOM      5  C   UNL     1      43.553 131.409  19.245  1.00  0.00     0.030 A 
ATOM      6  C   UNL     1      42.293 131.858  19.590  1.00  0.00     0.144 A 
ATOM      7  N   UNL     1      41.709 132.381  18.489  1.00  0.00    -0.183 NA
ATOM      8  N   UNL     1      42.553 132.269  17.470  1.00  0.00    -0.277 N 
ATOM      9  C   UNL     1      43.678 131.670  17.905  1.00  0.00     0.076 A 
ATOM     10  H   UNL     1      42.344 132.617  16.510  1.00  0.00     0.190 HD
ENDROOT
BRANCH   1  11
ATOM     11  C   UNL     1      44.986 131.601  15.732  1.00  0.00     0.161 C 
ATOM     12  C   UNL     1      46.332 131.784  15.100  1.00  0.00     0.093 C 
ATOM     13  O   UNL     1      43.968 131.607  14.990  1.00  0.00    -0.294 OA
ENDBRANCH   1  11
BRANCH   4  14
ATOM     14  C   UNL     1      44.430 130.551  21.444  1.00  0.00     0.107 A 
ATOM     15  N   UNL     1      44.825 129.350  21.951  1.00  0.00    -0.253 NA
ATOM     16  C   UNL     1      43.898 131.524  22.310  1.00  0.00     0.152 A 
ATOM     17  C   UNL     1      44.721 129.054  23.274  1.00  0.00     0.112 A 
ATOM     18  C   UNL     1      43.768 131.236  23.679  1.00  0.00    -0.012 A 
ATOM     19  C   UNL     1      44.192 129.991  24.160  1.00  0.00     0.026 A 
ATOM     20  F   UNL     1      43.550 132.751  21.840  1.00  0.00    -0.204 F 
ATOM     21  C   UNL     1      43.234 132.273  24.624  1.00  0.00     0.047 C 
ENDBRANCH   4  14
TORSDOF 2
ENDMDL


