MODEL 1
REMARK VINA RESULT:      -7.2      0.000      0.000
REMARK SMILES N/[NH+]=c1\cccc2cc(-c3ccc(O)cc3)c3c[nH][nH]c3c12
REMARK SMILES IDX 9 1 8 2 7 3 6 4 5 5 4 6 3 7 22 8 21 9 17 10 18 11 19 12
REMARK SMILES IDX 20 14 10 16 13 17 12 18 15 19 11 20 16 21 14 22 2 24 1 26
REMARK H PARENT 19 13 20 15 14 23 2 25 1 27 1 28
ROOT
ATOM      1  C   UNL     1      44.868 131.235  17.995  1.00  0.00    -0.007 A 
ATOM      2  C   UNL     1      45.562 131.149  19.218  1.00  0.00     0.018 A 
ATOM      3  C   UNL     1      44.930 131.474  20.442  1.00  0.00    -0.009 A 
ATOM      4  C   UNL     1      45.678 131.459  21.624  1.00  0.00     0.009 A 
ATOM      5  C   UNL     1      45.085 131.797  22.834  1.00  0.00     0.008 A 
ATOM      6  C   UNL     1      43.719 132.068  22.902  1.00  0.00     0.082 A 
ATOM      7  C   UNL     1      42.908 132.024  21.745  1.00  0.00     0.236 A 
ATOM      8  C   UNL     1      43.548 131.839  20.479  1.00  0.00     0.081 A 
ATOM      9  C   UNL     1      42.921 132.023  19.224  1.00  0.00     0.078 A 
ATOM     10  C   UNL     1      43.554 131.705  18.043  1.00  0.00     0.026 A 
ATOM     11  C   UNL     1      42.708 132.127  17.034  1.00  0.00     0.112 A 
ATOM     12  N   UNL     1      41.636 132.703  17.613  1.00  0.00    -0.307 N 
ATOM     13  H   UNL     1      40.853 133.179  17.113  1.00  0.00     0.187 HD
ATOM     14  N   UNL     1      41.767 132.661  18.931  1.00  0.00    -0.300 N 
ATOM     15  H   UNL     1      41.127 133.167  19.582  1.00  0.00     0.188 HD
ENDROOT
BRANCH   1  16
ATOM     16  C   UNL     1      45.542 130.909  16.714  1.00  0.00    -0.017 A 
ATOM     17  C   UNL     1      46.838 130.287  14.296  1.00  0.00     0.115 A 
ATOM     18  C   UNL     1      46.603 131.623  14.644  1.00  0.00     0.047 A 
ATOM     19  C   UNL     1      46.430 129.264  15.158  1.00  0.00     0.047 A 
ATOM     20  C   UNL     1      45.961 131.933  15.847  1.00  0.00     0.012 A 
ATOM     21  C   UNL     1      45.787 129.570  16.361  1.00  0.00     0.012 A 
BRANCH  17  22
ATOM     22  O   UNL     1      47.476 129.966  13.100  1.00  0.00    -0.508 OA
ATOM     23  H   UNL     1      48.484 130.014  13.009  1.00  0.00     0.293 HD
ENDBRANCH  17  22
ENDBRANCH   1  16
BRANCH   7  24
ATOM     24  N   UNL     1      41.599 132.004  21.853  1.00  0.00    -0.132 N 
ATOM     25  H   UNL     1      41.110 131.122  22.116  1.00  0.00     0.488 HD
BRANCH  24  26
ATOM     26  N   UNL     1      40.790 133.150  21.754  1.00  0.00    -0.212 NA
ATOM     27  H   UNL     1      39.751 133.089  21.675  1.00  0.00     0.228 HD
ATOM     28  H   UNL     1      41.198 134.085  21.979  1.00  0.00     0.228 HD
ENDBRANCH  24  26
ENDBRANCH   7  24
TORSDOF 4
ENDMDL
MODEL 2
REMARK VINA RESULT:      -7.2      0.042      1.034
REMARK SMILES N/[NH+]=c1\cccc2cc(-c3ccc(O)cc3)c3c[nH][nH]c3c12
REMARK SMILES IDX 9 1 8 2 7 3 6 4 5 5 4 6 3 7 22 8 21 9 17 10 18 11 19 12
REMARK SMILES IDX 20 14 10 16 13 17 12 18 15 19 11 20 16 21 14 22 2 24 1 26
REMARK H PARENT 19 13 20 15 14 23 2 25 1 27 1 28
ROOT
ATOM      1  C   UNL     1      44.891 131.250  17.973  1.00  0.00    -0.007 A 
ATOM      2  C   UNL     1      45.581 131.178  19.199  1.00  0.00     0.018 A 
ATOM      3  C   UNL     1      44.941 131.501  20.419  1.00  0.00    -0.009 A 
ATOM      4  C   UNL     1      45.685 131.502  21.604  1.00  0.00     0.009 A 
ATOM      5  C   UNL     1      45.084 131.838  22.810  1.00  0.00     0.008 A 
ATOM      6  C   UNL     1      43.715 132.094  22.872  1.00  0.00     0.082 A 
ATOM      7  C   UNL     1      42.908 132.034  21.712  1.00  0.00     0.236 A 
ATOM      8  C   UNL     1      43.556 131.850  20.450  1.00  0.00     0.081 A 
ATOM      9  C   UNL     1      42.930 132.021  19.192  1.00  0.00     0.078 A 
ATOM     10  C   UNL     1      43.571 131.705  18.014  1.00  0.00     0.026 A 
ATOM     11  C   UNL     1      42.724 132.112  17.000  1.00  0.00     0.112 A 
ATOM     12  N   UNL     1      41.643 132.678  17.573  1.00  0.00    -0.307 N 
ATOM     13  H   UNL     1      40.856 133.142  17.068  1.00  0.00     0.187 HD
ATOM     14  N   UNL     1      41.770 132.644  18.891  1.00  0.00    -0.300 N 
ATOM     15  H   UNL     1      41.122 133.146  19.537  1.00  0.00     0.188 HD
ENDROOT
BRANCH   1  16
ATOM     16  C   UNL     1      45.573 130.925  16.697  1.00  0.00    -0.017 A 
ATOM     17  C   UNL     1      46.848 130.312  14.265  1.00  0.00     0.115 A 
ATOM     18  C   UNL     1      46.427 129.283  15.117  1.00  0.00     0.047 A 
ATOM     19  C   UNL     1      46.628 131.645  14.626  1.00  0.00     0.047 A 
ATOM     20  C   UNL     1      45.791 129.587  16.324  1.00  0.00     0.012 A 
ATOM     21  C   UNL     1      45.993 131.952  15.833  1.00  0.00     0.012 A 
BRANCH  17  22
ATOM     22  O   UNL     1      47.483 130.022  13.059  1.00  0.00    -0.508 OA
ATOM     23  H   UNL     1      47.601 129.067  12.740  1.00  0.00     0.293 HD
ENDBRANCH  17  22
ENDBRANCH   1  16
BRANCH   7  24
ATOM     24  N   UNL     1      41.600 131.999  21.816  1.00  0.00    -0.132 N 
ATOM     25  H   UNL     1      41.120 131.111  22.075  1.00  0.00     0.488 HD
BRANCH  24  26
ATOM     26  N   UNL     1      40.778 133.137  21.718  1.00  0.00    -0.212 NA
ATOM     27  H   UNL     1      40.760 133.733  20.861  1.00  0.00     0.228 HD
ATOM     28  H   UNL     1      40.014 133.277  22.415  1.00  0.00     0.228 HD
ENDBRANCH  24  26
ENDBRANCH   7  24
TORSDOF 4
ENDMDL
MODEL 3
REMARK VINA RESULT:      -6.9      0.893      1.042
REMARK SMILES N/[NH+]=c1\cccc2cc(-c3ccc(O)cc3)c3c[nH][nH]c3c12
REMARK SMILES IDX 9 1 8 2 7 3 6 4 5 5 4 6 3 7 22 8 21 9 17 10 18 11 19 12
REMARK SMILES IDX 20 14 10 16 13 17 12 18 15 19 11 20 16 21 14 22 2 24 1 26
REMARK H PARENT 19 13 20 15 14 23 2 25 1 27 1 28
ROOT
ATOM      1  C   UNL     1      45.451 130.983  17.192  1.00  0.00    -0.007 A 
ATOM      2  C   UNL     1      46.085 130.905  18.447  1.00  0.00     0.018 A 
ATOM      3  C   UNL     1      45.392 131.228  19.638  1.00  0.00    -0.009 A 
ATOM      4  C   UNL     1      46.081 131.222  20.855  1.00  0.00     0.009 A 
ATOM      5  C   UNL     1      45.427 131.558  22.034  1.00  0.00     0.008 A 
ATOM      6  C   UNL     1      44.058 131.819  22.035  1.00  0.00     0.082 A 
ATOM      7  C   UNL     1      43.304 131.766  20.840  1.00  0.00     0.236 A 
ATOM      8  C   UNL     1      44.007 131.582  19.608  1.00  0.00     0.081 A 
ATOM      9  C   UNL     1      43.440 131.759  18.323  1.00  0.00     0.078 A 
ATOM     10  C   UNL     1      44.132 131.444  17.174  1.00  0.00     0.026 A 
ATOM     11  C   UNL     1      43.334 131.857  16.124  1.00  0.00     0.112 A 
ATOM     12  N   UNL     1      42.230 132.426  16.649  1.00  0.00    -0.307 N 
ATOM     13  H   UNL     1      41.470 132.895  16.110  1.00  0.00     0.187 HD
ATOM     14  N   UNL     1      42.297 132.388  17.972  1.00  0.00    -0.300 N 
ATOM     15  H   UNL     1      41.623 132.891  18.589  1.00  0.00     0.188 HD
ENDROOT
BRANCH   1  16
ATOM     16  C   UNL     1      46.189 130.659  15.947  1.00  0.00    -0.017 A 
ATOM     17  C   UNL     1      47.606 130.045  13.595  1.00  0.00     0.115 A 
ATOM     18  C   UNL     1      47.140 131.348  13.816  1.00  0.00     0.047 A 
ATOM     19  C   UNL     1      47.367 129.052  14.551  1.00  0.00     0.047 A 
ATOM     20  C   UNL     1      46.438 131.654  14.985  1.00  0.00     0.012 A 
ATOM     21  C   UNL     1      46.665 129.355  15.721  1.00  0.00     0.012 A 
BRANCH  17  22
ATOM     22  O   UNL     1      48.306 129.728  12.434  1.00  0.00    -0.508 OA
ATOM     23  H   UNL     1      49.311 129.596  12.441  1.00  0.00     0.293 HD
ENDBRANCH  17  22
ENDBRANCH   1  16
BRANCH   7  24
ATOM     24  N   UNL     1      41.992 131.737  20.884  1.00  0.00    -0.132 N 
ATOM     25  H   UNL     1      41.494 130.828  20.997  1.00  0.00     0.488 HD
BRANCH  24  26
ATOM     26  N   UNL     1      41.186 132.889  20.911  1.00  0.00    -0.212 NA
ATOM     27  H   UNL     1      40.924 133.359  21.806  1.00  0.00     0.228 HD
ATOM     28  H   UNL     1      41.019 133.418  20.027  1.00  0.00     0.228 HD
ENDBRANCH  24  26
ENDBRANCH   7  24
TORSDOF 4
ENDMDL
MODEL 4
REMARK VINA RESULT:      -6.3      1.975      2.927
REMARK SMILES N/[NH+]=c1\cccc2cc(-c3ccc(O)cc3)c3c[nH][nH]c3c12
REMARK SMILES IDX 9 1 8 2 7 3 6 4 5 5 4 6 3 7 22 8 21 9 17 10 18 11 19 12
REMARK SMILES IDX 20 14 10 16 13 17 12 18 15 19 11 20 16 21 14 22 2 24 1 26
REMARK H PARENT 19 13 20 15 14 23 2 25 1 27 1 28
ROOT
ATOM      1  C   UNL     1      44.711 131.318  18.219  1.00  0.00    -0.007 A 
ATOM      2  C   UNL     1      43.501 132.034  18.303  1.00  0.00     0.018 A 
ATOM      3  C   UNL     1      42.863 132.249  19.548  1.00  0.00    -0.009 A 
ATOM      4  C   UNL     1      41.619 132.888  19.579  1.00  0.00     0.009 A 
ATOM      5  C   UNL     1      40.963 133.090  20.787  1.00  0.00     0.008 A 
ATOM      6  C   UNL     1      41.572 132.739  21.990  1.00  0.00     0.082 A 
ATOM      7  C   UNL     1      42.861 132.156  22.014  1.00  0.00     0.236 A 
ATOM      8  C   UNL     1      43.461 131.800  20.765  1.00  0.00     0.081 A 
ATOM      9  C   UNL     1      44.614 130.990  20.629  1.00  0.00     0.078 A 
ATOM     10  C   UNL     1      45.219 130.788  19.408  1.00  0.00     0.026 A 
ATOM     11  C   UNL     1      46.219 129.860  19.628  1.00  0.00     0.112 A 
ATOM     12  N   UNL     1      46.172 129.509  20.929  1.00  0.00    -0.307 N 
ATOM     13  H   UNL     1      46.758 128.776  21.385  1.00  0.00     0.187 HD
ATOM     14  N   UNL     1      45.196 130.171  21.532  1.00  0.00    -0.300 N 
ATOM     15  H   UNL     1      44.884 129.960  22.506  1.00  0.00     0.188 HD
ENDROOT
BRANCH   1  16
ATOM     16  C   UNL     1      45.365 131.082  16.909  1.00  0.00    -0.017 A 
ATOM     17  C   UNL     1      46.625 130.632  14.434  1.00  0.00     0.115 A 
ATOM     18  C   UNL     1      46.394 131.940  14.877  1.00  0.00     0.047 A 
ATOM     19  C   UNL     1      46.231 129.551  15.228  1.00  0.00     0.047 A 
ATOM     20  C   UNL     1      45.770 132.165  16.108  1.00  0.00     0.012 A 
ATOM     21  C   UNL     1      45.607 129.772  16.459  1.00  0.00     0.012 A 
BRANCH  17  22
ATOM     22  O   UNL     1      47.245 130.396  13.209  1.00  0.00    -0.508 OA
ATOM     23  H   UNL     1      46.907 129.683  12.573  1.00  0.00     0.293 HD
ENDBRANCH  17  22
ENDBRANCH   1  16
BRANCH   7  24
ATOM     24  N   UNL     1      43.537 132.086  23.137  1.00  0.00    -0.132 N 
ATOM     25  H   UNL     1      44.134 132.885  23.438  1.00  0.00     0.488 HD
BRANCH  24  26
ATOM     26  N   UNL     1      43.417 131.027  24.055  1.00  0.00    -0.212 NA
ATOM     27  H   UNL     1      43.816 131.082  25.018  1.00  0.00     0.228 HD
ATOM     28  H   UNL     1      42.737 130.258  23.863  1.00  0.00     0.228 HD
ENDBRANCH  24  26
ENDBRANCH   7  24
TORSDOF 4
ENDMDL
MODEL 5
REMARK VINA RESULT:      -6.2      2.042      3.137
REMARK SMILES N/[NH+]=c1\cccc2cc(-c3ccc(O)cc3)c3c[nH][nH]c3c12
REMARK SMILES IDX 9 1 8 2 7 3 6 4 5 5 4 6 3 7 22 8 21 9 17 10 18 11 19 12
REMARK SMILES IDX 20 14 10 16 13 17 12 18 15 19 11 20 16 21 14 22 2 24 1 26
REMARK H PARENT 19 13 20 15 14 23 2 25 1 27 1 28
ROOT
ATOM      1  C   UNL     1      44.717 131.335  18.469  1.00  0.00    -0.007 A 
ATOM      2  C   UNL     1      43.534 132.095  18.539  1.00  0.00     0.018 A 
ATOM      3  C   UNL     1      42.862 132.294  19.769  1.00  0.00    -0.009 A 
ATOM      4  C   UNL     1      41.644 132.980  19.782  1.00  0.00     0.009 A 
ATOM      5  C   UNL     1      40.956 133.167  20.974  1.00  0.00     0.008 A 
ATOM      6  C   UNL     1      41.510 132.753  22.184  1.00  0.00     0.082 A 
ATOM      7  C   UNL     1      42.774 132.120  22.229  1.00  0.00     0.236 A 
ATOM      8  C   UNL     1      43.402 131.782  20.989  1.00  0.00     0.081 A 
ATOM      9  C   UNL     1      44.527 130.932  20.862  1.00  0.00     0.078 A 
ATOM     10  C   UNL     1      45.164 130.747  19.655  1.00  0.00     0.026 A 
ATOM     11  C   UNL     1      46.121 129.773  19.875  1.00  0.00     0.112 A 
ATOM     12  N   UNL     1      46.017 129.382  21.161  1.00  0.00    -0.307 N 
ATOM     13  H   UNL     1      46.559 128.612  21.611  1.00  0.00     0.187 HD
ATOM     14  N   UNL     1      45.046 130.061  21.755  1.00  0.00    -0.300 N 
ATOM     15  H   UNL     1      44.694 129.830  22.710  1.00  0.00     0.188 HD
ENDROOT
BRANCH   1  16
ATOM     16  C   UNL     1      45.406 131.118  17.174  1.00  0.00    -0.017 A 
ATOM     17  C   UNL     1      46.694 130.705  14.707  1.00  0.00     0.115 A 
ATOM     18  C   UNL     1      46.515 129.636  15.594  1.00  0.00     0.047 A 
ATOM     19  C   UNL     1      46.226 131.977  15.050  1.00  0.00     0.047 A 
ATOM     20  C   UNL     1      45.873 129.840  16.819  1.00  0.00     0.012 A 
ATOM     21  C   UNL     1      45.584 132.184  16.275  1.00  0.00     0.012 A 
BRANCH  17  22
ATOM     22  O   UNL     1      47.332 130.513  13.483  1.00  0.00    -0.508 OA
ATOM     23  H   UNL     1      48.278 130.840  13.323  1.00  0.00     0.293 HD
ENDBRANCH  17  22
ENDBRANCH   1  16
BRANCH   7  24
ATOM     24  N   UNL     1      43.409 131.985  23.371  1.00  0.00    -0.132 N 
ATOM     25  H   UNL     1      44.005 132.761  23.731  1.00  0.00     0.488 HD
BRANCH  24  26
ATOM     26  N   UNL     1      43.242 130.886  24.232  1.00  0.00    -0.212 NA
ATOM     27  H   UNL     1      42.929 131.000  25.220  1.00  0.00     0.228 HD
ATOM     28  H   UNL     1      43.219 129.921  23.831  1.00  0.00     0.228 HD
ENDBRANCH  24  26
ENDBRANCH   7  24
TORSDOF 4
ENDMDL
MODEL 6
REMARK VINA RESULT:      -5.8      3.023      6.292
REMARK SMILES N/[NH+]=c1\cccc2cc(-c3ccc(O)cc3)c3c[nH][nH]c3c12
REMARK SMILES IDX 9 1 8 2 7 3 6 4 5 5 4 6 3 7 22 8 21 9 17 10 18 11 19 12
REMARK SMILES IDX 20 14 10 16 13 17 12 18 15 19 11 20 16 21 14 22 2 24 1 26
REMARK H PARENT 19 13 20 15 14 23 2 25 1 27 1 28
ROOT
ATOM      1  C   UNL     1      44.742 131.372  18.947  1.00  0.00    -0.007 A 
ATOM      2  C   UNL     1      45.778 130.721  18.248  1.00  0.00     0.018 A 
ATOM      3  C   UNL     1      45.754 130.615  16.837  1.00  0.00    -0.009 A 
ATOM      4  C   UNL     1      46.755 129.885  16.188  1.00  0.00     0.009 A 
ATOM      5  C   UNL     1      46.740 129.748  14.805  1.00  0.00     0.008 A 
ATOM      6  C   UNL     1      45.780 130.406  14.039  1.00  0.00     0.082 A 
ATOM      7  C   UNL     1      44.791 131.215  14.645  1.00  0.00     0.236 A 
ATOM      8  C   UNL     1      44.709 131.221  16.073  1.00  0.00     0.081 A 
ATOM      9  C   UNL     1      43.633 131.765  16.816  1.00  0.00     0.078 A 
ATOM     10  C   UNL     1      43.672 131.856  18.190  1.00  0.00     0.026 A 
ATOM     11  C   UNL     1      42.425 132.309  18.576  1.00  0.00     0.112 A 
ATOM     12  N   UNL     1      41.676 132.443  17.464  1.00  0.00    -0.307 N 
ATOM     13  H   UNL     1      40.666 132.704  17.435  1.00  0.00     0.187 HD
ATOM     14  N   UNL     1      42.391 132.098  16.402  1.00  0.00    -0.300 N 
ATOM     15  H   UNL     1      41.978 131.990  15.450  1.00  0.00     0.188 HD
ENDROOT
BRANCH   1  16
ATOM     16  C   UNL     1      44.766 131.465  20.427  1.00  0.00    -0.017 A 
ATOM     17  C   UNL     1      44.797 131.658  23.233  1.00  0.00     0.115 A 
ATOM     18  C   UNL     1      45.828 132.231  22.478  1.00  0.00     0.047 A 
ATOM     19  C   UNL     1      43.750 130.994  22.587  1.00  0.00     0.047 A 
ATOM     20  C   UNL     1      45.812 132.138  21.083  1.00  0.00     0.012 A 
ATOM     21  C   UNL     1      43.732 130.898  21.192  1.00  0.00     0.012 A 
BRANCH  17  22
ATOM     22  O   UNL     1      44.802 131.745  24.624  1.00  0.00    -0.508 OA
ATOM     23  H   UNL     1      44.299 131.077  25.197  1.00  0.00     0.293 HD
ENDBRANCH  17  22
ENDBRANCH   1  16
BRANCH   7  24
ATOM     24  N   UNL     1      44.074 132.042  13.920  1.00  0.00    -0.132 N 
ATOM     25  H   UNL     1      44.489 132.938  13.586  1.00  0.00     0.488 HD
BRANCH  24  26
ATOM     26  N   UNL     1      42.784 131.745  13.443  1.00  0.00    -0.212 NA
ATOM     27  H   UNL     1      42.626 131.324  12.501  1.00  0.00     0.228 HD
ATOM     28  H   UNL     1      41.981 131.739  14.110  1.00  0.00     0.228 HD
ENDBRANCH  24  26
ENDBRANCH   7  24
TORSDOF 4
ENDMDL
MODEL 7
REMARK VINA RESULT:      -5.5      1.649      2.200
REMARK SMILES N/[NH+]=c1\cccc2cc(-c3ccc(O)cc3)c3c[nH][nH]c3c12
REMARK SMILES IDX 9 1 8 2 7 3 6 4 5 5 4 6 3 7 22 8 21 9 17 10 18 11 19 12
REMARK SMILES IDX 20 14 10 16 13 17 12 18 15 19 11 20 16 21 14 22 2 24 1 26
REMARK H PARENT 19 13 20 15 14 23 2 25 1 27 1 28
ROOT
ATOM      1  C   UNL     1      44.818 130.775  19.102  1.00  0.00    -0.007 A 
ATOM      2  C   UNL     1      45.405 129.888  20.026  1.00  0.00     0.018 A 
ATOM      3  C   UNL     1      44.877 129.736  21.331  1.00  0.00    -0.009 A 
ATOM      4  C   UNL     1      45.540 128.912  22.246  1.00  0.00     0.009 A 
ATOM      5  C   UNL     1      45.053 128.765  23.539  1.00  0.00     0.008 A 
ATOM      6  C   UNL     1      43.852 129.363  23.916  1.00  0.00     0.082 A 
ATOM      7  C   UNL     1      43.109 130.146  23.002  1.00  0.00     0.236 A 
ATOM      8  C   UNL     1      43.693 130.431  21.728  1.00  0.00     0.081 A 
ATOM      9  C   UNL     1      43.202 131.393  20.814  1.00  0.00     0.078 A 
ATOM     10  C   UNL     1      43.732 131.530  19.550  1.00  0.00     0.026 A 
ATOM     11  C   UNL     1      43.106 132.630  18.993  1.00  0.00     0.112 A 
ATOM     12  N   UNL     1      42.265 133.134  19.918  1.00  0.00    -0.307 N 
ATOM     13  H   UNL     1      41.700 134.006  19.820  1.00  0.00     0.187 HD
ATOM     14  N   UNL     1      42.333 132.407  21.024  1.00  0.00    -0.300 N 
ATOM     15  H   UNL     1      41.876 132.688  21.918  1.00  0.00     0.188 HD
ENDROOT
BRANCH   1  16
ATOM     16  C   UNL     1      45.387 130.942  17.743  1.00  0.00    -0.017 A 
ATOM     17  C   UNL     1      46.446 131.255  15.155  1.00  0.00     0.115 A 
ATOM     18  C   UNL     1      46.552 130.023  15.814  1.00  0.00     0.047 A 
ATOM     19  C   UNL     1      45.808 132.327  15.788  1.00  0.00     0.047 A 
ATOM     20  C   UNL     1      46.024 129.866  17.099  1.00  0.00     0.012 A 
ATOM     21  C   UNL     1      45.279 132.173  17.073  1.00  0.00     0.012 A 
BRANCH  17  22
ATOM     22  O   UNL     1      46.969 131.424  13.875  1.00  0.00    -0.508 OA
ATOM     23  H   UNL     1      47.967 131.378  13.701  1.00  0.00     0.293 HD
ENDBRANCH  17  22
ENDBRANCH   1  16
BRANCH   7  24
ATOM     24  N   UNL     1      41.864 130.472  23.267  1.00  0.00    -0.132 N 
ATOM     25  H   UNL     1      41.098 129.785  23.098  1.00  0.00     0.488 HD
BRANCH  24  26
ATOM     26  N   UNL     1      41.488 131.673  23.895  1.00  0.00    -0.212 NA
ATOM     27  H   UNL     1      41.878 132.595  23.603  1.00  0.00     0.228 HD
ATOM     28  H   UNL     1      40.648 131.684  24.516  1.00  0.00     0.228 HD
ENDBRANCH  24  26
ENDBRANCH   7  24
TORSDOF 4
ENDMDL
MODEL 8
REMARK VINA RESULT:      -5.5      1.650      1.962
REMARK SMILES N/[NH+]=c1\cccc2cc(-c3ccc(O)cc3)c3c[nH][nH]c3c12
REMARK SMILES IDX 9 1 8 2 7 3 6 4 5 5 4 6 3 7 22 8 21 9 17 10 18 11 19 12
REMARK SMILES IDX 20 14 10 16 13 17 12 18 15 19 11 20 16 21 14 22 2 24 1 26
REMARK H PARENT 19 13 20 15 14 23 2 25 1 27 1 28
ROOT
ATOM      1  C   UNL     1      44.803 130.767  19.074  1.00  0.00    -0.007 A 
ATOM      2  C   UNL     1      45.397 129.878  19.992  1.00  0.00     0.018 A 
ATOM      3  C   UNL     1      44.877 129.723  21.299  1.00  0.00    -0.009 A 
ATOM      4  C   UNL     1      45.546 128.897  22.209  1.00  0.00     0.009 A 
ATOM      5  C   UNL     1      45.068 128.747  23.504  1.00  0.00     0.008 A 
ATOM      6  C   UNL     1      43.869 129.344  23.890  1.00  0.00     0.082 A 
ATOM      7  C   UNL     1      43.119 130.128  22.983  1.00  0.00     0.236 A 
ATOM      8  C   UNL     1      43.694 130.416  21.706  1.00  0.00     0.081 A 
ATOM      9  C   UNL     1      43.197 131.379  20.796  1.00  0.00     0.078 A 
ATOM     10  C   UNL     1      43.719 131.520  19.529  1.00  0.00     0.026 A 
ATOM     11  C   UNL     1      43.088 132.620  18.979  1.00  0.00     0.112 A 
ATOM     12  N   UNL     1      42.253 133.121  19.910  1.00  0.00    -0.307 N 
ATOM     13  H   UNL     1      41.686 133.993  19.818  1.00  0.00     0.187 HD
ATOM     14  N   UNL     1      42.328 132.392  21.014  1.00  0.00    -0.300 N 
ATOM     15  H   UNL     1      41.876 132.671  21.912  1.00  0.00     0.188 HD
ENDROOT
BRANCH   1  16
ATOM     16  C   UNL     1      45.363 130.937  17.711  1.00  0.00    -0.017 A 
ATOM     17  C   UNL     1      46.445 131.263  15.134  1.00  0.00     0.115 A 
ATOM     18  C   UNL     1      45.804 132.335  15.768  1.00  0.00     0.047 A 
ATOM     19  C   UNL     1      46.549 130.032  15.789  1.00  0.00     0.047 A 
ATOM     20  C   UNL     1      45.268 132.175  17.050  1.00  0.00     0.012 A 
ATOM     21  C   UNL     1      46.014 129.868  17.070  1.00  0.00     0.012 A 
BRANCH  17  22
ATOM     22  O   UNL     1      46.982 131.411  13.857  1.00  0.00    -0.508 OA
ATOM     23  H   UNL     1      47.638 132.153  13.642  1.00  0.00     0.293 HD
ENDBRANCH  17  22
ENDBRANCH   1  16
BRANCH   7  24
ATOM     24  N   UNL     1      41.876 130.451  23.256  1.00  0.00    -0.132 N 
ATOM     25  H   UNL     1      41.110 129.762  23.096  1.00  0.00     0.488 HD
BRANCH  24  26
ATOM     26  N   UNL     1      41.501 131.654  23.882  1.00  0.00    -0.212 NA
ATOM     27  H   UNL     1      41.719 131.846  24.885  1.00  0.00     0.228 HD
ATOM     28  H   UNL     1      41.194 132.462  23.296  1.00  0.00     0.228 HD
ENDBRANCH  24  26
ENDBRANCH   7  24
TORSDOF 4
ENDMDL
MODEL 9
REMARK VINA RESULT:      -5.4      7.544      8.426
REMARK SMILES N/[NH+]=c1\cccc2cc(-c3ccc(O)cc3)c3c[nH][nH]c3c12
REMARK SMILES IDX 9 1 8 2 7 3 6 4 5 5 4 6 3 7 22 8 21 9 17 10 18 11 19 12
REMARK SMILES IDX 20 14 10 16 13 17 12 18 15 19 11 20 16 21 14 22 2 24 1 26
REMARK H PARENT 19 13 20 15 14 23 2 25 1 27 1 28
ROOT
ATOM      1  C   UNL     1      44.342 125.095  23.079  1.00  0.00    -0.007 A 
ATOM      2  C   UNL     1      44.188 126.329  23.741  1.00  0.00     0.018 A 
ATOM      3  C   UNL     1      42.911 126.921  23.897  1.00  0.00    -0.009 A 
ATOM      4  C   UNL     1      42.810 128.187  24.481  1.00  0.00     0.009 A 
ATOM      5  C   UNL     1      41.570 128.798  24.624  1.00  0.00     0.008 A 
ATOM      6  C   UNL     1      40.404 128.123  24.270  1.00  0.00     0.082 A 
ATOM      7  C   UNL     1      40.451 126.812  23.742  1.00  0.00     0.236 A 
ATOM      8  C   UNL     1      41.732 126.251  23.443  1.00  0.00     0.081 A 
ATOM      9  C   UNL     1      41.940 125.073  22.687  1.00  0.00     0.078 A 
ATOM     10  C   UNL     1      43.191 124.514  22.542  1.00  0.00     0.026 A 
ATOM     11  C   UNL     1      43.038 123.468  21.652  1.00  0.00     0.112 A 
ATOM     12  N   UNL     1      41.747 123.443  21.267  1.00  0.00    -0.307 N 
ATOM     13  H   UNL     1      41.335 122.808  20.549  1.00  0.00     0.187 HD
ATOM     14  N   UNL     1      41.084 124.419  21.871  1.00  0.00    -0.300 N 
ATOM     15  H   UNL     1      40.105 124.680  21.622  1.00  0.00     0.188 HD
ENDROOT
BRANCH   1  16
ATOM     16  C   UNL     1      45.685 124.489  22.905  1.00  0.00    -0.017 A 
ATOM     17  C   UNL     1      48.224 123.330  22.557  1.00  0.00     0.115 A 
ATOM     18  C   UNL     1      47.306 122.758  23.447  1.00  0.00     0.047 A 
ATOM     19  C   UNL     1      47.871 124.477  21.839  1.00  0.00     0.047 A 
ATOM     20  C   UNL     1      46.043 123.332  23.619  1.00  0.00     0.012 A 
ATOM     21  C   UNL     1      46.609 125.053  22.009  1.00  0.00     0.012 A 
BRANCH  17  22
ATOM     22  O   UNL     1      49.486 122.767  22.378  1.00  0.00    -0.508 OA
ATOM     23  H   UNL     1      49.693 121.824  22.685  1.00  0.00     0.293 HD
ENDBRANCH  17  22
ENDBRANCH   1  16
BRANCH   7  24
ATOM     24  N   UNL     1      39.359 126.085  23.672  1.00  0.00    -0.132 N 
ATOM     25  H   UNL     1      39.344 125.125  24.079  1.00  0.00     0.488 HD
BRANCH  24  26
ATOM     26  N   UNL     1      38.132 126.565  23.181  1.00  0.00    -0.212 NA
ATOM     27  H   UNL     1      37.293 126.666  23.793  1.00  0.00     0.228 HD
ATOM     28  H   UNL     1      38.103 127.033  22.247  1.00  0.00     0.228 HD
ENDBRANCH  24  26
ENDBRANCH   7  24
TORSDOF 4
ENDMDL


