REMARK SMILES Cc1cccc(C(=O)/N=C(/S)Oc2[nH+]ccc3ccc(-c4cccc([C@H]5CO5)c4)cc23)c1
REMARK SMILES IDX 10 1 11 2 9 4 7 5 8 6 6 7 5 8 32 9 4 10 2 11 3 12 1 13 12 14
REMARK SMILES IDX 13 15 31 16 14 17 30 18 17 19 15 20 20 21 18 22 16 23 19 24
REMARK SMILES IDX 21 26 22 27 29 28 23 29 25 30 24 31 26 32 28 33 27 34
REMARK H PARENT 11 3 14 25
ROOT
ATOM      1  C   UNL     1      -3.587  -0.655   2.682  1.00  0.00     0.262 C 
ENDROOT
BRANCH   1   2
ATOM      2  S   UNL     1      -5.025  -1.691   2.479  1.00  0.00    -0.084 SA
ATOM      3  H   UNL     1      -4.612  -2.554   3.511  1.00  0.00     0.113 HD
ENDBRANCH   1   2
BRANCH   1   4
ATOM      4  N   UNL     1      -3.655   0.363   3.491  1.00  0.00    -0.167 NA
BRANCH   4   5
ATOM      5  C   UNL     1      -2.654   1.374   3.687  1.00  0.00     0.280 C 
ATOM      6  O   UNL     1      -2.450   1.796   4.856  1.00  0.00    -0.267 OA
BRANCH   5   7
ATOM      7  C   UNL     1      -1.899   1.975   2.559  1.00  0.00     0.042 A 
ATOM      8  C   UNL     1      -0.609   2.489   2.773  1.00  0.00     0.014 A 
ATOM      9  C   UNL     1      -2.455   2.041   1.268  1.00  0.00     0.017 A 
ATOM     10  C   UNL     1       0.122   3.031   1.714  1.00  0.00     0.001 A 
ATOM     11  C   UNL     1      -1.723   2.590   0.203  1.00  0.00    -0.050 A 
ATOM     12  C   UNL     1      -0.429   3.079   0.432  1.00  0.00     0.003 A 
ATOM     13  C   UNL     1      -2.307   2.595  -1.179  1.00  0.00     0.044 C 
ENDBRANCH   5   7
ENDBRANCH   4   5
ENDBRANCH   1   4
BRANCH   1  14
ATOM     14  O   UNL     1      -2.433  -0.961   1.948  1.00  0.00    -0.379 OA
BRANCH  14  15
ATOM     15  C   UNL     1      -1.145  -1.052   2.498  1.00  0.00     0.381 A 
ATOM     16  C   UNL     1      -0.025  -0.790   1.688  1.00  0.00     0.095 A 
ATOM     17  N   UNL     1      -0.969  -1.383   3.812  1.00  0.00    -0.179 N 
ATOM     18  C   UNL     1      -0.168  -0.428   0.338  1.00  0.00     0.028 A 
ATOM     19  C   UNL     1       1.264  -0.836   2.264  1.00  0.00    -0.002 A 
ATOM     20  C   UNL     1       0.268  -1.451   4.373  1.00  0.00     0.310 A 
ATOM     21  C   UNL     1       0.953  -0.075  -0.432  1.00  0.00    -0.017 A 
ATOM     22  C   UNL     1       2.385  -0.518   1.486  1.00  0.00     0.010 A 
ATOM     23  C   UNL     1       1.404  -1.176   3.613  1.00  0.00     0.079 A 
ATOM     24  C   UNL     1       2.230  -0.132   0.152  1.00  0.00     0.009 A 
ATOM     25  H   UNL     1      -1.796  -1.600   4.412  1.00  0.00     0.457 HD
BRANCH  21  26
ATOM     26  C   UNL     1       0.779   0.404  -1.827  1.00  0.00    -0.018 A 
ATOM     27  C   UNL     1       1.508   1.512  -2.295  1.00  0.00     0.009 A 
ATOM     28  C   UNL     1      -0.150  -0.213  -2.685  1.00  0.00     0.015 A 
ATOM     29  C   UNL     1       1.303   2.000  -3.587  1.00  0.00     0.001 A 
ATOM     30  C   UNL     1      -0.345   0.267  -3.989  1.00  0.00    -0.016 A 
ATOM     31  C   UNL     1       0.374   1.386  -4.430  1.00  0.00     0.006 A 
BRANCH  30  32
ATOM     32  C   UNL     1      -1.370  -0.367  -4.883  1.00  0.00     0.174 C 
ATOM     33  O   UNL     1      -1.184  -1.760  -4.983  1.00  0.00    -0.368 OA
ATOM     34  C   UNL     1      -0.856  -0.997  -6.120  1.00  0.00     0.198 C 
ENDBRANCH  30  32
ENDBRANCH  21  26
ENDBRANCH  14  15
ENDBRANCH   1  14
TORSDOF 8


