REMARK SMILES c1cc(-c2ccc([C@H]3CO3)cn2)c2occc2c1
REMARK SMILES IDX 4 1 5 2 6 3 7 4 11 5 12 6 3 7 1 8 2 9 18 10 17 11 13 12
REMARK SMILES IDX 16 13 14 14 15 15 8 16 9 17 10 18
REMARK H PARENT
ROOT
ATOM      1  C   UNL     1      -0.427   0.575  -0.719  1.00  0.00     0.074 A 
ATOM      2  C   UNL     1      -0.280  -0.749  -1.168  1.00  0.00     0.029 A 
ATOM      3  C   UNL     1      -1.163  -1.732  -0.717  1.00  0.00     0.010 A 
ATOM      4  C   UNL     1      -2.193  -1.397   0.168  1.00  0.00     0.001 A 
ATOM      5  C   UNL     1      -2.295  -0.075   0.614  1.00  0.00     0.118 A 
ATOM      6  N   UNL     1      -1.424   0.867   0.164  1.00  0.00    -0.256 NA
ENDROOT
BRANCH   1   7
ATOM      7  C   UNL     1       0.487   1.656  -1.169  1.00  0.00     0.043 A 
ATOM      8  C   UNL     1       1.978   2.673  -2.841  1.00  0.00     0.002 A 
ATOM      9  C   UNL     1       1.122   1.626  -2.436  1.00  0.00     0.014 A 
ATOM     10  C   UNL     1       2.214   3.770  -1.997  1.00  0.00     0.012 A 
ATOM     11  C   UNL     1       1.575   3.784  -0.762  1.00  0.00     0.021 A 
ATOM     12  C   UNL     1       0.744   2.773  -0.359  1.00  0.00     0.143 A 
ATOM     13  C   UNL     1       1.614   4.707   0.256  1.00  0.00     0.050 A 
ATOM     14  O   UNL     1       0.279   3.026   0.841  1.00  0.00    -0.464 OA
ATOM     15  C   UNL     1       0.782   4.181   1.237  1.00  0.00     0.196 A 
ENDBRANCH   1   7
BRANCH   4  16
ATOM     16  C   UNL     1      -3.127  -2.449   0.690  1.00  0.00     0.176 C 
ATOM     17  C   UNL     1      -4.553  -2.292   0.323  1.00  0.00     0.198 C 
ATOM     18  O   UNL     1      -3.710  -3.193  -0.355  1.00  0.00    -0.368 OA
ENDBRANCH   4  16
TORSDOF 2


