REMARK SMILES O=C(C(=O)c1cc2cc(-c3[nH+]c[nH+]cc3F)[nH]c2cc1F)c1ccccc1
REMARK SMILES IDX 5 1 6 2 7 3 8 4 9 5 17 6 18 7 19 8 20 9 21 10 3 12 4 13 2 14
REMARK SMILES IDX 1 15 22 16 23 17 27 18 24 19 26 20 25 21 10 22 11 23 15 24
REMARK SMILES IDX 12 25 14 26 13 27 16 29
REMARK H PARENT 17 11 11 28 13 30
ROOT
ATOM      1  C   UNL     1       1.092   1.114  -0.650  1.00  0.00     0.063 A 
ATOM      2  C   UNL     1      -0.030   0.427  -1.166  1.00  0.00     0.025 A 
ATOM      3  C   UNL     1      -0.980  -0.048  -0.266  1.00  0.00     0.001 A 
ATOM      4  C   UNL     1      -2.151  -0.739  -0.483  1.00  0.00     0.043 A 
ATOM      5  C   UNL     1      -2.693  -0.944   0.787  1.00  0.00     0.116 A 
ATOM      6  N   UNL     1      -1.898  -0.398   1.740  1.00  0.00    -0.349 N 
ATOM      7  C   UNL     1      -0.858   0.141   1.083  1.00  0.00     0.049 A 
ATOM      8  C   UNL     1       0.220   0.834   1.630  1.00  0.00     0.066 A 
ATOM      9  C   UNL     1       1.202   1.329   0.752  1.00  0.00     0.136 A 
ATOM     10  F   UNL     1       2.228   2.055   1.263  1.00  0.00    -0.206 F 
ATOM     11  H   UNL     1      -2.067  -0.359   2.770  1.00  0.00     0.167 HD
ENDROOT
BRANCH   1  12
ATOM     12  C   UNL     1       2.108   1.635  -1.588  1.00  0.00     0.236 C 
ATOM     13  O   UNL     1       1.720   2.308  -2.581  1.00  0.00    -0.285 OA
BRANCH  12  14
ATOM     14  C   UNL     1       3.556   1.376  -1.388  1.00  0.00     0.233 C 
ATOM     15  O   UNL     1       3.932   0.701  -0.392  1.00  0.00    -0.285 OA
BRANCH  14  16
ATOM     16  C   UNL     1       4.585   1.887  -2.323  1.00  0.00     0.026 A 
ATOM     17  C   UNL     1       4.392   1.848  -3.717  1.00  0.00     0.012 A 
ATOM     18  C   UNL     1       5.802   2.377  -1.817  1.00  0.00     0.012 A 
ATOM     19  C   UNL     1       5.386   2.319  -4.581  1.00  0.00     0.001 A 
ATOM     20  C   UNL     1       6.792   2.848  -2.685  1.00  0.00     0.001 A 
ATOM     21  C   UNL     1       6.583   2.823  -4.066  1.00  0.00     0.000 A 
ENDBRANCH  14  16
ENDBRANCH  12  14
ENDBRANCH   1  12
BRANCH   5  22
ATOM     22  C   UNL     1      -3.976  -1.632   1.061  1.00  0.00     0.274 A 
ATOM     23  N   UNL     1      -4.986  -1.580   0.143  1.00  0.00    -0.151 N 
ATOM     24  C   UNL     1      -4.174  -2.353   2.250  1.00  0.00     0.260 A 
ATOM     25  C   UNL     1      -6.176  -2.200   0.369  1.00  0.00     0.629 A 
ATOM     26  C   UNL     1      -5.401  -2.981   2.458  1.00  0.00     0.358 A 
ATOM     27  N   UNL     1      -6.378  -2.893   1.520  1.00  0.00    -0.159 N 
ATOM     28  H   UNL     1      -4.869  -1.043  -0.745  1.00  0.00     0.460 HD
ATOM     29  F   UNL     1      -3.190  -2.493   3.174  1.00  0.00    -0.193 F 
ATOM     30  H   UNL     1      -7.295  -3.366   1.683  1.00  0.00     0.459 HD
ENDBRANCH   5  22
TORSDOF 4


