REMARK SMILES CSc1ccc(NC(=S)Oc2ccc(-c3ccc(C)c4[nH]ncc34)cc2)cc1
REMARK SMILES IDX 7 1 8 2 9 3 6 5 3 6 4 7 28 8 5 9 27 10 2 11 1 12 10 13 11 14
REMARK SMILES IDX 12 15 26 16 13 17 25 18 14 19 15 20 16 21 24 22 17 23 23 24
REMARK SMILES IDX 20 25 18 26 22 27 21 28 19 29
REMARK H PARENT 7 4 21 30
ROOT
ATOM      1  N   UNL     1       3.513   3.398  -0.985  1.00  0.00    -0.316 N 
ATOM      2  C   UNL     1       2.910   3.767  -2.238  1.00  0.00     0.266 C 
ATOM      3  S   UNL     1       3.714   4.765  -3.251  1.00  0.00    -0.018 S 
ATOM      4  H   UNL     1       4.556   3.356  -0.932  1.00  0.00     0.171 HD
ENDROOT
BRANCH   1   5
ATOM      5  C   UNL     1       2.755   3.053   0.186  1.00  0.00     0.042 A 
ATOM      6  C   UNL     1       1.228   2.248   2.400  1.00  0.00     0.007 A 
ATOM      7  C   UNL     1       0.763   3.267   1.562  1.00  0.00     0.017 A 
ATOM      8  C   UNL     1       2.474   1.659   2.155  1.00  0.00     0.017 A 
ATOM      9  C   UNL     1       1.525   3.674   0.465  1.00  0.00     0.027 A 
ATOM     10  C   UNL     1       3.238   2.065   1.056  1.00  0.00     0.027 A 
BRANCH   6  11
ATOM     11  S   UNL     1       0.226   1.696   3.780  1.00  0.00    -0.130 SA
ATOM     12  C   UNL     1      -0.611   0.405   2.807  1.00  0.00     0.091 C 
ENDBRANCH   6  11
ENDBRANCH   1   5
BRANCH   2  13
ATOM     13  O   UNL     1       1.639   3.308  -2.613  1.00  0.00    -0.432 OA
BRANCH  13  14
ATOM     14  C   UNL     1       1.093   2.079  -2.217  1.00  0.00     0.130 A 
ATOM     15  C   UNL     1      -0.282   1.993  -1.981  1.00  0.00     0.048 A 
ATOM     16  C   UNL     1       1.895   0.939  -2.045  1.00  0.00     0.048 A 
ATOM     17  C   UNL     1      -0.846   0.802  -1.517  1.00  0.00     0.012 A 
ATOM     18  C   UNL     1       1.331  -0.256  -1.591  1.00  0.00     0.012 A 
ATOM     19  C   UNL     1      -0.044  -0.336  -1.319  1.00  0.00    -0.017 A 
BRANCH  19  20
ATOM     20  C   UNL     1      -0.630  -1.592  -0.792  1.00  0.00    -0.007 A 
ATOM     21  C   UNL     1       0.003  -2.300   0.255  1.00  0.00     0.010 A 
ATOM     22  C   UNL     1      -1.823  -2.134  -1.292  1.00  0.00     0.028 A 
ATOM     23  C   UNL     1      -0.563  -3.483   0.777  1.00  0.00     0.006 A 
ATOM     24  C   UNL     1      -2.660  -1.763  -2.328  1.00  0.00     0.144 A 
ATOM     25  C   UNL     1      -2.369  -3.283  -0.788  1.00  0.00     0.069 A 
ATOM     26  C   UNL     1      -1.773  -3.993   0.260  1.00  0.00    -0.025 A 
ATOM     27  N   UNL     1      -3.666  -2.666  -2.413  1.00  0.00    -0.183 NA
ATOM     28  N   UNL     1      -3.485  -3.586  -1.473  1.00  0.00    -0.278 N 
ATOM     29  C   UNL     1      -2.378  -5.258   0.791  1.00  0.00     0.046 C 
ATOM     30  H   UNL     1      -4.113  -4.406  -1.323  1.00  0.00     0.190 HD
ENDBRANCH  19  20
ENDBRANCH  13  14
ENDBRANCH   2  13
TORSDOF 5


