REMARK SMILES Cc1ccc(N[C@@H]2CCC[C@@H](N)[C@@]2(O)F)cc1
REMARK SMILES IDX 7 1 8 2 9 3 10 4 11 5 13 6 15 7 6 8 5 10 2 11 3 12 17 13
REMARK SMILES IDX 4 14 16 15 1 16 14 17 12 19
REMARK H PARENT 6 9 14 18 12 20 12 21
ROOT
ATOM      1  C   UNL     1       0.805   1.853   0.042  1.00  0.00     0.145 C 
ATOM      2  C   UNL     1       1.066   3.372   0.059  1.00  0.00     0.031 C 
ATOM      3  C   UNL     1       2.365   3.720  -0.674  1.00  0.00     0.004 C 
ATOM      4  C   UNL     1       2.344   3.201  -2.118  1.00  0.00     0.025 C 
ATOM      5  C   UNL     1       2.021   1.692  -2.208  1.00  0.00     0.118 C 
ATOM      6  C   UNL     1       0.739   1.326  -1.414  1.00  0.00     0.242 C 
ATOM      7  F   UNL     1       0.605  -0.056  -1.390  1.00  0.00    -0.208 F 
ENDROOT
BRANCH   1   8
ATOM      8  N   UNL     1      -0.450   1.559   0.748  1.00  0.00    -0.377 N 
ATOM      9  H   UNL     1      -1.210   2.276   0.694  1.00  0.00     0.161 HD
BRANCH   8  10
ATOM     10  C   UNL     1      -0.747   0.331   1.446  1.00  0.00     0.034 A 
ATOM     11  C   UNL     1      -1.405  -2.031   2.846  1.00  0.00    -0.051 A 
ATOM     12  C   UNL     1      -2.331  -0.984   2.749  1.00  0.00     0.005 A 
ATOM     13  C   UNL     1      -0.158  -1.905   2.220  1.00  0.00     0.005 A 
ATOM     14  C   UNL     1      -2.002   0.187   2.061  1.00  0.00     0.026 A 
ATOM     15  C   UNL     1       0.174  -0.734   1.531  1.00  0.00     0.026 A 
ATOM     16  C   UNL     1      -1.773  -3.303   3.550  1.00  0.00     0.044 C 
ENDBRANCH   8  10
ENDBRANCH   1   8
BRANCH   6  17
ATOM     17  O   UNL     1      -0.386   1.882  -2.051  1.00  0.00    -0.359 OA
ATOM     18  H   UNL     1      -0.544   1.358  -2.879  1.00  0.00     0.214 HD
ENDBRANCH   6  17
BRANCH   5  19
ATOM     19  N   UNL     1       3.156   0.862  -1.786  1.00  0.00    -0.323 NA
ATOM     20  H   UNL     1       3.958   1.038  -2.435  1.00  0.00     0.119 HD
ATOM     21  H   UNL     1       3.472   1.131  -0.828  1.00  0.00     0.119 HD
ENDBRANCH   5  19
TORSDOF 4


