REMARK SMILES C=C/C(C)=C(/O)[N-]c1cccc(N[C@@H]2CCC(=C)[C@H](F)C2)c1O
REMARK SMILES IDX 7 1 5 2 6 3 3 5 4 6 2 7 1 8 8 9 9 10 22 11 10 12 12 13 11 14
REMARK SMILES IDX 23 15 13 17 14 19 15 20 21 21 16 22 19 23 17 24 20 25 18 26
REMARK H PARENT 6 4 23 16 13 18
ROOT
ATOM      1  N   UNL     1       0.823   2.732   1.635  1.00  0.00    -0.624 NA
ENDROOT
BRANCH   1   2
ATOM      2  C   UNL     1      -0.258   3.458   2.243  1.00  0.00     0.017 C 
BRANCH   2   3
ATOM      3  O   UNL     1      -1.158   2.794   3.081  1.00  0.00    -0.530 OA
ATOM      4  H   UNL     1      -1.048   1.818   3.323  1.00  0.00     0.290 HD
ENDBRANCH   2   3
BRANCH   2   5
ATOM      5  C   UNL     1      -0.404   4.779   2.013  1.00  0.00    -0.032 C 
ATOM      6  C   UNL     1      -1.553   5.534   2.643  1.00  0.00     0.046 C 
BRANCH   5   7
ATOM      7  C   UNL     1       0.529   5.486   1.091  1.00  0.00    -0.003 C 
ATOM      8  C   UNL     1       0.243   6.652   0.512  1.00  0.00     0.009 C 
ENDBRANCH   5   7
ENDBRANCH   2   5
ENDBRANCH   1   2
BRANCH   1   9
ATOM      9  C   UNL     1       0.929   1.305   1.588  1.00  0.00    -0.089 A 
ATOM     10  C   UNL     1       2.102   0.710   2.062  1.00  0.00    -0.012 A 
ATOM     11  C   UNL     1      -0.099   0.495   1.050  1.00  0.00     0.124 A 
ATOM     12  C   UNL     1       2.236  -0.677   2.069  1.00  0.00     0.001 A 
ATOM     13  C   UNL     1       0.030  -0.910   1.068  1.00  0.00     0.075 A 
ATOM     14  C   UNL     1       1.204  -1.484   1.590  1.00  0.00     0.029 A 
BRANCH  11  15
ATOM     15  O   UNL     1      -1.232   1.062   0.461  1.00  0.00    -0.507 OA
ATOM     16  H   UNL     1      -1.334   2.055   0.304  1.00  0.00     0.293 HD
ENDBRANCH  11  15
BRANCH  13  17
ATOM     17  N   UNL     1      -1.043  -1.729   0.557  1.00  0.00    -0.379 N 
ATOM     18  H   UNL     1      -1.997  -1.305   0.533  1.00  0.00     0.160 HD
BRANCH  17  19
ATOM     19  C   UNL     1      -0.878  -3.113   0.086  1.00  0.00     0.082 C 
ATOM     20  C   UNL     1       0.074  -3.183  -1.126  1.00  0.00     0.029 C 
ATOM     21  C   UNL     1      -2.240  -3.757  -0.267  1.00  0.00     0.067 C 
ATOM     22  C   UNL     1      -0.520  -2.501  -2.360  1.00  0.00     0.035 C 
ATOM     23  C   UNL     1      -2.888  -3.193  -1.546  1.00  0.00     0.194 C 
ATOM     24  C   UNL     1      -1.883  -3.071  -2.668  1.00  0.00    -0.043 C 
ATOM     25  F   UNL     1      -3.447  -1.952  -1.301  1.00  0.00    -0.243 F 
ATOM     26  C   UNL     1      -2.250  -3.307  -3.936  1.00  0.00     0.011 C 
ENDBRANCH  17  19
ENDBRANCH  13  17
ENDBRANCH   1   9
TORSDOF 8


