REMARK SMILES C[C@H]1C[C@@H](c2cccc3ncoc23)[C@@H](Nc2cccc(N)c2O)[C@@H](O)[C@@H]1F
REMARK SMILES IDX 15 1 14 3 2 4 3 5 26 6 4 7 24 8 1 9 27 10 5 11 6 12 13 13
REMARK SMILES IDX 7 14 12 15 9 16 8 17 11 18 10 19 25 20 16 22 17 23 22 24
REMARK SMILES IDX 18 25 20 26 19 27 23 28 21 30
REMARK H PARENT 15 2 25 21 23 29 21 31 21 32
ROOT
ATOM      1  N   UNL     1      -0.867   0.651  -0.552  1.00  0.00    -0.376 N 
ATOM      2  H   UNL     1      -0.561   1.343  -1.271  1.00  0.00     0.161 HD
ENDROOT
BRANCH   1   3
ATOM      3  C   UNL     1      -0.289  -0.701  -0.600  1.00  0.00     0.118 C 
ATOM      4  C   UNL     1       1.544  -0.817  -2.967  1.00  0.00     0.024 C 
ATOM      5  C   UNL     1       1.944  -0.059  -1.687  1.00  0.00     0.017 C 
ATOM      6  C   UNL     1       0.010  -0.824  -3.142  1.00  0.00     0.200 C 
ATOM      7  C   UNL     1       1.252  -0.667  -0.449  1.00  0.00     0.048 C 
ATOM      8  C   UNL     1      -0.692  -1.423  -1.910  1.00  0.00     0.171 C 
ATOM      9  C   UNL     1       2.229  -0.191  -4.189  1.00  0.00     0.011 C 
ATOM     10  F   UNL     1      -0.326  -1.577  -4.256  1.00  0.00    -0.244 F 
BRANCH   7  11
ATOM     11  C   UNL     1       1.673   0.005   0.847  1.00  0.00     0.002 A 
ATOM     12  C   UNL     1       1.698   1.414   1.009  1.00  0.00     0.008 A 
ATOM     13  C   UNL     1       1.975  -0.759   1.982  1.00  0.00     0.158 A 
ATOM     14  C   UNL     1       2.038   1.993   2.253  1.00  0.00     0.003 A 
ATOM     15  O   UNL     1       1.995  -2.058   2.117  1.00  0.00    -0.443 OA
ATOM     16  C   UNL     1       2.300  -0.197   3.179  1.00  0.00     0.109 A 
ATOM     17  C   UNL     1       2.346   1.181   3.358  1.00  0.00     0.032 A 
ATOM     18  C   UNL     1       2.329  -2.289   3.376  1.00  0.00     0.309 A 
ATOM     19  N   UNL     1       2.533  -1.154   4.093  1.00  0.00    -0.217 NA
ENDBRANCH   7  11
BRANCH   8  20
ATOM     20  O   UNL     1      -2.083  -1.360  -2.095  1.00  0.00    -0.388 OA
ATOM     21  H   UNL     1      -2.490  -1.962  -1.417  1.00  0.00     0.211 HD
ENDBRANCH   8  20
ENDBRANCH   1   3
BRANCH   1  22
ATOM     22  C   UNL     1      -2.095   0.932   0.139  1.00  0.00     0.079 A 
ATOM     23  C   UNL     1      -3.137   1.553  -0.562  1.00  0.00     0.030 A 
ATOM     24  C   UNL     1      -2.247   0.646   1.513  1.00  0.00     0.161 A 
ATOM     25  C   UNL     1      -4.340   1.849   0.077  1.00  0.00     0.005 A 
ATOM     26  C   UNL     1      -3.482   0.919   2.151  1.00  0.00     0.076 A 
ATOM     27  C   UNL     1      -4.514   1.528   1.422  1.00  0.00     0.029 A 
BRANCH  24  28
ATOM     28  O   UNL     1      -1.152   0.137   2.216  1.00  0.00    -0.504 OA
ATOM     29  H   UNL     1      -1.130   0.011   3.217  1.00  0.00     0.293 HD
ENDBRANCH  24  28
BRANCH  26  30
ATOM     30  N   UNL     1      -3.718   0.581   3.525  1.00  0.00    -0.396 N 
ATOM     31  H   UNL     1      -4.601   0.883   3.996  1.00  0.00     0.156 HD
ATOM     32  H   UNL     1      -3.088  -0.046   4.068  1.00  0.00     0.156 HD
ENDBRANCH  26  30
ENDBRANCH   1  22
TORSDOF 6


