REMARK SMILES C/C(O)=N/c1cc(C)cc(-n2nc3ccccc3n2)c1O
REMARK SMILES IDX 4 1 2 2 1 3 3 4 5 6 6 7 20 8 7 9 10 10 9 11 8 12 21 13 11 15
REMARK SMILES IDX 12 16 19 17 13 18 18 19 14 20 17 21 15 22 16 23
REMARK H PARENT 3 5 21 14
ROOT
ATOM      1  N   UNL     1      -3.271   0.875   0.621  1.00  0.00    -0.214 NA
ENDROOT
BRANCH   1   2
ATOM      2  C   UNL     1      -4.399   0.869  -0.031  1.00  0.00     0.182 C 
ATOM      3  C   UNL     1      -5.463   1.839   0.358  1.00  0.00     0.111 C 
BRANCH   2   4
ATOM      4  O   UNL     1      -4.623   0.032  -1.127  1.00  0.00    -0.497 OA
ATOM      5  H   UNL     1      -3.897  -0.534  -1.548  1.00  0.00     0.294 HD
ENDBRANCH   2   4
ENDBRANCH   1   2
BRANCH   1   6
ATOM      6  C   UNL     1      -2.174  -0.034   0.437  1.00  0.00     0.111 A 
ATOM      7  C   UNL     1      -2.398  -1.419   0.420  1.00  0.00     0.036 A 
ATOM      8  C   UNL     1      -0.855   0.462   0.392  1.00  0.00     0.169 A 
ATOM      9  C   UNL     1      -1.330  -2.311   0.286  1.00  0.00    -0.046 A 
ATOM     10  C   UNL     1       0.235  -0.434   0.276  1.00  0.00     0.130 A 
ATOM     11  C   UNL     1      -0.022  -1.817   0.226  1.00  0.00     0.037 A 
ATOM     12  C   UNL     1      -1.579  -3.791   0.291  1.00  0.00     0.044 C 
BRANCH   8  13
ATOM     13  O   UNL     1      -0.624   1.838   0.460  1.00  0.00    -0.504 OA
ATOM     14  H   UNL     1      -1.372   2.516   0.535  1.00  0.00     0.293 HD
ENDBRANCH   8  13
BRANCH  10  15
ATOM     15  N   UNL     1       1.599   0.037   0.215  1.00  0.00    -0.147 N 
ATOM     16  N   UNL     1       2.654  -0.778   0.161  1.00  0.00    -0.148 NA
ATOM     17  N   UNL     1       1.950   1.324   0.201  1.00  0.00    -0.148 NA
ATOM     18  C   UNL     1       3.720   0.033   0.111  1.00  0.00     0.113 A 
ATOM     19  C   UNL     1       3.289   1.321   0.136  1.00  0.00     0.113 A 
ATOM     20  C   UNL     1       5.070  -0.297   0.044  1.00  0.00     0.032 A 
ATOM     21  C   UNL     1       4.166   2.400   0.096  1.00  0.00     0.032 A 
ATOM     22  C   UNL     1       5.994   0.766   0.002  1.00  0.00     0.002 A 
ATOM     23  C   UNL     1       5.544   2.109   0.027  1.00  0.00     0.002 A 
ENDBRANCH  10  15
ENDBRANCH   1   6
TORSDOF 5


