MODEL 1
REMARK VINA RESULT:      -5.6      0.000      0.000
REMARK SMILES Cc1ccc(-c2ccc(O)cc2)c2cn(C(=O)NC3(C(F)(F)F)CC3)nc12
REMARK SMILES IDX 1 1 2 2 3 3 4 4 5 5 13 6 14 7 15 8 26 9 27 10 6 11 7 12
REMARK SMILES IDX 12 13 8 14 11 15 9 16 10 17 16 19 18 20 17 21 19 23 24 24
REMARK SMILES IDX 25 25 20 26 21 27 22 28 23 29
REMARK H PARENT 10 18 18 22
ROOT
ATOM      1  C   UNL     1      43.302 132.270  23.538  1.00  0.00     0.047 C 
ATOM      2  C   UNL     1      43.865 130.894  23.339  1.00  0.00    -0.023 A 
ATOM      3  C   UNL     1      43.874 129.946  24.383  1.00  0.00     0.006 A 
ATOM      4  C   UNL     1      44.388 128.647  24.175  1.00  0.00     0.010 A 
ATOM      5  C   UNL     1      44.887 128.259  22.911  1.00  0.00    -0.007 A 
ATOM      6  C   UNL     1      44.855 129.223  21.893  1.00  0.00     0.029 A 
ATOM      7  C   UNL     1      45.284 129.210  20.583  1.00  0.00     0.129 A 
ATOM      8  N   UNL     1      45.025 130.433  20.060  1.00  0.00    -0.189 N 
ATOM      9  N   UNL     1      44.465 131.218  20.974  1.00  0.00    -0.164 NA
ATOM     10  C   UNL     1      44.362 130.486  22.099  1.00  0.00     0.096 A 
ENDROOT
BRANCH   5  11
ATOM     11  C   UNL     1      45.412 126.891  22.691  1.00  0.00    -0.017 A 
ATOM     12  C   UNL     1      44.538 125.793  22.607  1.00  0.00     0.012 A 
ATOM     13  C   UNL     1      46.797 126.672  22.591  1.00  0.00     0.012 A 
ATOM     14  C   UNL     1      45.039 124.504  22.408  1.00  0.00     0.047 A 
ATOM     15  C   UNL     1      47.295 125.381  22.391  1.00  0.00     0.047 A 
ATOM     16  C   UNL     1      46.420 124.295  22.298  1.00  0.00     0.115 A 
BRANCH  16  17
ATOM     17  O   UNL     1      46.931 123.014  22.099  1.00  0.00    -0.508 OA
ATOM     18  H   UNL     1      46.911 122.572  21.188  1.00  0.00     0.293 HD
ENDBRANCH  16  17
ENDBRANCH   5  11
BRANCH   8  19
ATOM     19  C   UNL     1      45.314 130.848  18.718  1.00  0.00     0.342 C 
ATOM     20  N   UNL     1      45.151 129.931  17.626  1.00  0.00    -0.322 N 
ATOM     21  O   UNL     1      45.709 132.026  18.498  1.00  0.00    -0.246 OA
ATOM     22  H   UNL     1      44.858 128.947  17.820  1.00  0.00     0.166 HD
BRANCH  20  23
ATOM     23  C   UNL     1      45.493 130.289  16.250  1.00  0.00     0.137 C 
ATOM     24  C   UNL     1      46.970 130.119  15.922  1.00  0.00     0.041 C 
ATOM     25  C   UNL     1      45.944 129.134  15.368  1.00  0.00     0.041 C 
BRANCH  23  26
ATOM     26  C   UNL     1      44.755 131.481  15.623  1.00  0.00     0.411 C 
ATOM     27  F   UNL     1      43.548 131.727  16.255  1.00  0.00    -0.168 F 
ATOM     28  F   UNL     1      45.542 132.613  15.719  1.00  0.00    -0.168 F 
ATOM     29  F   UNL     1      44.514 131.216  14.288  1.00  0.00    -0.168 F 
ENDBRANCH  23  26
ENDBRANCH  20  23
ENDBRANCH   8  19
TORSDOF 5
ENDMDL
MODEL 2
REMARK VINA RESULT:      -5.3      4.018      6.023
REMARK SMILES Cc1ccc(-c2ccc(O)cc2)c2cn(C(=O)NC3(C(F)(F)F)CC3)nc12
REMARK SMILES IDX 1 1 2 2 3 3 4 4 5 5 13 6 14 7 15 8 26 9 27 10 6 11 7 12
REMARK SMILES IDX 12 13 8 14 11 15 9 16 10 17 16 19 18 20 17 21 19 23 24 24
REMARK SMILES IDX 25 25 20 26 21 27 22 28 23 29
REMARK H PARENT 10 18 18 22
ROOT
ATOM      1  C   UNL     1      42.552 123.810  23.554  1.00  0.00     0.047 C 
ATOM      2  C   UNL     1      43.995 123.904  23.154  1.00  0.00    -0.023 A 
ATOM      3  C   UNL     1      44.796 122.751  23.023  1.00  0.00     0.006 A 
ATOM      4  C   UNL     1      46.148 122.853  22.625  1.00  0.00     0.010 A 
ATOM      5  C   UNL     1      46.725 124.109  22.332  1.00  0.00    -0.007 A 
ATOM      6  C   UNL     1      45.897 125.233  22.465  1.00  0.00     0.029 A 
ATOM      7  C   UNL     1      46.126 126.584  22.307  1.00  0.00     0.129 A 
ATOM      8  N   UNL     1      44.968 127.227  22.589  1.00  0.00    -0.189 N 
ATOM      9  N   UNL     1      44.024 126.355  22.927  1.00  0.00    -0.164 NA
ATOM     10  C   UNL     1      44.587 125.134  22.857  1.00  0.00     0.096 A 
ENDROOT
BRANCH   5  11
ATOM     11  C   UNL     1      48.138 124.212  21.900  1.00  0.00    -0.017 A 
ATOM     12  C   UNL     1      49.080 124.897  22.688  1.00  0.00     0.012 A 
ATOM     13  C   UNL     1      48.548 123.647  20.680  1.00  0.00     0.012 A 
ATOM     14  C   UNL     1      50.410 124.998  22.271  1.00  0.00     0.047 A 
ATOM     15  C   UNL     1      49.879 123.749  20.266  1.00  0.00     0.047 A 
ATOM     16  C   UNL     1      50.813 124.423  21.059  1.00  0.00     0.115 A 
BRANCH  16  17
ATOM     17  O   UNL     1      52.137 124.517  20.633  1.00  0.00    -0.508 OA
ATOM     18  H   UNL     1      52.546 125.405  20.371  1.00  0.00     0.293 HD
ENDBRANCH  16  17
ENDBRANCH   5  11
BRANCH   8  19
ATOM     19  C   UNL     1      44.766 128.646  22.548  1.00  0.00     0.342 C 
ATOM     20  N   UNL     1      43.791 129.263  23.401  1.00  0.00    -0.322 N 
ATOM     21  O   UNL     1      45.452 129.354  21.761  1.00  0.00    -0.246 OA
ATOM     22  H   UNL     1      43.202 128.667  24.024  1.00  0.00     0.166 HD
BRANCH  20  23
ATOM     23  C   UNL     1      43.506 130.697  23.349  1.00  0.00     0.137 C 
ATOM     24  C   UNL     1      42.825 131.232  24.601  1.00  0.00     0.041 C 
ATOM     25  C   UNL     1      44.293 131.554  24.331  1.00  0.00     0.041 C 
BRANCH  23  26
ATOM     26  C   UNL     1      43.081 131.288  21.997  1.00  0.00     0.411 C 
ATOM     27  F   UNL     1      44.171 131.704  21.253  1.00  0.00    -0.168 F 
ATOM     28  F   UNL     1      42.390 130.333  21.274  1.00  0.00    -0.168 F 
ATOM     29  F   UNL     1      42.250 132.371  22.215  1.00  0.00    -0.168 F 
ENDBRANCH  23  26
ENDBRANCH  20  23
ENDBRANCH   8  19
TORSDOF 5
ENDMDL
MODEL 3
REMARK VINA RESULT:      -4.2      3.544      4.956
REMARK SMILES Cc1ccc(-c2ccc(O)cc2)c2cn(C(=O)NC3(C(F)(F)F)CC3)nc12
REMARK SMILES IDX 1 1 2 2 3 3 4 4 5 5 13 6 14 7 15 8 26 9 27 10 6 11 7 12
REMARK SMILES IDX 12 13 8 14 11 15 9 16 10 17 16 19 18 20 17 21 19 23 24 24
REMARK SMILES IDX 25 25 20 26 21 27 22 28 23 29
REMARK H PARENT 10 18 18 22
ROOT
ATOM      1  C   UNL     1      38.603 126.632  24.209  1.00  0.00     0.047 C 
ATOM      2  C   UNL     1      39.986 126.072  24.058  1.00  0.00    -0.023 A 
ATOM      3  C   UNL     1      40.253 124.705  24.283  1.00  0.00     0.006 A 
ATOM      4  C   UNL     1      41.556 124.187  24.116  1.00  0.00     0.010 A 
ATOM      5  C   UNL     1      42.620 125.020  23.702  1.00  0.00    -0.007 A 
ATOM      6  C   UNL     1      42.317 126.371  23.478  1.00  0.00     0.029 A 
ATOM      7  C   UNL     1      43.092 127.453  23.116  1.00  0.00     0.129 A 
ATOM      8  N   UNL     1      42.279 128.535  23.068  1.00  0.00    -0.189 N 
ATOM      9  N   UNL     1      41.036 128.195  23.390  1.00  0.00    -0.164 NA
ATOM     10  C   UNL     1      41.053 126.874  23.647  1.00  0.00     0.096 A 
ENDROOT
BRANCH   5  11
ATOM     11  C   UNL     1      43.983 124.471  23.512  1.00  0.00    -0.017 A 
ATOM     12  C   UNL     1      44.440 124.113  22.232  1.00  0.00     0.012 A 
ATOM     13  C   UNL     1      44.827 124.278  24.620  1.00  0.00     0.012 A 
ATOM     14  C   UNL     1      45.724 123.587  22.062  1.00  0.00     0.047 A 
ATOM     15  C   UNL     1      46.111 123.752  24.445  1.00  0.00     0.047 A 
ATOM     16  C   UNL     1      46.563 123.407  23.169  1.00  0.00     0.115 A 
BRANCH  16  17
ATOM     17  O   UNL     1      47.845 122.884  23.010  1.00  0.00    -0.508 OA
ATOM     18  H   UNL     1      48.130 122.032  23.478  1.00  0.00     0.293 HD
ENDBRANCH  16  17
ENDBRANCH   5  11
BRANCH   8  19
ATOM     19  C   UNL     1      42.681 129.870  22.731  1.00  0.00     0.342 C 
ATOM     20  N   UNL     1      43.139 130.174  21.405  1.00  0.00    -0.322 N 
ATOM     21  O   UNL     1      42.628 130.780  23.603  1.00  0.00    -0.246 OA
ATOM     22  H   UNL     1      43.214 129.409  20.698  1.00  0.00     0.166 HD
BRANCH  20  23
ATOM     23  C   UNL     1      43.617 131.505  21.032  1.00  0.00     0.137 C 
ATOM     24  C   UNL     1      42.860 132.124  19.865  1.00  0.00     0.041 C 
ATOM     25  C   UNL     1      42.639 132.644  21.284  1.00  0.00     0.041 C 
BRANCH  23  26
ATOM     26  C   UNL     1      45.128 131.767  21.122  1.00  0.00     0.411 C 
ATOM     27  F   UNL     1      45.497 132.217  22.378  1.00  0.00    -0.168 F 
ATOM     28  F   UNL     1      45.815 130.599  20.852  1.00  0.00    -0.168 F 
ATOM     29  F   UNL     1      45.481 132.720  20.185  1.00  0.00    -0.168 F 
ENDBRANCH  23  26
ENDBRANCH  20  23
ENDBRANCH   8  19
TORSDOF 5
ENDMDL
MODEL 4
REMARK VINA RESULT:      -4.2      1.937      2.729
REMARK SMILES Cc1ccc(-c2ccc(O)cc2)c2cn(C(=O)NC3(C(F)(F)F)CC3)nc12
REMARK SMILES IDX 1 1 2 2 3 3 4 4 5 5 13 6 14 7 15 8 26 9 27 10 6 11 7 12
REMARK SMILES IDX 12 13 8 14 11 15 9 16 10 17 16 19 18 20 17 21 19 23 24 24
REMARK SMILES IDX 25 25 20 26 21 27 22 28 23 29
REMARK H PARENT 10 18 18 22
ROOT
ATOM      1  C   UNL     1      41.404 133.661  21.178  1.00  0.00     0.047 C 
ATOM      2  C   UNL     1      42.236 132.476  21.570  1.00  0.00    -0.023 A 
ATOM      3  C   UNL     1      42.091 131.862  22.832  1.00  0.00     0.006 A 
ATOM      4  C   UNL     1      42.867 130.734  23.179  1.00  0.00     0.010 A 
ATOM      5  C   UNL     1      43.793 130.182  22.266  1.00  0.00    -0.007 A 
ATOM      6  C   UNL     1      43.906 130.812  21.018  1.00  0.00     0.029 A 
ATOM      7  C   UNL     1      44.714 130.580  19.925  1.00  0.00     0.129 A 
ATOM      8  N   UNL     1      44.416 131.517  18.994  1.00  0.00    -0.189 N 
ATOM      9  N   UNL     1      43.470 132.334  19.445  1.00  0.00    -0.164 NA
ATOM     10  C   UNL     1      43.157 131.912  20.684  1.00  0.00     0.096 A 
ENDROOT
BRANCH   5  11
ATOM     11  C   UNL     1      44.595 128.990  22.627  1.00  0.00    -0.017 A 
ATOM     12  C   UNL     1      45.265 128.250  21.637  1.00  0.00     0.012 A 
ATOM     13  C   UNL     1      44.673 128.569  23.966  1.00  0.00     0.012 A 
ATOM     14  C   UNL     1      46.012 127.121  21.983  1.00  0.00     0.047 A 
ATOM     15  C   UNL     1      45.421 127.439  24.308  1.00  0.00     0.047 A 
ATOM     16  C   UNL     1      46.093 126.714  23.320  1.00  0.00     0.115 A 
BRANCH  16  17
ATOM     17  O   UNL     1      46.836 125.590  23.677  1.00  0.00    -0.508 OA
ATOM     18  H   UNL     1      47.727 125.385  23.242  1.00  0.00     0.293 HD
ENDBRANCH  16  17
ENDBRANCH   5  11
BRANCH   8  19
ATOM     19  C   UNL     1      45.026 131.638  17.702  1.00  0.00     0.342 C 
ATOM     20  N   UNL     1      45.050 130.518  16.805  1.00  0.00    -0.322 N 
ATOM     21  O   UNL     1      45.541 132.736  17.353  1.00  0.00    -0.246 OA
ATOM     22  H   UNL     1      44.654 129.603  17.115  1.00  0.00     0.166 HD
BRANCH  20  23
ATOM     23  C   UNL     1      45.716 130.575  15.504  1.00  0.00     0.137 C 
ATOM     24  C   UNL     1      44.883 131.245  14.419  1.00  0.00     0.041 C 
ATOM     25  C   UNL     1      46.084 131.971  15.021  1.00  0.00     0.041 C 
BRANCH  23  26
ATOM     26  C   UNL     1      46.586 129.377  15.099  1.00  0.00     0.411 C 
ATOM     27  F   UNL     1      47.758 129.322  15.834  1.00  0.00    -0.168 F 
ATOM     28  F   UNL     1      45.881 128.206  15.302  1.00  0.00    -0.168 F 
ATOM     29  F   UNL     1      46.906 129.479  13.757  1.00  0.00    -0.168 F 
ENDBRANCH  23  26
ENDBRANCH  20  23
ENDBRANCH   8  19
TORSDOF 5
ENDMDL
MODEL 5
REMARK VINA RESULT:      -4.1      1.151      1.860
REMARK SMILES Cc1ccc(-c2ccc(O)cc2)c2cn(C(=O)NC3(C(F)(F)F)CC3)nc12
REMARK SMILES IDX 1 1 2 2 3 3 4 4 5 5 13 6 14 7 15 8 26 9 27 10 6 11 7 12
REMARK SMILES IDX 12 13 8 14 11 15 9 16 10 17 16 19 18 20 17 21 19 23 24 24
REMARK SMILES IDX 25 25 20 26 21 27 22 28 23 29
REMARK H PARENT 10 18 18 22
ROOT
ATOM      1  C   UNL     1      43.747 132.810  23.817  1.00  0.00     0.047 C 
ATOM      2  C   UNL     1      44.138 131.383  23.567  1.00  0.00    -0.023 A 
ATOM      3  C   UNL     1      44.246 130.456  24.624  1.00  0.00     0.006 A 
ATOM      4  C   UNL     1      44.595 129.111  24.372  1.00  0.00     0.010 A 
ATOM      5  C   UNL     1      44.827 128.658  23.053  1.00  0.00    -0.007 A 
ATOM      6  C   UNL     1      44.702 129.604  22.026  1.00  0.00     0.029 A 
ATOM      7  C   UNL     1      44.891 129.530  20.662  1.00  0.00     0.129 A 
ATOM      8  N   UNL     1      44.655 130.763  20.153  1.00  0.00    -0.189 N 
ATOM      9  N   UNL     1      44.338 131.612  21.125  1.00  0.00    -0.164 NA
ATOM     10  C   UNL     1      44.370 130.911  22.273  1.00  0.00     0.096 A 
ENDROOT
BRANCH   5  11
ATOM     11  C   UNL     1      45.178 127.242  22.789  1.00  0.00    -0.017 A 
ATOM     12  C   UNL     1      46.513 126.865  22.565  1.00  0.00     0.012 A 
ATOM     13  C   UNL     1      44.171 126.263  22.733  1.00  0.00     0.012 A 
ATOM     14  C   UNL     1      46.837 125.530  22.307  1.00  0.00     0.047 A 
ATOM     15  C   UNL     1      44.498 124.928  22.476  1.00  0.00     0.047 A 
ATOM     16  C   UNL     1      45.829 124.558  22.264  1.00  0.00     0.115 A 
BRANCH  16  17
ATOM     17  O   UNL     1      46.140 123.224  22.008  1.00  0.00    -0.508 OA
ATOM     18  H   UNL     1      46.874 122.967  21.359  1.00  0.00     0.293 HD
ENDBRANCH  16  17
ENDBRANCH   5  11
BRANCH   8  19
ATOM     19  C   UNL     1      44.739 131.128  18.769  1.00  0.00     0.342 C 
ATOM     20  N   UNL     1      45.320 130.225  17.817  1.00  0.00    -0.322 N 
ATOM     21  O   UNL     1      44.297 132.246  18.388  1.00  0.00    -0.246 OA
ATOM     22  H   UNL     1      45.716 129.316  18.146  1.00  0.00     0.166 HD
BRANCH  20  23
ATOM     23  C   UNL     1      45.484 130.578  16.407  1.00  0.00     0.137 C 
ATOM     24  C   UNL     1      44.675 131.796  15.983  1.00  0.00     0.041 C 
ATOM     25  C   UNL     1      46.189 131.902  16.145  1.00  0.00     0.041 C 
BRANCH  23  26
ATOM     26  C   UNL     1      45.626 129.428  15.399  1.00  0.00     0.411 C 
ATOM     27  F   UNL     1      46.858 128.806  15.501  1.00  0.00    -0.168 F 
ATOM     28  F   UNL     1      44.637 128.491  15.627  1.00  0.00    -0.168 F 
ATOM     29  F   UNL     1      45.483 129.927  14.117  1.00  0.00    -0.168 F 
ENDBRANCH  23  26
ENDBRANCH  20  23
ENDBRANCH   8  19
TORSDOF 5
ENDMDL
MODEL 6
REMARK VINA RESULT:      -4.1      1.793      2.615
REMARK SMILES Cc1ccc(-c2ccc(O)cc2)c2cn(C(=O)NC3(C(F)(F)F)CC3)nc12
REMARK SMILES IDX 1 1 2 2 3 3 4 4 5 5 13 6 14 7 15 8 26 9 27 10 6 11 7 12
REMARK SMILES IDX 12 13 8 14 11 15 9 16 10 17 16 19 18 20 17 21 19 23 24 24
REMARK SMILES IDX 25 25 20 26 21 27 22 28 23 29
REMARK H PARENT 10 18 18 22
ROOT
ATOM      1  C   UNL     1      41.488 133.744  20.729  1.00  0.00     0.047 C 
ATOM      2  C   UNL     1      42.290 132.568  21.204  1.00  0.00    -0.023 A 
ATOM      3  C   UNL     1      42.260 132.156  22.552  1.00  0.00     0.006 A 
ATOM      4  C   UNL     1      43.004 131.034  22.980  1.00  0.00     0.010 A 
ATOM      5  C   UNL     1      43.780 130.287  22.066  1.00  0.00    -0.007 A 
ATOM      6  C   UNL     1      43.779 130.719  20.732  1.00  0.00     0.029 A 
ATOM      7  C   UNL     1      44.435 130.270  19.605  1.00  0.00     0.129 A 
ATOM      8  N   UNL     1      44.084 131.083  18.580  1.00  0.00    -0.189 N 
ATOM      9  N   UNL     1      43.249 132.026  19.003  1.00  0.00    -0.164 NA
ATOM     10  C   UNL     1      43.062 131.813  20.318  1.00  0.00     0.096 A 
ENDROOT
BRANCH   5  11
ATOM     11  C   UNL     1      44.547 129.101  22.514  1.00  0.00    -0.017 A 
ATOM     12  C   UNL     1      44.625 128.772  23.879  1.00  0.00     0.012 A 
ATOM     13  C   UNL     1      45.228 128.305  21.578  1.00  0.00     0.012 A 
ATOM     14  C   UNL     1      45.358 127.658  24.296  1.00  0.00     0.047 A 
ATOM     15  C   UNL     1      45.960 127.190  21.999  1.00  0.00     0.047 A 
ATOM     16  C   UNL     1      46.026 126.862  23.356  1.00  0.00     0.115 A 
BRANCH  16  17
ATOM     17  O   UNL     1      46.758 125.748  23.761  1.00  0.00    -0.508 OA
ATOM     18  H   UNL     1      46.908 125.541  24.741  1.00  0.00     0.293 HD
ENDBRANCH  16  17
ENDBRANCH   5  11
BRANCH   8  19
ATOM     19  C   UNL     1      44.542 130.969  17.226  1.00  0.00     0.342 C 
ATOM     20  N   UNL     1      45.881 130.531  16.950  1.00  0.00    -0.322 N 
ATOM     21  O   UNL     1      43.762 131.250  16.275  1.00  0.00    -0.246 OA
ATOM     22  H   UNL     1      46.531 130.334  17.742  1.00  0.00     0.166 HD
BRANCH  20  23
ATOM     23  C   UNL     1      46.411 130.460  15.589  1.00  0.00     0.137 C 
ATOM     24  C   UNL     1      47.609 129.531  15.446  1.00  0.00     0.041 C 
ATOM     25  C   UNL     1      46.247 129.115  14.895  1.00  0.00     0.041 C 
BRANCH  23  26
ATOM     26  C   UNL     1      46.406 131.751  14.756  1.00  0.00     0.411 C 
ATOM     27  F   UNL     1      47.550 131.869  13.986  1.00  0.00    -0.168 F 
ATOM     28  F   UNL     1      45.306 131.755  13.919  1.00  0.00    -0.168 F 
ATOM     29  F   UNL     1      46.325 132.839  15.606  1.00  0.00    -0.168 F 
ENDBRANCH  23  26
ENDBRANCH  20  23
ENDBRANCH   8  19
TORSDOF 5
ENDMDL
MODEL 7
REMARK VINA RESULT:      -3.7      0.741      1.113
REMARK SMILES Cc1ccc(-c2ccc(O)cc2)c2cn(C(=O)NC3(C(F)(F)F)CC3)nc12
REMARK SMILES IDX 1 1 2 2 3 3 4 4 5 5 13 6 14 7 15 8 26 9 27 10 6 11 7 12
REMARK SMILES IDX 12 13 8 14 11 15 9 16 10 17 16 19 18 20 17 21 19 23 24 24
REMARK SMILES IDX 25 25 20 26 21 27 22 28 23 29
REMARK H PARENT 10 18 18 22
ROOT
ATOM      1  C   UNL     1      44.180 132.871  23.780  1.00  0.00     0.047 C 
ATOM      2  C   UNL     1      44.375 131.401  23.552  1.00  0.00    -0.023 A 
ATOM      3  C   UNL     1      44.358 130.484  24.624  1.00  0.00     0.006 A 
ATOM      4  C   UNL     1      44.522 129.100  24.393  1.00  0.00     0.010 A 
ATOM      5  C   UNL     1      44.688 128.599  23.082  1.00  0.00    -0.007 A 
ATOM      6  C   UNL     1      44.692 129.537  22.040  1.00  0.00     0.029 A 
ATOM      7  C   UNL     1      44.867 129.418  20.677  1.00  0.00     0.129 A 
ATOM      8  N   UNL     1      44.799 130.663  20.149  1.00  0.00    -0.189 N 
ATOM      9  N   UNL     1      44.601 131.562  21.107  1.00  0.00    -0.164 NA
ATOM     10  C   UNL     1      44.539 130.881  22.266  1.00  0.00     0.096 A 
ENDROOT
BRANCH   5  11
ATOM     11  C   UNL     1      44.845 127.146  22.840  1.00  0.00    -0.017 A 
ATOM     12  C   UNL     1      43.836 126.243  23.218  1.00  0.00     0.012 A 
ATOM     13  C   UNL     1      46.021 126.649  22.252  1.00  0.00     0.012 A 
ATOM     14  C   UNL     1      43.994 124.873  22.996  1.00  0.00     0.047 A 
ATOM     15  C   UNL     1      46.176 125.278  22.031  1.00  0.00     0.047 A 
ATOM     16  C   UNL     1      45.164 124.387  22.400  1.00  0.00     0.115 A 
BRANCH  16  17
ATOM     17  O   UNL     1      45.332 123.022  22.173  1.00  0.00    -0.508 OA
ATOM     18  H   UNL     1      45.809 122.429  22.841  1.00  0.00     0.293 HD
ENDBRANCH  16  17
ENDBRANCH   5  11
BRANCH   8  19
ATOM     19  C   UNL     1      44.930 130.991  18.759  1.00  0.00     0.342 C 
ATOM     20  N   UNL     1      45.548 130.066  17.853  1.00  0.00    -0.322 N 
ATOM     21  O   UNL     1      44.496 132.096  18.333  1.00  0.00    -0.246 OA
ATOM     22  H   UNL     1      45.937 129.169  18.219  1.00  0.00     0.166 HD
BRANCH  20  23
ATOM     23  C   UNL     1      45.760 130.383  16.440  1.00  0.00     0.137 C 
ATOM     24  C   UNL     1      47.121 129.949  15.913  1.00  0.00     0.041 C 
ATOM     25  C   UNL     1      45.863 129.182  15.511  1.00  0.00     0.041 C 
BRANCH  23  26
ATOM     26  C   UNL     1      45.178 131.703  15.915  1.00  0.00     0.411 C 
ATOM     27  F   UNL     1      45.148 131.735  14.531  1.00  0.00    -0.168 F 
ATOM     28  F   UNL     1      43.889 131.860  16.389  1.00  0.00    -0.168 F 
ATOM     29  F   UNL     1      45.953 132.755  16.369  1.00  0.00    -0.168 F 
ENDBRANCH  23  26
ENDBRANCH  20  23
ENDBRANCH   8  19
TORSDOF 5
ENDMDL
MODEL 8
REMARK VINA RESULT:      -3.6      1.620      2.288
REMARK SMILES Cc1ccc(-c2ccc(O)cc2)c2cn(C(=O)NC3(C(F)(F)F)CC3)nc12
REMARK SMILES IDX 1 1 2 2 3 3 4 4 5 5 13 6 14 7 15 8 26 9 27 10 6 11 7 12
REMARK SMILES IDX 12 13 8 14 11 15 9 16 10 17 16 19 18 20 17 21 19 23 24 24
REMARK SMILES IDX 25 25 20 26 21 27 22 28 23 29
REMARK H PARENT 10 18 18 22
ROOT
ATOM      1  C   UNL     1      44.843 133.445  23.612  1.00  0.00     0.047 C 
ATOM      2  C   UNL     1      44.702 131.956  23.485  1.00  0.00    -0.023 A 
ATOM      3  C   UNL     1      44.657 131.123  24.622  1.00  0.00     0.006 A 
ATOM      4  C   UNL     1      44.502 129.726  24.488  1.00  0.00     0.010 A 
ATOM      5  C   UNL     1      44.371 129.131  23.213  1.00  0.00    -0.007 A 
ATOM      6  C   UNL     1      44.412 129.989  22.105  1.00  0.00     0.029 A 
ATOM      7  C   UNL     1      44.359 129.761  20.745  1.00  0.00     0.129 A 
ATOM      8  N   UNL     1      44.468 130.962  20.129  1.00  0.00    -0.189 N 
ATOM      9  N   UNL     1      44.597 131.933  21.026  1.00  0.00    -0.164 NA
ATOM     10  C   UNL     1      44.569 131.345  22.236  1.00  0.00     0.096 A 
ENDROOT
BRANCH   5  11
ATOM     11  C   UNL     1      44.194 127.666  23.075  1.00  0.00    -0.017 A 
ATOM     12  C   UNL     1      45.194 126.876  22.480  1.00  0.00     0.012 A 
ATOM     13  C   UNL     1      43.008 127.053  23.514  1.00  0.00     0.012 A 
ATOM     14  C   UNL     1      45.017 125.497  22.345  1.00  0.00     0.047 A 
ATOM     15  C   UNL     1      42.835 125.672  23.378  1.00  0.00     0.047 A 
ATOM     16  C   UNL     1      43.837 124.891  22.795  1.00  0.00     0.115 A 
BRANCH  16  17
ATOM     17  O   UNL     1      43.650 123.516  22.666  1.00  0.00    -0.508 OA
ATOM     18  H   UNL     1      44.393 122.909  22.342  1.00  0.00     0.293 HD
ENDBRANCH  16  17
ENDBRANCH   5  11
BRANCH   8  19
ATOM     19  C   UNL     1      44.459 131.179  18.711  1.00  0.00     0.342 C 
ATOM     20  N   UNL     1      45.525 130.672  17.895  1.00  0.00    -0.322 N 
ATOM     21  O   UNL     1      43.507 131.815  18.181  1.00  0.00    -0.246 OA
ATOM     22  H   UNL     1      46.327 130.178  18.345  1.00  0.00     0.166 HD
BRANCH  20  23
ATOM     23  C   UNL     1      45.591 130.923  16.455  1.00  0.00     0.137 C 
ATOM     24  C   UNL     1      44.430 131.754  15.925  1.00  0.00     0.041 C 
ATOM     25  C   UNL     1      45.820 132.374  16.056  1.00  0.00     0.041 C 
BRANCH  23  26
ATOM     26  C   UNL     1      46.128 129.794  15.563  1.00  0.00     0.411 C 
ATOM     27  F   UNL     1      45.433 128.613  15.757  1.00  0.00    -0.168 F 
ATOM     28  F   UNL     1      46.013 130.162  14.236  1.00  0.00    -0.168 F 
ATOM     29  F   UNL     1      47.462 129.580  15.854  1.00  0.00    -0.168 F 
ENDBRANCH  23  26
ENDBRANCH  20  23
ENDBRANCH   8  19
TORSDOF 5
ENDMDL
MODEL 9
REMARK VINA RESULT:      -3.4      3.911      5.829
REMARK SMILES Cc1ccc(-c2ccc(O)cc2)c2cn(C(=O)NC3(C(F)(F)F)CC3)nc12
REMARK SMILES IDX 1 1 2 2 3 3 4 4 5 5 13 6 14 7 15 8 26 9 27 10 6 11 7 12
REMARK SMILES IDX 12 13 8 14 11 15 9 16 10 17 16 19 18 20 17 21 19 23 24 24
REMARK SMILES IDX 25 25 20 26 21 27 22 28 23 29
REMARK H PARENT 10 18 18 22
ROOT
ATOM      1  C   UNL     1      42.678 130.650  23.428  1.00  0.00     0.047 C 
ATOM      2  C   UNL     1      43.882 131.522  23.227  1.00  0.00    -0.023 A 
ATOM      3  C   UNL     1      44.546 132.121  24.318  1.00  0.00     0.006 A 
ATOM      4  C   UNL     1      45.691 132.922  24.114  1.00  0.00     0.010 A 
ATOM      5  C   UNL     1      46.211 133.128  22.817  1.00  0.00    -0.007 A 
ATOM      6  C   UNL     1      45.531 132.511  21.756  1.00  0.00     0.029 A 
ATOM      7  C   UNL     1      45.724 132.526  20.391  1.00  0.00     0.129 A 
ATOM      8  N   UNL     1      44.748 131.768  19.836  1.00  0.00    -0.189 N 
ATOM      9  N   UNL     1      43.945 131.284  20.778  1.00  0.00    -0.164 NA
ATOM     10  C   UNL     1      44.416 131.739  21.954  1.00  0.00     0.096 A 
ENDROOT
BRANCH   5  11
ATOM     11  C   UNL     1      47.421 133.957  22.607  1.00  0.00    -0.017 A 
ATOM     12  C   UNL     1      48.562 133.774  23.407  1.00  0.00     0.012 A 
ATOM     13  C   UNL     1      47.431 134.957  21.620  1.00  0.00     0.012 A 
ATOM     14  C   UNL     1      49.697 134.565  23.211  1.00  0.00     0.047 A 
ATOM     15  C   UNL     1      48.569 135.746  21.426  1.00  0.00     0.047 A 
ATOM     16  C   UNL     1      49.704 135.552  22.218  1.00  0.00     0.115 A 
BRANCH  16  17
ATOM     17  O   UNL     1      50.830 136.346  22.013  1.00  0.00    -0.508 OA
ATOM     18  H   UNL     1      51.222 136.911  22.756  1.00  0.00     0.293 HD
ENDBRANCH  16  17
ENDBRANCH   5  11
BRANCH   8  19
ATOM     19  C   UNL     1      44.578 131.516  18.435  1.00  0.00     0.342 C 
ATOM     20  N   UNL     1      45.712 131.193  17.615  1.00  0.00    -0.322 N 
ATOM     21  O   UNL     1      43.427 131.575  17.922  1.00  0.00    -0.246 OA
ATOM     22  H   UNL     1      46.666 131.182  18.039  1.00  0.00     0.166 HD
BRANCH  20  23
ATOM     23  C   UNL     1      45.596 130.991  16.171  1.00  0.00     0.137 C 
ATOM     24  C   UNL     1      44.604 131.929  15.498  1.00  0.00     0.041 C 
ATOM     25  C   UNL     1      46.105 132.137  15.309  1.00  0.00     0.041 C 
BRANCH  23  26
ATOM     26  C   UNL     1      45.683 129.549  15.648  1.00  0.00     0.411 C 
ATOM     27  F   UNL     1      45.863 128.640  16.677  1.00  0.00    -0.168 F 
ATOM     28  F   UNL     1      44.519 129.232  14.975  1.00  0.00    -0.168 F 
ATOM     29  F   UNL     1      46.748 129.447  14.771  1.00  0.00    -0.168 F 
ENDBRANCH  23  26
ENDBRANCH  20  23
ENDBRANCH   8  19
TORSDOF 5
ENDMDL


