REMARK SMILES Cc1ccc(Nc2cc(F)c(C)cc2N)c(F)[nH+]1
REMARK SMILES IDX 7 1 8 2 9 3 10 4 11 5 12 6 13 7 14 8 6 9 5 11 2 12 3 13
REMARK SMILES IDX 18 14 4 15 16 16 1 17 17 19 15 20
REMARK H PARENT 6 10 18 18 15 21 15 22
ROOT
ATOM      1  C   UNL     1       0.302  -0.179  -2.011  1.00  0.00     0.065 A 
ATOM      2  C   UNL     1      -0.801  -0.395  -2.847  1.00  0.00     0.067 A 
ATOM      3  C   UNL     1      -1.541  -1.575  -2.757  1.00  0.00     0.128 A 
ATOM      4  F   UNL     1      -2.608  -1.754  -3.577  1.00  0.00    -0.207 F 
ATOM      5  C   UNL     1      -1.186  -2.561  -1.824  1.00  0.00    -0.013 A 
ATOM      6  C   UNL     1      -1.964  -3.843  -1.744  1.00  0.00     0.047 C 
ATOM      7  C   UNL     1      -0.055  -2.369  -1.016  1.00  0.00     0.034 A 
ATOM      8  C   UNL     1       0.699  -1.189  -1.106  1.00  0.00     0.056 A 
ENDROOT
BRANCH   1   9
ATOM      9  N   UNL     1       1.019   1.060  -2.118  1.00  0.00    -0.346 N 
ATOM     10  H   UNL     1       1.310   1.364  -3.075  1.00  0.00     0.167 HD
BRANCH   9  11
ATOM     11  C   UNL     1       1.183   1.986  -1.026  1.00  0.00     0.144 A 
ATOM     12  C   UNL     1       1.527   3.834   1.037  1.00  0.00     0.179 A 
ATOM     13  C   UNL     1       0.606   2.792   1.188  1.00  0.00     0.076 A 
ATOM     14  N   UNL     1       2.259   3.926  -0.111  1.00  0.00    -0.182 N 
ATOM     15  C   UNL     1       0.428   1.875   0.153  1.00  0.00     0.042 A 
ATOM     16  C   UNL     1       2.102   3.042  -1.134  1.00  0.00     0.381 A 
ATOM     17  C   UNL     1       1.755   4.805   2.157  1.00  0.00     0.123 C 
ATOM     18  H   UNL     1       2.963   4.692  -0.217  1.00  0.00     0.456 HD
ATOM     19  F   UNL     1       2.854   3.180  -2.255  1.00  0.00    -0.134 F 
ENDBRANCH   9  11
ENDBRANCH   1   9
BRANCH   8  20
ATOM     20  N   UNL     1       1.882  -1.053  -0.309  1.00  0.00    -0.397 N 
ATOM     21  H   UNL     1       2.550  -0.263  -0.446  1.00  0.00     0.156 HD
ATOM     22  H   UNL     1       2.137  -1.783   0.393  1.00  0.00     0.156 HD
ENDBRANCH   8  20
TORSDOF 3


