MODEL 1
REMARK VINA RESULT:      -9.7      0.000      0.000
REMARK SMILES c1cc2cc(-c3ncc4c(n3)CCCC4)ccc2[nH]1
REMARK SMILES IDX 1 1 2 2 3 3 4 4 5 5 16 6 17 7 18 8 19 9 6 11 7 12 11 13 8 14
REMARK SMILES IDX 10 15 9 16 12 17 15 18 13 19 14 20
REMARK H PARENT 19 10
ROOT
ATOM      1  C   UNL     1      43.536 131.656  22.900  1.00  0.00     0.083 A 
ATOM      2  C   UNL     1      44.602 131.360  22.055  1.00  0.00     0.028 A 
ATOM      3  C   UNL     1      44.102 131.506  20.780  1.00  0.00     0.000 A 
ATOM      4  C   UNL     1      44.716 131.340  19.542  1.00  0.00     0.022 A 
ATOM      5  C   UNL     1      43.944 131.562  18.375  1.00  0.00     0.020 A 
ATOM      6  C   UNL     1      42.581 131.946  18.507  1.00  0.00     0.014 A 
ATOM      7  C   UNL     1      41.995 132.104  19.776  1.00  0.00     0.027 A 
ATOM      8  C   UNL     1      42.790 131.875  20.895  1.00  0.00     0.045 A 
ATOM      9  N   UNL     1      42.431 131.970  22.186  1.00  0.00    -0.361 N 
ATOM     10  H   UNL     1      41.494 132.231  22.564  1.00  0.00     0.166 HD
ENDROOT
BRANCH   5  11
ATOM     11  C   UNL     1      44.551 131.398  17.032  1.00  0.00     0.159 A 
ATOM     12  N   UNL     1      43.967 131.963  15.939  1.00  0.00    -0.236 NA
ATOM     13  N   UNL     1      45.699 130.684  16.879  1.00  0.00    -0.233 NA
ATOM     14  C   UNL     1      44.509 131.831  14.702  1.00  0.00     0.119 A 
ATOM     15  C   UNL     1      46.276 130.510  15.660  1.00  0.00     0.048 A 
ATOM     16  C   UNL     1      45.695 131.112  14.526  1.00  0.00    -0.008 A 
ATOM     17  C   UNL     1      47.582 129.763  15.577  1.00  0.00     0.056 C 
ATOM     18  C   UNL     1      46.252 130.905  13.139  1.00  0.00     0.039 C 
ATOM     19  C   UNL     1      47.897 129.292  14.153  1.00  0.00     0.007 C 
ATOM     20  C   UNL     1      47.712 130.440  13.157  1.00  0.00     0.005 C 
ENDBRANCH   5  11
TORSDOF 1
ENDMDL
MODEL 2
REMARK VINA RESULT:      -9.5      0.904      1.634
REMARK SMILES c1cc2cc(-c3ncc4c(n3)CCCC4)ccc2[nH]1
REMARK SMILES IDX 1 1 2 2 3 3 4 4 5 5 16 6 17 7 18 8 19 9 6 11 7 12 11 13 8 14
REMARK SMILES IDX 10 15 9 16 12 17 15 18 13 19 14 20
REMARK H PARENT 19 10
ROOT
ATOM      1  C   UNL     1      42.659 131.821  22.811  1.00  0.00     0.083 A 
ATOM      2  C   UNL     1      42.417 132.198  21.493  1.00  0.00     0.028 A 
ATOM      3  C   UNL     1      43.459 131.663  20.768  1.00  0.00     0.000 A 
ATOM      4  C   UNL     1      43.736 131.718  19.405  1.00  0.00     0.022 A 
ATOM      5  C   UNL     1      44.901 131.065  18.930  1.00  0.00     0.020 A 
ATOM      6  C   UNL     1      45.738 130.380  19.854  1.00  0.00     0.014 A 
ATOM      7  C   UNL     1      45.424 130.346  21.225  1.00  0.00     0.027 A 
ATOM      8  C   UNL     1      44.272 131.002  21.647  1.00  0.00     0.045 A 
ATOM      9  N   UNL     1      43.794 131.091  22.900  1.00  0.00    -0.361 N 
ATOM     10  H   UNL     1      44.210 130.683  23.765  1.00  0.00     0.166 HD
ENDROOT
BRANCH   5  11
ATOM     11  C   UNL     1      45.241 131.094  17.487  1.00  0.00     0.159 A 
ATOM     12  N   UNL     1      44.508 131.848  16.623  1.00  0.00    -0.236 NA
ATOM     13  N   UNL     1      46.289 130.367  17.014  1.00  0.00    -0.233 NA
ATOM     14  C   UNL     1      44.806 131.895  15.300  1.00  0.00     0.119 A 
ATOM     15  C   UNL     1      46.622 130.367  15.695  1.00  0.00     0.048 A 
ATOM     16  C   UNL     1      45.887 131.166  14.796  1.00  0.00    -0.008 A 
ATOM     17  C   UNL     1      47.835 129.591  15.254  1.00  0.00     0.056 C 
ATOM     18  C   UNL     1      46.167 131.161  13.312  1.00  0.00     0.039 C 
ATOM     19  C   UNL     1      47.853 129.342  13.742  1.00  0.00     0.007 C 
ATOM     20  C   UNL     1      47.570 130.640  12.983  1.00  0.00     0.005 C 
ENDBRANCH   5  11
TORSDOF 1
ENDMDL
MODEL 3
REMARK VINA RESULT:      -9.2      1.495      6.918
REMARK SMILES c1cc2cc(-c3ncc4c(n3)CCCC4)ccc2[nH]1
REMARK SMILES IDX 1 1 2 2 3 3 4 4 5 5 16 6 17 7 18 8 19 9 6 11 7 12 11 13 8 14
REMARK SMILES IDX 10 15 9 16 12 17 15 18 13 19 14 20
REMARK H PARENT 19 10
ROOT
ATOM      1  C   UNL     1      48.172 129.442  13.365  1.00  0.00     0.083 A 
ATOM      2  C   UNL     1      47.624 128.943  14.543  1.00  0.00     0.028 A 
ATOM      3  C   UNL     1      46.922 129.996  15.088  1.00  0.00     0.000 A 
ATOM      4  C   UNL     1      46.175 130.076  16.260  1.00  0.00     0.022 A 
ATOM      5  C   UNL     1      45.552 131.309  16.575  1.00  0.00     0.020 A 
ATOM      6  C   UNL     1      45.709 132.411  15.691  1.00  0.00     0.014 A 
ATOM      7  C   UNL     1      46.472 132.292  14.516  1.00  0.00     0.027 A 
ATOM      8  C   UNL     1      47.067 131.063  14.245  1.00  0.00     0.045 A 
ATOM      9  N   UNL     1      47.829 130.739  13.188  1.00  0.00    -0.361 N 
ATOM     10  H   UNL     1      48.102 131.356  12.393  1.00  0.00     0.166 HD
ENDROOT
BRANCH   5  11
ATOM     11  C   UNL     1      44.744 131.446  17.811  1.00  0.00     0.159 A 
ATOM     12  N   UNL     1      43.454 131.873  17.746  1.00  0.00    -0.236 NA
ATOM     13  N   UNL     1      45.286 131.145  19.023  1.00  0.00    -0.233 NA
ATOM     14  C   UNL     1      42.694 132.000  18.864  1.00  0.00     0.119 A 
ATOM     15  C   UNL     1      44.574 131.267  20.175  1.00  0.00     0.048 A 
ATOM     16  C   UNL     1      43.228 131.683  20.116  1.00  0.00    -0.008 A 
ATOM     17  C   UNL     1      45.218 130.853  21.471  1.00  0.00     0.056 C 
ATOM     18  C   UNL     1      42.404 131.898  21.363  1.00  0.00     0.039 C 
ATOM     19  C   UNL     1      44.485 131.414  22.695  1.00  0.00     0.007 C 
ATOM     20  C   UNL     1      42.980 131.163  22.578  1.00  0.00     0.005 C 
ENDBRANCH   5  11
TORSDOF 1
ENDMDL
MODEL 4
REMARK VINA RESULT:      -9.1      1.559      7.150
REMARK SMILES c1cc2cc(-c3ncc4c(n3)CCCC4)ccc2[nH]1
REMARK SMILES IDX 1 1 2 2 3 3 4 4 5 5 16 6 17 7 18 8 19 9 6 11 7 12 11 13 8 14
REMARK SMILES IDX 10 15 9 16 12 17 15 18 13 19 14 20
REMARK H PARENT 19 10
ROOT
ATOM      1  C   UNL     1      47.570 130.014  13.210  1.00  0.00     0.083 A 
ATOM      2  C   UNL     1      47.749 129.537  14.506  1.00  0.00     0.028 A 
ATOM      3  C   UNL     1      46.825 130.215  15.270  1.00  0.00     0.000 A 
ATOM      4  C   UNL     1      46.550 130.144  16.633  1.00  0.00     0.022 A 
ATOM      5  C   UNL     1      45.526 130.974  17.154  1.00  0.00     0.020 A 
ATOM      6  C   UNL     1      44.821 131.841  16.275  1.00  0.00     0.014 A 
ATOM      7  C   UNL     1      45.127 131.884  14.903  1.00  0.00     0.027 A 
ATOM      8  C   UNL     1      46.140 131.054  14.434  1.00  0.00     0.045 A 
ATOM      9  N   UNL     1      46.586 130.941  13.172  1.00  0.00    -0.361 N 
ATOM     10  H   UNL     1      46.246 131.459  12.333  1.00  0.00     0.166 HD
ENDROOT
BRANCH   5  11
ATOM     11  C   UNL     1      45.194 130.936  18.599  1.00  0.00     0.159 A 
ATOM     12  N   UNL     1      45.972 130.231  19.465  1.00  0.00    -0.236 NA
ATOM     13  N   UNL     1      44.110 131.607  19.073  1.00  0.00    -0.233 NA
ATOM     14  C   UNL     1      45.691 130.188  20.792  1.00  0.00     0.119 A 
ATOM     15  C   UNL     1      43.775 131.586  20.390  1.00  0.00     0.048 A 
ATOM     16  C   UNL     1      44.589 130.882  21.301  1.00  0.00    -0.008 A 
ATOM     17  C   UNL     1      42.600 132.407  20.852  1.00  0.00     0.056 C 
ATOM     18  C   UNL     1      44.237 130.769  22.764  1.00  0.00     0.039 C 
ATOM     19  C   UNL     1      42.094 131.979  22.235  1.00  0.00     0.007 C 
ATOM     20  C   UNL     1      43.261 131.860  23.217  1.00  0.00     0.005 C 
ENDBRANCH   5  11
TORSDOF 1
ENDMDL
MODEL 5
REMARK VINA RESULT:      -8.9      1.528      6.986
REMARK SMILES c1cc2cc(-c3ncc4c(n3)CCCC4)ccc2[nH]1
REMARK SMILES IDX 1 1 2 2 3 3 4 4 5 5 16 6 17 7 18 8 19 9 6 11 7 12 11 13 8 14
REMARK SMILES IDX 10 15 9 16 12 17 15 18 13 19 14 20
REMARK H PARENT 19 10
ROOT
ATOM      1  C   UNL     1      47.908 130.952  12.968  1.00  0.00     0.083 A 
ATOM      2  C   UNL     1      47.394 131.923  13.822  1.00  0.00     0.028 A 
ATOM      3  C   UNL     1      46.675 131.227  14.768  1.00  0.00     0.000 A 
ATOM      4  C   UNL     1      45.948 131.679  15.867  1.00  0.00     0.022 A 
ATOM      5  C   UNL     1      45.298 130.720  16.681  1.00  0.00     0.020 A 
ATOM      6  C   UNL     1      45.410 129.340  16.353  1.00  0.00     0.014 A 
ATOM      7  C   UNL     1      46.154 128.922  15.235  1.00  0.00     0.027 A 
ATOM      8  C   UNL     1      46.775 129.898  14.462  1.00  0.00     0.045 A 
ATOM      9  N   UNL     1      47.526 129.716  13.364  1.00  0.00    -0.361 N 
ATOM     10  H   UNL     1      47.768 128.809  12.906  1.00  0.00     0.166 HD
ENDROOT
BRANCH   5  11
ATOM     11  C   UNL     1      44.511 131.149  17.863  1.00  0.00     0.159 A 
ATOM     12  N   UNL     1      43.306 131.761  17.701  1.00  0.00    -0.236 NA
ATOM     13  N   UNL     1      44.986 130.935  19.120  1.00  0.00    -0.233 NA
ATOM     14  C   UNL     1      42.566 132.156  18.768  1.00  0.00     0.119 A 
ATOM     15  C   UNL     1      44.292 131.323  20.223  1.00  0.00     0.048 A 
ATOM     16  C   UNL     1      43.031 131.933  20.068  1.00  0.00    -0.008 A 
ATOM     17  C   UNL     1      44.849 130.993  21.582  1.00  0.00     0.056 C 
ATOM     18  C   UNL     1      42.240 132.442  21.249  1.00  0.00     0.039 C 
ATOM     19  C   UNL     1      44.204 131.825  22.697  1.00  0.00     0.007 C 
ATOM     20  C   UNL     1      42.680 131.799  22.568  1.00  0.00     0.005 C 
ENDBRANCH   5  11
TORSDOF 1
ENDMDL
MODEL 6
REMARK VINA RESULT:      -8.6      1.482      6.891
REMARK SMILES c1cc2cc(-c3ncc4c(n3)CCCC4)ccc2[nH]1
REMARK SMILES IDX 1 1 2 2 3 3 4 4 5 5 16 6 17 7 18 8 19 9 6 11 7 12 11 13 8 14
REMARK SMILES IDX 10 15 9 16 12 17 15 18 13 19 14 20
REMARK H PARENT 19 10
ROOT
ATOM      1  C   UNL     1      47.165 130.045  13.993  1.00  0.00     0.083 A 
ATOM      2  C   UNL     1      47.190 129.928  15.379  1.00  0.00     0.028 A 
ATOM      3  C   UNL     1      46.033 130.539  15.812  1.00  0.00     0.000 A 
ATOM      4  C   UNL     1      45.532 130.721  17.098  1.00  0.00     0.022 A 
ATOM      5  C   UNL     1      44.295 131.397  17.246  1.00  0.00     0.020 A 
ATOM      6  C   UNL     1      43.615 131.861  16.087  1.00  0.00     0.014 A 
ATOM      7  C   UNL     1      44.153 131.658  14.804  1.00  0.00     0.027 A 
ATOM      8  C   UNL     1      45.369 130.990  14.704  1.00  0.00     0.045 A 
ATOM      9  N   UNL     1      46.051 130.695  13.585  1.00  0.00    -0.361 N 
ATOM     10  H   UNL     1      45.781 130.919  12.603  1.00  0.00     0.166 HD
ENDROOT
BRANCH   5  11
ATOM     11  C   UNL     1      43.718 131.617  18.595  1.00  0.00     0.159 A 
ATOM     12  N   UNL     1      42.508 132.224  18.734  1.00  0.00    -0.236 NA
ATOM     13  N   UNL     1      44.392 131.212  19.705  1.00  0.00    -0.233 NA
ATOM     14  C   UNL     1      41.958 132.429  19.958  1.00  0.00     0.119 A 
ATOM     15  C   UNL     1      43.893 131.405  20.955  1.00  0.00     0.048 A 
ATOM     16  C   UNL     1      42.629 132.008  21.110  1.00  0.00    -0.008 A 
ATOM     17  C   UNL     1      44.664 130.871  22.133  1.00  0.00     0.056 C 
ATOM     18  C   UNL     1      42.048 132.306  22.471  1.00  0.00     0.039 C 
ATOM     19  C   UNL     1      44.219 131.500  23.458  1.00  0.00     0.007 C 
ATOM     20  C   UNL     1      42.694 131.468  23.579  1.00  0.00     0.005 C 
ENDBRANCH   5  11
TORSDOF 1
ENDMDL
MODEL 7
REMARK VINA RESULT:      -7.9      1.078      1.203
REMARK SMILES c1cc2cc(-c3ncc4c(n3)CCCC4)ccc2[nH]1
REMARK SMILES IDX 1 1 2 2 3 3 4 4 5 5 16 6 17 7 18 8 19 9 6 11 7 12 11 13 8 14
REMARK SMILES IDX 10 15 9 16 12 17 15 18 13 19 14 20
REMARK H PARENT 19 10
ROOT
ATOM      1  C   UNL     1      44.337 129.766  23.377  1.00  0.00     0.083 A 
ATOM      2  C   UNL     1      45.065 129.294  22.289  1.00  0.00     0.028 A 
ATOM      3  C   UNL     1      44.692 130.096  21.232  1.00  0.00     0.000 A 
ATOM      4  C   UNL     1      45.099 130.085  19.900  1.00  0.00     0.022 A 
ATOM      5  C   UNL     1      44.539 131.044  19.020  1.00  0.00     0.020 A 
ATOM      6  C   UNL     1      43.591 131.977  19.523  1.00  0.00     0.014 A 
ATOM      7  C   UNL     1      43.205 131.957  20.876  1.00  0.00     0.027 A 
ATOM      8  C   UNL     1      43.780 130.998  21.704  1.00  0.00     0.045 A 
ATOM      9  N   UNL     1      43.553 130.807  23.014  1.00  0.00    -0.361 N 
ATOM     10  H   UNL     1      42.906 131.348  23.629  1.00  0.00     0.166 HD
ENDROOT
BRANCH   5  11
ATOM     11  C   UNL     1      44.938 131.074  17.592  1.00  0.00     0.159 A 
ATOM     12  N   UNL     1      44.224 131.807  16.694  1.00  0.00    -0.236 NA
ATOM     13  N   UNL     1      46.023 130.372  17.167  1.00  0.00    -0.233 NA
ATOM     14  C   UNL     1      44.576 131.855  15.384  1.00  0.00     0.119 A 
ATOM     15  C   UNL     1      46.411 130.374  15.863  1.00  0.00     0.048 A 
ATOM     16  C   UNL     1      45.695 131.150  14.930  1.00  0.00    -0.008 A 
ATOM     17  C   UNL     1      47.660 129.627  15.478  1.00  0.00     0.056 C 
ATOM     18  C   UNL     1      46.036 131.146  13.459  1.00  0.00     0.039 C 
ATOM     19  C   UNL     1      47.747 129.371  13.969  1.00  0.00     0.007 C 
ATOM     20  C   UNL     1      47.464 130.658  13.192  1.00  0.00     0.005 C 
ENDBRANCH   5  11
TORSDOF 1
ENDMDL
MODEL 8
REMARK VINA RESULT:      -7.8      1.351      2.195
REMARK SMILES c1cc2cc(-c3ncc4c(n3)CCCC4)ccc2[nH]1
REMARK SMILES IDX 1 1 2 2 3 3 4 4 5 5 16 6 17 7 18 8 19 9 6 11 7 12 11 13 8 14
REMARK SMILES IDX 10 15 9 16 12 17 15 18 13 19 14 20
REMARK H PARENT 19 10
ROOT
ATOM      1  C   UNL     1      42.984 131.113  24.328  1.00  0.00     0.083 A 
ATOM      2  C   UNL     1      42.409 130.815  23.097  1.00  0.00     0.028 A 
ATOM      3  C   UNL     1      43.373 131.127  22.164  1.00  0.00     0.000 A 
ATOM      4  C   UNL     1      43.354 131.031  20.775  1.00  0.00     0.022 A 
ATOM      5  C   UNL     1      44.510 131.431  20.060  1.00  0.00     0.020 A 
ATOM      6  C   UNL     1      45.640 131.910  20.779  1.00  0.00     0.014 A 
ATOM      7  C   UNL     1      45.621 131.992  22.183  1.00  0.00     0.027 A 
ATOM      8  C   UNL     1      44.466 131.590  22.845  1.00  0.00     0.045 A 
ATOM      9  N   UNL     1      44.241 131.587  24.169  1.00  0.00    -0.361 N 
ATOM     10  H   UNL     1      44.897 131.887  24.922  1.00  0.00     0.166 HD
ENDROOT
BRANCH   5  11
ATOM     11  C   UNL     1      44.541 131.348  18.579  1.00  0.00     0.159 A 
ATOM     12  N   UNL     1      43.506 131.835  17.842  1.00  0.00    -0.236 NA
ATOM     13  N   UNL     1      45.606 130.787  17.945  1.00  0.00    -0.233 NA
ATOM     14  C   UNL     1      43.516 131.776  16.486  1.00  0.00     0.119 A 
ATOM     15  C   UNL     1      45.661 130.691  16.589  1.00  0.00     0.048 A 
ATOM     16  C   UNL     1      44.607 131.215  15.814  1.00  0.00    -0.008 A 
ATOM     17  C   UNL     1      46.900 130.118  15.954  1.00  0.00     0.056 C 
ATOM     18  C   UNL     1      44.579 131.084  14.311  1.00  0.00     0.039 C 
ATOM     19  C   UNL     1      46.669 129.694  14.499  1.00  0.00     0.007 C 
ATOM     20  C   UNL     1      45.967 130.809  13.722  1.00  0.00     0.005 C 
ENDBRANCH   5  11
TORSDOF 1
ENDMDL
MODEL 9
REMARK VINA RESULT:      -7.8      1.379      1.866
REMARK SMILES c1cc2cc(-c3ncc4c(n3)CCCC4)ccc2[nH]1
REMARK SMILES IDX 1 1 2 2 3 3 4 4 5 5 16 6 17 7 18 8 19 9 6 11 7 12 11 13 8 14
REMARK SMILES IDX 10 15 9 16 12 17 15 18 13 19 14 20
REMARK H PARENT 19 10
ROOT
ATOM      1  C   UNL     1      44.155 129.874  24.390  1.00  0.00     0.083 A 
ATOM      2  C   UNL     1      44.782 129.410  23.238  1.00  0.00     0.028 A 
ATOM      3  C   UNL     1      44.304 130.208  22.222  1.00  0.00     0.000 A 
ATOM      4  C   UNL     1      44.583 130.202  20.858  1.00  0.00     0.022 A 
ATOM      5  C   UNL     1      43.934 131.156  20.036  1.00  0.00     0.020 A 
ATOM      6  C   UNL     1      43.028 132.079  20.627  1.00  0.00     0.014 A 
ATOM      7  C   UNL     1      42.771 132.055  22.010  1.00  0.00     0.027 A 
ATOM      8  C   UNL     1      43.431 131.101  22.779  1.00  0.00     0.045 A 
ATOM      9  N   UNL     1      43.330 130.908  24.104  1.00  0.00    -0.361 N 
ATOM     10  H   UNL     1      42.738 131.442  24.778  1.00  0.00     0.166 HD
ENDROOT
BRANCH   5  11
ATOM     11  C   UNL     1      44.197 131.191  18.577  1.00  0.00     0.159 A 
ATOM     12  N   UNL     1      43.327 131.816  17.736  1.00  0.00    -0.236 NA
ATOM     13  N   UNL     1      45.311 130.601  18.065  1.00  0.00    -0.233 NA
ATOM     14  C   UNL     1      43.552 131.866  16.398  1.00  0.00     0.119 A 
ATOM     15  C   UNL     1      45.577 130.611  16.731  1.00  0.00     0.048 A 
ATOM     16  C   UNL     1      44.697 131.277  15.854  1.00  0.00    -0.008 A 
ATOM     17  C   UNL     1      46.862 129.995  16.245  1.00  0.00     0.056 C 
ATOM     18  C   UNL     1      44.903 131.270  14.359  1.00  0.00     0.039 C 
ATOM     19  C   UNL     1      46.841 129.709  14.739  1.00  0.00     0.007 C 
ATOM     20  C   UNL     1      46.347 130.936  13.969  1.00  0.00     0.005 C 
ENDBRANCH   5  11
TORSDOF 1
ENDMDL


