REMARK SMILES CC(=O)c1ccc([C@@H]2CC[C@H]3CC(=O)[N-][C@@]3(Nc3ccc(C)c(F)c3)C2)cn1
REMARK SMILES IDX 8 1 9 2 10 3 11 4 12 5 13 6 14 7 15 8 16 9 26 10 7 11 4 12
REMARK SMILES IDX 5 13 28 14 6 15 27 16 2 17 1 18 3 19 17 20 18 22 19 23 25 24
REMARK SMILES IDX 20 25 23 26 21 27 24 28 22 29
REMARK H PARENT 17 21
ROOT
ATOM      1  C   UNL     1       0.430  -0.429   2.398  1.00  0.00     0.021 C 
ATOM      2  C   UNL     1       1.153   0.817   2.957  1.00  0.00     0.009 C 
ATOM      3  C   UNL     1       1.336   1.965   1.948  1.00  0.00     0.005 C 
ATOM      4  C   UNL     1       1.782   1.532   0.539  1.00  0.00     0.002 C 
ATOM      5  C   UNL     1       3.289   1.317   0.362  1.00  0.00     0.059 C 
ATOM      6  C   UNL     1       3.296   0.389  -0.794  1.00  0.00     0.053 C 
ATOM      7  O   UNL     1       4.322   0.112  -1.467  1.00  0.00    -0.320 OA
ATOM      8  N   UNL     1       2.026  -0.180  -1.068  1.00  0.00    -0.631 NA
ATOM      9  C   UNL     1       1.118   0.238  -0.009  1.00  0.00    -0.028 C 
ATOM     10  C   UNL     1       1.085  -0.870   1.077  1.00  0.00     0.017 C 
ENDROOT
BRANCH   1  11
ATOM     11  C   UNL     1      -1.095  -0.380   2.293  1.00  0.00    -0.026 A 
ATOM     12  C   UNL     1      -3.869  -0.368   1.907  1.00  0.00     0.106 A 
ATOM     13  C   UNL     1      -3.161  -1.570   1.828  1.00  0.00     0.032 A 
ATOM     14  N   UNL     1      -3.201   0.774   2.220  1.00  0.00    -0.253 NA
ATOM     15  C   UNL     1      -1.784  -1.576   2.025  1.00  0.00     0.008 A 
ATOM     16  C   UNL     1      -1.858   0.799   2.431  1.00  0.00     0.115 A 
BRANCH  12  17
ATOM     17  C   UNL     1      -5.326  -0.324   1.664  1.00  0.00     0.178 C 
ATOM     18  C   UNL     1      -6.032   0.986   1.506  1.00  0.00     0.095 C 
ATOM     19  O   UNL     1      -5.993  -1.395   1.601  1.00  0.00    -0.293 OA
ENDBRANCH  12  17
ENDBRANCH   1  11
BRANCH   9  20
ATOM     20  N   UNL     1      -0.223   0.531  -0.551  1.00  0.00    -0.396 N 
ATOM     21  H   UNL     1      -0.602   1.493  -0.394  1.00  0.00     0.159 HD
BRANCH  20  22
ATOM     22  C   UNL     1      -1.135  -0.416  -1.144  1.00  0.00     0.036 A 
ATOM     23  C   UNL     1      -2.496  -0.078  -1.230  1.00  0.00     0.026 A 
ATOM     24  C   UNL     1      -0.715  -1.664  -1.643  1.00  0.00     0.065 A 
ATOM     25  C   UNL     1      -3.423  -0.976  -1.755  1.00  0.00     0.008 A 
ATOM     26  C   UNL     1      -1.644  -2.566  -2.171  1.00  0.00     0.128 A 
ATOM     27  C   UNL     1      -3.006  -2.228  -2.228  1.00  0.00    -0.015 A 
ATOM     28  F   UNL     1      -1.216  -3.772  -2.625  1.00  0.00    -0.207 F 
ATOM     29  C   UNL     1      -4.003  -3.206  -2.774  1.00  0.00     0.047 C 
ENDBRANCH  20  22
ENDBRANCH   9  20
TORSDOF 4


