MODEL 1
REMARK VINA RESULT:     -10.0      0.000      0.000
REMARK SMILES CC(=O)c1cc(N)c(Nc2ccc(C)[nH+]c2F)cc1F
REMARK SMILES IDX 4 1 5 2 6 3 8 4 18 5 19 6 20 7 2 8 1 9 3 10 7 11 9 14 10 16
REMARK SMILES IDX 11 17 16 18 12 19 15 20 13 21 17 22 14 24
REMARK H PARENT 7 12 7 13 9 15 15 23
ROOT
ATOM      1  C   UNL     1      43.982 131.255  20.864  1.00  0.00     0.055 A 
ATOM      2  C   UNL     1      42.854 131.748  20.182  1.00  0.00     0.042 A 
ATOM      3  C   UNL     1      42.875 131.954  18.795  1.00  0.00     0.056 A 
ATOM      4  C   UNL     1      44.036 131.630  18.063  1.00  0.00     0.065 A 
ATOM      5  C   UNL     1      45.167 131.159  18.738  1.00  0.00     0.068 A 
ATOM      6  C   UNL     1      45.146 130.963  20.121  1.00  0.00     0.136 A 
ATOM      7  F   UNL     1      46.256 130.453  20.710  1.00  0.00    -0.206 F 
ENDROOT
BRANCH   1   8
ATOM      8  C   UNL     1      43.911 131.062  22.339  1.00  0.00     0.162 C 
ATOM      9  C   UNL     1      43.163 131.999  23.239  1.00  0.00     0.093 C 
ATOM     10  O   UNL     1      44.503 130.081  22.864  1.00  0.00    -0.294 OA
ENDBRANCH   1   8
BRANCH   3  11
ATOM     11  N   UNL     1      41.728 132.529  18.156  1.00  0.00    -0.397 N 
ATOM     12  H   UNL     1      41.208 133.317  18.605  1.00  0.00     0.156 HD
ATOM     13  H   UNL     1      41.416 132.225  17.208  1.00  0.00     0.156 HD
ENDBRANCH   3  11
BRANCH   4  14
ATOM     14  N   UNL     1      44.097 131.788  16.637  1.00  0.00    -0.346 N 
ATOM     15  H   UNL     1      43.414 132.448  16.201  1.00  0.00     0.167 HD
BRANCH  14  16
ATOM     16  C   UNL     1      45.153 131.251  15.818  1.00  0.00     0.144 A 
ATOM     17  C   UNL     1      46.047 132.087  15.128  1.00  0.00     0.042 A 
ATOM     18  C   UNL     1      45.294 129.861  15.679  1.00  0.00     0.381 A 
ATOM     19  C   UNL     1      47.053 131.534  14.338  1.00  0.00     0.076 A 
ATOM     20  N   UNL     1      46.284 129.342  14.902  1.00  0.00    -0.182 N 
ATOM     21  C   UNL     1      47.155 130.142  14.221  1.00  0.00     0.179 A 
ATOM     22  F   UNL     1      44.453 129.021  16.335  1.00  0.00    -0.134 F 
ATOM     23  H   UNL     1      46.372 128.304  14.832  1.00  0.00     0.456 HD
ATOM     24  C   UNL     1      48.256 129.535  13.404  1.00  0.00     0.123 C 
ENDBRANCH  14  16
ENDBRANCH   4  14
TORSDOF 4
ENDMDL
MODEL 2
REMARK VINA RESULT:      -9.8      1.351      1.682
REMARK SMILES CC(=O)c1cc(N)c(Nc2ccc(C)[nH+]c2F)cc1F
REMARK SMILES IDX 4 1 5 2 6 3 8 4 18 5 19 6 20 7 2 8 1 9 3 10 7 11 9 14 10 16
REMARK SMILES IDX 11 17 16 18 12 19 15 20 13 21 17 22 14 24
REMARK H PARENT 7 12 7 13 9 15 15 23
ROOT
ATOM      1  C   UNL     1      43.861 131.330  21.119  1.00  0.00     0.055 A 
ATOM      2  C   UNL     1      42.738 131.810  20.421  1.00  0.00     0.042 A 
ATOM      3  C   UNL     1      42.768 131.992  19.031  1.00  0.00     0.056 A 
ATOM      4  C   UNL     1      43.935 131.656  18.312  1.00  0.00     0.065 A 
ATOM      5  C   UNL     1      45.061 131.197  19.003  1.00  0.00     0.068 A 
ATOM      6  C   UNL     1      45.031 131.025  20.388  1.00  0.00     0.136 A 
ATOM      7  F   UNL     1      46.137 130.526  20.995  1.00  0.00    -0.206 F 
ENDROOT
BRANCH   1   8
ATOM      8  C   UNL     1      43.780 131.162  22.596  1.00  0.00     0.162 C 
ATOM      9  C   UNL     1      44.078 129.861  23.277  1.00  0.00     0.093 C 
ATOM     10  O   UNL     1      43.442 132.144  23.312  1.00  0.00    -0.294 OA
ENDBRANCH   1   8
BRANCH   3  11
ATOM     11  N   UNL     1      41.625 132.555  18.373  1.00  0.00    -0.397 N 
ATOM     12  H   UNL     1      41.273 132.147  17.478  1.00  0.00     0.156 HD
ATOM     13  H   UNL     1      41.080 133.339  18.793  1.00  0.00     0.156 HD
ENDBRANCH   3  11
BRANCH   4  14
ATOM     14  N   UNL     1      44.005 131.789  16.884  1.00  0.00    -0.346 N 
ATOM     15  H   UNL     1      43.377 132.497  16.439  1.00  0.00     0.167 HD
BRANCH  14  16
ATOM     16  C   UNL     1      45.012 131.157  16.071  1.00  0.00     0.144 A 
ATOM     17  C   UNL     1      45.002 129.773  15.830  1.00  0.00     0.042 A 
ATOM     18  C   UNL     1      46.047 131.926  15.514  1.00  0.00     0.381 A 
ATOM     19  C   UNL     1      45.995 129.192  15.044  1.00  0.00     0.076 A 
ATOM     20  N   UNL     1      47.008 131.337  14.749  1.00  0.00    -0.182 N 
ATOM     21  C   UNL     1      47.014 129.993  14.513  1.00  0.00     0.179 A 
ATOM     22  F   UNL     1      46.088 133.266  15.720  1.00  0.00    -0.134 F 
ATOM     23  H   UNL     1      47.756 131.939  14.337  1.00  0.00     0.456 HD
ATOM     24  C   UNL     1      48.067 129.386  13.636  1.00  0.00     0.123 C 
ENDBRANCH  14  16
ENDBRANCH   4  14
TORSDOF 4
ENDMDL
MODEL 3
REMARK VINA RESULT:      -8.9      2.893      6.572
REMARK SMILES CC(=O)c1cc(N)c(Nc2ccc(C)[nH+]c2F)cc1F
REMARK SMILES IDX 4 1 5 2 6 3 8 4 18 5 19 6 20 7 2 8 1 9 3 10 7 11 9 14 10 16
REMARK SMILES IDX 11 17 16 18 12 19 15 20 13 21 17 22 14 24
REMARK H PARENT 7 12 7 13 9 15 15 23
ROOT
ATOM      1  C   UNL     1      46.338 130.554  14.668  1.00  0.00     0.055 A 
ATOM      2  C   UNL     1      45.195 131.220  14.190  1.00  0.00     0.042 A 
ATOM      3  C   UNL     1      44.171 131.624  15.058  1.00  0.00     0.056 A 
ATOM      4  C   UNL     1      44.303 131.390  16.443  1.00  0.00     0.065 A 
ATOM      5  C   UNL     1      45.428 130.710  16.922  1.00  0.00     0.068 A 
ATOM      6  C   UNL     1      46.442 130.300  16.054  1.00  0.00     0.136 A 
ATOM      7  F   UNL     1      47.532 129.694  16.585  1.00  0.00    -0.206 F 
ENDROOT
BRANCH   1   8
ATOM      8  C   UNL     1      47.393 130.138  13.703  1.00  0.00     0.162 C 
ATOM      9  C   UNL     1      47.839 131.013  12.571  1.00  0.00     0.093 C 
ATOM     10  O   UNL     1      47.935 129.006  13.827  1.00  0.00    -0.294 OA
ENDBRANCH   1   8
BRANCH   3  11
ATOM     11  N   UNL     1      42.992 132.232  14.515  1.00  0.00    -0.397 N 
ATOM     12  H   UNL     1      42.112 132.277  15.076  1.00  0.00     0.156 HD
ATOM     13  H   UNL     1      42.992 132.696  13.581  1.00  0.00     0.156 HD
ENDBRANCH   3  11
BRANCH   4  14
ATOM     14  N   UNL     1      43.301 131.815  17.378  1.00  0.00    -0.346 N 
ATOM     15  H   UNL     1      42.359 132.054  16.993  1.00  0.00     0.167 HD
BRANCH  14  16
ATOM     16  C   UNL     1      43.459 131.742  18.808  1.00  0.00     0.144 A 
ATOM     17  C   UNL     1      44.674 131.350  19.395  1.00  0.00     0.042 A 
ATOM     18  C   UNL     1      42.377 132.048  19.650  1.00  0.00     0.381 A 
ATOM     19  C   UNL     1      44.791 131.282  20.783  1.00  0.00     0.076 A 
ATOM     20  N   UNL     1      42.515 131.975  21.003  1.00  0.00    -0.182 N 
ATOM     21  C   UNL     1      43.686 131.589  21.585  1.00  0.00     0.179 A 
ATOM     22  F   UNL     1      41.190 132.436  19.120  1.00  0.00    -0.134 F 
ATOM     23  H   UNL     1      41.695 132.225  21.601  1.00  0.00     0.456 HD
ATOM     24  C   UNL     1      43.811 131.556  23.079  1.00  0.00     0.123 C 
ENDBRANCH  14  16
ENDBRANCH   4  14
TORSDOF 4
ENDMDL
MODEL 4
REMARK VINA RESULT:      -8.8      1.233      1.301
REMARK SMILES CC(=O)c1cc(N)c(Nc2ccc(C)[nH+]c2F)cc1F
REMARK SMILES IDX 4 1 5 2 6 3 8 4 18 5 19 6 20 7 2 8 1 9 3 10 7 11 9 14 10 16
REMARK SMILES IDX 11 17 16 18 12 19 15 20 13 21 17 22 14 24
REMARK H PARENT 7 12 7 13 9 15 15 23
ROOT
ATOM      1  C   UNL     1      43.946 131.299  21.314  1.00  0.00     0.055 A 
ATOM      2  C   UNL     1      42.780 131.857  20.759  1.00  0.00     0.042 A 
ATOM      3  C   UNL     1      42.674 132.100  19.382  1.00  0.00     0.056 A 
ATOM      4  C   UNL     1      43.742 131.748  18.531  1.00  0.00     0.065 A 
ATOM      5  C   UNL     1      44.912 131.212  19.079  1.00  0.00     0.068 A 
ATOM      6  C   UNL     1      45.018 130.979  20.452  1.00  0.00     0.136 A 
ATOM      7  F   UNL     1      46.156 130.407  20.917  1.00  0.00    -0.206 F 
ENDROOT
BRANCH   1   8
ATOM      8  C   UNL     1      44.011 131.068  22.784  1.00  0.00     0.162 C 
ATOM      9  C   UNL     1      43.542 132.085  23.780  1.00  0.00     0.093 C 
ATOM     10  O   UNL     1      44.482 129.983  23.220  1.00  0.00    -0.294 OA
ENDBRANCH   1   8
BRANCH   3  11
ATOM     11  N   UNL     1      41.496 132.740  18.873  1.00  0.00    -0.397 N 
ATOM     12  H   UNL     1      41.318 133.752  19.061  1.00  0.00     0.156 HD
ATOM     13  H   UNL     1      40.821 132.239  18.256  1.00  0.00     0.156 HD
ENDBRANCH   3  11
BRANCH   4  14
ATOM     14  N   UNL     1      43.670 131.943  17.110  1.00  0.00    -0.346 N 
ATOM     15  H   UNL     1      42.915 132.570  16.752  1.00  0.00     0.167 HD
BRANCH  14  16
ATOM     16  C   UNL     1      44.681 131.490  16.189  1.00  0.00     0.144 A 
ATOM     17  C   UNL     1      45.946 131.069  16.632  1.00  0.00     0.042 A 
ATOM     18  C   UNL     1      44.418 131.481  14.810  1.00  0.00     0.381 A 
ATOM     19  C   UNL     1      46.904 130.644  15.714  1.00  0.00     0.076 A 
ATOM     20  N   UNL     1      45.369 131.061  13.930  1.00  0.00    -0.182 N 
ATOM     21  C   UNL     1      46.603 130.657  14.346  1.00  0.00     0.179 A 
ATOM     22  F   UNL     1      43.206 131.875  14.343  1.00  0.00    -0.134 F 
ATOM     23  H   UNL     1      45.137 131.052  12.911  1.00  0.00     0.456 HD
ATOM     24  C   UNL     1      47.612 130.167  13.351  1.00  0.00     0.123 C 
ENDBRANCH  14  16
ENDBRANCH   4  14
TORSDOF 4
ENDMDL
MODEL 5
REMARK VINA RESULT:      -8.2      1.458      2.014
REMARK SMILES CC(=O)c1cc(N)c(Nc2ccc(C)[nH+]c2F)cc1F
REMARK SMILES IDX 4 1 5 2 6 3 8 4 18 5 19 6 20 7 2 8 1 9 3 10 7 11 9 14 10 16
REMARK SMILES IDX 11 17 16 18 12 19 15 20 13 21 17 22 14 24
REMARK H PARENT 7 12 7 13 9 15 15 23
ROOT
ATOM      1  C   UNL     1      43.959 131.606  20.543  1.00  0.00     0.055 A 
ATOM      2  C   UNL     1      45.094 131.096  19.886  1.00  0.00     0.042 A 
ATOM      3  C   UNL     1      45.141 130.993  18.488  1.00  0.00     0.056 A 
ATOM      4  C   UNL     1      44.044 131.440  17.722  1.00  0.00     0.065 A 
ATOM      5  C   UNL     1      42.905 131.930  18.370  1.00  0.00     0.068 A 
ATOM      6  C   UNL     1      42.858 132.022  19.763  1.00  0.00     0.136 A 
ATOM      7  F   UNL     1      41.747 132.555  20.331  1.00  0.00    -0.206 F 
ENDROOT
BRANCH   1   8
ATOM      8  C   UNL     1      43.957 131.686  22.030  1.00  0.00     0.162 C 
ATOM      9  C   UNL     1      42.712 131.501  22.845  1.00  0.00     0.093 C 
ATOM     10  O   UNL     1      45.035 131.924  22.638  1.00  0.00    -0.294 OA
ENDBRANCH   1   8
BRANCH   3  11
ATOM     11  N   UNL     1      46.288 130.397  17.868  1.00  0.00    -0.397 N 
ATOM     12  H   UNL     1      46.401 129.358  17.848  1.00  0.00     0.156 HD
ATOM     13  H   UNL     1      47.004 130.969  17.371  1.00  0.00     0.156 HD
ENDBRANCH   3  11
BRANCH   4  14
ATOM     14  N   UNL     1      44.056 131.390  16.288  1.00  0.00    -0.346 N 
ATOM     15  H   UNL     1      43.255 131.838  15.787  1.00  0.00     0.167 HD
BRANCH  14  16
ATOM     16  C   UNL     1      45.185 130.943  15.513  1.00  0.00     0.144 A 
ATOM     17  C   UNL     1      46.081 131.851  14.925  1.00  0.00     0.042 A 
ATOM     18  C   UNL     1      45.399 129.569  15.316  1.00  0.00     0.381 A 
ATOM     19  C   UNL     1      47.160 131.385  14.175  1.00  0.00     0.076 A 
ATOM     20  N   UNL     1      46.460 129.135  14.579  1.00  0.00    -0.182 N 
ATOM     21  C   UNL     1      47.333 130.007  13.997  1.00  0.00     0.179 A 
ATOM     22  F   UNL     1      44.559 128.661  15.873  1.00  0.00    -0.134 F 
ATOM     23  H   UNL     1      46.600 128.106  14.465  1.00  0.00     0.456 HD
ATOM     24  C   UNL     1      48.510 129.491  13.224  1.00  0.00     0.123 C 
ENDBRANCH  14  16
ENDBRANCH   4  14
TORSDOF 4
ENDMDL
MODEL 6
REMARK VINA RESULT:      -7.8      3.099      6.773
REMARK SMILES CC(=O)c1cc(N)c(Nc2ccc(C)[nH+]c2F)cc1F
REMARK SMILES IDX 4 1 5 2 6 3 8 4 18 5 19 6 20 7 2 8 1 9 3 10 7 11 9 14 10 16
REMARK SMILES IDX 11 17 16 18 12 19 15 20 13 21 17 22 14 24
REMARK H PARENT 7 12 7 13 9 15 15 23
ROOT
ATOM      1  C   UNL     1      44.703 130.996  16.540  1.00  0.00     0.055 A 
ATOM      2  C   UNL     1      43.625 131.678  17.133  1.00  0.00     0.042 A 
ATOM      3  C   UNL     1      43.579 131.904  18.517  1.00  0.00     0.056 A 
ATOM      4  C   UNL     1      44.649 131.469  19.326  1.00  0.00     0.065 A 
ATOM      5  C   UNL     1      45.714 130.773  18.745  1.00  0.00     0.068 A 
ATOM      6  C   UNL     1      45.752 130.542  17.368  1.00  0.00     0.136 A 
ATOM      7  F   UNL     1      46.837 129.909  16.857  1.00  0.00    -0.206 F 
ENDROOT
BRANCH   1   8
ATOM      8  C   UNL     1      44.699 130.775  15.068  1.00  0.00     0.162 C 
ATOM      9  C   UNL     1      43.747 131.480  14.149  1.00  0.00     0.093 C 
ATOM     10  O   UNL     1      45.519 129.962  14.562  1.00  0.00    -0.294 OA
ENDBRANCH   1   8
BRANCH   3  11
ATOM     11  N   UNL     1      42.424 132.536  19.085  1.00  0.00    -0.397 N 
ATOM     12  H   UNL     1      41.543 131.996  19.235  1.00  0.00     0.156 HD
ATOM     13  H   UNL     1      42.446 133.524  19.419  1.00  0.00     0.156 HD
ENDBRANCH   3  11
BRANCH   4  14
ATOM     14  N   UNL     1      44.668 131.707  20.742  1.00  0.00    -0.346 N 
ATOM     15  H   UNL     1      44.958 132.659  21.063  1.00  0.00     0.167 HD
BRANCH  14  16
ATOM     16  C   UNL     1      44.130 130.789  21.714  1.00  0.00     0.144 A 
ATOM     17  C   UNL     1      44.765 129.571  22.006  1.00  0.00     0.042 A 
ATOM     18  C   UNL     1      42.933 131.097  22.380  1.00  0.00     0.381 A 
ATOM     19  C   UNL     1      44.214 128.702  22.947  1.00  0.00     0.076 A 
ATOM     20  N   UNL     1      42.412 130.234  23.296  1.00  0.00    -0.182 N 
ATOM     21  C   UNL     1      43.015 129.044  23.584  1.00  0.00     0.179 A 
ATOM     22  F   UNL     1      42.294 132.267  22.130  1.00  0.00    -0.134 F 
ATOM     23  H   UNL     1      41.529 130.499  23.786  1.00  0.00     0.456 HD
ATOM     24  C   UNL     1      42.432 128.135  24.625  1.00  0.00     0.123 C 
ENDBRANCH  14  16
ENDBRANCH   4  14
TORSDOF 4
ENDMDL
MODEL 7
REMARK VINA RESULT:      -7.5      1.830      2.471
REMARK SMILES CC(=O)c1cc(N)c(Nc2ccc(C)[nH+]c2F)cc1F
REMARK SMILES IDX 4 1 5 2 6 3 8 4 18 5 19 6 20 7 2 8 1 9 3 10 7 11 9 14 10 16
REMARK SMILES IDX 11 17 16 18 12 19 15 20 13 21 17 22 14 24
REMARK H PARENT 7 12 7 13 9 15 15 23
ROOT
ATOM      1  C   UNL     1      43.709 131.603  21.197  1.00  0.00     0.055 A 
ATOM      2  C   UNL     1      44.841 131.109  20.523  1.00  0.00     0.042 A 
ATOM      3  C   UNL     1      44.915 131.116  19.122  1.00  0.00     0.056 A 
ATOM      4  C   UNL     1      43.849 131.659  18.374  1.00  0.00     0.065 A 
ATOM      5  C   UNL     1      42.713 132.134  19.038  1.00  0.00     0.068 A 
ATOM      6  C   UNL     1      42.639 132.117  20.433  1.00  0.00     0.136 A 
ATOM      7  F   UNL     1      41.534 132.640  21.020  1.00  0.00    -0.206 F 
ENDROOT
BRANCH   1   8
ATOM      8  C   UNL     1      43.678 131.565  22.685  1.00  0.00     0.162 C 
ATOM      9  C   UNL     1      42.429 131.823  23.472  1.00  0.00     0.093 C 
ATOM     10  O   UNL     1      44.738 131.314  23.320  1.00  0.00    -0.294 OA
ENDBRANCH   1   8
BRANCH   3  11
ATOM     11  N   UNL     1      46.055 130.532  18.478  1.00  0.00    -0.397 N 
ATOM     12  H   UNL     1      45.946 129.698  17.859  1.00  0.00     0.156 HD
ATOM     13  H   UNL     1      47.006 130.953  18.556  1.00  0.00     0.156 HD
ENDBRANCH   3  11
BRANCH   4  14
ATOM     14  N   UNL     1      43.890 131.723  16.941  1.00  0.00    -0.346 N 
ATOM     15  H   UNL     1      43.224 132.378  16.473  1.00  0.00     0.167 HD
BRANCH  14  16
ATOM     16  C   UNL     1      44.911 131.095  16.142  1.00  0.00     0.144 A 
ATOM     17  C   UNL     1      44.882 129.719  15.857  1.00  0.00     0.042 A 
ATOM     18  C   UNL     1      45.979 131.859  15.643  1.00  0.00     0.381 A 
ATOM     19  C   UNL     1      45.890 129.142  15.087  1.00  0.00     0.076 A 
ATOM     20  N   UNL     1      46.953 131.274  14.892  1.00  0.00    -0.182 N 
ATOM     21  C   UNL     1      46.941 129.939  14.614  1.00  0.00     0.179 A 
ATOM     22  F   UNL     1      46.039 133.191  15.892  1.00  0.00    -0.134 F 
ATOM     23  H   UNL     1      47.726 131.873  14.523  1.00  0.00     0.456 HD
ATOM     24  C   UNL     1      48.011 129.337  13.754  1.00  0.00     0.123 C 
ENDBRANCH  14  16
ENDBRANCH   4  14
TORSDOF 4
ENDMDL
MODEL 8
REMARK VINA RESULT:      -7.3      3.038      6.577
REMARK SMILES CC(=O)c1cc(N)c(Nc2ccc(C)[nH+]c2F)cc1F
REMARK SMILES IDX 4 1 5 2 6 3 8 4 18 5 19 6 20 7 2 8 1 9 3 10 7 11 9 14 10 16
REMARK SMILES IDX 11 17 16 18 12 19 15 20 13 21 17 22 14 24
REMARK H PARENT 7 12 7 13 9 15 15 23
ROOT
ATOM      1  C   UNL     1      44.421 131.315  16.332  1.00  0.00     0.055 A 
ATOM      2  C   UNL     1      43.282 131.812  16.992  1.00  0.00     0.042 A 
ATOM      3  C   UNL     1      43.257 131.966  18.385  1.00  0.00     0.056 A 
ATOM      4  C   UNL     1      44.407 131.647  19.139  1.00  0.00     0.065 A 
ATOM      5  C   UNL     1      45.535 131.133  18.491  1.00  0.00     0.068 A 
ATOM      6  C   UNL     1      45.553 130.973  17.103  1.00  0.00     0.136 A 
ATOM      7  F   UNL     1      46.695 130.522  16.527  1.00  0.00    -0.206 F 
ENDROOT
BRANCH   1   8
ATOM      8  C   UNL     1      44.392 131.164  14.851  1.00  0.00     0.162 C 
ATOM      9  C   UNL     1      45.607 130.792  14.055  1.00  0.00     0.093 C 
ATOM     10  O   UNL     1      43.312 131.360  14.230  1.00  0.00    -0.294 OA
ENDBRANCH   1   8
BRANCH   3  11
ATOM     11  N   UNL     1      42.049 132.404  19.020  1.00  0.00    -0.397 N 
ATOM     12  H   UNL     1      41.695 131.923  19.877  1.00  0.00     0.156 HD
ATOM     13  H   UNL     1      41.527 133.244  18.689  1.00  0.00     0.156 HD
ENDBRANCH   3  11
BRANCH   4  14
ATOM     14  N   UNL     1      44.446 131.819  20.563  1.00  0.00    -0.346 N 
ATOM     15  H   UNL     1      44.585 132.791  20.923  1.00  0.00     0.167 HD
BRANCH  14  16
ATOM     16  C   UNL     1      44.113 130.780  21.504  1.00  0.00     0.144 A 
ATOM     17  C   UNL     1      42.956 130.849  22.298  1.00  0.00     0.042 A 
ATOM     18  C   UNL     1      44.965 129.674  21.656  1.00  0.00     0.381 A 
ATOM     19  C   UNL     1      42.667 129.829  23.203  1.00  0.00     0.076 A 
ATOM     20  N   UNL     1      44.662 128.689  22.547  1.00  0.00    -0.182 N 
ATOM     21  C   UNL     1      43.546 128.747  23.329  1.00  0.00     0.179 A 
ATOM     22  F   UNL     1      46.089 129.569  20.903  1.00  0.00    -0.134 F 
ATOM     23  H   UNL     1      45.308 127.872  22.625  1.00  0.00     0.456 HD
ATOM     24  C   UNL     1      43.227 127.626  24.272  1.00  0.00     0.123 C 
ENDBRANCH  14  16
ENDBRANCH   4  14
TORSDOF 4
ENDMDL
MODEL 9
REMARK VINA RESULT:      -7.3      1.562      1.867
REMARK SMILES CC(=O)c1cc(N)c(Nc2ccc(C)[nH+]c2F)cc1F
REMARK SMILES IDX 4 1 5 2 6 3 8 4 18 5 19 6 20 7 2 8 1 9 3 10 7 11 9 14 10 16
REMARK SMILES IDX 11 17 16 18 12 19 15 20 13 21 17 22 14 24
REMARK H PARENT 7 12 7 13 9 15 15 23
ROOT
ATOM      1  C   UNL     1      43.496 131.037  22.068  1.00  0.00     0.055 A 
ATOM      2  C   UNL     1      42.548 131.892  21.477  1.00  0.00     0.042 A 
ATOM      3  C   UNL     1      42.657 132.283  20.134  1.00  0.00     0.056 A 
ATOM      4  C   UNL     1      43.718 131.784  19.351  1.00  0.00     0.065 A 
ATOM      5  C   UNL     1      44.675 130.949  19.938  1.00  0.00     0.068 A 
ATOM      6  C   UNL     1      44.568 130.569  21.278  1.00  0.00     0.136 A 
ATOM      7  F   UNL     1      45.497 129.715  21.775  1.00  0.00    -0.206 F 
ENDROOT
BRANCH   1   8
ATOM      8  C   UNL     1      43.338 130.659  23.499  1.00  0.00     0.162 C 
ATOM      9  C   UNL     1      44.509 130.426  24.405  1.00  0.00     0.093 C 
ATOM     10  O   UNL     1      42.180 130.520  23.979  1.00  0.00    -0.294 OA
ENDBRANCH   1   8
BRANCH   3  11
ATOM     11  N   UNL     1      41.710 133.216  19.597  1.00  0.00    -0.397 N 
ATOM     12  H   UNL     1      40.811 133.406  20.095  1.00  0.00     0.156 HD
ATOM     13  H   UNL     1      41.912 133.772  18.738  1.00  0.00     0.156 HD
ENDBRANCH   3  11
BRANCH   4  14
ATOM     14  N   UNL     1      43.855 132.124  17.963  1.00  0.00    -0.346 N 
ATOM     15  H   UNL     1      43.435 133.028  17.649  1.00  0.00     0.167 HD
BRANCH  14  16
ATOM     16  C   UNL     1      44.693 131.400  17.041  1.00  0.00     0.144 A 
ATOM     17  C   UNL     1      45.851 130.729  17.469  1.00  0.00     0.042 A 
ATOM     18  C   UNL     1      44.368 131.369  15.675  1.00  0.00     0.381 A 
ATOM     19  C   UNL     1      46.643 130.044  16.550  1.00  0.00     0.076 A 
ATOM     20  N   UNL     1      45.157 130.693  14.794  1.00  0.00    -0.182 N 
ATOM     21  C   UNL     1      46.288 130.044  15.196  1.00  0.00     0.179 A 
ATOM     22  F   UNL     1      43.255 131.999  15.224  1.00  0.00    -0.134 F 
ATOM     23  H   UNL     1      44.879 130.676  13.787  1.00  0.00     0.456 HD
ATOM     24  C   UNL     1      47.111 129.279  14.203  1.00  0.00     0.123 C 
ENDBRANCH  14  16
ENDBRANCH   4  14
TORSDOF 4
ENDMDL


