REMARK SMILES O=C1[N-]Cc2[nH+]cc(-c3ccc4[nH]ccc4c3)cc21
REMARK SMILES IDX 1 1 2 2 3 3 4 4 5 5 6 6 7 7 8 8 18 9 19 10 9 12 10 13 17 14
REMARK SMILES IDX 11 15 16 16 12 17 15 18 13 19 14 20
REMARK H PARENT 6 11 13 21
ROOT
ATOM      1  O   UNL     1      -1.777   0.407  -4.452  1.00  0.00    -0.315 OA
ATOM      2  C   UNL     1      -2.312  -0.277  -3.541  1.00  0.00     0.089 C 
ATOM      3  N   UNL     1      -3.331  -1.245  -3.771  1.00  0.00    -0.641 NA
ATOM      4  C   UNL     1      -3.691  -1.825  -2.471  1.00  0.00    -0.006 C 
ATOM      5  C   UNL     1      -2.797  -1.110  -1.503  1.00  0.00     0.171 A 
ATOM      6  N   UNL     1      -2.733  -1.287  -0.159  1.00  0.00    -0.215 N 
ATOM      7  C   UNL     1      -1.851  -0.549   0.581  1.00  0.00     0.315 A 
ATOM      8  C   UNL     1      -0.999   0.402  -0.040  1.00  0.00     0.046 A 
ATOM      9  C   UNL     1      -1.079   0.572  -1.439  1.00  0.00     0.031 A 
ATOM     10  C   UNL     1      -1.994  -0.205  -2.139  1.00  0.00     0.065 A 
ATOM     11  H   UNL     1      -3.357  -1.981   0.310  1.00  0.00     0.453 HD
ENDROOT
BRANCH   8  12
ATOM     12  C   UNL     1      -0.041   1.200   0.765  1.00  0.00    -0.012 A 
ATOM     13  C   UNL     1       0.182   2.572   0.465  1.00  0.00     0.011 A 
ATOM     14  C   UNL     1       0.662   0.603   1.839  1.00  0.00     0.019 A 
ATOM     15  C   UNL     1       1.088   3.338   1.220  1.00  0.00     0.027 A 
ATOM     16  C   UNL     1       1.551   1.393   2.564  1.00  0.00    -0.000 A 
ATOM     17  C   UNL     1       1.758   2.711   2.266  1.00  0.00     0.045 A 
ATOM     18  C   UNL     1       2.358   1.081   3.637  1.00  0.00     0.028 A 
ATOM     19  N   UNL     1       2.658   3.255   3.102  1.00  0.00    -0.361 N 
ATOM     20  C   UNL     1       3.028   2.261   3.942  1.00  0.00     0.083 A 
ATOM     21  H   UNL     1       3.005   4.240   3.105  1.00  0.00     0.166 HD
ENDBRANCH   8  12
TORSDOF 1


