REMARK SMILES Cc1c(F)cc(Nc2cccc(N)c2[O-])c2cc(-c3ncncc3F)[nH]c12
REMARK SMILES IDX 7 1 6 3 2 4 3 5 27 6 5 7 26 8 16 9 18 10 17 11 1 12 4 13
REMARK SMILES IDX 19 15 20 16 24 17 21 18 23 19 22 20 25 21 8 22 9 23 14 24
REMARK SMILES IDX 10 25 12 26 11 27 15 28 13 29
REMARK H PARENT 7 2 26 14 13 30 13 31
ROOT
ATOM      1  N   UNL     1      -2.354  -0.569  -2.063  1.00  0.00    -0.355 N 
ATOM      2  H   UNL     1      -3.378  -0.647  -2.256  1.00  0.00     0.167 HD
ENDROOT
BRANCH   1   3
ATOM      3  C   UNL     1      -1.870   0.666  -1.510  1.00  0.00     0.051 A 
ATOM      4  C   UNL     1      -0.949   3.138  -0.423  1.00  0.00     0.009 A 
ATOM      5  C   UNL     1      -1.974   3.113  -1.396  1.00  0.00     0.130 A 
ATOM      6  C   UNL     1      -0.431   1.906   0.000  1.00  0.00     0.054 A 
ATOM      7  C   UNL     1      -2.429   1.888  -1.927  1.00  0.00     0.066 A 
ATOM      8  N   UNL     1       0.493   1.695   0.956  1.00  0.00    -0.353 N 
ATOM      9  C   UNL     1      -0.877   0.714  -0.518  1.00  0.00     0.024 A 
ATOM     10  C   UNL     1       0.634   0.351   1.049  1.00  0.00     0.068 A 
ATOM     11  C   UNL     1      -0.216  -0.294   0.157  1.00  0.00     0.041 A 
ATOM     12  C   UNL     1      -0.464   4.428   0.176  1.00  0.00     0.050 C 
ATOM     13  F   UNL     1      -2.541   4.267  -1.831  1.00  0.00    -0.207 F 
ATOM     14  H   UNL     1       0.953   2.424   1.544  1.00  0.00     0.167 HD
BRANCH  10  15
ATOM     15  C   UNL     1       1.516  -0.347   2.011  1.00  0.00     0.126 A 
ATOM     16  N   UNL     1       1.223  -1.631   2.356  1.00  0.00    -0.232 NA
ATOM     17  C   UNL     1       2.657   0.262   2.563  1.00  0.00     0.169 A 
ATOM     18  C   UNL     1       1.994  -2.325   3.232  1.00  0.00     0.222 A 
ATOM     19  C   UNL     1       3.435  -0.470   3.462  1.00  0.00     0.154 A 
ATOM     20  N   UNL     1       3.091  -1.744   3.780  1.00  0.00    -0.242 NA
ATOM     21  F   UNL     1       3.049   1.511   2.211  1.00  0.00    -0.203 F 
ENDBRANCH  10  15
ENDBRANCH   1   3
BRANCH   1  22
ATOM     22  C   UNL     1      -1.522  -1.698  -2.377  1.00  0.00     0.032 A 
ATOM     23  C   UNL     1      -2.023  -2.990  -2.160  1.00  0.00     0.025 A 
ATOM     24  C   UNL     1      -0.234  -1.540  -2.932  1.00  0.00    -0.061 A 
ATOM     25  C   UNL     1      -1.239  -4.109  -2.443  1.00  0.00     0.004 A 
ATOM     26  C   UNL     1       0.557  -2.670  -3.211  1.00  0.00     0.025 A 
ATOM     27  C   UNL     1       0.048  -3.951  -2.960  1.00  0.00     0.025 A 
ATOM     28  O   UNL     1       0.252  -0.269  -3.225  1.00  0.00    -0.870 OA
BRANCH  26  29
ATOM     29  N   UNL     1       1.873  -2.525  -3.756  1.00  0.00    -0.399 N 
ATOM     30  H   UNL     1       2.281  -1.584  -3.950  1.00  0.00     0.156 HD
ATOM     31  H   UNL     1       2.458  -3.365  -3.967  1.00  0.00     0.156 HD
ENDBRANCH  26  29
ENDBRANCH   1  22
TORSDOF 4


