MODEL 1
REMARK VINA RESULT:     -10.4      0.000      0.000
REMARK SMILES C=Cc1ccc(-c2cccc3cnoc23)[nH+]c1
REMARK SMILES IDX 3 1 4 2 5 3 6 4 16 5 17 6 2 8 1 9 7 10 8 11 15 12 9 13 14 14
REMARK SMILES IDX 11 15 10 16 13 17 12 18
REMARK H PARENT 16 7
ROOT
ATOM      1  C   UNL     1      46.286 130.912  14.708  1.00  0.00     0.038 A 
ATOM      2  C   UNL     1      46.348 129.779  15.538  1.00  0.00     0.021 A 
ATOM      3  C   UNL     1      45.931 129.861  16.866  1.00  0.00     0.081 A 
ATOM      4  C   UNL     1      45.441 131.075  17.370  1.00  0.00     0.214 A 
ATOM      5  N   UNL     1      45.381 132.162  16.548  1.00  0.00    -0.210 N 
ATOM      6  C   UNL     1      45.783 132.103  15.248  1.00  0.00     0.314 A 
ATOM      7  H   UNL     1      45.042 133.080  16.914  1.00  0.00     0.453 HD
ENDROOT
BRANCH   1   8
ATOM      8  C   UNL     1      46.705 130.893  13.284  1.00  0.00     0.006 C 
ATOM      9  C   UNL     1      47.965 131.027  12.868  1.00  0.00     0.009 C 
ENDBRANCH   1   8
BRANCH   4  10
ATOM     10  C   UNL     1      44.990 131.171  18.780  1.00  0.00     0.092 A 
ATOM     11  C   UNL     1      45.795 130.710  19.850  1.00  0.00     0.019 A 
ATOM     12  C   UNL     1      43.747 131.722  19.119  1.00  0.00     0.180 A 
ATOM     13  C   UNL     1      45.350 130.814  21.188  1.00  0.00     0.002 A 
ATOM     14  O   UNL     1      42.810 132.195  18.333  1.00  0.00    -0.355 OA
ATOM     15  C   UNL     1      43.325 131.818  20.413  1.00  0.00     0.043 A 
ATOM     16  C   UNL     1      44.095 131.376  21.482  1.00  0.00     0.014 A 
ATOM     17  N   UNL     1      41.791 132.607  19.040  1.00  0.00    -0.087 NA
ATOM     18  C   UNL     1      42.076 132.386  20.345  1.00  0.00     0.166 A 
ENDBRANCH   4  10
TORSDOF 2
ENDMDL
MODEL 2
REMARK VINA RESULT:     -10.1      0.820      1.249
REMARK SMILES C=Cc1ccc(-c2cccc3cnoc23)[nH+]c1
REMARK SMILES IDX 3 1 4 2 5 3 6 4 16 5 17 6 2 8 1 9 7 10 8 11 15 12 9 13 14 14
REMARK SMILES IDX 11 15 10 16 13 17 12 18
REMARK H PARENT 16 7
ROOT
ATOM      1  C   UNL     1      46.627 130.690  14.864  1.00  0.00     0.038 A 
ATOM      2  C   UNL     1      46.034 131.912  15.229  1.00  0.00     0.021 A 
ATOM      3  C   UNL     1      45.497 132.076  16.506  1.00  0.00     0.081 A 
ATOM      4  C   UNL     1      45.558 131.021  17.429  1.00  0.00     0.214 A 
ATOM      5  N   UNL     1      46.144 129.845  17.059  1.00  0.00    -0.210 N 
ATOM      6  C   UNL     1      46.674 129.665  15.818  1.00  0.00     0.314 A 
ATOM      7  H   UNL     1      46.174 129.041  17.726  1.00  0.00     0.453 HD
ENDROOT
BRANCH   1   8
ATOM      8  C   UNL     1      47.224 130.452  13.527  1.00  0.00     0.006 C 
ATOM      9  C   UNL     1      48.320 129.724  13.311  1.00  0.00     0.009 C 
ENDBRANCH   1   8
BRANCH   4  10
ATOM     10  C   UNL     1      44.994 131.186  18.791  1.00  0.00     0.092 A 
ATOM     11  C   UNL     1      45.730 130.824  19.946  1.00  0.00     0.019 A 
ATOM     12  C   UNL     1      43.710 131.705  18.998  1.00  0.00     0.180 A 
ATOM     13  C   UNL     1      45.178 130.991  21.237  1.00  0.00     0.002 A 
ATOM     14  O   UNL     1      42.821 132.091  18.115  1.00  0.00    -0.355 OA
ATOM     15  C   UNL     1      43.185 131.863  20.248  1.00  0.00     0.043 A 
ATOM     16  C   UNL     1      43.885 131.519  21.398  1.00  0.00     0.014 A 
ATOM     17  N   UNL     1      41.736 132.503  18.715  1.00  0.00    -0.087 NA
ATOM     18  C   UNL     1      41.926 132.375  20.049  1.00  0.00     0.166 A 
ENDBRANCH   4  10
TORSDOF 2
ENDMDL
MODEL 3
REMARK VINA RESULT:      -9.8      1.655      2.303
REMARK SMILES C=Cc1ccc(-c2cccc3cnoc23)[nH+]c1
REMARK SMILES IDX 3 1 4 2 5 3 6 4 16 5 17 6 2 8 1 9 7 10 8 11 15 12 9 13 14 14
REMARK SMILES IDX 11 15 10 16 13 17 12 18
REMARK H PARENT 16 7
ROOT
ATOM      1  C   UNL     1      46.598 130.700  14.497  1.00  0.00     0.038 A 
ATOM      2  C   UNL     1      45.930 129.650  15.151  1.00  0.00     0.021 A 
ATOM      3  C   UNL     1      45.132 129.914  16.264  1.00  0.00     0.081 A 
ATOM      4  C   UNL     1      44.989 131.232  16.724  1.00  0.00     0.214 A 
ATOM      5  N   UNL     1      45.639 132.239  16.071  1.00  0.00    -0.210 N 
ATOM      6  C   UNL     1      46.422 132.003  14.983  1.00  0.00     0.314 A 
ATOM      7  H   UNL     1      45.563 133.222  16.416  1.00  0.00     0.453 HD
ENDROOT
BRANCH   1   8
ATOM      8  C   UNL     1      47.455 130.491  13.304  1.00  0.00     0.006 C 
ATOM      9  C   UNL     1      48.464 129.621  13.244  1.00  0.00     0.009 C 
ENDBRANCH   1   8
BRANCH   4  10
ATOM     10  C   UNL     1      44.138 131.525  17.903  1.00  0.00     0.092 A 
ATOM     11  C   UNL     1      42.792 131.940  17.761  1.00  0.00     0.019 A 
ATOM     12  C   UNL     1      44.627 131.405  19.211  1.00  0.00     0.180 A 
ATOM     13  C   UNL     1      41.994 132.211  18.897  1.00  0.00     0.002 A 
ATOM     14  O   UNL     1      45.826 131.068  19.618  1.00  0.00    -0.355 OA
ATOM     15  C   UNL     1      43.851 131.670  20.301  1.00  0.00     0.043 A 
ATOM     16  C   UNL     1      42.526 132.076  20.192  1.00  0.00     0.014 A 
ATOM     17  N   UNL     1      45.884 131.088  20.924  1.00  0.00    -0.087 NA
ATOM     18  C   UNL     1      44.667 131.460  21.386  1.00  0.00     0.166 A 
ENDBRANCH   4  10
TORSDOF 2
ENDMDL
MODEL 4
REMARK VINA RESULT:      -9.6      1.722      2.501
REMARK SMILES C=Cc1ccc(-c2cccc3cnoc23)[nH+]c1
REMARK SMILES IDX 3 1 4 2 5 3 6 4 16 5 17 6 2 8 1 9 7 10 8 11 15 12 9 13 14 14
REMARK SMILES IDX 11 15 10 16 13 17 12 18
REMARK H PARENT 16 7
ROOT
ATOM      1  C   UNL     1      46.540 130.510  14.733  1.00  0.00     0.038 A 
ATOM      2  C   UNL     1      45.459 131.395  14.574  1.00  0.00     0.021 A 
ATOM      3  C   UNL     1      44.653 131.718  15.666  1.00  0.00     0.081 A 
ATOM      4  C   UNL     1      44.929 131.165  16.925  1.00  0.00     0.214 A 
ATOM      5  N   UNL     1      45.988 130.315  17.062  1.00  0.00    -0.210 N 
ATOM      6  C   UNL     1      46.787 129.987  16.010  1.00  0.00     0.314 A 
ATOM      7  H   UNL     1      46.192 129.875  17.988  1.00  0.00     0.453 HD
ENDROOT
BRANCH   1   8
ATOM      8  C   UNL     1      47.442 130.130  13.617  1.00  0.00     0.006 C 
ATOM      9  C   UNL     1      47.896 130.978  12.694  1.00  0.00     0.009 C 
ENDBRANCH   1   8
BRANCH   4  10
ATOM     10  C   UNL     1      44.082 131.507  18.094  1.00  0.00     0.092 A 
ATOM     11  C   UNL     1      42.757 131.980  17.936  1.00  0.00     0.019 A 
ATOM     12  C   UNL     1      44.553 131.377  19.407  1.00  0.00     0.180 A 
ATOM     13  C   UNL     1      41.962 132.297  19.062  1.00  0.00     0.002 A 
ATOM     14  O   UNL     1      45.732 130.989  19.829  1.00  0.00    -0.355 OA
ATOM     15  C   UNL     1      43.780 131.686  20.488  1.00  0.00     0.043 A 
ATOM     16  C   UNL     1      42.476 132.150  20.363  1.00  0.00     0.014 A 
ATOM     17  N   UNL     1      45.779 131.018  21.134  1.00  0.00    -0.087 NA
ATOM     18  C   UNL     1      44.576 131.449  21.582  1.00  0.00     0.166 A 
ENDBRANCH   4  10
TORSDOF 2
ENDMDL
MODEL 5
REMARK VINA RESULT:      -8.8      1.634      2.319
REMARK SMILES C=Cc1ccc(-c2cccc3cnoc23)[nH+]c1
REMARK SMILES IDX 3 1 4 2 5 3 6 4 16 5 17 6 2 8 1 9 7 10 8 11 15 12 9 13 14 14
REMARK SMILES IDX 11 15 10 16 13 17 12 18
REMARK H PARENT 16 7
ROOT
ATOM      1  C   UNL     1      45.840 130.934  14.750  1.00  0.00     0.038 A 
ATOM      2  C   UNL     1      46.321 130.418  15.967  1.00  0.00     0.021 A 
ATOM      3  C   UNL     1      45.643 130.684  17.156  1.00  0.00     0.081 A 
ATOM      4  C   UNL     1      44.475 131.459  17.135  1.00  0.00     0.214 A 
ATOM      5  N   UNL     1      44.018 131.944  15.944  1.00  0.00    -0.210 N 
ATOM      6  C   UNL     1      44.665 131.697  14.772  1.00  0.00     0.314 A 
ATOM      7  H   UNL     1      43.163 132.544  15.914  1.00  0.00     0.453 HD
ENDROOT
BRANCH   1   8
ATOM      8  C   UNL     1      46.507 130.683  13.448  1.00  0.00     0.006 C 
ATOM      9  C   UNL     1      47.703 131.166  13.109  1.00  0.00     0.009 C 
ENDBRANCH   1   8
BRANCH   4  10
ATOM     10  C   UNL     1      43.742 131.743  18.394  1.00  0.00     0.092 A 
ATOM     11  C   UNL     1      42.469 132.363  18.387  1.00  0.00     0.019 A 
ATOM     12  C   UNL     1      44.277 131.414  19.646  1.00  0.00     0.180 A 
ATOM     13  C   UNL     1      41.784 132.623  19.597  1.00  0.00     0.002 A 
ATOM     14  O   UNL     1      45.431 130.863  19.934  1.00  0.00    -0.355 OA
ATOM     15  C   UNL     1      43.610 131.668  20.809  1.00  0.00     0.043 A 
ATOM     16  C   UNL     1      42.358 132.273  20.832  1.00  0.00     0.014 A 
ATOM     17  N   UNL     1      45.561 130.733  21.228  1.00  0.00    -0.087 NA
ATOM     18  C   UNL     1      44.442 131.226  21.808  1.00  0.00     0.166 A 
ENDBRANCH   4  10
TORSDOF 2
ENDMDL
MODEL 6
REMARK VINA RESULT:      -7.7      1.538      5.772
REMARK SMILES C=Cc1ccc(-c2cccc3cnoc23)[nH+]c1
REMARK SMILES IDX 3 1 4 2 5 3 6 4 16 5 17 6 2 8 1 9 7 10 8 11 15 12 9 13 14 14
REMARK SMILES IDX 11 15 10 16 13 17 12 18
REMARK H PARENT 16 7
ROOT
ATOM      1  C   UNL     1      44.517 131.334  21.041  1.00  0.00     0.038 A 
ATOM      2  C   UNL     1      45.640 130.560  20.700  1.00  0.00     0.021 A 
ATOM      3  C   UNL     1      45.962 130.347  19.360  1.00  0.00     0.081 A 
ATOM      4  C   UNL     1      45.168 130.916  18.352  1.00  0.00     0.214 A 
ATOM      5  N   UNL     1      44.087 131.671  18.702  1.00  0.00    -0.210 N 
ATOM      6  C   UNL     1      43.755 131.890  20.004  1.00  0.00     0.314 A 
ATOM      7  H   UNL     1      43.471 132.080  17.964  1.00  0.00     0.453 HD
ENDROOT
BRANCH   1   8
ATOM      8  C   UNL     1      44.122 131.607  22.445  1.00  0.00     0.006 C 
ATOM      9  C   UNL     1      42.890 131.438  22.927  1.00  0.00     0.009 C 
ENDBRANCH   1   8
BRANCH   4  10
ATOM     10  C   UNL     1      45.505 130.700  16.924  1.00  0.00     0.092 A 
ATOM     11  C   UNL     1      46.709 130.064  16.534  1.00  0.00     0.019 A 
ATOM     12  C   UNL     1      44.650 131.117  15.895  1.00  0.00     0.180 A 
ATOM     13  C   UNL     1      47.012 129.864  15.167  1.00  0.00     0.002 A 
ATOM     14  O   UNL     1      43.501 131.743  15.977  1.00  0.00    -0.355 OA
ATOM     15  C   UNL     1      44.950 130.920  14.579  1.00  0.00     0.043 A 
ATOM     16  C   UNL     1      46.122 130.297  14.167  1.00  0.00     0.014 A 
ATOM     17  N   UNL     1      43.020 131.966  14.783  1.00  0.00    -0.087 NA
ATOM     18  C   UNL     1      43.900 131.466  13.882  1.00  0.00     0.166 A 
ENDBRANCH   4  10
TORSDOF 2
ENDMDL
MODEL 7
REMARK VINA RESULT:      -7.6      2.051      6.303
REMARK SMILES C=Cc1ccc(-c2cccc3cnoc23)[nH+]c1
REMARK SMILES IDX 3 1 4 2 5 3 6 4 16 5 17 6 2 8 1 9 7 10 8 11 15 12 9 13 14 14
REMARK SMILES IDX 11 15 10 16 13 17 12 18
REMARK H PARENT 16 7
ROOT
ATOM      1  C   UNL     1      44.771 131.200  20.900  1.00  0.00     0.038 A 
ATOM      2  C   UNL     1      43.720 131.811  20.193  1.00  0.00     0.021 A 
ATOM      3  C   UNL     1      43.714 131.798  18.798  1.00  0.00     0.081 A 
ATOM      4  C   UNL     1      44.754 131.165  18.102  1.00  0.00     0.214 A 
ATOM      5  N   UNL     1      45.762 130.570  18.805  1.00  0.00    -0.210 N 
ATOM      6  C   UNL     1      45.786 130.572  20.167  1.00  0.00     0.314 A 
ATOM      7  H   UNL     1      46.557 130.116  18.302  1.00  0.00     0.453 HD
ENDROOT
BRANCH   1   8
ATOM      8  C   UNL     1      44.835 131.170  22.383  1.00  0.00     0.006 C 
ATOM      9  C   UNL     1      43.779 131.001  23.179  1.00  0.00     0.009 C 
ENDBRANCH   1   8
BRANCH   4  10
ATOM     10  C   UNL     1      44.755 131.140  16.619  1.00  0.00     0.092 A 
ATOM     11  C   UNL     1      43.699 131.711  15.868  1.00  0.00     0.019 A 
ATOM     12  C   UNL     1      45.798 130.550  15.894  1.00  0.00     0.180 A 
ATOM     13  C   UNL     1      43.719 131.681  14.454  1.00  0.00     0.002 A 
ATOM     14  O   UNL     1      46.870 129.937  16.335  1.00  0.00    -0.355 OA
ATOM     15  C   UNL     1      45.809 130.525  14.529  1.00  0.00     0.043 A 
ATOM     16  C   UNL     1      44.788 131.080  13.767  1.00  0.00     0.014 A 
ATOM     17  N   UNL     1      47.595 129.513  15.334  1.00  0.00    -0.087 NA
ATOM     18  C   UNL     1      46.963 129.862  14.188  1.00  0.00     0.166 A 
ENDBRANCH   4  10
TORSDOF 2
ENDMDL
MODEL 8
REMARK VINA RESULT:      -7.5      1.791      5.867
REMARK SMILES C=Cc1ccc(-c2cccc3cnoc23)[nH+]c1
REMARK SMILES IDX 3 1 4 2 5 3 6 4 16 5 17 6 2 8 1 9 7 10 8 11 15 12 9 13 14 14
REMARK SMILES IDX 11 15 10 16 13 17 12 18
REMARK H PARENT 16 7
ROOT
ATOM      1  C   UNL     1      44.562 131.315  20.973  1.00  0.00     0.038 A 
ATOM      2  C   UNL     1      43.789 131.921  19.966  1.00  0.00     0.021 A 
ATOM      3  C   UNL     1      44.109 131.722  18.623  1.00  0.00     0.081 A 
ATOM      4  C   UNL     1      45.198 130.908  18.278  1.00  0.00     0.214 A 
ATOM      5  N   UNL     1      45.932 130.322  19.268  1.00  0.00    -0.210 N 
ATOM      6  C   UNL     1      45.637 130.503  20.585  1.00  0.00     0.314 A 
ATOM      7  H   UNL     1      46.761 129.734  19.029  1.00  0.00     0.453 HD
ENDROOT
BRANCH   1   8
ATOM      8  C   UNL     1      44.273 131.477  22.419  1.00  0.00     0.006 C 
ATOM      9  C   UNL     1      43.049 131.592  22.934  1.00  0.00     0.009 C 
ENDBRANCH   1   8
BRANCH   4  10
ATOM     10  C   UNL     1      45.543 130.686  16.852  1.00  0.00     0.092 A 
ATOM     11  C   UNL     1      46.748 130.044  16.473  1.00  0.00     0.019 A 
ATOM     12  C   UNL     1      44.696 131.101  15.817  1.00  0.00     0.180 A 
ATOM     13  C   UNL     1      47.059 129.837  15.109  1.00  0.00     0.002 A 
ATOM     14  O   UNL     1      43.549 131.731  15.889  1.00  0.00    -0.355 OA
ATOM     15  C   UNL     1      45.004 130.897  14.503  1.00  0.00     0.043 A 
ATOM     16  C   UNL     1      46.177 130.269  14.102  1.00  0.00     0.014 A 
ATOM     17  N   UNL     1      43.076 131.950  14.690  1.00  0.00    -0.087 NA
ATOM     18  C   UNL     1      43.959 131.443  13.798  1.00  0.00     0.166 A 
ENDBRANCH   4  10
TORSDOF 2
ENDMDL


