REMARK SMILES CC(C)c1ccc([N-]C(=O)N(N)c2ccccc2-c2[nH]c3ccccc3[nH+]2)cc1
REMARK SMILES IDX 9 1 10 2 8 3 7 4 4 5 5 6 29 7 6 8 28 9 2 10 1 11 3 12 11 13
REMARK SMILES IDX 12 14 13 17 14 18 18 19 15 20 17 21 16 22 19 23 20 24 27 25
REMARK SMILES IDX 21 26 26 27 22 28 25 29 23 30 24 31
REMARK H PARENT 12 15 12 16 20 32 27 33
ROOT
ATOM      1  C   UNL     1       0.748   1.163   3.369  1.00  0.00     0.173 C 
ATOM      2  O   UNL     1       1.438   1.960   4.059  1.00  0.00    -0.297 OA
ENDROOT
BRANCH   1   3
ATOM      3  N   UNL     1       1.403   0.091   2.686  1.00  0.00    -0.400 NA
BRANCH   3   4
ATOM      4  C   UNL     1       1.229  -0.189   1.293  1.00  0.00    -0.039 A 
ATOM      5  C   UNL     1       0.992  -0.765  -1.456  1.00  0.00    -0.045 A 
ATOM      6  C   UNL     1       1.331  -1.777  -0.538  1.00  0.00     0.004 A 
ATOM      7  C   UNL     1       0.806   0.546  -0.983  1.00  0.00     0.004 A 
ATOM      8  C   UNL     1       1.457  -1.486   0.823  1.00  0.00     0.004 A 
ATOM      9  C   UNL     1       0.912   0.830   0.381  1.00  0.00     0.004 A 
BRANCH   5  10
ATOM     10  C   UNL     1       0.855  -1.061  -2.937  1.00  0.00     0.013 C 
ATOM     11  C   UNL     1       2.210  -1.439  -3.544  1.00  0.00     0.012 C 
ATOM     12  C   UNL     1      -0.189  -2.155  -3.197  1.00  0.00     0.012 C 
ENDBRANCH   5  10
ENDBRANCH   3   4
ENDBRANCH   1   3
BRANCH   1  13
ATOM     13  N   UNL     1      -0.686   1.299   3.328  1.00  0.00    -0.358 N 
BRANCH  13  14
ATOM     14  N   UNL     1      -1.282   2.457   3.861  1.00  0.00    -0.312 NA
ATOM     15  H   UNL     1      -0.797   3.289   3.453  1.00  0.00     0.122 HD
ATOM     16  H   UNL     1      -1.111   2.458   4.893  1.00  0.00     0.122 HD
ENDBRANCH  13  14
BRANCH  13  17
ATOM     17  C   UNL     1      -1.485   0.106   3.282  1.00  0.00    -0.011 A 
ATOM     18  C   UNL     1      -1.459  -0.755   4.392  1.00  0.00     0.006 A 
ATOM     19  C   UNL     1      -2.263  -0.242   2.148  1.00  0.00     0.068 A 
ATOM     20  C   UNL     1      -2.180  -1.950   4.384  1.00  0.00     0.000 A 
ATOM     21  C   UNL     1      -2.973  -1.457   2.156  1.00  0.00     0.017 A 
ATOM     22  C   UNL     1      -2.933  -2.301   3.267  1.00  0.00     0.001 A 
BRANCH  19  23
ATOM     23  C   UNL     1      -2.326   0.593   0.927  1.00  0.00     0.285 A 
ATOM     24  N   UNL     1      -2.458   1.946   0.924  1.00  0.00    -0.237 N 
ATOM     25  N   UNL     1      -2.319   0.069  -0.327  1.00  0.00    -0.237 N 
ATOM     26  C   UNL     1      -2.514   2.268  -0.378  1.00  0.00     0.172 A 
ATOM     27  C   UNL     1      -2.433   1.136  -1.133  1.00  0.00     0.172 A 
ATOM     28  C   UNL     1      -2.641   3.531  -0.952  1.00  0.00     0.056 A 
ATOM     29  C   UNL     1      -2.460   1.171  -2.525  1.00  0.00     0.056 A 
ATOM     30  C   UNL     1      -2.671   3.606  -2.358  1.00  0.00     0.005 A 
ATOM     31  C   UNL     1      -2.580   2.432  -3.141  1.00  0.00     0.005 A 
ATOM     32  H   UNL     1      -2.562   2.593   1.732  1.00  0.00     0.312 HD
ATOM     33  H   UNL     1      -2.229  -0.933  -0.607  1.00  0.00     0.312 HD
ENDBRANCH  19  23
ENDBRANCH  13  17
ENDBRANCH   1  13
TORSDOF 7


