REMARK SMILES CC(=O)c1ccc(-c2[nH+]ccc(C)c2F)c2c[nH]nc12
REMARK SMILES IDX 4 1 5 2 6 3 7 4 16 5 17 6 18 7 19 8 20 9 2 11 1 12 3 13 8 14
REMARK SMILES IDX 9 15 14 16 10 17 12 18 11 19 15 21 13 22
REMARK H PARENT 18 10 9 20
ROOT
ATOM      1  C   UNL     1       0.324  -3.035   1.606  1.00  0.00     0.045 A 
ATOM      2  C   UNL     1      -0.838  -2.521   0.978  1.00  0.00     0.015 A 
ATOM      3  C   UNL     1      -1.089  -1.133   0.933  1.00  0.00     0.017 A 
ATOM      4  C   UNL     1      -0.190  -0.215   1.515  1.00  0.00     0.060 A 
ATOM      5  C   UNL     1       0.948  -0.746   2.131  1.00  0.00     0.034 A 
ATOM      6  C   UNL     1       2.026  -0.154   2.752  1.00  0.00     0.114 A 
ATOM      7  N   UNL     1       2.859  -1.140   3.146  1.00  0.00    -0.284 N 
ATOM      8  N   UNL     1       2.369  -2.324   2.799  1.00  0.00    -0.175 NA
ATOM      9  C   UNL     1       1.198  -2.094   2.174  1.00  0.00     0.104 A 
ATOM     10  H   UNL     1       3.767  -1.007   3.645  1.00  0.00     0.189 HD
ENDROOT
BRANCH   1  11
ATOM     11  C   UNL     1       0.604  -4.496   1.656  1.00  0.00     0.162 C 
ATOM     12  C   UNL     1      -0.320  -5.497   1.031  1.00  0.00     0.093 C 
ATOM     13  O   UNL     1       1.639  -4.920   2.239  1.00  0.00    -0.294 OA
ENDBRANCH   1  11
BRANCH   4  14
ATOM     14  C   UNL     1      -0.457   1.241   1.487  1.00  0.00     0.247 A 
ATOM     15  N   UNL     1      -0.406   1.965   2.644  1.00  0.00    -0.209 N 
ATOM     16  C   UNL     1      -0.768   1.889   0.278  1.00  0.00     0.198 A 
ATOM     17  C   UNL     1      -0.641   3.305   2.660  1.00  0.00     0.307 A 
ATOM     18  C   UNL     1      -1.026   3.268   0.276  1.00  0.00    -0.002 A 
ATOM     19  C   UNL     1      -0.949   3.980   1.479  1.00  0.00     0.077 A 
ATOM     20  H   UNL     1      -0.198   1.489   3.550  1.00  0.00     0.453 HD
ATOM     21  F   UNL     1      -0.788   1.193  -0.890  1.00  0.00    -0.199 F 
ATOM     22  C   UNL     1      -1.326   3.982  -1.010  1.00  0.00     0.048 C 
ENDBRANCH   4  14
TORSDOF 2


