REMARK SMILES O=C([N-]CCc1ccc(-c2c[nH+]c3cc[nH+]n3c2)cc1)[C@H]1CCCSC1
REMARK SMILES IDX 4 1 3 2 2 3 1 4 21 5 22 6 26 7 23 8 25 9 24 10 5 11 6 12
REMARK SMILES IDX 7 13 20 14 8 15 19 16 9 17 10 18 11 19 18 20 12 21 17 22
REMARK SMILES IDX 13 23 16 24 14 25 15 26
REMARK H PARENT 12 27 16 28
ROOT
ATOM      1  C   UNL     1       3.974  -1.360  -0.652  1.00  0.00    -0.113 C 
ENDROOT
BRANCH   1   2
ATOM      2  N   UNL     1       2.761  -2.090  -1.017  1.00  0.00    -0.653 NA
BRANCH   2   3
ATOM      3  C   UNL     1       1.548  -2.051  -0.255  1.00  0.00     0.055 C 
ATOM      4  O   UNL     1       1.504  -1.430   0.842  1.00  0.00    -0.320 OA
BRANCH   3   5
ATOM      5  C   UNL     1       0.321  -2.753  -0.771  1.00  0.00     0.047 C 
ATOM      6  C   UNL     1      -0.148  -3.812   0.245  1.00  0.00     0.011 C 
ATOM      7  C   UNL     1      -0.787  -1.729  -1.065  1.00  0.00     0.079 C 
ATOM      8  C   UNL     1      -1.365  -4.594  -0.262  1.00  0.00     0.012 C 
ATOM      9  S   UNL     1      -2.213  -2.522  -1.883  1.00  0.00    -0.161 SA
ATOM     10  C   UNL     1      -2.561  -3.675  -0.512  1.00  0.00     0.069 C 
ENDBRANCH   3   5
ENDBRANCH   2   3
ENDBRANCH   1   2
BRANCH   1  11
ATOM     11  C   UNL     1       3.992   0.038  -1.284  1.00  0.00     0.016 C 
BRANCH  11  12
ATOM     12  C   UNL     1       2.849   0.891  -0.797  1.00  0.00    -0.049 A 
ATOM     13  C   UNL     1       2.892   1.468   0.480  1.00  0.00     0.004 A 
ATOM     14  C   UNL     1       1.703   1.057  -1.588  1.00  0.00     0.004 A 
ATOM     15  C   UNL     1       1.796   2.187   0.967  1.00  0.00     0.009 A 
ATOM     16  C   UNL     1       0.607   1.774  -1.102  1.00  0.00     0.009 A 
ATOM     17  C   UNL     1       0.637   2.339   0.184  1.00  0.00    -0.011 A 
BRANCH  17  18
ATOM     18  C   UNL     1      -0.543   3.065   0.715  1.00  0.00     0.067 A 
ATOM     19  C   UNL     1      -0.391   4.245   1.488  1.00  0.00     0.210 A 
ATOM     20  C   UNL     1      -1.850   2.597   0.471  1.00  0.00     0.290 A 
ATOM     21  N   UNL     1      -1.483   4.904   1.976  1.00  0.00    -0.242 N 
ATOM     22  N   UNL     1      -2.885   3.301   0.987  1.00  0.00     0.008 N 
ATOM     23  C   UNL     1      -2.717   4.410   1.711  1.00  0.00     0.346 A 
ATOM     24  N   UNL     1      -4.175   3.037   0.883  1.00  0.00    -0.055 N 
ATOM     25  C   UNL     1      -3.942   4.906   2.104  1.00  0.00     0.180 A 
ATOM     26  C   UNL     1      -4.848   3.999   1.554  1.00  0.00     0.364 A 
ATOM     27  H   UNL     1      -1.365   5.774   2.542  1.00  0.00     0.312 HD
ATOM     28  H   UNL     1      -4.587   2.225   0.371  1.00  0.00     0.514 HD
ENDBRANCH  17  18
ENDBRANCH  11  12
ENDBRANCH   1  11
TORSDOF 6


