MODEL 1
REMARK VINA RESULT:      -9.5      0.000      0.000
REMARK SMILES [O-]c1ccc(-c2cc3cc(/N=C4\[CH]C=CC4)ncc3nc2Cl)cc1
REMARK SMILES IDX 10 1 17 2 18 3 19 4 20 5 21 6 22 7 6 8 7 9 8 10 9 11 11 12
REMARK SMILES IDX 12 13 13 14 14 15 15 16 16 17 5 18 4 19 23 20 3 21 24 22
REMARK SMILES IDX 2 23 1 24
REMARK H PARENT
ROOT
ATOM      1  C   UNL     1      43.308 131.867  20.851  1.00  0.00     0.152 A 
ATOM      2  N   UNL     1      42.130 132.319  20.333  1.00  0.00    -0.235 NA
ATOM      3  C   UNL     1      41.905 132.386  18.994  1.00  0.00     0.142 A 
ATOM      4  C   UNL     1      42.899 131.980  18.101  1.00  0.00     0.090 A 
ATOM      5  N   UNL     1      42.687 132.036  16.760  1.00  0.00    -0.234 NA
ATOM      6  C   UNL     1      43.636 131.652  15.863  1.00  0.00     0.137 A 
ATOM      7  Cl  UNL     1      43.227 131.707  14.154  1.00  0.00    -0.062 Cl
ATOM      8  C   UNL     1      44.886 131.176  16.318  1.00  0.00     0.020 A 
ATOM      9  C   UNL     1      45.114 131.098  17.701  1.00  0.00     0.022 A 
ATOM     10  C   UNL     1      44.123 131.503  18.603  1.00  0.00     0.006 A 
ATOM     11  C   UNL     1      44.326 131.446  19.988  1.00  0.00     0.059 A 
ENDROOT
BRANCH   1  12
ATOM     12  N   UNL     1      43.525 131.793  22.270  1.00  0.00    -0.237 NA
BRANCH  12  13
ATOM     13  C   UNL     1      43.486 130.730  23.021  1.00  0.00     0.032 C 
ATOM     14  C   UNL     1      44.476 129.611  23.011  1.00  0.00     0.069 C 
ATOM     15  C   UNL     1      43.931 128.724  24.078  1.00  0.00    -0.020 C 
ATOM     16  C   UNL     1      42.815 129.205  24.619  1.00  0.00    -0.025 C 
ATOM     17  C   UNL     1      42.408 130.508  24.021  1.00  0.00     0.079 C 
ENDBRANCH  12  13
ENDBRANCH   1  12
BRANCH   8  18
ATOM     18  C   UNL     1      45.952 130.757  15.382  1.00  0.00    -0.015 A 
ATOM     19  C   UNL     1      46.421 129.431  15.379  1.00  0.00     0.008 A 
ATOM     20  C   UNL     1      46.480 131.674  14.457  1.00  0.00     0.008 A 
ATOM     21  C   UNL     1      47.417 129.039  14.479  1.00  0.00    -0.008 A 
ATOM     22  C   UNL     1      47.475 131.277  13.559  1.00  0.00    -0.008 A 
ATOM     23  C   UNL     1      47.945 129.961  13.571  1.00  0.00    -0.109 A 
ATOM     24  O   UNL     1      48.934 129.567  12.678  1.00  0.00    -0.872 OA
ENDBRANCH   8  18
TORSDOF 3
ENDMDL
MODEL 2
REMARK VINA RESULT:      -9.3      0.546      1.328
REMARK SMILES [O-]c1ccc(-c2cc3cc(/N=C4\[CH]C=CC4)ncc3nc2Cl)cc1
REMARK SMILES IDX 10 1 17 2 18 3 19 4 20 5 21 6 22 7 6 8 7 9 8 10 9 11 11 12
REMARK SMILES IDX 12 13 13 14 14 15 15 16 16 17 5 18 4 19 23 20 3 21 24 22
REMARK SMILES IDX 2 23 1 24
REMARK H PARENT
ROOT
ATOM      1  C   UNL     1      43.470 131.939  20.775  1.00  0.00     0.152 A 
ATOM      2  N   UNL     1      42.287 132.389  20.266  1.00  0.00    -0.235 NA
ATOM      3  C   UNL     1      42.042 132.427  18.929  1.00  0.00     0.142 A 
ATOM      4  C   UNL     1      43.017 131.994  18.029  1.00  0.00     0.090 A 
ATOM      5  N   UNL     1      42.784 132.021  16.691  1.00  0.00    -0.234 NA
ATOM      6  C   UNL     1      43.715 131.609  15.789  1.00  0.00     0.137 A 
ATOM      7  Cl  UNL     1      43.279 131.629  14.085  1.00  0.00    -0.062 Cl
ATOM      8  C   UNL     1      44.968 131.132  16.234  1.00  0.00     0.020 A 
ATOM      9  C   UNL     1      45.218 131.083  17.614  1.00  0.00     0.022 A 
ATOM     10  C   UNL     1      44.245 131.517  18.522  1.00  0.00     0.006 A 
ATOM     11  C   UNL     1      44.470 131.489  19.905  1.00  0.00     0.059 A 
ENDROOT
BRANCH   1  12
ATOM     12  N   UNL     1      43.709 131.894  22.191  1.00  0.00    -0.237 NA
BRANCH  12  13
ATOM     13  C   UNL     1      44.030 130.855  22.907  1.00  0.00     0.032 C 
ATOM     14  C   UNL     1      43.913 130.741  24.392  1.00  0.00     0.069 C 
ATOM     15  C   UNL     1      44.392 129.349  24.621  1.00  0.00    -0.020 C 
ATOM     16  C   UNL     1      44.747 128.740  23.493  1.00  0.00    -0.025 C 
ATOM     17  C   UNL     1      44.567 129.610  22.296  1.00  0.00     0.079 C 
ENDBRANCH  12  13
ENDBRANCH   1  12
BRANCH   8  18
ATOM     18  C   UNL     1      46.016 130.684  15.290  1.00  0.00    -0.015 A 
ATOM     19  C   UNL     1      46.597 131.588  14.384  1.00  0.00     0.008 A 
ATOM     20  C   UNL     1      46.469 129.354  15.319  1.00  0.00     0.008 A 
ATOM     21  C   UNL     1      47.599 131.160  13.508  1.00  0.00    -0.008 A 
ATOM     22  C   UNL     1      47.472 128.930  14.442  1.00  0.00    -0.008 A 
ATOM     23  C   UNL     1      48.036 129.833  13.535  1.00  0.00    -0.109 A 
ATOM     24  O   UNL     1      49.032 129.411  12.663  1.00  0.00    -0.872 OA
ENDBRANCH   8  18
TORSDOF 3
ENDMDL
MODEL 3
REMARK VINA RESULT:      -8.5      0.684      1.280
REMARK SMILES [O-]c1ccc(-c2cc3cc(/N=C4\[CH]C=CC4)ncc3nc2Cl)cc1
REMARK SMILES IDX 10 1 17 2 18 3 19 4 20 5 21 6 22 7 6 8 7 9 8 10 9 11 11 12
REMARK SMILES IDX 12 13 13 14 14 15 15 16 16 17 5 18 4 19 23 20 3 21 24 22
REMARK SMILES IDX 2 23 1 24
REMARK H PARENT
ROOT
ATOM      1  C   UNL     1      43.951 131.451  20.600  1.00  0.00     0.152 A 
ATOM      2  N   UNL     1      42.757 131.945  20.166  1.00  0.00    -0.235 NA
ATOM      3  C   UNL     1      42.465 132.078  18.845  1.00  0.00     0.142 A 
ATOM      4  C   UNL     1      43.404 131.700  17.883  1.00  0.00     0.090 A 
ATOM      5  N   UNL     1      43.124 131.821  16.559  1.00  0.00    -0.234 NA
ATOM      6  C   UNL     1      44.018 131.465  15.598  1.00  0.00     0.137 A 
ATOM      7  Cl  UNL     1      43.523 131.606  13.916  1.00  0.00    -0.062 Cl
ATOM      8  C   UNL     1      45.281 130.948  15.964  1.00  0.00     0.020 A 
ATOM      9  C   UNL     1      45.579 130.801  17.328  1.00  0.00     0.022 A 
ATOM     10  C   UNL     1      44.643 131.180  18.298  1.00  0.00     0.006 A 
ATOM     11  C   UNL     1      44.915 131.054  19.667  1.00  0.00     0.059 A 
ENDROOT
BRANCH   1  12
ATOM     12  N   UNL     1      44.239 131.306  22.001  1.00  0.00    -0.237 NA
BRANCH  12  13
ATOM     13  C   UNL     1      43.474 130.784  22.916  1.00  0.00     0.032 C 
ATOM     14  C   UNL     1      43.408 129.338  23.285  1.00  0.00     0.069 C 
ATOM     15  C   UNL     1      42.402 129.359  24.384  1.00  0.00    -0.020 C 
ATOM     16  C   UNL     1      41.936 130.581  24.625  1.00  0.00    -0.025 C 
ATOM     17  C   UNL     1      42.547 131.608  23.736  1.00  0.00     0.079 C 
ENDBRANCH  12  13
ENDBRANCH   1  12
BRANCH   8  18
ATOM     18  C   UNL     1      46.290 130.556  14.955  1.00  0.00    -0.015 A 
ATOM     19  C   UNL     1      46.681 131.456  13.949  1.00  0.00     0.008 A 
ATOM     20  C   UNL     1      46.898 129.291  15.019  1.00  0.00     0.008 A 
ATOM     21  C   UNL     1      47.648 131.086  13.010  1.00  0.00    -0.008 A 
ATOM     22  C   UNL     1      47.865 128.924  14.078  1.00  0.00    -0.008 A 
ATOM     23  C   UNL     1      48.239 129.820  13.073  1.00  0.00    -0.109 A 
ATOM     24  O   UNL     1      49.200 129.455  12.138  1.00  0.00    -0.872 OA
ENDBRANCH   8  18
TORSDOF 3
ENDMDL
MODEL 4
REMARK VINA RESULT:      -8.4      0.774      1.145
REMARK SMILES [O-]c1ccc(-c2cc3cc(/N=C4\[CH]C=CC4)ncc3nc2Cl)cc1
REMARK SMILES IDX 10 1 17 2 18 3 19 4 20 5 21 6 22 7 6 8 7 9 8 10 9 11 11 12
REMARK SMILES IDX 12 13 13 14 14 15 15 16 16 17 5 18 4 19 23 20 3 21 24 22
REMARK SMILES IDX 2 23 1 24
REMARK H PARENT
ROOT
ATOM      1  C   UNL     1      44.276 131.660  20.620  1.00  0.00     0.152 A 
ATOM      2  N   UNL     1      43.057 132.118  20.216  1.00  0.00    -0.235 NA
ATOM      3  C   UNL     1      42.711 132.196  18.903  1.00  0.00     0.142 A 
ATOM      4  C   UNL     1      43.619 131.795  17.920  1.00  0.00     0.090 A 
ATOM      5  N   UNL     1      43.286 131.862  16.604  1.00  0.00    -0.234 NA
ATOM      6  C   UNL     1      44.148 131.483  15.622  1.00  0.00     0.137 A 
ATOM      7  Cl  UNL     1      43.585 131.552  13.957  1.00  0.00    -0.062 Cl
ATOM      8  C   UNL     1      45.432 131.000  15.958  1.00  0.00     0.020 A 
ATOM      9  C   UNL     1      45.785 130.910  17.313  1.00  0.00     0.022 A 
ATOM     10  C   UNL     1      44.881 131.311  18.304  1.00  0.00     0.006 A 
ATOM     11  C   UNL     1      45.209 131.242  19.665  1.00  0.00     0.059 A 
ENDROOT
BRANCH   1  12
ATOM     12  N   UNL     1      44.621 131.573  22.013  1.00  0.00    -0.237 NA
BRANCH  12  13
ATOM     13  C   UNL     1      43.892 131.095  22.980  1.00  0.00     0.032 C 
ATOM     14  C   UNL     1      42.744 131.787  23.640  1.00  0.00     0.069 C 
ATOM     15  C   UNL     1      42.304 130.758  24.624  1.00  0.00    -0.020 C 
ATOM     16  C   UNL     1      43.051 129.658  24.579  1.00  0.00    -0.025 C 
ATOM     17  C   UNL     1      44.128 129.743  23.554  1.00  0.00     0.079 C 
ENDBRANCH  12  13
ENDBRANCH   1  12
BRANCH   8  18
ATOM     18  C   UNL     1      46.408 130.586  14.925  1.00  0.00    -0.015 A 
ATOM     19  C   UNL     1      47.055 129.341  15.011  1.00  0.00     0.008 A 
ATOM     20  C   UNL     1      46.667 131.420  13.824  1.00  0.00     0.008 A 
ATOM     21  C   UNL     1      47.962 128.949  14.022  1.00  0.00    -0.008 A 
ATOM     22  C   UNL     1      47.575 131.024  12.837  1.00  0.00    -0.008 A 
ATOM     23  C   UNL     1      48.224 129.790  12.936  1.00  0.00    -0.109 A 
ATOM     24  O   UNL     1      49.126 129.398  11.955  1.00  0.00    -0.872 OA
ENDBRANCH   8  18
TORSDOF 3
ENDMDL


