REMARK SMILES N[NH2+]c1cccc2cc(-c3ccc(O)cc3)c3c[n-]nc3c12
REMARK SMILES IDX 3 1 4 2 5 3 6 4 7 5 8 6 9 7 17 8 18 9 19 10 20 11 21 12
REMARK SMILES IDX 22 13 2 14 1 17 10 20 11 21 16 22 12 23 15 24 13 25 14 26
REMARK H PARENT 2 15 2 16 1 18 1 19 14 27
ROOT
ATOM      1  C   UNL     1       0.956  -2.116  -2.511  1.00  0.00     0.158 A 
ATOM      2  C   UNL     1       1.347  -3.228  -1.741  1.00  0.00     0.070 A 
ATOM      3  C   UNL     1       1.360  -3.172  -0.349  1.00  0.00     0.007 A 
ATOM      4  C   UNL     1       0.975  -2.010   0.312  1.00  0.00     0.009 A 
ATOM      5  C   UNL     1       0.562  -0.885  -0.412  1.00  0.00    -0.010 A 
ATOM      6  C   UNL     1       0.165   0.282   0.284  1.00  0.00     0.018 A 
ATOM      7  C   UNL     1      -0.276   1.428  -0.406  1.00  0.00    -0.010 A 
ATOM      8  C   UNL     1      -0.289   1.361  -1.803  1.00  0.00    -0.014 A 
ATOM      9  C   UNL     1      -0.617   2.291  -2.765  1.00  0.00    -0.113 A 
ATOM     10  N   UNL     1      -0.438   1.726  -3.978  1.00  0.00    -0.581 NA
ATOM     11  N   UNL     1      -0.004   0.481  -3.816  1.00  0.00    -0.367 NA
ATOM     12  C   UNL     1       0.099   0.244  -2.495  1.00  0.00     0.061 A 
ATOM     13  C   UNL     1       0.541  -0.926  -1.841  1.00  0.00     0.069 A 
ENDROOT
BRANCH   1  14
ATOM     14  N   UNL     1       0.964  -2.236  -3.951  1.00  0.00    -0.239 N 
ATOM     15  H   UNL     1       1.430  -1.407  -4.384  1.00  0.00     0.376 HD
ATOM     16  H   UNL     1       1.494  -3.085  -4.262  1.00  0.00     0.376 HD
BRANCH  14  17
ATOM     17  N   UNL     1      -0.366  -2.337  -4.409  1.00  0.00    -0.178 NA
ATOM     18  H   UNL     1      -0.734  -3.284  -4.154  1.00  0.00     0.183 HD
ATOM     19  H   UNL     1      -0.350  -2.296  -5.455  1.00  0.00     0.183 HD
ENDBRANCH  14  17
ENDBRANCH   1  14
BRANCH   7  20
ATOM     20  C   UNL     1      -0.704   2.638   0.334  1.00  0.00    -0.017 A 
ATOM     21  C   UNL     1       0.103   3.165   1.355  1.00  0.00     0.012 A 
ATOM     22  C   UNL     1      -1.934   3.255   0.045  1.00  0.00     0.012 A 
ATOM     23  C   UNL     1      -0.303   4.300   2.063  1.00  0.00     0.047 A 
ATOM     24  C   UNL     1      -2.338   4.390   0.754  1.00  0.00     0.047 A 
ATOM     25  C   UNL     1      -1.525   4.916   1.763  1.00  0.00     0.115 A 
BRANCH  25  26
ATOM     26  O   UNL     1      -1.941   6.048   2.461  1.00  0.00    -0.508 OA
ATOM     27  H   UNL     1      -1.375   6.453   3.198  1.00  0.00     0.293 HD
ENDBRANCH  25  26
ENDBRANCH   7  20
TORSDOF 4


