REMARK SMILES Cc1ccc(-c2cc(F)c3[nH+]cccc3c2[O-])c(F)n1
REMARK SMILES IDX 6 1 7 2 8 3 9 4 10 5 11 6 12 7 13 8 14 9 15 10 16 11 17 12
REMARK SMILES IDX 5 14 2 15 3 16 20 17 4 18 18 19 1 20 19 21
REMARK H PARENT 11 13
ROOT
ATOM      1  C   UNL     1      -0.774  -0.955  -0.822  1.00  0.00    -0.018 A 
ATOM      2  C   UNL     1      -0.241  -1.318   0.425  1.00  0.00     0.054 A 
ATOM      3  C   UNL     1       0.253  -2.605   0.644  1.00  0.00     0.195 A 
ATOM      4  F   UNL     1       0.757  -2.920   1.865  1.00  0.00    -0.200 F 
ATOM      5  C   UNL     1       0.222  -3.559  -0.386  1.00  0.00     0.246 A 
ATOM      6  N   UNL     1       0.702  -4.822  -0.180  1.00  0.00    -0.209 N 
ATOM      7  C   UNL     1       0.683  -5.760  -1.165  1.00  0.00     0.307 A 
ATOM      8  C   UNL     1       0.168  -5.451  -2.423  1.00  0.00     0.071 A 
ATOM      9  C   UNL     1      -0.330  -4.172  -2.667  1.00  0.00     0.020 A 
ATOM     10  C   UNL     1      -0.311  -3.205  -1.649  1.00  0.00     0.042 A 
ATOM     11  C   UNL     1      -0.804  -1.903  -1.865  1.00  0.00    -0.086 A 
ATOM     12  O   UNL     1      -1.306  -1.545  -3.114  1.00  0.00    -0.871 OA
ATOM     13  H   UNL     1       1.097  -5.094   0.749  1.00  0.00     0.453 HD
ENDROOT
BRANCH   1  14
ATOM     14  C   UNL     1      -1.305   0.414  -1.020  1.00  0.00     0.036 A 
ATOM     15  C   UNL     1      -2.300   2.997  -1.361  1.00  0.00     0.041 A 
ATOM     16  C   UNL     1      -3.113   1.899  -1.664  1.00  0.00     0.024 A 
ATOM     17  N   UNL     1      -1.034   2.793  -0.904  1.00  0.00    -0.225 NA
ATOM     18  C   UNL     1      -2.613   0.608  -1.491  1.00  0.00     0.015 A 
ATOM     19  C   UNL     1      -0.524   1.546  -0.726  1.00  0.00     0.220 A 
ATOM     20  C   UNL     1      -2.813   4.390  -1.538  1.00  0.00     0.067 C 
ATOM     21  F   UNL     1       0.753   1.411  -0.286  1.00  0.00    -0.184 F 
ENDBRANCH   1  14
TORSDOF 1


