REMARK SMILES C=Cc1cc(-c2ccc(C(C)=O)nc2)cc(Nc2ccc(C)c(F)c2)c1[O-]
REMARK SMILES IDX 3 1 4 2 5 3 15 4 16 5 26 6 27 7 2 8 1 9 6 10 7 11 14 12 8 13
REMARK SMILES IDX 13 14 9 15 10 16 11 17 12 18 17 19 18 21 19 22 25 23 20 24
REMARK SMILES IDX 23 25 21 26 24 27 22 28
REMARK H PARENT 17 20
ROOT
ATOM      1  C   UNL     1       0.162   1.828   0.929  1.00  0.00    -0.031 A 
ATOM      2  C   UNL     1       1.242   1.040   0.484  1.00  0.00     0.016 A 
ATOM      3  C   UNL     1       1.062  -0.314   0.155  1.00  0.00    -0.014 A 
ATOM      4  C   UNL     1      -0.217  -0.880   0.271  1.00  0.00     0.034 A 
ATOM      5  C   UNL     1      -1.306  -0.111   0.697  1.00  0.00     0.032 A 
ATOM      6  C   UNL     1      -1.109   1.236   1.057  1.00  0.00    -0.077 A 
ATOM      7  O   UNL     1      -2.177   1.980   1.553  1.00  0.00    -0.871 OA
ENDROOT
BRANCH   1   8
ATOM      8  C   UNL     1       0.347   3.252   1.311  1.00  0.00    -0.000 C 
ATOM      9  C   UNL     1       1.318   4.028   0.829  1.00  0.00     0.009 C 
ENDBRANCH   1   8
BRANCH   3  10
ATOM     10  C   UNL     1       2.210  -1.137  -0.304  1.00  0.00     0.000 A 
ATOM     11  C   UNL     1       3.166  -0.610  -1.188  1.00  0.00     0.013 A 
ATOM     12  C   UNL     1       2.369  -2.462   0.134  1.00  0.00     0.120 A 
ATOM     13  C   UNL     1       4.240  -1.394  -1.613  1.00  0.00     0.033 A 
ATOM     14  N   UNL     1       3.425  -3.205  -0.292  1.00  0.00    -0.253 NA
ATOM     15  C   UNL     1       4.361  -2.713  -1.150  1.00  0.00     0.106 A 
BRANCH  15  16
ATOM     16  C   UNL     1       5.485  -3.572  -1.578  1.00  0.00     0.178 C 
ATOM     17  C   UNL     1       5.603  -4.979  -1.079  1.00  0.00     0.095 C 
ATOM     18  O   UNL     1       6.359  -3.127  -2.371  1.00  0.00    -0.293 OA
ENDBRANCH  15  16
ENDBRANCH   3  10
BRANCH   5  19
ATOM     19  N   UNL     1      -2.596  -0.732   0.810  1.00  0.00    -0.356 N 
ATOM     20  H   UNL     1      -2.638  -1.692   1.223  1.00  0.00     0.166 HD
BRANCH  19  21
ATOM     21  C   UNL     1      -3.814  -0.162   0.297  1.00  0.00     0.041 A 
ATOM     22  C   UNL     1      -3.799   0.784  -0.744  1.00  0.00     0.026 A 
ATOM     23  C   UNL     1      -5.045  -0.595   0.808  1.00  0.00     0.065 A 
ATOM     24  C   UNL     1      -4.996   1.308  -1.239  1.00  0.00     0.008 A 
ATOM     25  C   UNL     1      -6.244  -0.072   0.314  1.00  0.00     0.128 A 
ATOM     26  C   UNL     1      -6.227   0.887  -0.711  1.00  0.00    -0.015 A 
ATOM     27  F   UNL     1      -7.422  -0.501   0.835  1.00  0.00    -0.207 F 
ATOM     28  C   UNL     1      -7.516   1.447  -1.240  1.00  0.00     0.047 C 
ENDBRANCH  19  21
ENDBRANCH   5  19
TORSDOF 5


