MODEL 1
REMARK VINA RESULT:     -10.0      0.000      0.000
REMARK SMILES C=Cc1ccc(N)c(-c2ccc3c(c2)[N-]C(=O)C3)c1
REMARK SMILES IDX 3 1 4 2 5 3 6 4 8 5 19 6 2 7 1 8 9 9 10 10 14 11 11 12 13 13
REMARK SMILES IDX 12 14 15 15 18 16 16 17 17 18 7 19
REMARK H PARENT 7 20 7 21
ROOT
ATOM      1  C   UNL     1      46.252 130.594  14.980  1.00  0.00    -0.025 A 
ATOM      2  C   UNL     1      45.178 131.032  14.193  1.00  0.00     0.010 A 
ATOM      3  C   UNL     1      44.017 131.532  14.787  1.00  0.00     0.027 A 
ATOM      4  C   UNL     1      43.899 131.598  16.181  1.00  0.00     0.039 A 
ATOM      5  C   UNL     1      44.958 131.124  16.991  1.00  0.00     0.005 A 
ATOM      6  C   UNL     1      46.127 130.634  16.382  1.00  0.00     0.019 A 
ENDROOT
BRANCH   1   7
ATOM      7  C   UNL     1      47.462 130.073  14.299  1.00  0.00     0.000 C 
ATOM      8  C   UNL     1      47.902 130.507  13.118  1.00  0.00     0.009 C 
ENDBRANCH   1   7
BRANCH   5   9
ATOM      9  C   UNL     1      44.863 131.099  18.467  1.00  0.00    -0.018 A 
ATOM     10  C   UNL     1      45.886 130.492  19.233  1.00  0.00     0.009 A 
ATOM     11  C   UNL     1      43.732 131.639  19.116  1.00  0.00    -0.007 A 
ATOM     12  C   UNL     1      45.794 130.441  20.634  1.00  0.00     0.003 A 
ATOM     13  C   UNL     1      43.666 131.577  20.506  1.00  0.00    -0.130 A 
ATOM     14  C   UNL     1      44.671 130.994  21.248  1.00  0.00    -0.057 A 
ATOM     15  N   UNL     1      42.608 132.073  21.308  1.00  0.00    -0.626 NA
ATOM     16  C   UNL     1      44.352 131.056  22.700  1.00  0.00     0.089 C 
ATOM     17  C   UNL     1      43.028 131.755  22.634  1.00  0.00     0.059 C 
ATOM     18  O   UNL     1      42.340 132.044  23.647  1.00  0.00    -0.320 OA
ENDBRANCH   5   9
BRANCH   4  19
ATOM     19  N   UNL     1      42.718 132.180  16.750  1.00  0.00    -0.398 N 
ATOM     20  H   UNL     1      41.794 131.703  16.658  1.00  0.00     0.156 HD
ATOM     21  H   UNL     1      42.728 133.120  17.204  1.00  0.00     0.156 HD
ENDBRANCH   4  19
TORSDOF 3
ENDMDL
MODEL 2
REMARK VINA RESULT:      -9.5      3.157      6.792
REMARK SMILES C=Cc1ccc(N)c(-c2ccc3c(c2)[N-]C(=O)C3)c1
REMARK SMILES IDX 3 1 4 2 5 3 6 4 8 5 19 6 2 7 1 8 9 9 10 10 14 11 11 12 13 13
REMARK SMILES IDX 12 14 15 15 18 16 16 17 17 18 7 19
REMARK H PARENT 7 20 7 21
ROOT
ATOM      1  C   UNL     1      43.925 131.419  21.072  1.00  0.00    -0.025 A 
ATOM      2  C   UNL     1      42.701 132.090  21.197  1.00  0.00     0.010 A 
ATOM      3  C   UNL     1      41.997 132.502  20.064  1.00  0.00     0.027 A 
ATOM      4  C   UNL     1      42.504 132.262  18.780  1.00  0.00     0.039 A 
ATOM      5  C   UNL     1      43.757 131.621  18.637  1.00  0.00     0.005 A 
ATOM      6  C   UNL     1      44.452 131.199  19.785  1.00  0.00     0.019 A 
ENDROOT
BRANCH   1   7
ATOM      7  C   UNL     1      44.632 131.001  22.307  1.00  0.00     0.000 C 
ATOM      8  C   UNL     1      44.071 130.967  23.516  1.00  0.00     0.009 C 
ENDBRANCH   1   7
BRANCH   5   9
ATOM      9  C   UNL     1      44.380 131.406  17.312  1.00  0.00    -0.018 A 
ATOM     10  C   UNL     1      43.742 131.883  16.143  1.00  0.00     0.009 A 
ATOM     11  C   UNL     1      45.588 130.685  17.203  1.00  0.00    -0.007 A 
ATOM     12  C   UNL     1      44.312 131.663  14.878  1.00  0.00     0.003 A 
ATOM     13  C   UNL     1      46.133 130.482  15.937  1.00  0.00    -0.130 A 
ATOM     14  C   UNL     1      45.513 130.959  14.803  1.00  0.00    -0.057 A 
ATOM     15  N   UNL     1      47.335 129.786  15.655  1.00  0.00    -0.626 NA
ATOM     16  C   UNL     1      46.297 130.603  13.589  1.00  0.00     0.089 C 
ATOM     17  C   UNL     1      47.429 129.862  14.233  1.00  0.00     0.059 C 
ATOM     18  O   UNL     1      48.383 129.351  13.592  1.00  0.00    -0.320 OA
ENDBRANCH   5   9
BRANCH   4  19
ATOM     19  N   UNL     1      41.718 132.641  17.642  1.00  0.00    -0.398 N 
ATOM     20  H   UNL     1      40.954 132.020  17.295  1.00  0.00     0.156 HD
ATOM     21  H   UNL     1      41.928 133.499  17.086  1.00  0.00     0.156 HD
ENDBRANCH   4  19
TORSDOF 3
ENDMDL
MODEL 3
REMARK VINA RESULT:      -8.5      1.195      1.780
REMARK SMILES C=Cc1ccc(N)c(-c2ccc3c(c2)[N-]C(=O)C3)c1
REMARK SMILES IDX 3 1 4 2 5 3 6 4 8 5 19 6 2 7 1 8 9 9 10 10 14 11 11 12 13 13
REMARK SMILES IDX 12 14 15 15 18 16 16 17 17 18 7 19
REMARK H PARENT 7 20 7 21
ROOT
ATOM      1  C   UNL     1      46.580 130.308  14.969  1.00  0.00    -0.025 A 
ATOM      2  C   UNL     1      45.844 130.713  13.848  1.00  0.00     0.010 A 
ATOM      3  C   UNL     1      44.615 131.358  13.998  1.00  0.00     0.027 A 
ATOM      4  C   UNL     1      44.088 131.603  15.273  1.00  0.00     0.039 A 
ATOM      5  C   UNL     1      44.799 131.165  16.415  1.00  0.00     0.005 A 
ATOM      6  C   UNL     1      46.043 130.528  16.251  1.00  0.00     0.019 A 
ENDROOT
BRANCH   1   7
ATOM      7  C   UNL     1      47.882 129.628  14.754  1.00  0.00     0.000 C 
ATOM      8  C   UNL     1      48.449 129.458  13.559  1.00  0.00     0.009 C 
ENDBRANCH   1   7
BRANCH   5   9
ATOM      9  C   UNL     1      44.260 131.329  17.783  1.00  0.00    -0.018 A 
ATOM     10  C   UNL     1      42.939 131.796  17.973  1.00  0.00     0.009 A 
ATOM     11  C   UNL     1      45.075 131.064  18.904  1.00  0.00    -0.007 A 
ATOM     12  C   UNL     1      42.426 131.978  19.268  1.00  0.00     0.003 A 
ATOM     13  C   UNL     1      44.542 131.253  20.177  1.00  0.00    -0.130 A 
ATOM     14  C   UNL     1      43.249 131.696  20.356  1.00  0.00    -0.057 A 
ATOM     15  N   UNL     1      45.221 131.031  21.401  1.00  0.00    -0.626 NA
ATOM     16  C   UNL     1      42.934 131.815  21.806  1.00  0.00     0.089 C 
ATOM     17  C   UNL     1      44.244 131.372  22.383  1.00  0.00     0.059 C 
ATOM     18  O   UNL     1      44.475 131.302  23.618  1.00  0.00    -0.320 OA
ENDBRANCH   5   9
BRANCH   4  19
ATOM     19  N   UNL     1      42.855 132.328  15.386  1.00  0.00    -0.398 N 
ATOM     20  H   UNL     1      42.643 133.118  14.737  1.00  0.00     0.156 HD
ATOM     21  H   UNL     1      42.173 132.143  16.153  1.00  0.00     0.156 HD
ENDBRANCH   4  19
TORSDOF 3
ENDMDL
MODEL 4
REMARK VINA RESULT:      -8.2      3.218      6.757
REMARK SMILES C=Cc1ccc(N)c(-c2ccc3c(c2)[N-]C(=O)C3)c1
REMARK SMILES IDX 3 1 4 2 5 3 6 4 8 5 19 6 2 7 1 8 9 9 10 10 14 11 11 12 13 13
REMARK SMILES IDX 12 14 15 15 18 16 16 17 17 18 7 19
REMARK H PARENT 7 20 7 21
ROOT
ATOM      1  C   UNL     1      43.801 131.686  20.964  1.00  0.00    -0.025 A 
ATOM      2  C   UNL     1      42.598 132.392  20.824  1.00  0.00     0.010 A 
ATOM      3  C   UNL     1      42.041 132.603  19.562  1.00  0.00     0.027 A 
ATOM      4  C   UNL     1      42.678 132.124  18.409  1.00  0.00     0.039 A 
ATOM      5  C   UNL     1      43.913 131.445  18.530  1.00  0.00     0.005 A 
ATOM      6  C   UNL     1      44.459 131.226  19.808  1.00  0.00     0.019 A 
ENDROOT
BRANCH   1   7
ATOM      7  C   UNL     1      44.350 131.487  22.328  1.00  0.00     0.000 C 
ATOM      8  C   UNL     1      43.628 131.574  23.446  1.00  0.00     0.009 C 
ENDBRANCH   1   7
BRANCH   5   9
ATOM      9  C   UNL     1      44.669 130.980  17.346  1.00  0.00    -0.018 A 
ATOM     10  C   UNL     1      44.731 129.600  17.041  1.00  0.00     0.009 A 
ATOM     11  C   UNL     1      45.368 131.905  16.542  1.00  0.00    -0.007 A 
ATOM     12  C   UNL     1      45.466 129.146  15.933  1.00  0.00     0.003 A 
ATOM     13  C   UNL     1      46.089 131.428  15.449  1.00  0.00    -0.130 A 
ATOM     14  C   UNL     1      46.136 130.084  15.150  1.00  0.00    -0.057 A 
ATOM     15  N   UNL     1      46.839 132.219  14.543  1.00  0.00    -0.626 NA
ATOM     16  C   UNL     1      46.973 129.846  13.942  1.00  0.00     0.089 C 
ATOM     17  C   UNL     1      47.371 131.257  13.634  1.00  0.00     0.059 C 
ATOM     18  O   UNL     1      48.107 131.579  12.665  1.00  0.00    -0.320 OA
ENDBRANCH   5   9
BRANCH   4  19
ATOM     19  N   UNL     1      42.038 132.304  17.138  1.00  0.00    -0.398 N 
ATOM     20  H   UNL     1      41.463 131.539  16.721  1.00  0.00     0.156 HD
ATOM     21  H   UNL     1      42.184 133.162  16.562  1.00  0.00     0.156 HD
ENDBRANCH   4  19
TORSDOF 3
ENDMDL
MODEL 5
REMARK VINA RESULT:      -8.2      2.950      6.644
REMARK SMILES C=Cc1ccc(N)c(-c2ccc3c(c2)[N-]C(=O)C3)c1
REMARK SMILES IDX 3 1 4 2 5 3 6 4 8 5 19 6 2 7 1 8 9 9 10 10 14 11 11 12 13 13
REMARK SMILES IDX 12 14 15 15 18 16 16 17 17 18 7 19
REMARK H PARENT 7 20 7 21
ROOT
ATOM      1  C   UNL     1      43.074 131.926  21.979  1.00  0.00    -0.025 A 
ATOM      2  C   UNL     1      41.911 132.665  21.722  1.00  0.00     0.010 A 
ATOM      3  C   UNL     1      41.513 132.933  20.411  1.00  0.00     0.027 A 
ATOM      4  C   UNL     1      42.274 132.477  19.326  1.00  0.00     0.039 A 
ATOM      5  C   UNL     1      43.471 131.763  19.568  1.00  0.00     0.005 A 
ATOM      6  C   UNL     1      43.855 131.488  20.893  1.00  0.00     0.019 A 
ENDROOT
BRANCH   1   7
ATOM      7  C   UNL     1      43.451 131.667  23.391  1.00  0.00     0.000 C 
ATOM      8  C   UNL     1      43.852 130.483  23.854  1.00  0.00     0.009 C 
ENDBRANCH   1   7
BRANCH   5   9
ATOM      9  C   UNL     1      44.354 131.319  18.467  1.00  0.00    -0.018 A 
ATOM     10  C   UNL     1      45.484 130.516  18.744  1.00  0.00     0.009 A 
ATOM     11  C   UNL     1      44.099 131.731  17.141  1.00  0.00    -0.007 A 
ATOM     12  C   UNL     1      46.342 130.109  17.709  1.00  0.00     0.003 A 
ATOM     13  C   UNL     1      44.965 131.313  16.134  1.00  0.00    -0.130 A 
ATOM     14  C   UNL     1      46.058 130.521  16.408  1.00  0.00    -0.057 A 
ATOM     15  N   UNL     1      44.850 131.634  14.758  1.00  0.00    -0.626 NA
ATOM     16  C   UNL     1      46.815 130.224  15.162  1.00  0.00     0.089 C 
ATOM     17  C   UNL     1      45.972 130.972  14.175  1.00  0.00     0.059 C 
ATOM     18  O   UNL     1      46.217 131.020  12.941  1.00  0.00    -0.320 OA
ENDBRANCH   5   9
BRANCH   4  19
ATOM     19  N   UNL     1      41.796 132.716  17.995  1.00  0.00    -0.398 N 
ATOM     20  H   UNL     1      42.403 133.190  17.290  1.00  0.00     0.156 HD
ATOM     21  H   UNL     1      40.816 132.494  17.711  1.00  0.00     0.156 HD
ENDBRANCH   4  19
TORSDOF 3
ENDMDL
MODEL 6
REMARK VINA RESULT:      -8.2      3.063      6.709
REMARK SMILES C=Cc1ccc(N)c(-c2ccc3c(c2)[N-]C(=O)C3)c1
REMARK SMILES IDX 3 1 4 2 5 3 6 4 8 5 19 6 2 7 1 8 9 9 10 10 14 11 11 12 13 13
REMARK SMILES IDX 12 14 15 15 18 16 16 17 17 18 7 19
REMARK H PARENT 7 20 7 21
ROOT
ATOM      1  C   UNL     1      44.018 130.592  22.057  1.00  0.00    -0.025 A 
ATOM      2  C   UNL     1      43.067 131.543  22.451  1.00  0.00     0.010 A 
ATOM      3  C   UNL     1      42.459 132.375  21.510  1.00  0.00     0.027 A 
ATOM      4  C   UNL     1      42.795 132.284  20.152  1.00  0.00     0.039 A 
ATOM      5  C   UNL     1      43.782 131.357  19.742  1.00  0.00     0.005 A 
ATOM      6  C   UNL     1      44.379 130.515  20.698  1.00  0.00     0.019 A 
ENDROOT
BRANCH   1   7
ATOM      7  C   UNL     1      44.633 129.731  23.097  1.00  0.00     0.000 C 
ATOM      8  C   UNL     1      44.729 128.404  23.010  1.00  0.00     0.009 C 
ENDBRANCH   1   7
BRANCH   5   9
ATOM      9  C   UNL     1      44.233 131.265  18.336  1.00  0.00    -0.018 A 
ATOM     10  C   UNL     1      43.408 131.751  17.294  1.00  0.00     0.009 A 
ATOM     11  C   UNL     1      45.465 130.652  18.023  1.00  0.00    -0.007 A 
ATOM     12  C   UNL     1      43.816 131.646  15.954  1.00  0.00     0.003 A 
ATOM     13  C   UNL     1      45.846 130.563  16.686  1.00  0.00    -0.130 A 
ATOM     14  C   UNL     1      45.044 131.048  15.676  1.00  0.00    -0.057 A 
ATOM     15  N   UNL     1      47.046 129.984  16.204  1.00  0.00    -0.626 NA
ATOM     16  C   UNL     1      45.679 130.823  14.349  1.00  0.00     0.089 C 
ATOM     17  C   UNL     1      46.940 130.144  14.790  1.00  0.00     0.059 C 
ATOM     18  O   UNL     1      47.834 129.748  13.997  1.00  0.00    -0.320 OA
ENDBRANCH   5   9
BRANCH   4  19
ATOM     19  N   UNL     1      42.100 133.110  19.209  1.00  0.00    -0.398 N 
ATOM     20  H   UNL     1      41.177 133.534  19.454  1.00  0.00     0.156 HD
ATOM     21  H   UNL     1      42.448 133.253  18.236  1.00  0.00     0.156 HD
ENDBRANCH   4  19
TORSDOF 3
ENDMDL
MODEL 7
REMARK VINA RESULT:      -8.1      3.516      7.104
REMARK SMILES C=Cc1ccc(N)c(-c2ccc3c(c2)[N-]C(=O)C3)c1
REMARK SMILES IDX 3 1 4 2 5 3 6 4 8 5 19 6 2 7 1 8 9 9 10 10 14 11 11 12 13 13
REMARK SMILES IDX 12 14 15 15 18 16 16 17 17 18 7 19
REMARK H PARENT 7 20 7 21
ROOT
ATOM      1  C   UNL     1      42.571 132.230  20.075  1.00  0.00    -0.025 A 
ATOM      2  C   UNL     1      43.234 131.697  21.189  1.00  0.00     0.010 A 
ATOM      3  C   UNL     1      44.475 131.072  21.047  1.00  0.00     0.027 A 
ATOM      4  C   UNL     1      45.077 130.957  19.787  1.00  0.00     0.039 A 
ATOM      5  C   UNL     1      44.403 131.454  18.647  1.00  0.00     0.005 A 
ATOM      6  C   UNL     1      43.160 132.093  18.804  1.00  0.00     0.019 A 
ENDROOT
BRANCH   1   7
ATOM      7  C   UNL     1      41.256 132.886  20.281  1.00  0.00     0.000 C 
ATOM      8  C   UNL     1      40.902 133.518  21.401  1.00  0.00     0.009 C 
ENDBRANCH   1   7
BRANCH   5   9
ATOM      9  C   UNL     1      44.953 131.297  17.282  1.00  0.00    -0.018 A 
ATOM     10  C   UNL     1      44.329 131.941  16.188  1.00  0.00     0.009 A 
ATOM     11  C   UNL     1      46.073 130.469  17.059  1.00  0.00    -0.007 A 
ATOM     12  C   UNL     1      44.829 131.779  14.885  1.00  0.00     0.003 A 
ATOM     13  C   UNL     1      46.549 130.326  15.757  1.00  0.00    -0.130 A 
ATOM     14  C   UNL     1      45.944 130.965  14.697  1.00  0.00    -0.057 A 
ATOM     15  N   UNL     1      47.660 129.539  15.363  1.00  0.00    -0.626 NA
ATOM     16  C   UNL     1      46.644 130.641  13.423  1.00  0.00     0.089 C 
ATOM     17  C   UNL     1      47.713 129.734  13.951  1.00  0.00     0.059 C 
ATOM     18  O   UNL     1      48.584 129.187  13.226  1.00  0.00    -0.320 OA
ENDBRANCH   5   9
BRANCH   4  19
ATOM     19  N   UNL     1      46.382 130.368  19.693  1.00  0.00    -0.398 N 
ATOM     20  H   UNL     1      46.851 129.980  20.542  1.00  0.00     0.156 HD
ATOM     21  H   UNL     1      46.928 130.373  18.805  1.00  0.00     0.156 HD
ENDBRANCH   4  19
TORSDOF 3
ENDMDL
MODEL 8
REMARK VINA RESULT:      -7.7      3.222      6.703
REMARK SMILES C=Cc1ccc(N)c(-c2ccc3c(c2)[N-]C(=O)C3)c1
REMARK SMILES IDX 3 1 4 2 5 3 6 4 8 5 19 6 2 7 1 8 9 9 10 10 14 11 11 12 13 13
REMARK SMILES IDX 12 14 15 15 18 16 16 17 17 18 7 19
REMARK H PARENT 7 20 7 21
ROOT
ATOM      1  C   UNL     1      44.142 130.675  21.554  1.00  0.00    -0.025 A 
ATOM      2  C   UNL     1      42.918 131.345  21.687  1.00  0.00     0.010 A 
ATOM      3  C   UNL     1      42.328 131.973  20.589  1.00  0.00     0.027 A 
ATOM      4  C   UNL     1      42.952 131.955  19.334  1.00  0.00     0.039 A 
ATOM      5  C   UNL     1      44.206 131.317  19.192  1.00  0.00     0.005 A 
ATOM      6  C   UNL     1      44.786 130.677  20.302  1.00  0.00     0.019 A 
ENDROOT
BRANCH   1   7
ATOM      7  C   UNL     1      44.725 130.023  22.752  1.00  0.00     0.000 C 
ATOM      8  C   UNL     1      44.690 128.709  22.981  1.00  0.00     0.009 C 
ENDBRANCH   1   7
BRANCH   5   9
ATOM      9  C   UNL     1      44.949 131.328  17.912  1.00  0.00    -0.018 A 
ATOM     10  C   UNL     1      44.970 132.496  17.114  1.00  0.00     0.009 A 
ATOM     11  C   UNL     1      45.601 130.161  17.459  1.00  0.00    -0.007 A 
ATOM     12  C   UNL     1      45.652 132.509  15.886  1.00  0.00     0.003 A 
ATOM     13  C   UNL     1      46.270 130.201  16.238  1.00  0.00    -0.130 A 
ATOM     14  C   UNL     1      46.297 131.345  15.471  1.00  0.00    -0.057 A 
ATOM     15  N   UNL     1      46.974 129.124  15.644  1.00  0.00    -0.626 NA
ATOM     16  C   UNL     1      47.072 131.118  14.220  1.00  0.00     0.089 C 
ATOM     17  C   UNL     1      47.457 129.685  14.424  1.00  0.00     0.059 C 
ATOM     18  O   UNL     1      48.145 129.023  13.603  1.00  0.00    -0.320 OA
ENDBRANCH   5   9
BRANCH   4  19
ATOM     19  N   UNL     1      42.280 132.554  18.217  1.00  0.00    -0.398 N 
ATOM     20  H   UNL     1      41.933 131.964  17.429  1.00  0.00     0.156 HD
ATOM     21  H   UNL     1      42.183 133.588  18.120  1.00  0.00     0.156 HD
ENDBRANCH   4  19
TORSDOF 3
ENDMDL
MODEL 9
REMARK VINA RESULT:      -7.5      3.510      7.005
REMARK SMILES C=Cc1ccc(N)c(-c2ccc3c(c2)[N-]C(=O)C3)c1
REMARK SMILES IDX 3 1 4 2 5 3 6 4 8 5 19 6 2 7 1 8 9 9 10 10 14 11 11 12 13 13
REMARK SMILES IDX 12 14 15 15 18 16 16 17 17 18 7 19
REMARK H PARENT 7 20 7 21
ROOT
ATOM      1  C   UNL     1      42.775 132.364  19.944  1.00  0.00    -0.025 A 
ATOM      2  C   UNL     1      43.397 132.055  21.161  1.00  0.00     0.010 A 
ATOM      3  C   UNL     1      44.623 131.387  21.184  1.00  0.00     0.027 A 
ATOM      4  C   UNL     1      45.250 131.003  19.991  1.00  0.00     0.039 A 
ATOM      5  C   UNL     1      44.616 131.272  18.755  1.00  0.00     0.005 A 
ATOM      6  C   UNL     1      43.388 131.957  18.743  1.00  0.00     0.019 A 
ENDROOT
BRANCH   1   7
ATOM      7  C   UNL     1      41.474 133.077  19.975  1.00  0.00     0.000 C 
ATOM      8  C   UNL     1      40.850 133.449  21.093  1.00  0.00     0.009 C 
ENDBRANCH   1   7
BRANCH   5   9
ATOM      9  C   UNL     1      45.193 130.827  17.467  1.00  0.00    -0.018 A 
ATOM     10  C   UNL     1      45.181 129.455  17.121  1.00  0.00     0.009 A 
ATOM     11  C   UNL     1      45.796 131.761  16.598  1.00  0.00    -0.007 A 
ATOM     12  C   UNL     1      45.747 129.020  15.911  1.00  0.00     0.003 A 
ATOM     13  C   UNL     1      46.349 131.302  15.404  1.00  0.00    -0.130 A 
ATOM     14  C   UNL     1      46.324 129.966  15.068  1.00  0.00    -0.057 A 
ATOM     15  N   UNL     1      46.986 132.104  14.425  1.00  0.00    -0.626 NA
ATOM     16  C   UNL     1      46.983 129.747  13.751  1.00  0.00     0.089 C 
ATOM     17  C   UNL     1      47.367 131.158  13.427  1.00  0.00     0.059 C 
ATOM     18  O   UNL     1      47.970 131.494  12.375  1.00  0.00    -0.320 OA
ENDBRANCH   5   9
BRANCH   4  19
ATOM     19  N   UNL     1      46.540 130.379  20.056  1.00  0.00    -0.398 N 
ATOM     20  H   UNL     1      47.113 130.255  19.191  1.00  0.00     0.156 HD
ATOM     21  H   UNL     1      46.913 129.968  20.940  1.00  0.00     0.156 HD
ENDBRANCH   4  19
TORSDOF 3
ENDMDL


