REMARK SMILES CO[C@H]1CCC[C@H](c2cc3cc(F)ccc3[nH]2)[N@H+]1[C@@H]1C(=O)c2ccccc21
REMARK SMILES IDX 3 1 4 2 5 3 6 4 7 5 18 6 2 8 1 9 19 10 20 11 27 12 22 13
REMARK SMILES IDX 26 14 23 15 25 16 24 17 21 18 8 19 9 20 17 21 10 22 16 23
REMARK SMILES IDX 11 24 15 25 12 26 14 27 13 29
REMARK H PARENT 18 7 17 28
ROOT
ATOM      1  C   UNL     1      -1.807  -1.719   0.262  1.00  0.00     0.323 C 
ATOM      2  C   UNL     1      -1.439  -2.749   1.343  1.00  0.00     0.098 C 
ATOM      3  C   UNL     1      -0.130  -3.438   0.992  1.00  0.00     0.015 C 
ATOM      4  C   UNL     1       0.959  -2.391   0.830  1.00  0.00     0.072 C 
ATOM      5  C   UNL     1       0.571  -1.292  -0.192  1.00  0.00     0.234 C 
ATOM      6  N   UNL     1      -0.756  -0.659   0.130  1.00  0.00    -0.290 N 
ATOM      7  H   UNL     1      -0.680  -0.171   1.055  1.00  0.00     0.351 HD
ENDROOT
BRANCH   1   8
ATOM      8  O   UNL     1      -1.986  -2.388  -0.983  1.00  0.00    -0.332 OA
ATOM      9  C   UNL     1      -3.347  -2.675  -1.219  1.00  0.00     0.202 C 
ENDBRANCH   1   8
BRANCH   6  10
ATOM     10  C   UNL     1      -1.212   0.333  -0.907  1.00  0.00     0.291 C 
ATOM     11  C   UNL     1      -0.423   1.563  -1.005  1.00  0.00     0.225 C 
ATOM     12  C   UNL     1      -2.402   1.096  -0.479  1.00  0.00     0.029 A 
ATOM     13  C   UNL     1      -1.629   2.259  -0.478  1.00  0.00     0.034 A 
ATOM     14  C   UNL     1      -3.749   1.097  -0.147  1.00  0.00     0.011 A 
ATOM     15  C   UNL     1      -2.124   3.502  -0.132  1.00  0.00     0.012 A 
ATOM     16  C   UNL     1      -4.292   2.352   0.221  1.00  0.00     0.001 A 
ATOM     17  C   UNL     1      -3.491   3.534   0.233  1.00  0.00     0.001 A 
ATOM     18  O   UNL     1       0.688   1.932  -1.465  1.00  0.00    -0.287 OA
ENDBRANCH   6  10
BRANCH   5  19
ATOM     19  C   UNL     1       1.721  -0.313  -0.181  1.00  0.00     0.074 A 
ATOM     20  C   UNL     1       2.736  -0.276  -1.138  1.00  0.00     0.038 A 
ATOM     21  N   UNL     1       1.990   0.537   0.841  1.00  0.00    -0.354 N 
ATOM     22  C   UNL     1       3.630   0.663  -0.672  1.00  0.00     0.003 A 
ATOM     23  C   UNL     1       3.151   1.132   0.523  1.00  0.00     0.046 A 
ATOM     24  C   UNL     1       4.831   1.116  -1.212  1.00  0.00     0.049 A 
ATOM     25  C   UNL     1       3.841   2.091   1.263  1.00  0.00     0.030 A 
ATOM     26  C   UNL     1       5.550   2.088  -0.490  1.00  0.00     0.123 A 
ATOM     27  C   UNL     1       5.056   2.573   0.742  1.00  0.00     0.041 A 
ATOM     28  H   UNL     1       1.428   0.686   1.709  1.00  0.00     0.166 HD
ATOM     29  F   UNL     1       6.723   2.560  -0.979  1.00  0.00    -0.207 F 
ENDBRANCH   5  19
TORSDOF 3


