MODEL 1
REMARK VINA RESULT:      -8.0      0.000      0.000
REMARK SMILES CC[C@H](C)C(=O)[C@H](O)[N@H+]1CCC[C@@H](Cc2cc3ccccc3[nH]2)C1
REMARK SMILES IDX 7 1 5 2 6 3 3 4 4 5 2 6 1 7 8 8 9 10 10 11 24 12 11 13 13 14
REMARK SMILES IDX 12 15 14 17 15 18 16 19 23 20 17 21 22 22 18 23 21 24 19 25
REMARK SMILES IDX 20 26
REMARK H PARENT 8 9 9 16 23 27
ROOT
ATOM      1  C   UNL     1      45.735 130.296  16.641  1.00  0.00     0.389 C 
ENDROOT
BRANCH   1   2
ATOM      2  C   UNL     1      46.219 131.011  15.390  1.00  0.00     0.221 C 
ATOM      3  O   UNL     1      46.308 132.231  15.400  1.00  0.00    -0.290 OA
BRANCH   2   4
ATOM      4  C   UNL     1      46.571 130.246  14.130  1.00  0.00     0.062 C 
ATOM      5  C   UNL     1      46.952 131.234  13.019  1.00  0.00     0.016 C 
BRANCH   4   6
ATOM      6  C   UNL     1      47.697 129.231  14.427  1.00  0.00     0.008 C 
ATOM      7  C   UNL     1      48.805 129.229  13.371  1.00  0.00     0.004 C 
ENDBRANCH   4   6
ENDBRANCH   2   4
ENDBRANCH   1   2
BRANCH   1   8
ATOM      8  O   UNL     1      44.882 129.254  16.235  1.00  0.00    -0.339 OA
ATOM      9  H   UNL     1      43.953 129.576  16.359  1.00  0.00     0.217 HD
ENDBRANCH   1   8
BRANCH   1  10
ATOM     10  N   UNL     1      45.005 131.217  17.558  1.00  0.00    -0.303 N 
ATOM     11  C   UNL     1      43.551 130.927  17.527  1.00  0.00     0.264 C 
ATOM     12  C   UNL     1      45.515 131.095  18.946  1.00  0.00     0.268 C 
ATOM     13  C   UNL     1      42.773 131.897  18.424  1.00  0.00     0.062 C 
ATOM     14  C   UNL     1      44.799 132.065  19.912  1.00  0.00     0.050 C 
ATOM     15  C   UNL     1      43.282 131.827  19.863  1.00  0.00     0.015 C 
ATOM     16  H   UNL     1      45.156 132.200  17.225  1.00  0.00     0.350 HD
BRANCH  14  17
ATOM     17  C   UNL     1      45.311 131.909  21.360  1.00  0.00     0.063 C 
BRANCH  17  18
ATOM     18  C   UNL     1      44.592 130.814  22.096  1.00  0.00     0.016 A 
ATOM     19  C   UNL     1      43.313 130.927  22.636  1.00  0.00     0.031 A 
ATOM     20  N   UNL     1      45.059 129.548  22.206  1.00  0.00    -0.358 N 
ATOM     21  C   UNL     1      43.011 129.664  23.090  1.00  0.00    -0.000 A 
ATOM     22  C   UNL     1      44.084 128.857  22.818  1.00  0.00     0.046 A 
ATOM     23  C   UNL     1      41.862 129.175  23.708  1.00  0.00     0.010 A 
ATOM     24  C   UNL     1      44.081 127.499  23.138  1.00  0.00     0.026 A 
ATOM     25  C   UNL     1      41.832 127.810  24.045  1.00  0.00     0.001 A 
ATOM     26  C   UNL     1      42.936 126.976  23.764  1.00  0.00     0.002 A 
ATOM     27  H   UNL     1      45.973 129.183  21.864  1.00  0.00     0.166 HD
ENDBRANCH  17  18
ENDBRANCH  14  17
ENDBRANCH   1  10
TORSDOF 7
ENDMDL
MODEL 2
REMARK VINA RESULT:      -7.9      0.810      1.344
REMARK SMILES CC[C@H](C)C(=O)[C@H](O)[N@H+]1CCC[C@@H](Cc2cc3ccccc3[nH]2)C1
REMARK SMILES IDX 7 1 5 2 6 3 3 4 4 5 2 6 1 7 8 8 9 10 10 11 24 12 11 13 13 14
REMARK SMILES IDX 12 15 14 17 15 18 16 19 23 20 17 21 22 22 18 23 21 24 19 25
REMARK SMILES IDX 20 26
REMARK H PARENT 8 9 9 16 23 27
ROOT
ATOM      1  C   UNL     1      45.984 130.558  17.220  1.00  0.00     0.389 C 
ENDROOT
BRANCH   1   2
ATOM      2  C   UNL     1      46.137 131.105  15.811  1.00  0.00     0.221 C 
ATOM      3  O   UNL     1      46.198 132.316  15.647  1.00  0.00    -0.290 OA
BRANCH   2   4
ATOM      4  C   UNL     1      46.193 130.186  14.608  1.00  0.00     0.062 C 
ATOM      5  C   UNL     1      46.025 131.009  13.323  1.00  0.00     0.016 C 
BRANCH   4   6
ATOM      6  C   UNL     1      47.511 129.379  14.622  1.00  0.00     0.008 C 
ATOM      7  C   UNL     1      48.400 129.651  13.407  1.00  0.00     0.004 C 
ENDBRANCH   4   6
ENDBRANCH   2   4
ENDBRANCH   1   2
BRANCH   1   8
ATOM      8  O   UNL     1      45.486 129.246  17.117  1.00  0.00    -0.339 OA
ATOM      9  H   UNL     1      45.523 128.998  16.158  1.00  0.00     0.217 HD
ENDBRANCH   1   8
BRANCH   1  10
ATOM     10  N   UNL     1      45.054 131.386  18.039  1.00  0.00    -0.303 N 
ATOM     11  C   UNL     1      43.647 131.059  17.709  1.00  0.00     0.264 C 
ATOM     12  C   UNL     1      45.296 131.176  19.488  1.00  0.00     0.268 C 
ATOM     13  C   UNL     1      42.672 131.938  18.502  1.00  0.00     0.062 C 
ATOM     14  C   UNL     1      44.368 132.051  20.361  1.00  0.00     0.050 C 
ATOM     15  C   UNL     1      42.900 131.774  20.004  1.00  0.00     0.015 C 
ATOM     16  H   UNL     1      45.225 132.396  17.809  1.00  0.00     0.350 HD
BRANCH  14  17
ATOM     17  C   UNL     1      44.602 131.803  21.866  1.00  0.00     0.063 C 
BRANCH  17  18
ATOM     18  C   UNL     1      44.003 130.501  22.321  1.00  0.00     0.016 A 
ATOM     19  C   UNL     1      44.676 129.283  22.346  1.00  0.00     0.031 A 
ATOM     20  N   UNL     1      42.774 130.392  22.878  1.00  0.00    -0.358 N 
ATOM     21  C   UNL     1      43.800 128.409  22.946  1.00  0.00    -0.000 A 
ATOM     22  C   UNL     1      42.663 129.107  23.253  1.00  0.00     0.046 A 
ATOM     23  C   UNL     1      43.938 127.057  23.252  1.00  0.00     0.010 A 
ATOM     24  C   UNL     1      41.581 128.504  23.897  1.00  0.00     0.026 A 
ATOM     25  C   UNL     1      42.863 126.421  23.899  1.00  0.00     0.001 A 
ATOM     26  C   UNL     1      41.690 127.139  24.218  1.00  0.00     0.002 A 
ATOM     27  H   UNL     1      42.073 131.152  23.011  1.00  0.00     0.166 HD
ENDBRANCH  17  18
ENDBRANCH  14  17
ENDBRANCH   1  10
TORSDOF 7
ENDMDL
MODEL 3
REMARK VINA RESULT:      -7.7      1.121      1.382
REMARK SMILES CC[C@H](C)C(=O)[C@H](O)[N@H+]1CCC[C@@H](Cc2cc3ccccc3[nH]2)C1
REMARK SMILES IDX 7 1 5 2 6 3 3 4 4 5 2 6 1 7 8 8 9 10 10 11 24 12 11 13 13 14
REMARK SMILES IDX 12 15 14 17 15 18 16 19 23 20 17 21 22 22 18 23 21 24 19 25
REMARK SMILES IDX 20 26
REMARK H PARENT 8 9 9 16 23 27
ROOT
ATOM      1  C   UNL     1      46.019 130.454  16.780  1.00  0.00     0.389 C 
ENDROOT
BRANCH   1   2
ATOM      2  C   UNL     1      45.399 129.951  15.486  1.00  0.00     0.221 C 
ATOM      3  O   UNL     1      44.919 128.827  15.455  1.00  0.00    -0.290 OA
BRANCH   2   4
ATOM      4  C   UNL     1      45.382 130.806  14.235  1.00  0.00     0.062 C 
ATOM      5  C   UNL     1      44.150 131.722  14.254  1.00  0.00     0.016 C 
BRANCH   4   6
ATOM      6  C   UNL     1      46.704 131.598  14.121  1.00  0.00     0.008 C 
ATOM      7  C   UNL     1      47.773 130.878  13.297  1.00  0.00     0.004 C 
ENDBRANCH   4   6
ENDBRANCH   2   4
ENDBRANCH   1   2
BRANCH   1   8
ATOM      8  O   UNL     1      46.320 129.332  17.573  1.00  0.00    -0.339 OA
ATOM      9  H   UNL     1      45.996 128.535  17.081  1.00  0.00     0.217 HD
ENDBRANCH   1   8
BRANCH   1  10
ATOM     10  N   UNL     1      45.098 131.362  17.520  1.00  0.00    -0.303 N 
ATOM     11  C   UNL     1      43.695 130.909  17.366  1.00  0.00     0.264 C 
ATOM     12  C   UNL     1      45.455 131.420  18.959  1.00  0.00     0.268 C 
ATOM     13  C   UNL     1      42.723 131.859  18.076  1.00  0.00     0.062 C 
ATOM     14  C   UNL     1      44.537 132.384  19.743  1.00  0.00     0.050 C 
ATOM     15  C   UNL     1      43.069 131.972  19.560  1.00  0.00     0.015 C 
ATOM     16  H   UNL     1      45.184 132.324  17.109  1.00  0.00     0.350 HD
BRANCH  14  17
ATOM     17  C   UNL     1      44.893 132.414  21.245  1.00  0.00     0.063 C 
BRANCH  17  18
ATOM     18  C   UNL     1      44.497 131.142  21.943  1.00  0.00     0.016 A 
ATOM     19  C   UNL     1      43.302 130.955  22.633  1.00  0.00     0.031 A 
ATOM     20  N   UNL     1      45.204 129.991  21.869  1.00  0.00    -0.358 N 
ATOM     21  C   UNL     1      43.306 129.626  22.988  1.00  0.00    -0.000 A 
ATOM     22  C   UNL     1      44.466 129.073  22.514  1.00  0.00     0.046 A 
ATOM     23  C   UNL     1      42.361 128.871  23.679  1.00  0.00     0.010 A 
ATOM     24  C   UNL     1      44.762 127.721  22.692  1.00  0.00     0.026 A 
ATOM     25  C   UNL     1      42.634 127.505  23.876  1.00  0.00     0.001 A 
ATOM     26  C   UNL     1      43.828 126.933  23.387  1.00  0.00     0.002 A 
ATOM     27  H   UNL     1      46.118 129.843  21.389  1.00  0.00     0.166 HD
ENDBRANCH  17  18
ENDBRANCH  14  17
ENDBRANCH   1  10
TORSDOF 7
ENDMDL
MODEL 4
REMARK VINA RESULT:      -7.0      1.594      2.454
REMARK SMILES CC[C@H](C)C(=O)[C@H](O)[N@H+]1CCC[C@@H](Cc2cc3ccccc3[nH]2)C1
REMARK SMILES IDX 7 1 5 2 6 3 3 4 4 5 2 6 1 7 8 8 9 10 10 11 24 12 11 13 13 14
REMARK SMILES IDX 12 15 14 17 15 18 16 19 23 20 17 21 22 22 18 23 21 24 19 25
REMARK SMILES IDX 20 26
REMARK H PARENT 8 9 9 16 23 27
ROOT
ATOM      1  C   UNL     1      45.672 131.120  18.027  1.00  0.00     0.389 C 
ENDROOT
BRANCH   1   2
ATOM      2  C   UNL     1      45.434 130.561  16.635  1.00  0.00     0.221 C 
ATOM      3  O   UNL     1      45.374 129.348  16.484  1.00  0.00    -0.290 OA
BRANCH   2   4
ATOM      4  C   UNL     1      45.293 131.471  15.432  1.00  0.00     0.062 C 
ATOM      5  C   UNL     1      46.681 131.777  14.852  1.00  0.00     0.016 C 
BRANCH   4   6
ATOM      6  C   UNL     1      44.350 130.826  14.391  1.00  0.00     0.008 C 
ATOM      7  C   UNL     1      43.170 131.721  14.006  1.00  0.00     0.004 C 
ENDBRANCH   4   6
ENDBRANCH   2   4
ENDBRANCH   1   2
BRANCH   1   8
ATOM      8  O   UNL     1      45.976 130.041  18.876  1.00  0.00    -0.339 OA
ATOM      9  H   UNL     1      46.122 129.250  18.296  1.00  0.00     0.217 HD
ENDBRANCH   1   8
BRANCH   1  10
ATOM     10  N   UNL     1      44.478 131.847  18.544  1.00  0.00    -0.303 N 
ATOM     11  C   UNL     1      43.259 131.411  17.822  1.00  0.00     0.264 C 
ATOM     12  C   UNL     1      44.311 131.621  20.001  1.00  0.00     0.268 C 
ATOM     13  C   UNL     1      42.024 132.185  18.301  1.00  0.00     0.062 C 
ATOM     14  C   UNL     1      43.099 132.393  20.570  1.00  0.00     0.050 C 
ATOM     15  C   UNL     1      41.825 132.003  19.805  1.00  0.00     0.015 C 
ATOM     16  H   UNL     1      44.619 132.873  18.373  1.00  0.00     0.350 HD
BRANCH  14  17
ATOM     17  C   UNL     1      42.911 132.126  22.079  1.00  0.00     0.063 C 
BRANCH  17  18
ATOM     18  C   UNL     1      43.177 130.689  22.433  1.00  0.00     0.016 A 
ATOM     19  C   UNL     1      44.435 130.093  22.441  1.00  0.00     0.031 A 
ATOM     20  N   UNL     1      42.233 129.844  22.909  1.00  0.00    -0.358 N 
ATOM     21  C   UNL     1      44.223 128.831  22.945  1.00  0.00    -0.000 A 
ATOM     22  C   UNL     1      42.886 128.711  23.216  1.00  0.00     0.046 A 
ATOM     23  C   UNL     1      45.119 127.794  23.194  1.00  0.00     0.010 A 
ATOM     24  C   UNL     1      42.348 127.546  23.763  1.00  0.00     0.026 A 
ATOM     25  C   UNL     1      44.606 126.605  23.743  1.00  0.00     0.001 A 
ATOM     26  C   UNL     1      43.228 126.480  24.025  1.00  0.00     0.002 A 
ATOM     27  H   UNL     1      41.217 130.042  23.036  1.00  0.00     0.166 HD
ENDBRANCH  17  18
ENDBRANCH  14  17
ENDBRANCH   1  10
TORSDOF 7
ENDMDL
MODEL 5
REMARK VINA RESULT:      -6.6      1.268      2.011
REMARK SMILES CC[C@H](C)C(=O)[C@H](O)[N@H+]1CCC[C@@H](Cc2cc3ccccc3[nH]2)C1
REMARK SMILES IDX 7 1 5 2 6 3 3 4 4 5 2 6 1 7 8 8 9 10 10 11 24 12 11 13 13 14
REMARK SMILES IDX 12 15 14 17 15 18 16 19 23 20 17 21 22 22 18 23 21 24 19 25
REMARK SMILES IDX 20 26
REMARK H PARENT 8 9 9 16 23 27
ROOT
ATOM      1  C   UNL     1      46.012 129.522  16.461  1.00  0.00     0.389 C 
ENDROOT
BRANCH   1   2
ATOM      2  C   UNL     1      46.764 129.953  15.213  1.00  0.00     0.221 C 
ATOM      3  O   UNL     1      47.449 129.132  14.619  1.00  0.00    -0.290 OA
BRANCH   2   4
ATOM      4  C   UNL     1      46.699 131.379  14.705  1.00  0.00     0.062 C 
ATOM      5  C   UNL     1      47.265 131.443  13.279  1.00  0.00     0.016 C 
BRANCH   4   6
ATOM      6  C   UNL     1      45.247 131.901  14.785  1.00  0.00     0.008 C 
ATOM      7  C   UNL     1      44.293 131.191  13.822  1.00  0.00     0.004 C 
ENDBRANCH   4   6
ENDBRANCH   2   4
ENDBRANCH   1   2
BRANCH   1   8
ATOM      8  O   UNL     1      45.010 128.618  16.066  1.00  0.00    -0.339 OA
ATOM      9  H   UNL     1      44.242 129.158  15.749  1.00  0.00     0.217 HD
ENDBRANCH   1   8
BRANCH   1  10
ATOM     10  N   UNL     1      45.395 130.682  17.165  1.00  0.00    -0.303 N 
ATOM     11  C   UNL     1      43.918 130.619  17.063  1.00  0.00     0.264 C 
ATOM     12  C   UNL     1      45.803 130.713  18.591  1.00  0.00     0.268 C 
ATOM     13  C   UNL     1      43.262 131.832  17.735  1.00  0.00     0.062 C 
ATOM     14  C   UNL     1      45.205 131.927  19.336  1.00  0.00     0.050 C 
ATOM     15  C   UNL     1      43.675 131.921  19.203  1.00  0.00     0.015 C 
ATOM     16  H   UNL     1      45.725 131.563  16.698  1.00  0.00     0.350 HD
BRANCH  14  17
ATOM     17  C   UNL     1      45.605 131.934  20.827  1.00  0.00     0.063 C 
BRANCH  17  18
ATOM     18  C   UNL     1      44.723 131.038  21.651  1.00  0.00     0.016 A 
ATOM     19  C   UNL     1      44.964 129.688  21.889  1.00  0.00     0.031 A 
ATOM     20  N   UNL     1      43.657 131.477  22.360  1.00  0.00    -0.358 N 
ATOM     21  C   UNL     1      43.990 129.309  22.783  1.00  0.00    -0.000 A 
ATOM     22  C   UNL     1      43.217 130.409  23.045  1.00  0.00     0.046 A 
ATOM     23  C   UNL     1      43.746 128.079  23.389  1.00  0.00     0.010 A 
ATOM     24  C   UNL     1      42.147 130.359  23.940  1.00  0.00     0.026 A 
ATOM     25  C   UNL     1      42.672 127.997  24.293  1.00  0.00     0.001 A 
ATOM     26  C   UNL     1      41.875 129.129  24.566  1.00  0.00     0.002 A 
ATOM     27  H   UNL     1      43.275 132.446  22.387  1.00  0.00     0.166 HD
ENDBRANCH  17  18
ENDBRANCH  14  17
ENDBRANCH   1  10
TORSDOF 7
ENDMDL
MODEL 6
REMARK VINA RESULT:      -6.5      1.220      2.111
REMARK SMILES CC[C@H](C)C(=O)[C@H](O)[N@H+]1CCC[C@@H](Cc2cc3ccccc3[nH]2)C1
REMARK SMILES IDX 7 1 5 2 6 3 3 4 4 5 2 6 1 7 8 8 9 10 10 11 24 12 11 13 13 14
REMARK SMILES IDX 12 15 14 17 15 18 16 19 23 20 17 21 22 22 18 23 21 24 19 25
REMARK SMILES IDX 20 26
REMARK H PARENT 8 9 9 16 23 27
ROOT
ATOM      1  C   UNL     1      45.799 130.960  17.178  1.00  0.00     0.389 C 
ENDROOT
BRANCH   1   2
ATOM      2  C   UNL     1      45.925 131.698  15.855  1.00  0.00     0.221 C 
ATOM      3  O   UNL     1      46.031 132.916  15.863  1.00  0.00    -0.290 OA
BRANCH   2   4
ATOM      4  C   UNL     1      45.901 130.958  14.533  1.00  0.00     0.062 C 
ATOM      5  C   UNL     1      46.948 129.836  14.553  1.00  0.00     0.016 C 
BRANCH   4   6
ATOM      6  C   UNL     1      44.477 130.430  14.251  1.00  0.00     0.008 C 
ATOM      7  C   UNL     1      43.450 131.543  14.028  1.00  0.00     0.004 C 
ENDBRANCH   4   6
ENDBRANCH   2   4
ENDBRANCH   1   2
BRANCH   1   8
ATOM      8  O   UNL     1      45.324 129.665  16.901  1.00  0.00    -0.339 OA
ATOM      9  H   UNL     1      44.936 129.314  17.743  1.00  0.00     0.217 HD
ENDBRANCH   1   8
BRANCH   1  10
ATOM     10  N   UNL     1      44.864 131.651  18.111  1.00  0.00    -0.303 N 
ATOM     11  C   UNL     1      43.464 131.257  17.822  1.00  0.00     0.264 C 
ATOM     12  C   UNL     1      45.196 131.335  19.522  1.00  0.00     0.268 C 
ATOM     13  C   UNL     1      42.479 131.997  18.735  1.00  0.00     0.062 C 
ATOM     14  C   UNL     1      44.263 132.068  20.512  1.00  0.00     0.050 C 
ATOM     15  C   UNL     1      42.799 131.722  20.204  1.00  0.00     0.015 C 
ATOM     16  H   UNL     1      44.957 132.686  17.963  1.00  0.00     0.350 HD
BRANCH  14  17
ATOM     17  C   UNL     1      44.593 131.709  21.977  1.00  0.00     0.063 C 
BRANCH  17  18
ATOM     18  C   UNL     1      44.346 130.255  22.269  1.00  0.00     0.016 A 
ATOM     19  C   UNL     1      45.184 129.214  21.878  1.00  0.00     0.031 A 
ATOM     20  N   UNL     1      43.342 129.805  23.057  1.00  0.00    -0.358 N 
ATOM     21  C   UNL     1      44.646 128.091  22.464  1.00  0.00    -0.000 A 
ATOM     22  C   UNL     1      43.536 128.480  23.166  1.00  0.00     0.046 A 
ATOM     23  C   UNL     1      45.069 126.764  22.435  1.00  0.00     0.010 A 
ATOM     24  C   UNL     1      42.772 127.570  23.897  1.00  0.00     0.026 A 
ATOM     25  C   UNL     1      44.317 125.823  23.161  1.00  0.00     0.001 A 
ATOM     26  C   UNL     1      43.174 126.222  23.886  1.00  0.00     0.002 A 
ATOM     27  H   UNL     1      42.593 130.373  23.507  1.00  0.00     0.166 HD
ENDBRANCH  17  18
ENDBRANCH  14  17
ENDBRANCH   1  10
TORSDOF 7
ENDMDL
MODEL 7
REMARK VINA RESULT:      -6.2      0.972      1.092
REMARK SMILES CC[C@H](C)C(=O)[C@H](O)[N@H+]1CCC[C@@H](Cc2cc3ccccc3[nH]2)C1
REMARK SMILES IDX 7 1 5 2 6 3 3 4 4 5 2 6 1 7 8 8 9 10 10 11 24 12 11 13 13 14
REMARK SMILES IDX 12 15 14 17 15 18 16 19 23 20 17 21 22 22 18 23 21 24 19 25
REMARK SMILES IDX 20 26
REMARK H PARENT 8 9 9 16 23 27
ROOT
ATOM      1  C   UNL     1      44.618 130.185  16.485  1.00  0.00     0.389 C 
ENDROOT
BRANCH   1   2
ATOM      2  C   UNL     1      46.015 130.297  15.898  1.00  0.00     0.221 C 
ATOM      3  O   UNL     1      46.958 129.821  16.515  1.00  0.00    -0.290 OA
BRANCH   2   4
ATOM      4  C   UNL     1      46.264 131.001  14.580  1.00  0.00     0.062 C 
ATOM      5  C   UNL     1      46.682 132.455  14.845  1.00  0.00     0.016 C 
BRANCH   4   6
ATOM      6  C   UNL     1      47.320 130.226  13.760  1.00  0.00     0.008 C 
ATOM      7  C   UNL     1      47.963 131.066  12.653  1.00  0.00     0.004 C 
ENDBRANCH   4   6
ENDBRANCH   2   4
ENDBRANCH   1   2
BRANCH   1   8
ATOM      8  O   UNL     1      43.699 130.298  15.426  1.00  0.00    -0.339 OA
ATOM      9  H   UNL     1      43.337 129.391  15.259  1.00  0.00     0.217 HD
ENDBRANCH   1   8
BRANCH   1  10
ATOM     10  N   UNL     1      44.355 131.248  17.496  1.00  0.00    -0.303 N 
ATOM     11  C   UNL     1      42.901 131.349  17.770  1.00  0.00     0.264 C 
ATOM     12  C   UNL     1      45.088 130.972  18.756  1.00  0.00     0.268 C 
ATOM     13  C   UNL     1      42.601 132.473  18.769  1.00  0.00     0.062 C 
ATOM     14  C   UNL     1      44.861 132.078  19.810  1.00  0.00     0.050 C 
ATOM     15  C   UNL     1      43.358 132.246  20.077  1.00  0.00     0.015 C 
ATOM     16  H   UNL     1      44.685 132.164  17.104  1.00  0.00     0.350 HD
BRANCH  14  17
ATOM     17  C   UNL     1      45.600 131.768  21.130  1.00  0.00     0.063 C 
BRANCH  17  18
ATOM     18  C   UNL     1      44.813 130.836  22.009  1.00  0.00     0.016 A 
ATOM     19  C   UNL     1      43.639 131.176  22.676  1.00  0.00     0.031 A 
ATOM     20  N   UNL     1      45.092 129.519  22.150  1.00  0.00    -0.358 N 
ATOM     21  C   UNL     1      43.203 130.000  23.241  1.00  0.00    -0.000 A 
ATOM     22  C   UNL     1      44.101 129.021  22.907  1.00  0.00     0.046 A 
ATOM     23  C   UNL     1      42.074 129.729  24.010  1.00  0.00     0.010 A 
ATOM     24  C   UNL     1      43.929 127.697  23.313  1.00  0.00     0.026 A 
ATOM     25  C   UNL     1      41.875 128.404  24.436  1.00  0.00     0.001 A 
ATOM     26  C   UNL     1      42.799 127.393  24.091  1.00  0.00     0.002 A 
ATOM     27  H   UNL     1      45.893 128.997  21.734  1.00  0.00     0.166 HD
ENDBRANCH  17  18
ENDBRANCH  14  17
ENDBRANCH   1  10
TORSDOF 7
ENDMDL
MODEL 8
REMARK VINA RESULT:      -6.2      3.002      8.030
REMARK SMILES CC[C@H](C)C(=O)[C@H](O)[N@H+]1CCC[C@@H](Cc2cc3ccccc3[nH]2)C1
REMARK SMILES IDX 7 1 5 2 6 3 3 4 4 5 2 6 1 7 8 8 9 10 10 11 24 12 11 13 13 14
REMARK SMILES IDX 12 15 14 17 15 18 16 19 23 20 17 21 22 22 18 23 21 24 19 25
REMARK SMILES IDX 20 26
REMARK H PARENT 8 9 9 16 23 27
ROOT
ATOM      1  C   UNL     1      44.791 126.852  22.873  1.00  0.00     0.389 C 
ENDROOT
BRANCH   1   2
ATOM      2  C   UNL     1      43.663 126.241  23.687  1.00  0.00     0.221 C 
ATOM      3  O   UNL     1      43.187 126.879  24.615  1.00  0.00    -0.290 OA
BRANCH   2   4
ATOM      4  C   UNL     1      43.134 124.854  23.385  1.00  0.00     0.062 C 
ATOM      5  C   UNL     1      41.603 124.850  23.506  1.00  0.00     0.016 C 
BRANCH   4   6
ATOM      6  C   UNL     1      43.615 124.398  21.990  1.00  0.00     0.008 C 
ATOM      7  C   UNL     1      43.008 123.066  21.544  1.00  0.00     0.004 C 
ENDBRANCH   4   6
ENDBRANCH   2   4
ENDBRANCH   1   2
BRANCH   1   8
ATOM      8  O   UNL     1      45.897 127.012  23.727  1.00  0.00    -0.339 OA
ATOM      9  H   UNL     1      45.595 126.765  24.639  1.00  0.00     0.217 HD
ENDBRANCH   1   8
BRANCH   1  10
ATOM     10  N   UNL     1      44.406 128.171  22.295  1.00  0.00    -0.303 N 
ATOM     11  C   UNL     1      44.139 129.148  23.377  1.00  0.00     0.264 C 
ATOM     12  C   UNL     1      45.471 128.687  21.399  1.00  0.00     0.268 C 
ATOM     13  C   UNL     1      43.689 130.499  22.806  1.00  0.00     0.062 C 
ATOM     14  C   UNL     1      45.081 130.038  20.758  1.00  0.00     0.050 C 
ATOM     15  C   UNL     1      44.745 131.059  21.855  1.00  0.00     0.015 C 
ATOM     16  H   UNL     1      43.526 128.041  21.737  1.00  0.00     0.350 HD
BRANCH  14  17
ATOM     17  C   UNL     1      46.207 130.585  19.854  1.00  0.00     0.063 C 
BRANCH  17  18
ATOM     18  C   UNL     1      45.789 130.649  18.411  1.00  0.00     0.016 A 
ATOM     19  C   UNL     1      44.663 131.320  17.940  1.00  0.00     0.031 A 
ATOM     20  N   UNL     1      46.533 130.165  17.390  1.00  0.00    -0.358 N 
ATOM     21  C   UNL     1      44.745 131.225  16.571  1.00  0.00    -0.000 A 
ATOM     22  C   UNL     1      45.882 130.523  16.270  1.00  0.00     0.046 A 
ATOM     23  C   UNL     1      43.906 131.723  15.577  1.00  0.00     0.010 A 
ATOM     24  C   UNL     1      46.265 130.273  14.952  1.00  0.00     0.026 A 
ATOM     25  C   UNL     1      44.264 131.485  14.239  1.00  0.00     0.001 A 
ATOM     26  C   UNL     1      45.436 130.762  13.926  1.00  0.00     0.002 A 
ATOM     27  H   UNL     1      47.435 129.648  17.458  1.00  0.00     0.166 HD
ENDBRANCH  17  18
ENDBRANCH  14  17
ENDBRANCH   1  10
TORSDOF 7
ENDMDL
MODEL 9
REMARK VINA RESULT:      -5.9      2.394      8.403
REMARK SMILES CC[C@H](C)C(=O)[C@H](O)[N@H+]1CCC[C@@H](Cc2cc3ccccc3[nH]2)C1
REMARK SMILES IDX 7 1 5 2 6 3 3 4 4 5 2 6 1 7 8 8 9 10 10 11 24 12 11 13 13 14
REMARK SMILES IDX 12 15 14 17 15 18 16 19 23 20 17 21 22 22 18 23 21 24 19 25
REMARK SMILES IDX 20 26
REMARK H PARENT 8 9 9 16 23 27
ROOT
ATOM      1  C   UNL     1      42.944 131.666  21.639  1.00  0.00     0.389 C 
ENDROOT
BRANCH   1   2
ATOM      2  C   UNL     1      43.343 130.581  22.625  1.00  0.00     0.221 C 
ATOM      3  O   UNL     1      43.785 129.523  22.198  1.00  0.00    -0.290 OA
BRANCH   2   4
ATOM      4  C   UNL     1      43.184 130.775  24.119  1.00  0.00     0.062 C 
ATOM      5  C   UNL     1      43.089 132.274  24.436  1.00  0.00     0.016 C 
BRANCH   4   6
ATOM      6  C   UNL     1      41.954 129.988  24.625  1.00  0.00     0.008 C 
ATOM      7  C   UNL     1      41.612 128.775  23.757  1.00  0.00     0.004 C 
ENDBRANCH   4   6
ENDBRANCH   2   4
ENDBRANCH   1   2
BRANCH   1   8
ATOM      8  O   UNL     1      41.733 131.276  21.041  1.00  0.00    -0.339 OA
ATOM      9  H   UNL     1      41.321 130.599  21.636  1.00  0.00     0.217 HD
ENDBRANCH   1   8
BRANCH   1  10
ATOM     10  N   UNL     1      43.982 131.869  20.589  1.00  0.00    -0.303 N 
ATOM     11  C   UNL     1      45.145 130.984  20.837  1.00  0.00     0.264 C 
ATOM     12  C   UNL     1      43.426 131.606  19.238  1.00  0.00     0.268 C 
ATOM     13  C   UNL     1      46.249 131.213  19.797  1.00  0.00     0.062 C 
ATOM     14  C   UNL     1      44.473 131.844  18.126  1.00  0.00     0.050 C 
ATOM     15  C   UNL     1      45.716 130.979  18.385  1.00  0.00     0.015 C 
ATOM     16  H   UNL     1      44.306 132.866  20.635  1.00  0.00     0.350 HD
BRANCH  14  17
ATOM     17  C   UNL     1      43.898 131.536  16.727  1.00  0.00     0.063 C 
BRANCH  17  18
ATOM     18  C   UNL     1      44.972 131.148  15.750  1.00  0.00     0.016 A 
ATOM     19  C   UNL     1      45.604 132.027  14.874  1.00  0.00     0.031 A 
ATOM     20  N   UNL     1      45.538 129.920  15.702  1.00  0.00    -0.358 N 
ATOM     21  C   UNL     1      46.591 131.279  14.276  1.00  0.00    -0.000 A 
ATOM     22  C   UNL     1      46.524 130.013  14.795  1.00  0.00     0.046 A 
ATOM     23  C   UNL     1      47.545 131.633  13.326  1.00  0.00     0.010 A 
ATOM     24  C   UNL     1      47.414 129.011  14.406  1.00  0.00     0.026 A 
ATOM     25  C   UNL     1      48.455 130.644  12.912  1.00  0.00     0.001 A 
ATOM     26  C   UNL     1      48.389 129.339  13.447  1.00  0.00     0.002 A 
ATOM     27  H   UNL     1      45.279 129.085  16.270  1.00  0.00     0.166 HD
ENDBRANCH  17  18
ENDBRANCH  14  17
ENDBRANCH   1  10
TORSDOF 7
ENDMDL


