REMARK SMILES C=Cc1cc(-c2ccc(C(C)=O)c3[nH]ncc23)ccc1O
REMARK SMILES IDX 6 1 7 2 8 3 9 4 13 5 14 6 15 7 16 8 17 9 5 11 3 12 4 13
REMARK SMILES IDX 20 14 19 15 18 16 2 17 1 18 21 19 10 21 11 22 12 23
REMARK H PARENT 14 10 21 20
ROOT
ATOM      1  C   UNL     1      -0.545   0.366  -0.949  1.00  0.00    -0.007 A 
ATOM      2  C   UNL     1      -1.395   0.464  -2.070  1.00  0.00     0.010 A 
ATOM      3  C   UNL     1      -2.603   1.190  -2.002  1.00  0.00     0.015 A 
ATOM      4  C   UNL     1      -2.997   1.845  -0.811  1.00  0.00     0.043 A 
ATOM      5  C   UNL     1      -2.121   1.741   0.284  1.00  0.00     0.076 A 
ATOM      6  N   UNL     1      -2.208   2.320   1.497  1.00  0.00    -0.277 N 
ATOM      7  N   UNL     1      -1.129   2.002   2.200  1.00  0.00    -0.183 NA
ATOM      8  C   UNL     1      -0.338   1.212   1.439  1.00  0.00     0.144 A 
ATOM      9  C   UNL     1      -0.950   1.032   0.214  1.00  0.00     0.028 A 
ATOM     10  H   UNL     1      -2.960   2.950   1.852  1.00  0.00     0.190 HD
ENDROOT
BRANCH   1  11
ATOM     11  C   UNL     1       0.719  -0.404  -1.023  1.00  0.00    -0.017 A 
ATOM     12  C   UNL     1       2.237  -2.088  -0.099  1.00  0.00     0.016 A 
ATOM     13  C   UNL     1       1.039  -1.349  -0.035  1.00  0.00     0.020 A 
ATOM     14  C   UNL     1       3.121  -1.867  -1.183  1.00  0.00     0.122 A 
ATOM     15  C   UNL     1       2.795  -0.925  -2.164  1.00  0.00     0.047 A 
ATOM     16  C   UNL     1       1.604  -0.204  -2.091  1.00  0.00     0.012 A 
BRANCH  12  17
ATOM     17  C   UNL     1       2.584  -3.039   0.985  1.00  0.00     0.004 C 
ATOM     18  C   UNL     1       1.673  -3.780   1.617  1.00  0.00     0.009 C 
ENDBRANCH  12  17
BRANCH  14  19
ATOM     19  O   UNL     1       4.314  -2.578  -1.331  1.00  0.00    -0.507 OA
ATOM     20  H   UNL     1       4.592  -3.334  -0.719  1.00  0.00     0.293 HD
ENDBRANCH  14  19
ENDBRANCH   1  11
BRANCH   4  21
ATOM     21  C   UNL     1      -4.281   2.588  -0.741  1.00  0.00     0.161 C 
ATOM     22  C   UNL     1      -4.933   3.138  -1.974  1.00  0.00     0.093 C 
ATOM     23  O   UNL     1      -4.876   2.720   0.362  1.00  0.00    -0.294 OA
ENDBRANCH   4  21
TORSDOF 4


