REMARK SMILES Nc1cc(F)c(CCC(=O)c2ccccc2)c(F)c1C1CC1
REMARK SMILES IDX 7 1 6 2 2 3 3 4 19 5 4 6 17 7 5 8 18 9 1 10 20 13 21 14
REMARK SMILES IDX 22 15 8 16 9 17 10 18 11 19 12 20 16 21 13 22 15 23 14 24
REMARK H PARENT 1 11 1 12
ROOT
ATOM      1  C   UNL     1       3.025  -1.123   1.032  1.00  0.00     0.050 C 
ENDROOT
BRANCH   1   2
ATOM      2  C   UNL     1       1.524  -1.276   1.130  1.00  0.00     0.024 A 
ATOM      3  C   UNL     1      -1.293  -1.395   1.144  1.00  0.00     0.041 A 
ATOM      4  C   UNL     1      -0.548  -2.232   0.304  1.00  0.00     0.065 A 
ATOM      5  C   UNL     1      -0.622  -0.526   2.037  1.00  0.00     0.014 A 
ATOM      6  C   UNL     1       0.845  -2.183   0.300  1.00  0.00     0.131 A 
ATOM      7  C   UNL     1       0.785  -0.448   1.995  1.00  0.00     0.134 A 
ATOM      8  F   UNL     1       1.528  -2.984  -0.557  1.00  0.00    -0.207 F 
ATOM      9  F   UNL     1       1.435   0.459   2.770  1.00  0.00    -0.206 F 
BRANCH   3  10
ATOM     10  N   UNL     1      -2.724  -1.418   1.051  1.00  0.00    -0.398 N 
ATOM     11  H   UNL     1      -3.203  -2.103   0.424  1.00  0.00     0.156 HD
ATOM     12  H   UNL     1      -3.324  -0.719   1.541  1.00  0.00     0.156 HD
ENDBRANCH   3  10
BRANCH   5  13
ATOM     13  C   UNL     1      -1.389   0.391   2.962  1.00  0.00     0.024 C 
ATOM     14  C   UNL     1      -2.257  -0.316   3.998  1.00  0.00     0.009 C 
ATOM     15  C   UNL     1      -0.969   0.354   4.428  1.00  0.00     0.009 C 
ENDBRANCH   5  13
ENDBRANCH   1   2
BRANCH   1  16
ATOM     16  C   UNL     1       3.430   0.102   0.196  1.00  0.00     0.086 C 
BRANCH  16  17
ATOM     17  C   UNL     1       3.005  -0.029  -1.248  1.00  0.00     0.163 C 
ATOM     18  O   UNL     1       3.842  -0.493  -2.070  1.00  0.00    -0.294 OA
BRANCH  17  19
ATOM     19  C   UNL     1       1.626   0.280  -1.716  1.00  0.00     0.017 A 
ATOM     20  C   UNL     1       1.134  -0.340  -2.881  1.00  0.00     0.012 A 
ATOM     21  C   UNL     1       0.776   1.155  -1.008  1.00  0.00     0.012 A 
ATOM     22  C   UNL     1      -0.177  -0.111  -3.311  1.00  0.00     0.001 A 
ATOM     23  C   UNL     1      -0.535   1.377  -1.441  1.00  0.00     0.001 A 
ATOM     24  C   UNL     1      -1.012   0.742  -2.588  1.00  0.00     0.000 A 
ENDBRANCH  17  19
ENDBRANCH  16  17
ENDBRANCH   1  16
TORSDOF 6


