REMARK SMILES CCCOCOc1ccc(-c2ccc(C(C)=O)c3n[n-]cc23)cc1
REMARK SMILES IDX 5 1 4 2 3 3 2 4 1 5 6 6 7 7 8 8 24 9 9 10 23 11 10 12 11 13
REMARK SMILES IDX 12 14 22 15 13 16 21 17 18 18 14 19 20 20 19 21 15 22 16 23
REMARK SMILES IDX 17 24
REMARK H PARENT
ROOT
ATOM      1  C   UNL     1      -4.711  -1.264   2.091  1.00  0.00     0.395 C 
ENDROOT
BRANCH   1   2
ATOM      2  O   UNL     1      -4.495  -0.044   2.769  1.00  0.00    -0.345 OA
BRANCH   2   3
ATOM      3  C   UNL     1      -5.695   0.699   2.801  1.00  0.00     0.164 C 
BRANCH   3   4
ATOM      4  C   UNL     1      -5.443   2.047   3.478  1.00  0.00     0.025 C 
ATOM      5  C   UNL     1      -4.468   2.909   2.678  1.00  0.00     0.006 C 
ENDBRANCH   3   4
ENDBRANCH   2   3
ENDBRANCH   1   2
BRANCH   1   6
ATOM      6  O   UNL     1      -3.477  -1.968   1.985  1.00  0.00    -0.468 OA
BRANCH   6   7
ATOM      7  C   UNL     1      -2.364  -1.523   1.253  1.00  0.00     0.122 A 
ATOM      8  C   UNL     1      -2.375  -0.329   0.507  1.00  0.00     0.047 A 
ATOM      9  C   UNL     1      -1.202  -2.303   1.274  1.00  0.00     0.047 A 
ATOM     10  C   UNL     1      -1.238   0.071  -0.201  1.00  0.00     0.012 A 
ATOM     11  C   UNL     1      -0.065  -1.904   0.565  1.00  0.00     0.012 A 
ATOM     12  C   UNL     1      -0.076  -0.717  -0.185  1.00  0.00    -0.018 A 
BRANCH  12  13
ATOM     13  C   UNL     1       1.130  -0.283  -0.928  1.00  0.00    -0.011 A 
ATOM     14  C   UNL     1       1.613   1.038  -0.812  1.00  0.00     0.010 A 
ATOM     15  C   UNL     1       1.842  -1.144  -1.772  1.00  0.00    -0.014 A 
ATOM     16  C   UNL     1       2.768   1.452  -1.510  1.00  0.00     0.014 A 
ATOM     17  C   UNL     1       1.636  -2.452  -2.155  1.00  0.00    -0.113 A 
ATOM     18  C   UNL     1       2.960  -0.745  -2.454  1.00  0.00     0.058 A 
ATOM     19  C   UNL     1       3.473   0.558  -2.353  1.00  0.00     0.042 A 
ATOM     20  N   UNL     1       2.612  -2.798  -3.023  1.00  0.00    -0.581 NA
ATOM     21  N   UNL     1       3.421  -1.760  -3.208  1.00  0.00    -0.367 NA
BRANCH  19  22
ATOM     22  C   UNL     1       4.689   0.982  -3.100  1.00  0.00     0.161 C 
ATOM     23  C   UNL     1       5.220   2.381  -3.011  1.00  0.00     0.093 C 
ATOM     24  O   UNL     1       5.303   0.155  -3.827  1.00  0.00    -0.294 OA
ENDBRANCH  19  22
ENDBRANCH  12  13
ENDBRANCH   6   7
ENDBRANCH   1   6
TORSDOF 7


