REMARK SMILES O=C1NCc2[nH+]cc(-c3ccc4[nH]ccc4c3)cc21
REMARK SMILES IDX 1 1 2 2 3 3 4 4 5 5 6 6 7 7 8 8 18 9 19 10 9 13 10 14 17 15
REMARK SMILES IDX 11 16 16 17 12 18 15 19 13 20 14 21
REMARK H PARENT 3 11 6 12 13 22
ROOT
ATOM      1  O   UNL     1       5.137   0.134   0.024  1.00  0.00    -0.269 OA
ATOM      2  C   UNL     1       4.466  -0.822   0.493  1.00  0.00     0.258 C 
ATOM      3  N   UNL     1       5.036  -1.984   1.084  1.00  0.00    -0.342 N 
ATOM      4  C   UNL     1       3.950  -2.870   1.513  1.00  0.00     0.225 C 
ATOM      5  C   UNL     1       2.717  -2.112   1.116  1.00  0.00     0.211 A 
ATOM      6  N   UNL     1       1.427  -2.492   1.294  1.00  0.00    -0.212 N 
ATOM      7  C   UNL     1       0.413  -1.676   0.875  1.00  0.00     0.315 A 
ATOM      8  C   UNL     1       0.693  -0.430   0.253  1.00  0.00     0.046 A 
ATOM      9  C   UNL     1       2.041  -0.049   0.074  1.00  0.00     0.035 A 
ATOM     10  C   UNL     1       3.030  -0.917   0.519  1.00  0.00     0.109 A 
ATOM     11  H   UNL     1       6.056  -2.174   1.194  1.00  0.00     0.164 HD
ATOM     12  H   UNL     1       1.207  -3.407   1.747  1.00  0.00     0.453 HD
ENDROOT
BRANCH   8  13
ATOM     13  C   UNL     1      -0.409   0.455  -0.200  1.00  0.00    -0.012 A 
ATOM     14  C   UNL     1      -0.302   1.168  -1.425  1.00  0.00     0.011 A 
ATOM     15  C   UNL     1      -1.578   0.599   0.586  1.00  0.00     0.019 A 
ATOM     16  C   UNL     1      -1.339   2.010  -1.864  1.00  0.00     0.027 A 
ATOM     17  C   UNL     1      -2.584   1.442   0.120  1.00  0.00    -0.000 A 
ATOM     18  C   UNL     1      -2.470   2.123  -1.060  1.00  0.00     0.045 A 
ATOM     19  C   UNL     1      -3.805   1.769   0.669  1.00  0.00     0.028 A 
ATOM     20  N   UNL     1      -3.564   2.868  -1.290  1.00  0.00    -0.361 N 
ATOM     21  C   UNL     1      -4.383   2.655  -0.235  1.00  0.00     0.083 A 
ATOM     22  H   UNL     1      -3.747   3.486  -2.111  1.00  0.00     0.166 HD
ENDBRANCH   8  13
TORSDOF 1


