MODEL 1
REMARK VINA RESULT:     -10.5      0.000      0.000
REMARK SMILES Fc1ccc2cc(-c3[nH+]c[nH+]cc3F)[nH]c2c1
REMARK SMILES IDX 1 1 2 2 3 3 4 4 5 5 6 6 7 7 15 8 16 9 17 10 8 12 9 13 13 14
REMARK SMILES IDX 10 15 12 16 11 17 14 19
REMARK H PARENT 15 11 9 18 11 20
ROOT
ATOM      1  F   UNL     1      48.176 131.433  12.213  1.00  0.00    -0.207 F 
ATOM      2  C   UNL     1      47.587 130.998  13.354  1.00  0.00     0.125 A 
ATOM      3  C   UNL     1      47.734 129.650  13.751  1.00  0.00     0.040 A 
ATOM      4  C   UNL     1      47.128 129.187  14.933  1.00  0.00     0.013 A 
ATOM      5  C   UNL     1      46.390 130.098  15.686  1.00  0.00     0.000 A 
ATOM      6  C   UNL     1      45.699 129.935  16.864  1.00  0.00     0.043 A 
ATOM      7  C   UNL     1      45.147 131.191  17.158  1.00  0.00     0.116 A 
ATOM      8  N   UNL     1      45.496 132.079  16.186  1.00  0.00    -0.349 N 
ATOM      9  C   UNL     1      46.247 131.401  15.304  1.00  0.00     0.049 A 
ATOM     10  C   UNL     1      46.835 131.892  14.139  1.00  0.00     0.066 A 
ATOM     11  H   UNL     1      45.250 133.089  16.106  1.00  0.00     0.167 HD
ENDROOT
BRANCH   7  12
ATOM     12  C   UNL     1      44.299 131.545  18.345  1.00  0.00     0.274 A 
ATOM     13  N   UNL     1      43.007 131.961  18.160  1.00  0.00    -0.151 N 
ATOM     14  C   UNL     1      44.787 131.466  19.669  1.00  0.00     0.260 A 
ATOM     15  C   UNL     1      42.206 132.290  19.208  1.00  0.00     0.629 A 
ATOM     16  C   UNL     1      43.944 131.810  20.724  1.00  0.00     0.358 A 
ATOM     17  N   UNL     1      42.674 132.214  20.479  1.00  0.00    -0.159 N 
ATOM     18  H   UNL     1      42.590 132.040  17.210  1.00  0.00     0.460 HD
ATOM     19  F   UNL     1      46.047 131.068  19.966  1.00  0.00    -0.193 F 
ATOM     20  H   UNL     1      42.049 132.471  21.277  1.00  0.00     0.459 HD
ENDBRANCH   7  12
TORSDOF 1
ENDMDL
MODEL 2
REMARK VINA RESULT:     -10.2      0.953      1.583
REMARK SMILES Fc1ccc2cc(-c3[nH+]c[nH+]cc3F)[nH]c2c1
REMARK SMILES IDX 1 1 2 2 3 3 4 4 5 5 6 6 7 7 15 8 16 9 17 10 8 12 9 13 13 14
REMARK SMILES IDX 10 15 12 16 11 17 14 19
REMARK H PARENT 15 11 9 18 11 20
ROOT
ATOM      1  F   UNL     1      48.728 128.790  13.104  1.00  0.00    -0.207 F 
ATOM      2  C   UNL     1      47.937 129.661  13.779  1.00  0.00     0.125 A 
ATOM      3  C   UNL     1      47.687 130.944  13.241  1.00  0.00     0.040 A 
ATOM      4  C   UNL     1      46.869 131.857  13.932  1.00  0.00     0.013 A 
ATOM      5  C   UNL     1      46.322 131.449  15.148  1.00  0.00     0.000 A 
ATOM      6  C   UNL     1      45.501 132.115  16.027  1.00  0.00     0.043 A 
ATOM      7  C   UNL     1      45.269 131.218  17.082  1.00  0.00     0.116 A 
ATOM      8  N   UNL     1      45.932 130.053  16.841  1.00  0.00    -0.349 N 
ATOM      9  C   UNL     1      46.564 130.210  15.668  1.00  0.00     0.049 A 
ATOM     10  C   UNL     1      47.370 129.283  15.009  1.00  0.00     0.066 A 
ATOM     11  H   UNL     1      45.967 129.190  17.426  1.00  0.00     0.167 HD
ENDROOT
BRANCH   7  12
ATOM     12  C   UNL     1      44.431 131.464  18.302  1.00  0.00     0.274 A 
ATOM     13  N   UNL     1      43.140 131.902  18.166  1.00  0.00    -0.151 N 
ATOM     14  C   UNL     1      44.927 131.262  19.610  1.00  0.00     0.260 A 
ATOM     15  C   UNL     1      42.347 132.136  19.246  1.00  0.00     0.629 A 
ATOM     16  C   UNL     1      44.093 131.511  20.698  1.00  0.00     0.358 A 
ATOM     17  N   UNL     1      42.823 131.942  20.500  1.00  0.00    -0.159 N 
ATOM     18  H   UNL     1      42.717 132.069  17.230  1.00  0.00     0.460 HD
ATOM     19  F   UNL     1      46.187 130.833  19.860  1.00  0.00    -0.193 F 
ATOM     20  H   UNL     1      42.205 132.126  21.323  1.00  0.00     0.459 HD
ENDBRANCH   7  12
TORSDOF 1
ENDMDL
MODEL 3
REMARK VINA RESULT:     -10.2      1.692      2.264
REMARK SMILES Fc1ccc2cc(-c3[nH+]c[nH+]cc3F)[nH]c2c1
REMARK SMILES IDX 1 1 2 2 3 3 4 4 5 5 6 6 7 7 15 8 16 9 17 10 8 12 9 13 13 14
REMARK SMILES IDX 10 15 12 16 11 17 14 19
REMARK H PARENT 15 11 9 18 11 20
ROOT
ATOM      1  F   UNL     1      48.750 128.934  12.838  1.00  0.00    -0.207 F 
ATOM      2  C   UNL     1      47.961 129.720  13.611  1.00  0.00     0.125 A 
ATOM      3  C   UNL     1      47.470 130.943  13.100  1.00  0.00     0.040 A 
ATOM      4  C   UNL     1      46.651 131.767  13.893  1.00  0.00     0.013 A 
ATOM      5  C   UNL     1      46.345 131.334  15.182  1.00  0.00     0.000 A 
ATOM      6  C   UNL     1      45.582 131.919  16.165  1.00  0.00     0.043 A 
ATOM      7  C   UNL     1      45.626 131.035  17.255  1.00  0.00     0.116 A 
ATOM      8  N   UNL     1      46.391 129.956  16.933  1.00  0.00    -0.349 N 
ATOM      9  C   UNL     1      46.819 130.153  15.677  1.00  0.00     0.049 A 
ATOM     10  C   UNL     1      47.633 129.313  14.918  1.00  0.00     0.066 A 
ATOM     11  H   UNL     1      46.623 129.123  17.518  1.00  0.00     0.167 HD
ENDROOT
BRANCH   7  12
ATOM     12  C   UNL     1      44.950 131.213  18.583  1.00  0.00     0.274 A 
ATOM     13  N   UNL     1      45.622 130.904  19.737  1.00  0.00    -0.151 N 
ATOM     14  C   UNL     1      43.626 131.694  18.696  1.00  0.00     0.260 A 
ATOM     15  C   UNL     1      45.046 131.050  20.960  1.00  0.00     0.629 A 
ATOM     16  C   UNL     1      43.061 131.834  19.962  1.00  0.00     0.358 A 
ATOM     17  N   UNL     1      43.776 131.512  21.068  1.00  0.00    -0.159 N 
ATOM     18  H   UNL     1      46.599 130.545  19.720  1.00  0.00     0.460 HD
ATOM     19  F   UNL     1      42.872 132.029  17.622  1.00  0.00    -0.193 F 
ATOM     20  H   UNL     1      43.343 131.621  22.013  1.00  0.00     0.459 HD
ENDBRANCH   7  12
TORSDOF 1
ENDMDL
MODEL 4
REMARK VINA RESULT:     -10.0      1.355      1.621
REMARK SMILES Fc1ccc2cc(-c3[nH+]c[nH+]cc3F)[nH]c2c1
REMARK SMILES IDX 1 1 2 2 3 3 4 4 5 5 6 6 7 7 15 8 16 9 17 10 8 12 9 13 13 14
REMARK SMILES IDX 10 15 12 16 11 17 14 19
REMARK H PARENT 15 11 9 18 11 20
ROOT
ATOM      1  F   UNL     1      47.801 131.413  12.123  1.00  0.00    -0.207 F 
ATOM      2  C   UNL     1      47.363 130.967  13.327  1.00  0.00     0.125 A 
ATOM      3  C   UNL     1      47.638 129.640  13.727  1.00  0.00     0.040 A 
ATOM      4  C   UNL     1      47.189 129.165  14.973  1.00  0.00     0.013 A 
ATOM      5  C   UNL     1      46.475 130.045  15.785  1.00  0.00     0.000 A 
ATOM      6  C   UNL     1      45.922 129.864  17.031  1.00  0.00     0.043 A 
ATOM      7  C   UNL     1      45.322 131.089  17.361  1.00  0.00     0.116 A 
ATOM      8  N   UNL     1      45.510 131.975  16.345  1.00  0.00    -0.349 N 
ATOM      9  C   UNL     1      46.208 131.327  15.399  1.00  0.00     0.049 A 
ATOM     10  C   UNL     1      46.639 131.828  14.171  1.00  0.00     0.066 A 
ATOM     11  H   UNL     1      45.192 132.966  16.275  1.00  0.00     0.167 HD
ENDROOT
BRANCH   7  12
ATOM     12  C   UNL     1      44.581 131.414  18.625  1.00  0.00     0.274 A 
ATOM     13  N   UNL     1      45.204 131.275  19.837  1.00  0.00    -0.151 N 
ATOM     14  C   UNL     1      43.241 131.864  18.617  1.00  0.00     0.260 A 
ATOM     15  C   UNL     1      44.568 131.559  21.004  1.00  0.00     0.629 A 
ATOM     16  C   UNL     1      42.614 132.148  19.828  1.00  0.00     0.358 A 
ATOM     17  N   UNL     1      43.283 131.992  20.997  1.00  0.00    -0.159 N 
ATOM     18  H   UNL     1      46.189 130.947  19.909  1.00  0.00     0.460 HD
ATOM     19  F   UNL     1      42.530 132.037  17.477  1.00  0.00    -0.193 F 
ATOM     20  H   UNL     1      42.803 132.206  21.900  1.00  0.00     0.459 HD
ENDBRANCH   7  12
TORSDOF 1
ENDMDL
MODEL 5
REMARK VINA RESULT:      -9.5      0.928      1.011
REMARK SMILES Fc1ccc2cc(-c3[nH+]c[nH+]cc3F)[nH]c2c1
REMARK SMILES IDX 1 1 2 2 3 3 4 4 5 5 6 6 7 7 15 8 16 9 17 10 8 12 9 13 13 14
REMARK SMILES IDX 10 15 12 16 11 17 14 19
REMARK H PARENT 15 11 9 18 11 20
ROOT
ATOM      1  F   UNL     1      46.948 131.226  12.576  1.00  0.00    -0.207 F 
ATOM      2  C   UNL     1      46.636 130.941  13.864  1.00  0.00     0.125 A 
ATOM      3  C   UNL     1      47.251 129.846  14.511  1.00  0.00     0.040 A 
ATOM      4  C   UNL     1      46.936 129.540  15.847  1.00  0.00     0.013 A 
ATOM      5  C   UNL     1      46.007 130.351  16.498  1.00  0.00     0.000 A 
ATOM      6  C   UNL     1      45.513 130.294  17.781  1.00  0.00     0.043 A 
ATOM      7  C   UNL     1      44.606 131.360  17.885  1.00  0.00     0.116 A 
ATOM      8  N   UNL     1      44.559 132.033  16.702  1.00  0.00    -0.349 N 
ATOM      9  C   UNL     1      45.412 131.409  15.875  1.00  0.00     0.049 A 
ATOM     10  C   UNL     1      45.702 131.739  14.552  1.00  0.00     0.066 A 
ATOM     11  H   UNL     1      43.989 132.869  16.449  1.00  0.00     0.167 HD
ENDROOT
BRANCH   7  12
ATOM     12  C   UNL     1      43.796 131.735  19.091  1.00  0.00     0.274 A 
ATOM     13  N   UNL     1      42.598 132.382  18.933  1.00  0.00    -0.151 N 
ATOM     14  C   UNL     1      44.224 131.444  20.406  1.00  0.00     0.260 A 
ATOM     15  C   UNL     1      41.834 132.739  20.000  1.00  0.00     0.629 A 
ATOM     16  C   UNL     1      43.420 131.821  21.480  1.00  0.00     0.358 A 
ATOM     17  N   UNL     1      42.244 132.459  21.261  1.00  0.00    -0.159 N 
ATOM     18  H   UNL     1      42.229 132.625  17.991  1.00  0.00     0.460 HD
ATOM     19  F   UNL     1      45.389 130.808  20.676  1.00  0.00    -0.193 F 
ATOM     20  H   UNL     1      41.648 132.739  22.073  1.00  0.00     0.459 HD
ENDBRANCH   7  12
TORSDOF 1
ENDMDL
MODEL 6
REMARK VINA RESULT:      -9.3      1.835      2.411
REMARK SMILES Fc1ccc2cc(-c3[nH+]c[nH+]cc3F)[nH]c2c1
REMARK SMILES IDX 1 1 2 2 3 3 4 4 5 5 6 6 7 7 15 8 16 9 17 10 8 12 9 13 13 14
REMARK SMILES IDX 10 15 12 16 11 17 14 19
REMARK H PARENT 15 11 9 18 11 20
ROOT
ATOM      1  F   UNL     1      48.082 129.185  13.666  1.00  0.00    -0.207 F 
ATOM      2  C   UNL     1      47.174 129.858  14.417  1.00  0.00     0.125 A 
ATOM      3  C   UNL     1      46.307 130.790  13.803  1.00  0.00     0.040 A 
ATOM      4  C   UNL     1      45.361 131.494  14.571  1.00  0.00     0.013 A 
ATOM      5  C   UNL     1      45.314 131.237  15.940  1.00  0.00     0.000 A 
ATOM      6  C   UNL     1      44.509 131.764  16.922  1.00  0.00     0.043 A 
ATOM      7  C   UNL     1      44.905 131.138  18.114  1.00  0.00     0.116 A 
ATOM      8  N   UNL     1      45.916 130.264  17.853  1.00  0.00    -0.349 N 
ATOM      9  C   UNL     1      46.151 130.337  16.534  1.00  0.00     0.049 A 
ATOM     10  C   UNL     1      47.099 129.623  15.802  1.00  0.00     0.066 A 
ATOM     11  H   UNL     1      46.431 129.645  18.517  1.00  0.00     0.167 HD
ENDROOT
BRANCH   7  12
ATOM     12  C   UNL     1      44.332 131.367  19.483  1.00  0.00     0.274 A 
ATOM     13  N   UNL     1      45.047 130.998  20.592  1.00  0.00    -0.151 N 
ATOM     14  C   UNL     1      43.063 131.956  19.679  1.00  0.00     0.260 A 
ATOM     15  C   UNL     1      44.564 131.188  21.849  1.00  0.00     0.629 A 
ATOM     16  C   UNL     1      42.593 132.139  20.977  1.00  0.00     0.358 A 
ATOM     17  N   UNL     1      43.347 131.754  22.036  1.00  0.00    -0.159 N 
ATOM     18  H   UNL     1      45.988 130.559  20.513  1.00  0.00     0.460 HD
ATOM     19  F   UNL     1      42.273 132.358  18.654  1.00  0.00    -0.193 F 
ATOM     20  H   UNL     1      42.985 131.895  23.007  1.00  0.00     0.459 HD
ENDBRANCH   7  12
TORSDOF 1
ENDMDL
MODEL 7
REMARK VINA RESULT:      -9.3      1.309      1.779
REMARK SMILES Fc1ccc2cc(-c3[nH+]c[nH+]cc3F)[nH]c2c1
REMARK SMILES IDX 1 1 2 2 3 3 4 4 5 5 6 6 7 7 15 8 16 9 17 10 8 12 9 13 13 14
REMARK SMILES IDX 10 15 12 16 11 17 14 19
REMARK H PARENT 15 11 9 18 11 20
ROOT
ATOM      1  F   UNL     1      48.249 129.260  13.992  1.00  0.00    -0.207 F 
ATOM      2  C   UNL     1      47.186 129.903  14.537  1.00  0.00     0.125 A 
ATOM      3  C   UNL     1      46.284 130.601  13.703  1.00  0.00     0.040 A 
ATOM      4  C   UNL     1      45.178 131.272  14.256  1.00  0.00     0.013 A 
ATOM      5  C   UNL     1      45.010 131.218  15.639  1.00  0.00     0.000 A 
ATOM      6  C   UNL     1      44.040 131.768  16.445  1.00  0.00     0.043 A 
ATOM      7  C   UNL     1      44.376 131.390  17.754  1.00  0.00     0.116 A 
ATOM      8  N   UNL     1      45.511 130.638  17.732  1.00  0.00    -0.349 N 
ATOM      9  C   UNL     1      45.881 130.544  16.446  1.00  0.00     0.049 A 
ATOM     10  C   UNL     1      46.987 129.870  15.930  1.00  0.00     0.066 A 
ATOM     11  H   UNL     1      46.022 130.204  18.532  1.00  0.00     0.167 HD
ENDROOT
BRANCH   7  12
ATOM     12  C   UNL     1      43.630 131.738  19.009  1.00  0.00     0.274 A 
ATOM     13  N   UNL     1      42.482 132.482  18.935  1.00  0.00    -0.151 N 
ATOM     14  C   UNL     1      44.070 131.324  20.286  1.00  0.00     0.260 A 
ATOM     15  C   UNL     1      41.776 132.819  20.048  1.00  0.00     0.629 A 
ATOM     16  C   UNL     1      43.328 131.684  21.409  1.00  0.00     0.358 A 
ATOM     17  N   UNL     1      42.198 132.421  21.273  1.00  0.00    -0.159 N 
ATOM     18  H   UNL     1      42.106 132.817  18.024  1.00  0.00     0.460 HD
ATOM     19  F   UNL     1      45.191 130.586  20.474  1.00  0.00    -0.193 F 
ATOM     20  H   UNL     1      41.648 132.686  22.122  1.00  0.00     0.459 HD
ENDBRANCH   7  12
TORSDOF 1
ENDMDL
MODEL 8
REMARK VINA RESULT:      -9.1      2.131      6.490
REMARK SMILES Fc1ccc2cc(-c3[nH+]c[nH+]cc3F)[nH]c2c1
REMARK SMILES IDX 1 1 2 2 3 3 4 4 5 5 6 6 7 7 15 8 16 9 17 10 8 12 9 13 13 14
REMARK SMILES IDX 10 15 12 16 11 17 14 19
REMARK H PARENT 15 11 9 18 11 20
ROOT
ATOM      1  F   UNL     1      44.411 131.416  22.953  1.00  0.00    -0.207 F 
ATOM      2  C   UNL     1      44.293 131.475  21.604  1.00  0.00     0.125 A 
ATOM      3  C   UNL     1      43.129 132.028  21.024  1.00  0.00     0.040 A 
ATOM      4  C   UNL     1      42.994 132.095  19.625  1.00  0.00     0.013 A 
ATOM      5  C   UNL     1      44.041 131.604  18.846  1.00  0.00     0.000 A 
ATOM      6  C   UNL     1      44.187 131.539  17.480  1.00  0.00     0.043 A 
ATOM      7  C   UNL     1      45.441 130.947  17.260  1.00  0.00     0.116 A 
ATOM      8  N   UNL     1      46.026 130.667  18.457  1.00  0.00    -0.349 N 
ATOM      9  C   UNL     1      45.167 131.070  19.406  1.00  0.00     0.049 A 
ATOM     10  C   UNL     1      45.331 130.988  20.788  1.00  0.00     0.066 A 
ATOM     11  H   UNL     1      46.954 130.228  18.643  1.00  0.00     0.167 HD
ENDROOT
BRANCH   7  12
ATOM     12  C   UNL     1      46.074 130.652  15.932  1.00  0.00     0.274 A 
ATOM     13  N   UNL     1      47.136 129.790  15.859  1.00  0.00    -0.151 N 
ATOM     14  C   UNL     1      45.613 131.239  14.732  1.00  0.00     0.260 A 
ATOM     15  C   UNL     1      47.738 129.496  14.676  1.00  0.00     0.629 A 
ATOM     16  C   UNL     1      46.249 130.919  13.534  1.00  0.00     0.358 A 
ATOM     17  N   UNL     1      47.295 130.057  13.524  1.00  0.00    -0.159 N 
ATOM     18  H   UNL     1      47.521 129.326  16.708  1.00  0.00     0.460 HD
ATOM     19  F   UNL     1      44.572 132.104  14.688  1.00  0.00    -0.193 F 
ATOM     20  H   UNL     1      47.766 129.825  12.620  1.00  0.00     0.459 HD
ENDBRANCH   7  12
TORSDOF 1
ENDMDL
MODEL 9
REMARK VINA RESULT:      -9.1      1.704      2.178
REMARK SMILES Fc1ccc2cc(-c3[nH+]c[nH+]cc3F)[nH]c2c1
REMARK SMILES IDX 1 1 2 2 3 3 4 4 5 5 6 6 7 7 15 8 16 9 17 10 8 12 9 13 13 14
REMARK SMILES IDX 10 15 12 16 11 17 14 19
REMARK H PARENT 15 11 9 18 11 20
ROOT
ATOM      1  F   UNL     1      46.249 131.082  12.666  1.00  0.00    -0.207 F 
ATOM      2  C   UNL     1      46.109 130.910  14.004  1.00  0.00     0.125 A 
ATOM      3  C   UNL     1      47.011 130.076  14.703  1.00  0.00     0.040 A 
ATOM      4  C   UNL     1      46.876 129.889  16.091  1.00  0.00     0.013 A 
ATOM      5  C   UNL     1      45.834 130.551  16.739  1.00  0.00     0.000 A 
ATOM      6  C   UNL     1      45.464 130.558  18.063  1.00  0.00     0.043 A 
ATOM      7  C   UNL     1      44.343 131.398  18.140  1.00  0.00     0.116 A 
ATOM      8  N   UNL     1      44.051 131.879  16.900  1.00  0.00    -0.349 N 
ATOM      9  C   UNL     1      44.962 131.357  16.064  1.00  0.00     0.049 A 
ATOM     10  C   UNL     1      45.068 131.563  14.690  1.00  0.00     0.066 A 
ATOM     11  H   UNL     1      43.283 132.525  16.614  1.00  0.00     0.167 HD
ENDROOT
BRANCH   7  12
ATOM     12  C   UNL     1      43.559 131.740  19.373  1.00  0.00     0.274 A 
ATOM     13  N   UNL     1      44.039 131.387  20.606  1.00  0.00    -0.151 N 
ATOM     14  C   UNL     1      42.322 132.422  19.314  1.00  0.00     0.260 A 
ATOM     15  C   UNL     1      43.360 131.677  21.748  1.00  0.00     0.629 A 
ATOM     16  C   UNL     1      41.648 132.707  20.499  1.00  0.00     0.358 A 
ATOM     17  N   UNL     1      42.174 132.332  21.691  1.00  0.00    -0.159 N 
ATOM     18  H   UNL     1      44.943 130.883  20.716  1.00  0.00     0.460 HD
ATOM     19  F   UNL     1      41.755 132.817  18.149  1.00  0.00    -0.193 F 
ATOM     20  H   UNL     1      41.660 132.550  22.575  1.00  0.00     0.459 HD
ENDBRANCH   7  12
TORSDOF 1
ENDMDL


