REMARK SMILES C=CCC(=O)Sc1cccc(-c2ccc3c(c2)CC3)c1
REMARK SMILES IDX 4 1 5 2 3 3 2 4 1 5 6 6 7 7 8 8 20 9 9 10 11 11 10 12 12 13
REMARK SMILES IDX 13 14 17 15 14 16 16 17 15 18 18 19 19 20
REMARK H PARENT
ROOT
ATOM      1  C   UNL     1       1.370   3.820  -1.878  1.00  0.00     0.197 C 
ATOM      2  O   UNL     1       0.742   4.468  -2.701  1.00  0.00    -0.286 OA
ENDROOT
BRANCH   1   3
ATOM      3  C   UNL     1       2.182   2.635  -2.314  1.00  0.00     0.115 C 
BRANCH   3   4
ATOM      4  C   UNL     1       1.276   1.542  -2.815  1.00  0.00    -0.026 C 
ATOM      5  C   UNL     1       1.224   0.340  -2.233  1.00  0.00     0.004 C 
ENDBRANCH   3   4
ENDBRANCH   1   3
BRANCH   1   6
ATOM      6  S   UNL     1       1.319   4.304  -0.150  1.00  0.00    -0.052 SA
BRANCH   6   7
ATOM      7  C   UNL     1      -0.048   3.201   0.206  1.00  0.00     0.016 A 
ATOM      8  C   UNL     1      -1.366   3.643   0.051  1.00  0.00     0.015 A 
ATOM      9  C   UNL     1       0.206   1.888   0.616  1.00  0.00     0.024 A 
ATOM     10  C   UNL     1      -2.428   2.768   0.290  1.00  0.00     0.002 A 
ATOM     11  C   UNL     1      -0.856   0.993   0.841  1.00  0.00    -0.017 A 
ATOM     12  C   UNL     1      -2.177   1.448   0.677  1.00  0.00     0.009 A 
BRANCH  11  13
ATOM     13  C   UNL     1      -0.583  -0.414   1.225  1.00  0.00    -0.018 A 
ATOM     14  C   UNL     1      -1.350  -1.480   0.634  1.00  0.00     0.009 A 
ATOM     15  C   UNL     1       0.448  -0.701   2.167  1.00  0.00     0.012 A 
ATOM     16  C   UNL     1      -1.123  -2.840   0.957  1.00  0.00     0.004 A 
ATOM     17  C   UNL     1       0.643  -2.035   2.459  1.00  0.00    -0.044 A 
ATOM     18  C   UNL     1      -0.120  -3.073   1.872  1.00  0.00    -0.044 A 
ATOM     19  C   UNL     1       1.425  -3.029   3.246  1.00  0.00     0.040 C 
ATOM     20  C   UNL     1       0.643  -4.094   2.643  1.00  0.00     0.040 C 
ENDBRANCH  11  13
ENDBRANCH   6   7
ENDBRANCH   1   6
TORSDOF 5


