REMARK SMILES CC(=O)c1c(-c2c[nH+]c3c(c2)C(=O)[N-]C3)cc(/C(O)=N/[C@@H]2C=CCC2)c(F)c1[O-]
REMARK SMILES IDX 17 1 16 2 5 3 4 4 28 5 29 6 26 7 27 8 18 9 19 10 20 12 21 13
REMARK SMILES IDX 22 14 25 15 23 16 24 17 6 18 11 19 7 20 10 21 8 22 9 23
REMARK SMILES IDX 12 24 15 25 14 26 13 28 2 29 3 30 1 31
REMARK H PARENT 19 11 8 27
ROOT
ATOM      1  C   UNL     1      -0.674  -0.031  -1.404  1.00  0.00     0.072 A 
ATOM      2  C   UNL     1       0.143   0.549  -0.417  1.00  0.00     0.026 A 
ATOM      3  C   UNL     1       1.542   0.437  -0.468  1.00  0.00    -0.001 A 
ATOM      4  C   UNL     1       2.147  -0.290  -1.522  1.00  0.00     0.020 A 
ATOM      5  C   UNL     1       1.329  -0.876  -2.508  1.00  0.00    -0.059 A 
ATOM      6  O   UNL     1       1.889  -1.623  -3.541  1.00  0.00    -0.870 OA
ATOM      7  C   UNL     1      -0.062  -0.741  -2.454  1.00  0.00     0.128 A 
ATOM      8  F   UNL     1      -0.805  -1.326  -3.429  1.00  0.00    -0.207 F 
ENDROOT
BRANCH   1   9
ATOM      9  C   UNL     1      -2.155   0.111  -1.329  1.00  0.00     0.217 C 
BRANCH   9  10
ATOM     10  O   UNL     1      -2.952  -0.461  -2.327  1.00  0.00    -0.493 OA
ATOM     11  H   UNL     1      -3.962  -0.402  -2.337  1.00  0.00     0.295 HD
ENDBRANCH   9  10
BRANCH   9  12
ATOM     12  N   UNL     1      -2.688   0.766  -0.336  1.00  0.00    -0.244 NA
BRANCH  12  13
ATOM     13  C   UNL     1      -4.116   0.987  -0.117  1.00  0.00     0.132 C 
ATOM     14  C   UNL     1      -4.297   1.935   1.013  1.00  0.00    -0.005 C 
ATOM     15  C   UNL     1      -4.823  -0.297   0.354  1.00  0.00     0.036 C 
ATOM     16  C   UNL     1      -4.944   1.395   2.030  1.00  0.00    -0.029 C 
ATOM     17  C   UNL     1      -5.317  -0.019   1.777  1.00  0.00     0.029 C 
ENDBRANCH  12  13
ENDBRANCH   9  12
ENDBRANCH   1   9
BRANCH   3  18
ATOM     18  C   UNL     1       2.341   1.130   0.572  1.00  0.00     0.047 A 
ATOM     19  C   UNL     1       3.326   2.072   0.209  1.00  0.00     0.031 A 
ATOM     20  C   UNL     1       2.102   0.879   1.946  1.00  0.00     0.315 A 
ATOM     21  C   UNL     1       4.033   2.696   1.230  1.00  0.00     0.065 A 
ATOM     22  N   UNL     1       2.826   1.525   2.908  1.00  0.00    -0.215 N 
ATOM     23  C   UNL     1       3.780   2.420   2.546  1.00  0.00     0.171 A 
ATOM     24  C   UNL     1       5.080   3.682   1.202  1.00  0.00     0.089 C 
ATOM     25  C   UNL     1       4.665   3.223   3.452  1.00  0.00    -0.006 C 
ATOM     26  N   UNL     1       5.482   4.018   2.527  1.00  0.00    -0.641 NA
ATOM     27  H   UNL     1       2.646   1.330   3.918  1.00  0.00     0.453 HD
ATOM     28  O   UNL     1       5.586   4.189   0.167  1.00  0.00    -0.315 OA
ENDBRANCH   3  18
BRANCH   4  29
ATOM     29  C   UNL     1       3.618  -0.492  -1.565  1.00  0.00     0.159 C 
ATOM     30  O   UNL     1       4.225  -0.869  -0.527  1.00  0.00    -0.295 OA
ATOM     31  C   UNL     1       4.400  -0.278  -2.823  1.00  0.00     0.093 C 
ENDBRANCH   4  29
TORSDOF 6


