MODEL 1
REMARK VINA RESULT:     -10.1      0.000      0.000
REMARK SMILES CC(=O)c1ccc(-c2ccc([O-])cc2)c2c[nH]nc12
REMARK SMILES IDX 4 1 5 2 6 3 7 4 15 5 16 6 17 7 18 8 19 9 2 11 1 12 3 13 8 14
REMARK SMILES IDX 9 15 14 16 10 17 13 18 11 19 12 20
REMARK H PARENT 17 10
ROOT
ATOM      1  C   UNL     1      43.968 131.403  21.087  1.00  0.00     0.045 A 
ATOM      2  C   UNL     1      45.245 130.837  20.852  1.00  0.00     0.015 A 
ATOM      3  C   UNL     1      45.752 130.698  19.543  1.00  0.00     0.010 A 
ATOM      4  C   UNL     1      45.005 131.125  18.425  1.00  0.00    -0.007 A 
ATOM      5  C   UNL     1      43.743 131.677  18.682  1.00  0.00     0.028 A 
ATOM      6  C   UNL     1      42.745 132.139  17.850  1.00  0.00     0.114 A 
ATOM      7  N   UNL     1      41.716 132.535  18.629  1.00  0.00    -0.284 N 
ATOM      8  N   UNL     1      42.007 132.338  19.910  1.00  0.00    -0.175 NA
ATOM      9  C   UNL     1      43.245 131.811  19.954  1.00  0.00     0.103 A 
ATOM     10  H   UNL     1      40.812 132.931  18.290  1.00  0.00     0.189 HD
ENDROOT
BRANCH   1  11
ATOM     11  C   UNL     1      43.420 131.552  22.463  1.00  0.00     0.162 C 
ATOM     12  C   UNL     1      44.080 130.914  23.648  1.00  0.00     0.093 C 
ATOM     13  O   UNL     1      42.374 132.230  22.655  1.00  0.00    -0.294 OA
ENDBRANCH   1  11
BRANCH   4  14
ATOM     14  C   UNL     1      45.545 130.987  17.053  1.00  0.00    -0.018 A 
ATOM     15  C   UNL     1      45.911 129.722  16.560  1.00  0.00     0.008 A 
ATOM     16  C   UNL     1      45.726 132.118  16.237  1.00  0.00     0.008 A 
ATOM     17  C   UNL     1      46.430 129.590  15.269  1.00  0.00    -0.008 A 
ATOM     18  C   UNL     1      46.247 131.982  14.946  1.00  0.00    -0.008 A 
ATOM     19  C   UNL     1      46.598 130.718  14.462  1.00  0.00    -0.109 A 
ATOM     20  O   UNL     1      47.114 130.585  13.178  1.00  0.00    -0.872 OA
ENDBRANCH   4  14
TORSDOF 2
ENDMDL
MODEL 2
REMARK VINA RESULT:     -10.1      0.559      1.243
REMARK SMILES CC(=O)c1ccc(-c2ccc([O-])cc2)c2c[nH]nc12
REMARK SMILES IDX 4 1 5 2 6 3 7 4 15 5 16 6 17 7 18 8 19 9 2 11 1 12 3 13 8 14
REMARK SMILES IDX 9 15 14 16 10 17 13 18 11 19 12 20
REMARK H PARENT 17 10
ROOT
ATOM      1  C   UNL     1      44.124 131.215  21.233  1.00  0.00     0.045 A 
ATOM      2  C   UNL     1      45.374 130.622  20.929  1.00  0.00     0.015 A 
ATOM      3  C   UNL     1      45.837 130.540  19.599  1.00  0.00     0.010 A 
ATOM      4  C   UNL     1      45.073 131.054  18.530  1.00  0.00    -0.007 A 
ATOM      5  C   UNL     1      43.838 131.630  18.856  1.00  0.00     0.028 A 
ATOM      6  C   UNL     1      42.834 132.170  18.081  1.00  0.00     0.114 A 
ATOM      7  N   UNL     1      41.842 132.555  18.912  1.00  0.00    -0.284 N 
ATOM      8  N   UNL     1      42.162 132.277  20.170  1.00  0.00    -0.175 NA
ATOM      9  C   UNL     1      43.382 131.708  20.148  1.00  0.00     0.103 A 
ATOM     10  H   UNL     1      40.942 132.998  18.623  1.00  0.00     0.189 HD
ENDROOT
BRANCH   1  11
ATOM     11  C   UNL     1      43.620 131.303  22.632  1.00  0.00     0.162 C 
ATOM     12  C   UNL     1      42.793 130.211  23.242  1.00  0.00     0.093 C 
ATOM     13  O   UNL     1      43.889 132.313  23.336  1.00  0.00    -0.294 OA
ENDBRANCH   1  11
BRANCH   4  14
ATOM     14  C   UNL     1      45.569 130.976  17.136  1.00  0.00    -0.018 A 
ATOM     15  C   UNL     1      45.649 132.137  16.348  1.00  0.00     0.008 A 
ATOM     16  C   UNL     1      45.940 129.741  16.576  1.00  0.00     0.008 A 
ATOM     17  C   UNL     1      46.108 132.065  15.029  1.00  0.00    -0.008 A 
ATOM     18  C   UNL     1      46.397 129.673  15.256  1.00  0.00    -0.008 A 
ATOM     19  C   UNL     1      46.483 130.835  14.483  1.00  0.00    -0.109 A 
ATOM     20  O   UNL     1      46.939 130.765  13.172  1.00  0.00    -0.872 OA
ENDBRANCH   4  14
TORSDOF 2
ENDMDL
MODEL 3
REMARK VINA RESULT:      -9.2      1.636      2.605
REMARK SMILES CC(=O)c1ccc(-c2ccc([O-])cc2)c2c[nH]nc12
REMARK SMILES IDX 4 1 5 2 6 3 7 4 15 5 16 6 17 7 18 8 19 9 2 11 1 12 3 13 8 14
REMARK SMILES IDX 9 15 14 16 10 17 13 18 11 19 12 20
REMARK H PARENT 17 10
ROOT
ATOM      1  C   UNL     1      42.955 132.070  19.912  1.00  0.00     0.045 A 
ATOM      2  C   UNL     1      42.445 132.131  18.592  1.00  0.00     0.015 A 
ATOM      3  C   UNL     1      43.245 131.778  17.484  1.00  0.00     0.010 A 
ATOM      4  C   UNL     1      44.576 131.344  17.658  1.00  0.00    -0.007 A 
ATOM      5  C   UNL     1      45.059 131.297  18.972  1.00  0.00     0.028 A 
ATOM      6  C   UNL     1      46.294 130.980  19.496  1.00  0.00     0.114 A 
ATOM      7  N   UNL     1      46.219 131.130  20.835  1.00  0.00    -0.284 N 
ATOM      8  N   UNL     1      45.004 131.536  21.185  1.00  0.00    -0.175 NA
ATOM      9  C   UNL     1      44.285 131.643  20.052  1.00  0.00     0.103 A 
ATOM     10  H   UNL     1      46.997 130.966  21.511  1.00  0.00     0.189 HD
ENDROOT
BRANCH   1  11
ATOM     11  C   UNL     1      42.123 132.445  21.089  1.00  0.00     0.162 C 
ATOM     12  C   UNL     1      42.378 131.868  22.449  1.00  0.00     0.093 C 
ATOM     13  O   UNL     1      41.178 133.269  20.957  1.00  0.00    -0.294 OA
ENDBRANCH   1  11
BRANCH   4  14
ATOM     14  C   UNL     1      45.408 130.964  16.493  1.00  0.00    -0.018 A 
ATOM     15  C   UNL     1      45.948 131.955  15.655  1.00  0.00     0.008 A 
ATOM     16  C   UNL     1      45.646 129.611  16.195  1.00  0.00     0.008 A 
ATOM     17  C   UNL     1      46.725 131.598  14.549  1.00  0.00    -0.008 A 
ATOM     18  C   UNL     1      46.423 129.257  15.087  1.00  0.00    -0.008 A 
ATOM     19  C   UNL     1      46.964 130.251  14.265  1.00  0.00    -0.109 A 
ATOM     20  O   UNL     1      47.738 129.898  13.165  1.00  0.00    -0.872 OA
ENDBRANCH   4  14
TORSDOF 2
ENDMDL
MODEL 4
REMARK VINA RESULT:      -9.2      1.656      2.402
REMARK SMILES CC(=O)c1ccc(-c2ccc([O-])cc2)c2c[nH]nc12
REMARK SMILES IDX 4 1 5 2 6 3 7 4 15 5 16 6 17 7 18 8 19 9 2 11 1 12 3 13 8 14
REMARK SMILES IDX 9 15 14 16 10 17 13 18 11 19 12 20
REMARK H PARENT 17 10
ROOT
ATOM      1  C   UNL     1      43.045 132.031  19.763  1.00  0.00     0.045 A 
ATOM      2  C   UNL     1      42.544 132.137  18.443  1.00  0.00     0.015 A 
ATOM      3  C   UNL     1      43.338 131.783  17.331  1.00  0.00     0.010 A 
ATOM      4  C   UNL     1      44.654 131.304  17.501  1.00  0.00    -0.007 A 
ATOM      5  C   UNL     1      45.128 131.213  18.816  1.00  0.00     0.028 A 
ATOM      6  C   UNL     1      46.350 130.846  19.338  1.00  0.00     0.114 A 
ATOM      7  N   UNL     1      46.273 130.969  20.680  1.00  0.00    -0.284 N 
ATOM      8  N   UNL     1      45.070 131.405  21.034  1.00  0.00    -0.175 NA
ATOM      9  C   UNL     1      44.360 131.560  19.900  1.00  0.00     0.103 A 
ATOM     10  H   UNL     1      47.043 130.766  21.356  1.00  0.00     0.189 HD
ENDROOT
BRANCH   1  11
ATOM     11  C   UNL     1      42.220 132.406  20.945  1.00  0.00     0.162 C 
ATOM     12  C   UNL     1      42.474 131.821  22.302  1.00  0.00     0.093 C 
ATOM     13  O   UNL     1      41.280 133.238  20.819  1.00  0.00    -0.294 OA
ENDBRANCH   1  11
BRANCH   4  14
ATOM     14  C   UNL     1      45.479 130.923  16.332  1.00  0.00    -0.018 A 
ATOM     15  C   UNL     1      45.741 129.568  16.062  1.00  0.00     0.008 A 
ATOM     16  C   UNL     1      46.032 131.907  15.494  1.00  0.00     0.008 A 
ATOM     17  C   UNL     1      46.528 129.206  14.965  1.00  0.00    -0.008 A 
ATOM     18  C   UNL     1      46.820 131.541  14.398  1.00  0.00    -0.008 A 
ATOM     19  C   UNL     1      47.066 130.190  14.132  1.00  0.00    -0.109 A 
ATOM     20  O   UNL     1      47.848 129.829  13.041  1.00  0.00    -0.872 OA
ENDBRANCH   4  14
TORSDOF 2
ENDMDL
MODEL 5
REMARK VINA RESULT:      -7.8      2.049      6.477
REMARK SMILES CC(=O)c1ccc(-c2ccc([O-])cc2)c2c[nH]nc12
REMARK SMILES IDX 4 1 5 2 6 3 7 4 15 5 16 6 17 7 18 8 19 9 2 11 1 12 3 13 8 14
REMARK SMILES IDX 9 15 14 16 10 17 13 18 11 19 12 20
REMARK H PARENT 17 10
ROOT
ATOM      1  C   UNL     1      46.493 130.300  15.191  1.00  0.00     0.045 A 
ATOM      2  C   UNL     1      47.009 130.068  16.489  1.00  0.00     0.015 A 
ATOM      3  C   UNL     1      46.274 130.424  17.640  1.00  0.00     0.010 A 
ATOM      4  C   UNL     1      44.998 131.016  17.533  1.00  0.00    -0.007 A 
ATOM      5  C   UNL     1      44.512 131.240  16.239  1.00  0.00     0.028 A 
ATOM      6  C   UNL     1      43.358 131.831  15.771  1.00  0.00     0.114 A 
ATOM      7  N   UNL     1      43.409 131.814  14.422  1.00  0.00    -0.284 N 
ATOM      8  N   UNL     1      44.541 131.252  14.012  1.00  0.00    -0.175 NA
ATOM      9  C   UNL     1      45.225 130.899  15.117  1.00  0.00     0.103 A 
ATOM     10  H   UNL     1      42.679 132.193  13.779  1.00  0.00     0.189 HD
ENDROOT
BRANCH   1  11
ATOM     11  C   UNL     1      47.260 129.934  13.968  1.00  0.00     0.162 C 
ATOM     12  C   UNL     1      47.449 130.900  12.837  1.00  0.00     0.093 C 
ATOM     13  O   UNL     1      47.773 128.786  13.865  1.00  0.00    -0.294 OA
ENDBRANCH   1  11
BRANCH   4  14
ATOM     14  C   UNL     1      44.226 131.378  18.744  1.00  0.00    -0.018 A 
ATOM     15  C   UNL     1      44.790 131.205  20.021  1.00  0.00     0.008 A 
ATOM     16  C   UNL     1      42.914 131.871  18.636  1.00  0.00     0.008 A 
ATOM     17  C   UNL     1      44.060 131.536  21.166  1.00  0.00    -0.008 A 
ATOM     18  C   UNL     1      42.186 132.200  19.785  1.00  0.00    -0.008 A 
ATOM     19  C   UNL     1      42.759 132.034  21.049  1.00  0.00    -0.109 A 
ATOM     20  O   UNL     1      42.035 132.364  22.189  1.00  0.00    -0.872 OA
ENDBRANCH   4  14
TORSDOF 2
ENDMDL
MODEL 6
REMARK VINA RESULT:      -7.7      2.026      6.508
REMARK SMILES CC(=O)c1ccc(-c2ccc([O-])cc2)c2c[nH]nc12
REMARK SMILES IDX 4 1 5 2 6 3 7 4 15 5 16 6 17 7 18 8 19 9 2 11 1 12 3 13 8 14
REMARK SMILES IDX 9 15 14 16 10 17 13 18 11 19 12 20
REMARK H PARENT 17 10
ROOT
ATOM      1  C   UNL     1      46.508 130.347  15.214  1.00  0.00     0.045 A 
ATOM      2  C   UNL     1      47.028 130.098  16.507  1.00  0.00     0.015 A 
ATOM      3  C   UNL     1      46.293 130.427  17.665  1.00  0.00     0.010 A 
ATOM      4  C   UNL     1      45.011 131.009  17.571  1.00  0.00    -0.007 A 
ATOM      5  C   UNL     1      44.520 131.251  16.281  1.00  0.00     0.028 A 
ATOM      6  C   UNL     1      43.359 131.839  15.825  1.00  0.00     0.114 A 
ATOM      7  N   UNL     1      43.409 131.845  14.476  1.00  0.00    -0.284 N 
ATOM      8  N   UNL     1      44.545 131.301  14.055  1.00  0.00    -0.175 NA
ATOM      9  C   UNL     1      45.234 130.935  15.152  1.00  0.00     0.103 A 
ATOM     10  H   UNL     1      42.674 132.228  13.842  1.00  0.00     0.189 HD
ENDROOT
BRANCH   1  11
ATOM     11  C   UNL     1      47.276 130.010  13.984  1.00  0.00     0.162 C 
ATOM     12  C   UNL     1      47.473 131.004  12.880  1.00  0.00     0.093 C 
ATOM     13  O   UNL     1      47.783 128.863  13.852  1.00  0.00    -0.294 OA
ENDBRANCH   1  11
BRANCH   4  14
ATOM     14  C   UNL     1      44.237 131.342  18.789  1.00  0.00    -0.018 A 
ATOM     15  C   UNL     1      42.924 131.832  18.682  1.00  0.00     0.008 A 
ATOM     16  C   UNL     1      44.813 131.200  20.064  1.00  0.00     0.008 A 
ATOM     17  C   UNL     1      42.195 132.157  19.830  1.00  0.00    -0.008 A 
ATOM     18  C   UNL     1      44.081 131.527  21.211  1.00  0.00    -0.008 A 
ATOM     19  C   UNL     1      42.771 132.004  21.093  1.00  0.00    -0.109 A 
ATOM     20  O   UNL     1      42.045 132.327  22.234  1.00  0.00    -0.872 OA
ENDBRANCH   4  14
TORSDOF 2
ENDMDL
MODEL 7
REMARK VINA RESULT:      -7.4      2.555      6.839
REMARK SMILES CC(=O)c1ccc(-c2ccc([O-])cc2)c2c[nH]nc12
REMARK SMILES IDX 4 1 5 2 6 3 7 4 15 5 16 6 17 7 18 8 19 9 2 11 1 12 3 13 8 14
REMARK SMILES IDX 9 15 14 16 10 17 13 18 11 19 12 20
REMARK H PARENT 17 10
ROOT
ATOM      1  C   UNL     1      46.841 130.955  14.361  1.00  0.00     0.045 A 
ATOM      2  C   UNL     1      46.683 132.267  14.870  1.00  0.00     0.015 A 
ATOM      3  C   UNL     1      45.866 132.520  15.992  1.00  0.00     0.010 A 
ATOM      4  C   UNL     1      45.185 131.473  16.647  1.00  0.00    -0.007 A 
ATOM      5  C   UNL     1      45.352 130.185  16.122  1.00  0.00     0.028 A 
ATOM      6  C   UNL     1      44.810 128.965  16.466  1.00  0.00     0.114 A 
ATOM      7  N   UNL     1      45.291 128.047  15.601  1.00  0.00    -0.284 N 
ATOM      8  N   UNL     1      46.100 128.624  14.721  1.00  0.00    -0.175 NA
ATOM      9  C   UNL     1      46.143 129.935  15.028  1.00  0.00     0.103 A 
ATOM     10  H   UNL     1      45.061 127.029  15.603  1.00  0.00     0.189 HD
ENDROOT
BRANCH   1  11
ATOM     11  C   UNL     1      47.696 130.673  13.175  1.00  0.00     0.162 C 
ATOM     12  C   UNL     1      48.712 129.571  13.180  1.00  0.00     0.093 C 
ATOM     13  O   UNL     1      47.574 131.369  12.131  1.00  0.00    -0.294 OA
ENDBRANCH   1  11
BRANCH   4  14
ATOM     14  C   UNL     1      44.337 131.743  17.831  1.00  0.00    -0.018 A 
ATOM     15  C   UNL     1      44.911 131.809  19.113  1.00  0.00     0.008 A 
ATOM     16  C   UNL     1      42.948 131.909  17.694  1.00  0.00     0.008 A 
ATOM     17  C   UNL     1      44.112 132.054  20.233  1.00  0.00    -0.008 A 
ATOM     18  C   UNL     1      42.151 132.153  18.818  1.00  0.00    -0.008 A 
ATOM     19  C   UNL     1      42.733 132.227  20.087  1.00  0.00    -0.109 A 
ATOM     20  O   UNL     1      41.940 132.470  21.202  1.00  0.00    -0.872 OA
ENDBRANCH   4  14
TORSDOF 2
ENDMDL
MODEL 8
REMARK VINA RESULT:      -7.3      2.563      6.857
REMARK SMILES CC(=O)c1ccc(-c2ccc([O-])cc2)c2c[nH]nc12
REMARK SMILES IDX 4 1 5 2 6 3 7 4 15 5 16 6 17 7 18 8 19 9 2 11 1 12 3 13 8 14
REMARK SMILES IDX 9 15 14 16 10 17 13 18 11 19 12 20
REMARK H PARENT 17 10
ROOT
ATOM      1  C   UNL     1      46.835 130.949  14.361  1.00  0.00     0.045 A 
ATOM      2  C   UNL     1      46.677 132.258  14.876  1.00  0.00     0.015 A 
ATOM      3  C   UNL     1      45.859 132.506  15.999  1.00  0.00     0.010 A 
ATOM      4  C   UNL     1      45.179 131.455  16.648  1.00  0.00    -0.007 A 
ATOM      5  C   UNL     1      45.347 130.170  16.117  1.00  0.00     0.028 A 
ATOM      6  C   UNL     1      44.806 128.948  16.456  1.00  0.00     0.114 A 
ATOM      7  N   UNL     1      45.287 128.034  15.586  1.00  0.00    -0.284 N 
ATOM      8  N   UNL     1      46.097 128.616  14.709  1.00  0.00    -0.175 NA
ATOM      9  C   UNL     1      46.139 129.925  15.023  1.00  0.00     0.103 A 
ATOM     10  H   UNL     1      45.058 127.016  15.583  1.00  0.00     0.189 HD
ENDROOT
BRANCH   1  11
ATOM     11  C   UNL     1      47.691 130.674  13.174  1.00  0.00     0.162 C 
ATOM     12  C   UNL     1      48.730 129.593  13.184  1.00  0.00     0.093 C 
ATOM     13  O   UNL     1      47.551 131.357  12.123  1.00  0.00    -0.294 OA
ENDBRANCH   1  11
BRANCH   4  14
ATOM     14  C   UNL     1      44.330 131.719  17.833  1.00  0.00    -0.018 A 
ATOM     15  C   UNL     1      42.943 131.894  17.685  1.00  0.00     0.008 A 
ATOM     16  C   UNL     1      44.901 131.823  19.114  1.00  0.00     0.008 A 
ATOM     17  C   UNL     1      42.141 132.153  18.801  1.00  0.00    -0.008 A 
ATOM     18  C   UNL     1      44.095 132.083  20.228  1.00  0.00    -0.008 A 
ATOM     19  C   UNL     1      42.715 132.246  20.071  1.00  0.00    -0.109 A 
ATOM     20  O   UNL     1      41.916 132.503  21.180  1.00  0.00    -0.872 OA
ENDBRANCH   4  14
TORSDOF 2
ENDMDL
MODEL 9
REMARK VINA RESULT:      -7.1      1.728      6.348
REMARK SMILES CC(=O)c1ccc(-c2ccc([O-])cc2)c2c[nH]nc12
REMARK SMILES IDX 4 1 5 2 6 3 7 4 15 5 16 6 17 7 18 8 19 9 2 11 1 12 3 13 8 14
REMARK SMILES IDX 9 15 14 16 10 17 13 18 11 19 12 20
REMARK H PARENT 17 10
ROOT
ATOM      1  C   UNL     1      46.223 130.500  15.409  1.00  0.00     0.045 A 
ATOM      2  C   UNL     1      46.880 130.121  16.605  1.00  0.00     0.015 A 
ATOM      3  C   UNL     1      46.296 130.364  17.866  1.00  0.00     0.010 A 
ATOM      4  C   UNL     1      45.034 130.984  17.975  1.00  0.00    -0.007 A 
ATOM      5  C   UNL     1      44.405 131.354  16.779  1.00  0.00     0.028 A 
ATOM      6  C   UNL     1      43.222 132.010  16.517  1.00  0.00     0.114 A 
ATOM      7  N   UNL     1      43.114 132.137  15.177  1.00  0.00    -0.284 N 
ATOM      8  N   UNL     1      44.174 131.604  14.578  1.00  0.00    -0.175 NA
ATOM      9  C   UNL     1      44.972 131.123  15.550  1.00  0.00     0.103 A 
ATOM     10  H   UNL     1      42.326 132.594  14.669  1.00  0.00     0.189 HD
ENDROOT
BRANCH   1  11
ATOM     11  C   UNL     1      46.830 130.255  14.072  1.00  0.00     0.162 C 
ATOM     12  C   UNL     1      47.909 129.234  13.871  1.00  0.00     0.093 C 
ATOM     13  O   UNL     1      46.437 130.913  13.070  1.00  0.00    -0.294 OA
ENDBRANCH   1  11
BRANCH   4  14
ATOM     14  C   UNL     1      44.419 131.226  19.301  1.00  0.00    -0.018 A 
ATOM     15  C   UNL     1      45.072 130.801  20.472  1.00  0.00     0.008 A 
ATOM     16  C   UNL     1      43.167 131.856  19.406  1.00  0.00     0.008 A 
ATOM     17  C   UNL     1      44.490 131.019  21.724  1.00  0.00    -0.008 A 
ATOM     18  C   UNL     1      42.587 132.072  20.661  1.00  0.00    -0.008 A 
ATOM     19  C   UNL     1      43.249 131.655  21.820  1.00  0.00    -0.109 A 
ATOM     20  O   UNL     1      42.672 131.872  23.065  1.00  0.00    -0.872 OA
ENDBRANCH   4  14
TORSDOF 2
ENDMDL


