MODEL 1
REMARK VINA RESULT:      -9.7      0.000      0.000
REMARK SMILES O=C1[N-]Cc2[nH+]cc(-c3ccc4[nH]ccc4c3)cc21
REMARK SMILES IDX 1 1 2 2 3 3 4 4 5 5 6 6 7 7 8 8 18 9 19 10 9 12 10 13 17 14
REMARK SMILES IDX 11 15 16 16 12 17 15 18 13 19 14 20
REMARK H PARENT 6 11 13 21
ROOT
ATOM      1  O   UNL     1      41.590 133.047  20.414  1.00  0.00    -0.315 OA
ATOM      2  C   UNL     1      42.501 132.345  20.925  1.00  0.00     0.089 C 
ATOM      3  N   UNL     1      42.580 132.035  22.313  1.00  0.00    -0.641 NA
ATOM      4  C   UNL     1      43.774 131.203  22.512  1.00  0.00    -0.006 C 
ATOM      5  C   UNL     1      44.352 131.074  21.136  1.00  0.00     0.171 A 
ATOM      6  N   UNL     1      45.468 130.394  20.773  1.00  0.00    -0.215 N 
ATOM      7  C   UNL     1      45.857 130.375  19.462  1.00  0.00     0.315 A 
ATOM      8  C   UNL     1      45.105 131.060  18.472  1.00  0.00     0.046 A 
ATOM      9  C   UNL     1      43.946 131.764  18.867  1.00  0.00     0.031 A 
ATOM     10  C   UNL     1      43.601 131.748  20.213  1.00  0.00     0.065 A 
ATOM     11  H   UNL     1      46.031 129.888  21.492  1.00  0.00     0.453 HD
ENDROOT
BRANCH   8  12
ATOM     12  C   UNL     1      45.527 131.038  17.049  1.00  0.00    -0.012 A 
ATOM     13  C   UNL     1      44.933 131.925  16.109  1.00  0.00     0.011 A 
ATOM     14  C   UNL     1      46.525 130.133  16.613  1.00  0.00     0.019 A 
ATOM     15  C   UNL     1      45.325 131.912  14.758  1.00  0.00     0.027 A 
ATOM     16  C   UNL     1      46.887 130.149  15.270  1.00  0.00    -0.000 A 
ATOM     17  C   UNL     1      46.308 131.006  14.373  1.00  0.00     0.045 A 
ATOM     18  C   UNL     1      47.808 129.391  14.579  1.00  0.00     0.028 A 
ATOM     19  N   UNL     1      46.821 130.829  13.145  1.00  0.00    -0.361 N 
ATOM     20  C   UNL     1      47.739 129.843  13.265  1.00  0.00     0.083 A 
ATOM     21  H   UNL     1      46.566 131.344  12.272  1.00  0.00     0.166 HD
ENDBRANCH   8  12
TORSDOF 1
ENDMDL
MODEL 2
REMARK VINA RESULT:      -8.9      1.981      6.888
REMARK SMILES O=C1[N-]Cc2[nH+]cc(-c3ccc4[nH]ccc4c3)cc21
REMARK SMILES IDX 1 1 2 2 3 3 4 4 5 5 6 6 7 7 8 8 18 9 19 10 9 12 10 13 17 14
REMARK SMILES IDX 11 15 16 16 12 17 15 18 13 19 14 20
REMARK H PARENT 6 11 13 21
ROOT
ATOM      1  O   UNL     1      43.413 131.883  14.182  1.00  0.00    -0.315 OA
ATOM      2  C   UNL     1      44.464 131.357  14.632  1.00  0.00     0.089 C 
ATOM      3  N   UNL     1      45.521 130.868  13.811  1.00  0.00    -0.641 NA
ATOM      4  C   UNL     1      46.560 130.333  14.701  1.00  0.00    -0.006 C 
ATOM      5  C   UNL     1      46.004 130.560  16.074  1.00  0.00     0.171 A 
ATOM      6  N   UNL     1      46.584 130.244  17.259  1.00  0.00    -0.215 N 
ATOM      7  C   UNL     1      45.937 130.525  18.429  1.00  0.00     0.315 A 
ATOM      8  C   UNL     1      44.661 131.147  18.422  1.00  0.00     0.046 A 
ATOM      9  C   UNL     1      44.071 131.469  17.180  1.00  0.00     0.031 A 
ATOM     10  C   UNL     1      44.776 131.158  16.023  1.00  0.00     0.065 A 
ATOM     11  H   UNL     1      47.522 129.784  17.277  1.00  0.00     0.453 HD
ENDROOT
BRANCH   8  12
ATOM     12  C   UNL     1      43.958 131.454  19.693  1.00  0.00    -0.012 A 
ATOM     13  C   UNL     1      42.755 132.212  19.686  1.00  0.00     0.011 A 
ATOM     14  C   UNL     1      44.482 130.995  20.927  1.00  0.00     0.019 A 
ATOM     15  C   UNL     1      42.083 132.509  20.886  1.00  0.00     0.027 A 
ATOM     16  C   UNL     1      43.789 131.307  22.093  1.00  0.00    -0.000 A 
ATOM     17  C   UNL     1      42.631 132.038  22.074  1.00  0.00     0.045 A 
ATOM     18  C   UNL     1      44.061 131.001  23.408  1.00  0.00     0.028 A 
ATOM     19  N   UNL     1      42.155 132.209  23.318  1.00  0.00    -0.361 N 
ATOM     20  C   UNL     1      43.026 131.577  24.138  1.00  0.00     0.083 A 
ATOM     21  H   UNL     1      41.292 132.725  23.600  1.00  0.00     0.166 HD
ENDBRANCH   8  12
TORSDOF 1
ENDMDL
MODEL 3
REMARK VINA RESULT:      -8.9      1.722      2.428
REMARK SMILES O=C1[N-]Cc2[nH+]cc(-c3ccc4[nH]ccc4c3)cc21
REMARK SMILES IDX 1 1 2 2 3 3 4 4 5 5 6 6 7 7 8 8 18 9 19 10 9 12 10 13 17 14
REMARK SMILES IDX 11 15 16 16 12 17 15 18 13 19 14 20
REMARK H PARENT 6 11 13 21
ROOT
ATOM      1  O   UNL     1      44.687 131.274  21.919  1.00  0.00    -0.315 OA
ATOM      2  C   UNL     1      43.765 131.722  21.189  1.00  0.00     0.089 C 
ATOM      3  N   UNL     1      42.591 132.354  21.691  1.00  0.00    -0.641 NA
ATOM      4  C   UNL     1      41.765 132.733  20.536  1.00  0.00    -0.006 C 
ATOM      5  C   UNL     1      42.565 132.265  19.358  1.00  0.00     0.171 A 
ATOM      6  N   UNL     1      42.241 132.381  18.046  1.00  0.00    -0.215 N 
ATOM      7  C   UNL     1      43.091 131.900  17.090  1.00  0.00     0.315 A 
ATOM      8  C   UNL     1      44.315 131.279  17.454  1.00  0.00     0.046 A 
ATOM      9  C   UNL     1      44.637 131.166  18.824  1.00  0.00     0.031 A 
ATOM     10  C   UNL     1      43.733 131.673  19.750  1.00  0.00     0.065 A 
ATOM     11  H   UNL     1      41.342 132.833  17.766  1.00  0.00     0.453 HD
ENDROOT
BRANCH   8  12
ATOM     12  C   UNL     1      45.240 130.758  16.416  1.00  0.00    -0.012 A 
ATOM     13  C   UNL     1      45.508 129.365  16.325  1.00  0.00     0.011 A 
ATOM     14  C   UNL     1      45.865 131.646  15.506  1.00  0.00     0.019 A 
ATOM     15  C   UNL     1      46.383 128.861  15.345  1.00  0.00     0.027 A 
ATOM     16  C   UNL     1      46.724 131.111  14.550  1.00  0.00    -0.000 A 
ATOM     17  C   UNL     1      46.975 129.768  14.472  1.00  0.00     0.045 A 
ATOM     18  C   UNL     1      47.458 131.726  13.559  1.00  0.00     0.028 A 
ATOM     19  N   UNL     1      47.835 129.500  13.476  1.00  0.00    -0.361 N 
ATOM     20  C   UNL     1      48.133 130.694  12.914  1.00  0.00     0.083 A 
ATOM     21  H   UNL     1      48.201 128.565  13.190  1.00  0.00     0.166 HD
ENDBRANCH   8  12
TORSDOF 1
ENDMDL
MODEL 4
REMARK VINA RESULT:      -8.5      0.947      1.026
REMARK SMILES O=C1[N-]Cc2[nH+]cc(-c3ccc4[nH]ccc4c3)cc21
REMARK SMILES IDX 1 1 2 2 3 3 4 4 5 5 6 6 7 7 8 8 18 9 19 10 9 12 10 13 17 14
REMARK SMILES IDX 11 15 16 16 12 17 15 18 13 19 14 20
REMARK H PARENT 6 11 13 21
ROOT
ATOM      1  O   UNL     1      41.605 132.604  21.779  1.00  0.00    -0.315 OA
ATOM      2  C   UNL     1      42.646 131.977  22.107  1.00  0.00     0.089 C 
ATOM      3  N   UNL     1      42.986 131.651  23.451  1.00  0.00    -0.641 NA
ATOM      4  C   UNL     1      44.263 130.926  23.420  1.00  0.00    -0.006 C 
ATOM      5  C   UNL     1      44.607 130.873  21.962  1.00  0.00     0.171 A 
ATOM      6  N   UNL     1      45.699 130.302  21.396  1.00  0.00    -0.215 N 
ATOM      7  C   UNL     1      45.859 130.340  20.039  1.00  0.00     0.315 A 
ATOM      8  C   UNL     1      44.895 130.973  19.211  1.00  0.00     0.046 A 
ATOM      9  C   UNL     1      43.764 131.564  19.818  1.00  0.00     0.031 A 
ATOM     10  C   UNL     1      43.655 131.493  21.202  1.00  0.00     0.065 A 
ATOM     11  H   UNL     1      46.417 129.836  21.994  1.00  0.00     0.453 HD
ENDROOT
BRANCH   8  12
ATOM     12  C   UNL     1      45.068 131.013  17.737  1.00  0.00    -0.012 A 
ATOM     13  C   UNL     1      44.120 131.688  16.919  1.00  0.00     0.011 A 
ATOM     14  C   UNL     1      46.180 130.379  17.132  1.00  0.00     0.019 A 
ATOM     15  C   UNL     1      44.275 131.732  15.522  1.00  0.00     0.027 A 
ATOM     16  C   UNL     1      46.300 130.444  15.746  1.00  0.00    -0.000 A 
ATOM     17  C   UNL     1      45.382 131.096  14.969  1.00  0.00     0.045 A 
ATOM     18  C   UNL     1      47.259 129.925  14.904  1.00  0.00     0.028 A 
ATOM     19  N   UNL     1      45.714 131.016  13.670  1.00  0.00    -0.361 N 
ATOM     20  C   UNL     1      46.861 130.301  13.625  1.00  0.00     0.083 A 
ATOM     21  H   UNL     1      45.196 131.420  12.858  1.00  0.00     0.166 HD
ENDBRANCH   8  12
TORSDOF 1
ENDMDL
MODEL 5
REMARK VINA RESULT:      -8.1      1.535      1.999
REMARK SMILES O=C1[N-]Cc2[nH+]cc(-c3ccc4[nH]ccc4c3)cc21
REMARK SMILES IDX 1 1 2 2 3 3 4 4 5 5 6 6 7 7 8 8 18 9 19 10 9 12 10 13 17 14
REMARK SMILES IDX 11 15 16 16 12 17 15 18 13 19 14 20
REMARK H PARENT 6 11 13 21
ROOT
ATOM      1  O   UNL     1      45.613 130.983  21.973  1.00  0.00    -0.315 OA
ATOM      2  C   UNL     1      44.491 131.367  21.553  1.00  0.00     0.089 C 
ATOM      3  N   UNL     1      43.411 131.741  22.405  1.00  0.00    -0.641 NA
ATOM      4  C   UNL     1      42.283 132.124  21.545  1.00  0.00    -0.006 C 
ATOM      5  C   UNL     1      42.814 131.936  20.157  1.00  0.00     0.171 A 
ATOM      6  N   UNL     1      42.160 132.160  18.989  1.00  0.00    -0.215 N 
ATOM      7  C   UNL     1      42.797 131.940  17.800  1.00  0.00     0.315 A 
ATOM      8  C   UNL     1      44.140 131.478  17.770  1.00  0.00     0.046 A 
ATOM      9  C   UNL     1      44.805 131.250  18.994  1.00  0.00     0.031 A 
ATOM     10  C   UNL     1      44.106 131.491  20.172  1.00  0.00     0.065 A 
ATOM     11  H   UNL     1      41.171 132.496  18.998  1.00  0.00     0.453 HD
ENDROOT
BRANCH   8  12
ATOM     12  C   UNL     1      44.832 131.241  16.478  1.00  0.00    -0.012 A 
ATOM     13  C   UNL     1      44.256 131.691  15.259  1.00  0.00     0.011 A 
ATOM     14  C   UNL     1      46.074 130.561  16.449  1.00  0.00     0.019 A 
ATOM     15  C   UNL     1      44.903 131.470  14.030  1.00  0.00     0.027 A 
ATOM     16  C   UNL     1      46.685 130.361  15.215  1.00  0.00    -0.000 A 
ATOM     17  C   UNL     1      46.122 130.799  14.047  1.00  0.00     0.045 A 
ATOM     18  C   UNL     1      47.872 129.740  14.891  1.00  0.00     0.028 A 
ATOM     19  N   UNL     1      46.896 130.486  12.996  1.00  0.00    -0.361 N 
ATOM     20  C   UNL     1      47.969 129.838  13.507  1.00  0.00     0.083 A 
ATOM     21  H   UNL     1      46.713 130.696  11.990  1.00  0.00     0.166 HD
ENDBRANCH   8  12
TORSDOF 1
ENDMDL
MODEL 6
REMARK VINA RESULT:      -8.0      2.448      6.994
REMARK SMILES O=C1[N-]Cc2[nH+]cc(-c3ccc4[nH]ccc4c3)cc21
REMARK SMILES IDX 1 1 2 2 3 3 4 4 5 5 6 6 7 7 8 8 18 9 19 10 9 12 10 13 17 14
REMARK SMILES IDX 11 15 16 16 12 17 15 18 13 19 14 20
REMARK H PARENT 6 11 13 21
ROOT
ATOM      1  O   UNL     1      47.278 128.068  14.785  1.00  0.00    -0.315 OA
ATOM      2  C   UNL     1      47.229 129.288  14.477  1.00  0.00     0.089 C 
ATOM      3  N   UNL     1      47.834 129.836  13.309  1.00  0.00    -0.641 NA
ATOM      4  C   UNL     1      47.557 131.279  13.305  1.00  0.00    -0.006 C 
ATOM      5  C   UNL     1      46.756 131.491  14.554  1.00  0.00     0.171 A 
ATOM      6  N   UNL     1      46.245 132.661  15.014  1.00  0.00    -0.215 N 
ATOM      7  C   UNL     1      45.529 132.679  16.178  1.00  0.00     0.315 A 
ATOM      8  C   UNL     1      45.313 131.485  16.915  1.00  0.00     0.046 A 
ATOM      9  C   UNL     1      45.852 130.276  16.423  1.00  0.00     0.031 A 
ATOM     10  C   UNL     1      46.571 130.320  15.234  1.00  0.00     0.065 A 
ATOM     11  H   UNL     1      46.400 133.546  14.482  1.00  0.00     0.453 HD
ENDROOT
BRANCH   8  12
ATOM     12  C   UNL     1      44.534 131.504  18.179  1.00  0.00    -0.012 A 
ATOM     13  C   UNL     1      43.145 131.811  18.165  1.00  0.00     0.011 A 
ATOM     14  C   UNL     1      45.168 131.218  19.413  1.00  0.00     0.019 A 
ATOM     15  C   UNL     1      42.399 131.832  19.357  1.00  0.00     0.027 A 
ATOM     16  C   UNL     1      44.397 131.249  20.571  1.00  0.00    -0.000 A 
ATOM     17  C   UNL     1      43.061 131.545  20.546  1.00  0.00     0.045 A 
ATOM     18  C   UNL     1      44.743 131.019  21.885  1.00  0.00     0.028 A 
ATOM     19  N   UNL     1      42.542 131.514  21.784  1.00  0.00    -0.361 N 
ATOM     20  C   UNL     1      43.566 131.192  22.607  1.00  0.00     0.083 A 
ATOM     21  H   UNL     1      41.552 131.700  22.059  1.00  0.00     0.166 HD
ENDBRANCH   8  12
TORSDOF 1
ENDMDL
MODEL 7
REMARK VINA RESULT:      -8.0      2.445      7.186
REMARK SMILES O=C1[N-]Cc2[nH+]cc(-c3ccc4[nH]ccc4c3)cc21
REMARK SMILES IDX 1 1 2 2 3 3 4 4 5 5 6 6 7 7 8 8 18 9 19 10 9 12 10 13 17 14
REMARK SMILES IDX 11 15 16 16 12 17 15 18 13 19 14 20
REMARK H PARENT 6 11 13 21
ROOT
ATOM      1  O   UNL     1      48.479 129.290  14.901  1.00  0.00    -0.315 OA
ATOM      2  C   UNL     1      47.501 129.982  14.517  1.00  0.00     0.089 C 
ATOM      3  N   UNL     1      47.259 130.325  13.155  1.00  0.00    -0.641 NA
ATOM      4  C   UNL     1      46.033 131.133  13.115  1.00  0.00    -0.006 C 
ATOM      5  C   UNL     1      45.612 131.214  14.551  1.00  0.00     0.171 A 
ATOM      6  N   UNL     1      44.526 131.852  15.056  1.00  0.00    -0.215 N 
ATOM      7  C   UNL     1      44.285 131.823  16.401  1.00  0.00     0.315 A 
ATOM      8  C   UNL     1      45.159 131.132  17.281  1.00  0.00     0.046 A 
ATOM      9  C   UNL     1      46.285 130.474  16.739  1.00  0.00     0.031 A 
ATOM     10  C   UNL     1      46.479 130.538  15.364  1.00  0.00     0.065 A 
ATOM     11  H   UNL     1      43.877 132.366  14.419  1.00  0.00     0.453 HD
ENDROOT
BRANCH   8  12
ATOM     12  C   UNL     1      44.896 131.100  18.742  1.00  0.00    -0.012 A 
ATOM     13  C   UNL     1      45.807 130.456  19.623  1.00  0.00     0.011 A 
ATOM     14  C   UNL     1      43.734 131.712  19.271  1.00  0.00     0.019 A 
ATOM     15  C   UNL     1      45.567 130.419  21.009  1.00  0.00     0.027 A 
ATOM     16  C   UNL     1      43.530 131.655  20.647  1.00  0.00    -0.000 A 
ATOM     17  C   UNL     1      44.413 131.032  21.486  1.00  0.00     0.045 A 
ATOM     18  C   UNL     1      42.505 132.151  21.423  1.00  0.00     0.028 A 
ATOM     19  N   UNL     1      43.997 131.110  22.760  1.00  0.00    -0.361 N 
ATOM     20  C   UNL     1      42.830 131.794  22.727  1.00  0.00     0.083 A 
ATOM     21  H   UNL     1      44.472 130.723  23.606  1.00  0.00     0.166 HD
ENDBRANCH   8  12
TORSDOF 1
ENDMDL
MODEL 8
REMARK VINA RESULT:      -7.6      1.746      2.101
REMARK SMILES O=C1[N-]Cc2[nH+]cc(-c3ccc4[nH]ccc4c3)cc21
REMARK SMILES IDX 1 1 2 2 3 3 4 4 5 5 6 6 7 7 8 8 18 9 19 10 9 12 10 13 17 14
REMARK SMILES IDX 11 15 16 16 12 17 15 18 13 19 14 20
REMARK H PARENT 6 11 13 21
ROOT
ATOM      1  O   UNL     1      45.789 129.100  21.936  1.00  0.00    -0.315 OA
ATOM      2  C   UNL     1      44.860 129.900  21.648  1.00  0.00     0.089 C 
ATOM      3  N   UNL     1      43.846 130.301  22.565  1.00  0.00    -0.641 NA
ATOM      4  C   UNL     1      42.955 131.231  21.860  1.00  0.00    -0.006 C 
ATOM      5  C   UNL     1      43.547 131.317  20.486  1.00  0.00     0.171 A 
ATOM      6  N   UNL     1      43.096 132.056  19.441  1.00  0.00    -0.215 N 
ATOM      7  C   UNL     1      43.761 132.023  18.248  1.00  0.00     0.315 A 
ATOM      8  C   UNL     1      44.923 131.223  18.085  1.00  0.00     0.046 A 
ATOM      9  C   UNL     1      45.378 130.459  19.183  1.00  0.00     0.031 A 
ATOM     10  C   UNL     1      44.661 130.533  20.371  1.00  0.00     0.065 A 
ATOM     11  H   UNL     1      42.241 132.647  19.547  1.00  0.00     0.453 HD
ENDROOT
BRANCH   8  12
ATOM     12  C   UNL     1      45.646 131.188  16.789  1.00  0.00    -0.012 A 
ATOM     13  C   UNL     1      45.700 132.345  15.964  1.00  0.00     0.011 A 
ATOM     14  C   UNL     1      46.289 130.000  16.362  1.00  0.00     0.019 A 
ATOM     15  C   UNL     1      46.382 132.322  14.734  1.00  0.00     0.027 A 
ATOM     16  C   UNL     1      46.954 130.016  15.140  1.00  0.00    -0.000 A 
ATOM     17  C   UNL     1      47.000 131.135  14.353  1.00  0.00     0.045 A 
ATOM     18  C   UNL     1      47.651 129.023  14.485  1.00  0.00     0.028 A 
ATOM     19  N   UNL     1      47.694 130.900  13.228  1.00  0.00    -0.361 N 
ATOM     20  C   UNL     1      48.095 129.610  13.304  1.00  0.00     0.083 A 
ATOM     21  H   UNL     1      47.888 131.570  12.452  1.00  0.00     0.166 HD
ENDBRANCH   8  12
TORSDOF 1
ENDMDL
MODEL 9
REMARK VINA RESULT:      -7.6      0.828      1.353
REMARK SMILES O=C1[N-]Cc2[nH+]cc(-c3ccc4[nH]ccc4c3)cc21
REMARK SMILES IDX 1 1 2 2 3 3 4 4 5 5 6 6 7 7 8 8 18 9 19 10 9 12 10 13 17 14
REMARK SMILES IDX 11 15 16 16 12 17 15 18 13 19 14 20
REMARK H PARENT 6 11 13 21
ROOT
ATOM      1  O   UNL     1      41.423 132.980  19.960  1.00  0.00    -0.315 OA
ATOM      2  C   UNL     1      42.348 132.456  20.634  1.00  0.00     0.089 C 
ATOM      3  N   UNL     1      42.381 132.443  22.058  1.00  0.00    -0.641 NA
ATOM      4  C   UNL     1      43.609 131.746  22.465  1.00  0.00    -0.006 C 
ATOM      5  C   UNL     1      44.253 131.373  21.164  1.00  0.00     0.171 A 
ATOM      6  N   UNL     1      45.420 130.703  20.987  1.00  0.00    -0.215 N 
ATOM      7  C   UNL     1      45.867 130.439  19.723  1.00  0.00     0.315 A 
ATOM      8  C   UNL     1      45.124 130.858  18.588  1.00  0.00     0.046 A 
ATOM      9  C   UNL     1      43.912 131.555  18.790  1.00  0.00     0.031 A 
ATOM     10  C   UNL     1      43.508 131.795  20.099  1.00  0.00     0.065 A 
ATOM     11  H   UNL     1      45.977 130.392  21.814  1.00  0.00     0.453 HD
ENDROOT
BRANCH   8  12
ATOM     12  C   UNL     1      45.609 130.571  17.214  1.00  0.00    -0.012 A 
ATOM     13  C   UNL     1      45.550 129.249  16.692  1.00  0.00     0.011 A 
ATOM     14  C   UNL     1      46.136 131.611  16.411  1.00  0.00     0.019 A 
ATOM     15  C   UNL     1      46.007 128.966  15.393  1.00  0.00     0.027 A 
ATOM     16  C   UNL     1      46.579 131.293  15.130  1.00  0.00    -0.000 A 
ATOM     17  C   UNL     1      46.518 130.017  14.638  1.00  0.00     0.045 A 
ATOM     18  C   UNL     1      47.130 132.087  14.148  1.00  0.00     0.028 A 
ATOM     19  N   UNL     1      47.004 129.964  13.387  1.00  0.00    -0.361 N 
ATOM     20  C   UNL     1      47.380 131.228  13.083  1.00  0.00     0.083 A 
ATOM     21  H   UNL     1      47.080 129.124  12.773  1.00  0.00     0.166 HD
ENDBRANCH   8  12
TORSDOF 1
ENDMDL


