MODEL 1
REMARK VINA RESULT:      -6.7      0.000      0.000
REMARK SMILES Cc1cc([NH2+]N)c([O-])c(O)c1F
REMARK SMILES IDX 1 1 2 2 3 3 4 4 7 5 8 6 9 7 11 8 12 9 5 10 6 13 10 16
REMARK H PARENT 5 11 5 12 6 14 6 15 10 17
ROOT
ATOM      1  C   UNL     1      47.970 129.668  14.059  1.00  0.00     0.048 C 
ATOM      2  C   UNL     1      46.802 130.170  14.859  1.00  0.00    -0.006 A 
ATOM      3  C   UNL     1      46.759 129.977  16.248  1.00  0.00     0.075 A 
ATOM      4  C   UNL     1      45.656 130.418  17.000  1.00  0.00     0.144 A 
ATOM      5  C   UNL     1      44.597 131.078  16.346  1.00  0.00     0.003 A 
ATOM      6  O   UNL     1      43.514 131.549  17.081  1.00  0.00    -0.866 OA
ATOM      7  C   UNL     1      44.630 131.261  14.954  1.00  0.00     0.149 A 
ATOM      8  C   UNL     1      45.727 130.802  14.216  1.00  0.00     0.167 A 
ATOM      9  F   UNL     1      45.744 130.977  12.869  1.00  0.00    -0.203 F 
ENDROOT
BRANCH   4  10
ATOM     10  N   UNL     1      45.643 130.243  18.431  1.00  0.00    -0.240 N 
ATOM     11  H   UNL     1      46.537 129.814  18.770  1.00  0.00     0.376 HD
ATOM     12  H   UNL     1      44.849 129.616  18.707  1.00  0.00     0.376 HD
BRANCH  10  13
ATOM     13  N   UNL     1      45.464 131.503  19.037  1.00  0.00    -0.178 NA
ATOM     14  H   UNL     1      46.131 131.570  19.841  1.00  0.00     0.183 HD
ATOM     15  H   UNL     1      45.753 132.243  18.353  1.00  0.00     0.183 HD
ENDBRANCH  10  13
ENDBRANCH   4  10
BRANCH   7  16
ATOM     16  O   UNL     1      43.583 131.898  14.288  1.00  0.00    -0.505 OA
ATOM     17  H   UNL     1      43.730 132.713  13.706  1.00  0.00     0.293 HD
ENDBRANCH   7  16
TORSDOF 3
ENDMDL
MODEL 2
REMARK VINA RESULT:      -6.6      3.492      4.743
REMARK SMILES Cc1cc([NH2+]N)c([O-])c(O)c1F
REMARK SMILES IDX 1 1 2 2 3 3 4 4 7 5 8 6 9 7 11 8 12 9 5 10 6 13 10 16
REMARK H PARENT 5 11 5 12 6 14 6 15 10 17
ROOT
ATOM      1  C   UNL     1      44.975 131.190  21.651  1.00  0.00     0.048 C 
ATOM      2  C   UNL     1      44.695 131.252  20.176  1.00  0.00    -0.006 A 
ATOM      3  C   UNL     1      45.633 130.760  19.256  1.00  0.00     0.075 A 
ATOM      4  C   UNL     1      45.393 130.841  17.874  1.00  0.00     0.144 A 
ATOM      5  C   UNL     1      44.185 131.405  17.417  1.00  0.00     0.003 A 
ATOM      6  O   UNL     1      43.918 131.463  16.053  1.00  0.00    -0.866 OA
ATOM      7  C   UNL     1      43.249 131.910  18.335  1.00  0.00     0.149 A 
ATOM      8  C   UNL     1      43.509 131.839  19.708  1.00  0.00     0.167 A 
ATOM      9  F   UNL     1      42.601 132.338  20.586  1.00  0.00    -0.203 F 
ENDROOT
BRANCH   4  10
ATOM     10  N   UNL     1      46.350 130.300  16.943  1.00  0.00    -0.240 N 
ATOM     11  H   UNL     1      47.229 130.002  17.430  1.00  0.00     0.376 HD
ATOM     12  H   UNL     1      46.599 131.023  16.226  1.00  0.00     0.376 HD
BRANCH  10  13
ATOM     13  N   UNL     1      45.771 129.191  16.294  1.00  0.00    -0.178 NA
ATOM     14  H   UNL     1      45.359 129.526  15.392  1.00  0.00     0.183 HD
ATOM     15  H   UNL     1      46.535 128.521  16.038  1.00  0.00     0.183 HD
ENDBRANCH  10  13
ENDBRANCH   4  10
BRANCH   7  16
ATOM     16  O   UNL     1      42.055 132.486  17.900  1.00  0.00    -0.505 OA
ATOM     17  H   UNL     1      41.160 132.243  18.305  1.00  0.00     0.293 HD
ENDBRANCH   7  16
TORSDOF 3
ENDMDL
MODEL 3
REMARK VINA RESULT:      -6.4      2.308      3.082
REMARK SMILES Cc1cc([NH2+]N)c([O-])c(O)c1F
REMARK SMILES IDX 1 1 2 2 3 3 4 4 7 5 8 6 9 7 11 8 12 9 5 10 6 13 10 16
REMARK H PARENT 5 11 5 12 6 14 6 15 10 17
ROOT
ATOM      1  C   UNL     1      43.524 131.584  13.940  1.00  0.00     0.048 C 
ATOM      2  C   UNL     1      44.157 131.278  15.267  1.00  0.00    -0.006 A 
ATOM      3  C   UNL     1      43.550 131.708  16.457  1.00  0.00     0.075 A 
ATOM      4  C   UNL     1      44.151 131.452  17.702  1.00  0.00     0.144 A 
ATOM      5  C   UNL     1      45.365 130.738  17.747  1.00  0.00     0.003 A 
ATOM      6  O   UNL     1      45.955 130.448  18.973  1.00  0.00    -0.866 OA
ATOM      7  C   UNL     1      45.981 130.317  16.556  1.00  0.00     0.149 A 
ATOM      8  C   UNL     1      45.381 130.594  15.323  1.00  0.00     0.167 A 
ATOM      9  F   UNL     1      45.991 130.190  14.179  1.00  0.00    -0.203 F 
ENDROOT
BRANCH   4  10
ATOM     10  N   UNL     1      43.498 131.870  18.917  1.00  0.00    -0.240 N 
ATOM     11  H   UNL     1      44.022 132.650  19.382  1.00  0.00     0.376 HD
ATOM     12  H   UNL     1      43.438 131.066  19.586  1.00  0.00     0.376 HD
BRANCH  10  13
ATOM     13  N   UNL     1      42.194 132.302  18.601  1.00  0.00    -0.178 NA
ATOM     14  H   UNL     1      41.696 132.502  19.500  1.00  0.00     0.183 HD
ATOM     15  H   UNL     1      42.262 133.215  18.093  1.00  0.00     0.183 HD
ENDBRANCH  10  13
ENDBRANCH   4  10
BRANCH   7  16
ATOM     16  O   UNL     1      47.191 129.623  16.581  1.00  0.00    -0.505 OA
ATOM     17  H   UNL     1      47.897 129.743  15.866  1.00  0.00     0.293 HD
ENDBRANCH   7  16
TORSDOF 3
ENDMDL
MODEL 4
REMARK VINA RESULT:      -6.4      3.103      3.971
REMARK SMILES Cc1cc([NH2+]N)c([O-])c(O)c1F
REMARK SMILES IDX 1 1 2 2 3 3 4 4 7 5 8 6 9 7 11 8 12 9 5 10 6 13 10 16
REMARK H PARENT 5 11 5 12 6 14 6 15 10 17
ROOT
ATOM      1  C   UNL     1      45.929 130.642  16.896  1.00  0.00     0.048 C 
ATOM      2  C   UNL     1      45.028 131.094  18.010  1.00  0.00    -0.006 A 
ATOM      3  C   UNL     1      45.423 130.943  19.347  1.00  0.00     0.075 A 
ATOM      4  C   UNL     1      44.574 131.337  20.395  1.00  0.00     0.144 A 
ATOM      5  C   UNL     1      43.322 131.907  20.090  1.00  0.00     0.003 A 
ATOM      6  O   UNL     1      42.484 132.331  21.115  1.00  0.00    -0.866 OA
ATOM      7  C   UNL     1      42.917 132.048  18.751  1.00  0.00     0.149 A 
ATOM      8  C   UNL     1      43.766 131.636  17.719  1.00  0.00     0.167 A 
ATOM      9  F   UNL     1      43.361 131.770  16.429  1.00  0.00    -0.203 F 
ENDROOT
BRANCH   4  10
ATOM     10  N   UNL     1      45.008 131.206  21.763  1.00  0.00    -0.240 N 
ATOM     11  H   UNL     1      44.921 132.115  22.279  1.00  0.00     0.376 HD
ATOM     12  H   UNL     1      46.011 130.903  21.793  1.00  0.00     0.376 HD
BRANCH  10  13
ATOM     13  N   UNL     1      44.215 130.228  22.396  1.00  0.00    -0.178 NA
ATOM     14  H   UNL     1      43.845 130.640  23.285  1.00  0.00     0.183 HD
ATOM     15  H   UNL     1      43.381 130.037  21.791  1.00  0.00     0.183 HD
ENDBRANCH  10  13
ENDBRANCH   4  10
BRANCH   7  16
ATOM     16  O   UNL     1      41.675 132.596  18.431  1.00  0.00    -0.505 OA
ATOM     17  H   UNL     1      40.806 132.187  18.753  1.00  0.00     0.293 HD
ENDBRANCH   7  16
TORSDOF 3
ENDMDL
MODEL 5
REMARK VINA RESULT:      -6.3      3.103      4.170
REMARK SMILES Cc1cc([NH2+]N)c([O-])c(O)c1F
REMARK SMILES IDX 1 1 2 2 3 3 4 4 7 5 8 6 9 7 11 8 12 9 5 10 6 13 10 16
REMARK H PARENT 5 11 5 12 6 14 6 15 10 17
ROOT
ATOM      1  C   UNL     1      45.811 130.777  20.446  1.00  0.00     0.048 C 
ATOM      2  C   UNL     1      45.236 130.943  19.068  1.00  0.00    -0.006 A 
ATOM      3  C   UNL     1      45.923 130.448  17.950  1.00  0.00     0.075 A 
ATOM      4  C   UNL     1      45.406 130.624  16.654  1.00  0.00     0.144 A 
ATOM      5  C   UNL     1      44.175 131.289  16.489  1.00  0.00     0.003 A 
ATOM      6  O   UNL     1      43.635 131.443  15.217  1.00  0.00    -0.866 OA
ATOM      7  C   UNL     1      43.491 131.797  17.606  1.00  0.00     0.149 A 
ATOM      8  C   UNL     1      44.025 131.629  18.888  1.00  0.00     0.167 A 
ATOM      9  F   UNL     1      43.359 132.132  19.960  1.00  0.00    -0.203 F 
ENDROOT
BRANCH   4  10
ATOM     10  N   UNL     1      46.107 130.081  15.519  1.00  0.00    -0.240 N 
ATOM     11  H   UNL     1      47.145 130.131  15.652  1.00  0.00     0.376 HD
ATOM     12  H   UNL     1      45.857 130.617  14.654  1.00  0.00     0.376 HD
BRANCH  10  13
ATOM     13  N   UNL     1      45.719 128.736  15.352  1.00  0.00    -0.178 NA
ATOM     14  H   UNL     1      45.522 128.338  16.301  1.00  0.00     0.183 HD
ATOM     15  H   UNL     1      44.810 128.716  14.831  1.00  0.00     0.183 HD
ENDBRANCH  10  13
ENDBRANCH   4  10
BRANCH   7  16
ATOM     16  O   UNL     1      42.278 132.472  17.459  1.00  0.00    -0.505 OA
ATOM     17  H   UNL     1      41.416 131.990  17.237  1.00  0.00     0.293 HD
ENDBRANCH   7  16
TORSDOF 3
ENDMDL
MODEL 6
REMARK VINA RESULT:      -6.3      1.986      2.639
REMARK SMILES Cc1cc([NH2+]N)c([O-])c(O)c1F
REMARK SMILES IDX 1 1 2 2 3 3 4 4 7 5 8 6 9 7 11 8 12 9 5 10 6 13 10 16
REMARK H PARENT 5 11 5 12 6 14 6 15 10 17
ROOT
ATOM      1  C   UNL     1      45.938 130.376  15.126  1.00  0.00     0.048 C 
ATOM      2  C   UNL     1      45.333 130.759  16.446  1.00  0.00    -0.006 A 
ATOM      3  C   UNL     1      45.980 130.428  17.646  1.00  0.00     0.075 A 
ATOM      4  C   UNL     1      45.406 130.757  18.886  1.00  0.00     0.144 A 
ATOM      5  C   UNL     1      44.176 131.444  18.914  1.00  0.00     0.003 A 
ATOM      6  O   UNL     1      43.610 131.805  20.133  1.00  0.00    -0.866 OA
ATOM      7  C   UNL     1      43.518 131.766  17.715  1.00  0.00     0.149 A 
ATOM      8  C   UNL     1      44.094 131.417  16.488  1.00  0.00     0.167 A 
ATOM      9  F   UNL     1      43.445 131.726  15.335  1.00  0.00    -0.203 F 
ENDROOT
BRANCH   4  10
ATOM     10  N   UNL     1      46.100 130.441  20.108  1.00  0.00    -0.240 N 
ATOM     11  H   UNL     1      47.018 129.973  19.915  1.00  0.00     0.376 HD
ATOM     12  H   UNL     1      45.516 129.797  20.694  1.00  0.00     0.376 HD
BRANCH  10  13
ATOM     13  N   UNL     1      46.322 131.635  20.822  1.00  0.00    -0.178 NA
ATOM     14  H   UNL     1      46.336 131.402  21.843  1.00  0.00     0.183 HD
ATOM     15  H   UNL     1      47.280 131.988  20.588  1.00  0.00     0.183 HD
ENDBRANCH  10  13
ENDBRANCH   4  10
BRANCH   7  16
ATOM     16  O   UNL     1      42.293 132.432  17.725  1.00  0.00    -0.505 OA
ATOM     17  H   UNL     1      41.410 131.939  17.671  1.00  0.00     0.293 HD
ENDBRANCH   7  16
TORSDOF 3
ENDMDL
MODEL 7
REMARK VINA RESULT:      -6.2      2.602      3.635
REMARK SMILES Cc1cc([NH2+]N)c([O-])c(O)c1F
REMARK SMILES IDX 1 1 2 2 3 3 4 4 7 5 8 6 9 7 11 8 12 9 5 10 6 13 10 16
REMARK H PARENT 5 11 5 12 6 14 6 15 10 17
ROOT
ATOM      1  C   UNL     1      44.928 131.028  18.981  1.00  0.00     0.048 C 
ATOM      2  C   UNL     1      45.147 130.964  17.496  1.00  0.00    -0.006 A 
ATOM      3  C   UNL     1      46.342 130.441  16.978  1.00  0.00     0.075 A 
ATOM      4  C   UNL     1      46.567 130.405  15.591  1.00  0.00     0.144 A 
ATOM      5  C   UNL     1      45.569 130.883  14.719  1.00  0.00     0.003 A 
ATOM      6  O   UNL     1      45.764 130.825  13.343  1.00  0.00    -0.866 OA
ATOM      7  C   UNL     1      44.377 131.420  15.235  1.00  0.00     0.149 A 
ATOM      8  C   UNL     1      44.174 131.465  16.619  1.00  0.00     0.167 A 
ATOM      9  F   UNL     1      43.021 131.993  17.106  1.00  0.00    -0.203 F 
ENDROOT
BRANCH   4  10
ATOM     10  N   UNL     1      47.784 129.834  15.074  1.00  0.00    -0.240 N 
ATOM     11  H   UNL     1      48.396 129.476  15.846  1.00  0.00     0.376 HD
ATOM     12  H   UNL     1      48.319 130.557  14.536  1.00  0.00     0.376 HD
BRANCH  10  13
ATOM     13  N   UNL     1      47.451 128.772  14.208  1.00  0.00    -0.178 NA
ATOM     14  H   UNL     1      46.759 128.161  14.702  1.00  0.00     0.183 HD
ATOM     15  H   UNL     1      46.952 129.168  13.376  1.00  0.00     0.183 HD
ENDBRANCH  10  13
ENDBRANCH   4  10
BRANCH   7  16
ATOM     16  O   UNL     1      43.385 131.912  14.387  1.00  0.00    -0.505 OA
ATOM     17  H   UNL     1      43.095 131.417  13.552  1.00  0.00     0.293 HD
ENDBRANCH   7  16
TORSDOF 3
ENDMDL
MODEL 8
REMARK VINA RESULT:      -6.1      3.810      5.247
REMARK SMILES Cc1cc([NH2+]N)c([O-])c(O)c1F
REMARK SMILES IDX 1 1 2 2 3 3 4 4 7 5 8 6 9 7 11 8 12 9 5 10 6 13 10 16
REMARK H PARENT 5 11 5 12 6 14 6 15 10 17
ROOT
ATOM      1  C   UNL     1      41.945 132.629  19.588  1.00  0.00     0.048 C 
ATOM      2  C   UNL     1      43.127 132.006  18.902  1.00  0.00    -0.006 A 
ATOM      3  C   UNL     1      43.159 131.898  17.503  1.00  0.00     0.075 A 
ATOM      4  C   UNL     1      44.247 131.290  16.855  1.00  0.00     0.144 A 
ATOM      5  C   UNL     1      45.323 130.804  17.625  1.00  0.00     0.003 A 
ATOM      6  O   UNL     1      46.422 130.228  16.996  1.00  0.00    -0.866 OA
ATOM      7  C   UNL     1      45.289 130.898  19.026  1.00  0.00     0.149 A 
ATOM      8  C   UNL     1      44.191 131.491  19.659  1.00  0.00     0.167 A 
ATOM      9  F   UNL     1      44.165 131.569  21.015  1.00  0.00    -0.203 F 
ENDROOT
BRANCH   4  10
ATOM     10  N   UNL     1      44.280 131.217  15.416  1.00  0.00    -0.240 N 
ATOM     11  H   UNL     1      43.356 131.484  15.000  1.00  0.00     0.376 HD
ATOM     12  H   UNL     1      44.512 130.241  15.112  1.00  0.00     0.376 HD
BRANCH  10  13
ATOM     13  N   UNL     1      45.279 132.093  14.944  1.00  0.00    -0.178 NA
ATOM     14  H   UNL     1      46.073 132.072  15.626  1.00  0.00     0.183 HD
ATOM     15  H   UNL     1      45.654 131.712  14.043  1.00  0.00     0.183 HD
ENDBRANCH  10  13
ENDBRANCH   4  10
BRANCH   7  16
ATOM     16  O   UNL     1      46.338 130.408  19.804  1.00  0.00    -0.505 OA
ATOM     17  H   UNL     1      46.846 129.568  19.557  1.00  0.00     0.293 HD
ENDBRANCH   7  16
TORSDOF 3
ENDMDL
MODEL 9
REMARK VINA RESULT:      -6.1      3.203      3.885
REMARK SMILES Cc1cc([NH2+]N)c([O-])c(O)c1F
REMARK SMILES IDX 1 1 2 2 3 3 4 4 7 5 8 6 9 7 11 8 12 9 5 10 6 13 10 16
REMARK H PARENT 5 11 5 12 6 14 6 15 10 17
ROOT
ATOM      1  C   UNL     1      44.867 131.107  14.919  1.00  0.00     0.048 C 
ATOM      2  C   UNL     1      44.558 131.201  16.386  1.00  0.00    -0.006 A 
ATOM      3  C   UNL     1      43.330 131.723  16.820  1.00  0.00     0.075 A 
ATOM      4  C   UNL     1      43.044 131.841  18.191  1.00  0.00     0.144 A 
ATOM      5  C   UNL     1      44.000 131.410  19.133  1.00  0.00     0.003 A 
ATOM      6  O   UNL     1      43.719 131.490  20.493  1.00  0.00    -0.866 OA
ATOM      7  C   UNL     1      45.236 130.898  18.702  1.00  0.00     0.149 A 
ATOM      8  C   UNL     1      45.513 130.802  17.334  1.00  0.00     0.167 A 
ATOM      9  F   UNL     1      46.714 130.314  16.930  1.00  0.00    -0.203 F 
ENDROOT
BRANCH   4  10
ATOM     10  N   UNL     1      41.765 132.347  18.620  1.00  0.00    -0.240 N 
ATOM     11  H   UNL     1      41.190 131.596  19.071  1.00  0.00     0.376 HD
ATOM     12  H   UNL     1      41.234 132.722  17.798  1.00  0.00     0.376 HD
BRANCH  10  13
ATOM     13  N   UNL     1      41.981 133.392  19.541  1.00  0.00    -0.178 NA
ATOM     14  H   UNL     1      41.787 133.020  20.501  1.00  0.00     0.183 HD
ATOM     15  H   UNL     1      42.998 133.644  19.523  1.00  0.00     0.183 HD
ENDBRANCH  10  13
ENDBRANCH   4  10
BRANCH   7  16
ATOM     16  O   UNL     1      46.199 130.481  19.621  1.00  0.00    -0.505 OA
ATOM     17  H   UNL     1      46.479 131.055  20.407  1.00  0.00     0.293 HD
ENDBRANCH   7  16
TORSDOF 3
ENDMDL


