MODEL 1
REMARK VINA RESULT:      -4.4      0.000      0.000
REMARK SMILES C[C@@H]1CC[C@H](c2ccc3[nH+]cccc3c2)[C@@H](F)N1c1ncnc2c1CCC2
REMARK SMILES IDX 6 1 7 2 8 3 9 4 10 5 11 6 12 7 13 8 14 9 15 10 5 12 2 13
REMARK SMILES IDX 3 14 18 15 4 16 16 17 1 18 17 19 19 20 20 21 24 22 21 23
REMARK SMILES IDX 23 24 25 25 22 26 27 27 26 28
REMARK H PARENT 10 11
ROOT
ATOM      1  C   UNL     1      45.714 125.650  23.043  1.00  0.00    -0.039 A 
ATOM      2  C   UNL     1      45.280 124.320  22.893  1.00  0.00     0.011 A 
ATOM      3  C   UNL     1      46.165 123.255  23.078  1.00  0.00     0.080 A 
ATOM      4  C   UNL     1      47.503 123.500  23.417  1.00  0.00     0.210 A 
ATOM      5  N   UNL     1      48.375 122.464  23.598  1.00  0.00    -0.211 N 
ATOM      6  C   UNL     1      49.677 122.683  23.928  1.00  0.00     0.306 A 
ATOM      7  C   UNL     1      50.155 123.985  24.090  1.00  0.00     0.071 A 
ATOM      8  C   UNL     1      49.289 125.063  23.911  1.00  0.00     0.021 A 
ATOM      9  C   UNL     1      47.950 124.831  23.571  1.00  0.00     0.047 A 
ATOM     10  C   UNL     1      47.056 125.896  23.384  1.00  0.00     0.019 A 
ATOM     11  H   UNL     1      48.049 121.478  23.486  1.00  0.00     0.453 HD
ENDROOT
BRANCH   1  12
ATOM     12  C   UNL     1      44.758 126.813  22.849  1.00  0.00     0.074 C 
ATOM     13  C   UNL     1      43.614 129.491  23.452  1.00  0.00     0.083 C 
ATOM     14  C   UNL     1      42.902 128.193  23.883  1.00  0.00     0.026 C 
ATOM     15  N   UNL     1      44.552 129.213  22.354  1.00  0.00    -0.323 N 
ATOM     16  C   UNL     1      43.885 127.033  24.098  1.00  0.00     0.015 C 
ATOM     17  C   UNL     1      45.508 128.103  22.474  1.00  0.00     0.271 C 
ATOM     18  C   UNL     1      44.333 130.174  24.623  1.00  0.00     0.031 C 
ATOM     19  F   UNL     1      46.188 127.909  21.281  1.00  0.00    -0.223 F 
BRANCH  15  20
ATOM     20  C   UNL     1      44.682 130.165  21.290  1.00  0.00     0.137 A 
ATOM     21  N   UNL     1      45.805 130.186  20.516  1.00  0.00    -0.219 NA
ATOM     22  C   UNL     1      43.680 131.102  21.040  1.00  0.00     0.016 A 
ATOM     23  C   UNL     1      45.948 131.097  19.510  1.00  0.00     0.224 A 
ATOM     24  C   UNL     1      43.848 132.007  20.032  1.00  0.00     0.049 A 
ATOM     25  C   UNL     1      42.402 131.303  21.762  1.00  0.00     0.042 C 
ATOM     26  N   UNL     1      44.967 132.013  19.267  1.00  0.00    -0.241 NA
ATOM     27  C   UNL     1      42.712 132.944  19.912  1.00  0.00     0.057 C 
ATOM     28  C   UNL     1      41.764 132.516  21.053  1.00  0.00     0.011 C 
ENDBRANCH  15  20
ENDBRANCH   1  12
TORSDOF 2
ENDMDL
MODEL 2
REMARK VINA RESULT:      -4.4      1.671      2.961
REMARK SMILES C[C@@H]1CC[C@H](c2ccc3[nH+]cccc3c2)[C@@H](F)N1c1ncnc2c1CCC2
REMARK SMILES IDX 6 1 7 2 8 3 9 4 10 5 11 6 12 7 13 8 14 9 15 10 5 12 2 13
REMARK SMILES IDX 3 14 18 15 4 16 16 17 1 18 17 19 19 20 20 21 24 22 21 23
REMARK SMILES IDX 23 24 25 25 22 26 27 27 26 28
REMARK H PARENT 10 11
ROOT
ATOM      1  C   UNL     1      44.519 127.749  23.684  1.00  0.00    -0.039 A 
ATOM      2  C   UNL     1      43.787 126.786  24.404  1.00  0.00     0.011 A 
ATOM      3  C   UNL     1      44.308 125.509  24.622  1.00  0.00     0.080 A 
ATOM      4  C   UNL     1      45.574 125.169  24.126  1.00  0.00     0.210 A 
ATOM      5  N   UNL     1      46.090 123.922  24.335  1.00  0.00    -0.211 N 
ATOM      6  C   UNL     1      47.318 123.574  23.861  1.00  0.00     0.306 A 
ATOM      7  C   UNL     1      48.084 124.494  23.142  1.00  0.00     0.071 A 
ATOM      8  C   UNL     1      47.583 125.775  22.912  1.00  0.00     0.021 A 
ATOM      9  C   UNL     1      46.319 126.127  23.403  1.00  0.00     0.047 A 
ATOM     10  C   UNL     1      45.789 127.408  23.187  1.00  0.00     0.019 A 
ATOM     11  H   UNL     1      45.544 123.209  24.870  1.00  0.00     0.453 HD
ENDROOT
BRANCH   1  12
ATOM     12  C   UNL     1      43.962 129.141  23.446  1.00  0.00     0.074 C 
ATOM     13  C   UNL     1      44.139 132.082  23.042  1.00  0.00     0.083 C 
ATOM     14  C   UNL     1      43.691 131.477  24.387  1.00  0.00     0.026 C 
ATOM     15  N   UNL     1      43.959 131.101  21.961  1.00  0.00    -0.323 N 
ATOM     16  C   UNL     1      44.282 130.079  24.624  1.00  0.00     0.015 C 
ATOM     17  C   UNL     1      44.475 129.734  22.122  1.00  0.00     0.271 C 
ATOM     18  C   UNL     1      45.589 132.582  23.087  1.00  0.00     0.031 C 
ATOM     19  F   UNL     1      44.067 128.927  21.069  1.00  0.00    -0.223 F 
BRANCH  15  20
ATOM     20  C   UNL     1      43.496 131.550  20.681  1.00  0.00     0.137 A 
ATOM     21  N   UNL     1      42.282 132.160  20.562  1.00  0.00    -0.219 NA
ATOM     22  C   UNL     1      44.261 131.353  19.532  1.00  0.00     0.016 A 
ATOM     23  C   UNL     1      41.822 132.579  19.347  1.00  0.00     0.224 A 
ATOM     24  C   UNL     1      43.778 131.775  18.327  1.00  0.00     0.049 A 
ATOM     25  C   UNL     1      45.578 130.686  19.401  1.00  0.00     0.042 C 
ATOM     26  N   UNL     1      42.571 132.385  18.224  1.00  0.00    -0.241 NA
ATOM     27  C   UNL     1      44.693 131.471  17.208  1.00  0.00     0.057 C 
ATOM     28  C   UNL     1      45.867 130.734  17.886  1.00  0.00     0.011 C 
ENDBRANCH  15  20
ENDBRANCH   1  12
TORSDOF 2
ENDMDL
MODEL 3
REMARK VINA RESULT:      -4.3      2.007      7.849
REMARK SMILES C[C@@H]1CC[C@H](c2ccc3[nH+]cccc3c2)[C@@H](F)N1c1ncnc2c1CCC2
REMARK SMILES IDX 6 1 7 2 8 3 9 4 10 5 11 6 12 7 13 8 14 9 15 10 5 12 2 13
REMARK SMILES IDX 3 14 18 15 4 16 16 17 1 18 17 19 19 20 20 21 24 22 21 23
REMARK SMILES IDX 23 24 25 25 22 26 27 27 26 28
REMARK H PARENT 10 11
ROOT
ATOM      1  C   UNL     1      44.944 128.498  22.531  1.00  0.00    -0.039 A 
ATOM      2  C   UNL     1      43.799 129.098  23.088  1.00  0.00     0.011 A 
ATOM      3  C   UNL     1      43.255 130.255  22.527  1.00  0.00     0.080 A 
ATOM      4  C   UNL     1      43.844 130.836  21.396  1.00  0.00     0.210 A 
ATOM      5  N   UNL     1      43.318 131.968  20.841  1.00  0.00    -0.211 N 
ATOM      6  C   UNL     1      43.877 132.546  19.742  1.00  0.00     0.306 A 
ATOM      7  C   UNL     1      45.012 131.987  19.153  1.00  0.00     0.071 A 
ATOM      8  C   UNL     1      45.573 130.832  19.696  1.00  0.00     0.021 A 
ATOM      9  C   UNL     1      44.993 130.242  20.827  1.00  0.00     0.047 A 
ATOM     10  C   UNL     1      45.535 129.080  21.396  1.00  0.00     0.019 A 
ATOM     11  H   UNL     1      42.468 132.411  21.258  1.00  0.00     0.453 HD
ENDROOT
BRANCH   1  12
ATOM     12  C   UNL     1      45.540 127.238  23.133  1.00  0.00     0.074 C 
ATOM     13  C   UNL     1      46.026 124.310  23.318  1.00  0.00     0.083 C 
ATOM     14  C   UNL     1      45.052 125.029  24.272  1.00  0.00     0.026 C 
ATOM     15  N   UNL     1      46.969 125.277  22.734  1.00  0.00    -0.323 N 
ATOM     16  C   UNL     1      44.439 126.288  23.641  1.00  0.00     0.015 C 
ATOM     17  C   UNL     1      46.462 126.519  22.133  1.00  0.00     0.271 C 
ATOM     18  C   UNL     1      45.291 123.534  22.217  1.00  0.00     0.031 C 
ATOM     19  F   UNL     1      47.509 127.360  21.787  1.00  0.00    -0.223 F 
BRANCH  15  20
ATOM     20  C   UNL     1      48.337 124.892  22.550  1.00  0.00     0.137 A 
ATOM     21  N   UNL     1      49.319 125.448  23.315  1.00  0.00    -0.219 NA
ATOM     22  C   UNL     1      48.696 123.964  21.572  1.00  0.00     0.016 A 
ATOM     23  C   UNL     1      50.628 125.103  23.138  1.00  0.00     0.224 A 
ATOM     24  C   UNL     1      50.011 123.639  21.411  1.00  0.00     0.049 A 
ATOM     25  C   UNL     1      47.824 123.261  20.602  1.00  0.00     0.042 C 
ATOM     26  N   UNL     1      50.977 124.196  22.182  1.00  0.00    -0.241 NA
ATOM     27  C   UNL     1      50.227 122.664  20.322  1.00  0.00     0.057 C 
ATOM     28  C   UNL     1      48.810 122.423  19.761  1.00  0.00     0.011 C 
ENDBRANCH  15  20
ENDBRANCH   1  12
TORSDOF 2
ENDMDL
MODEL 4
REMARK VINA RESULT:      -4.1      4.427      7.694
REMARK SMILES C[C@@H]1CC[C@H](c2ccc3[nH+]cccc3c2)[C@@H](F)N1c1ncnc2c1CCC2
REMARK SMILES IDX 6 1 7 2 8 3 9 4 10 5 11 6 12 7 13 8 14 9 15 10 5 12 2 13
REMARK SMILES IDX 3 14 18 15 4 16 16 17 1 18 17 19 19 20 20 21 24 22 21 23
REMARK SMILES IDX 23 24 25 25 22 26 27 27 26 28
REMARK H PARENT 10 11
ROOT
ATOM      1  C   UNL     1      43.874 124.362  22.516  1.00  0.00    -0.039 A 
ATOM      2  C   UNL     1      43.560 123.119  21.936  1.00  0.00     0.011 A 
ATOM      3  C   UNL     1      42.315 122.524  22.155  1.00  0.00     0.080 A 
ATOM      4  C   UNL     1      41.359 123.162  22.957  1.00  0.00     0.210 A 
ATOM      5  N   UNL     1      40.140 122.587  23.176  1.00  0.00    -0.211 N 
ATOM      6  C   UNL     1      39.199 123.192  23.952  1.00  0.00     0.306 A 
ATOM      7  C   UNL     1      39.463 124.426  24.547  1.00  0.00     0.071 A 
ATOM      8  C   UNL     1      40.699 125.039  24.343  1.00  0.00     0.021 A 
ATOM      9  C   UNL     1      41.663 124.411  23.543  1.00  0.00     0.047 A 
ATOM     10  C   UNL     1      42.915 125.003  23.320  1.00  0.00     0.019 A 
ATOM     11  H   UNL     1      39.910 121.663  22.745  1.00  0.00     0.453 HD
ENDROOT
BRANCH   1  12
ATOM     12  C   UNL     1      45.224 125.018  22.280  1.00  0.00     0.074 C 
ATOM     13  C   UNL     1      47.987 125.838  23.013  1.00  0.00     0.083 C 
ATOM     14  C   UNL     1      46.819 126.845  23.010  1.00  0.00     0.026 C 
ATOM     15  N   UNL     1      47.656 124.678  22.172  1.00  0.00    -0.323 N 
ATOM     16  C   UNL     1      45.465 126.170  23.273  1.00  0.00     0.015 C 
ATOM     17  C   UNL     1      46.368 123.992  22.346  1.00  0.00     0.271 C 
ATOM     18  C   UNL     1      48.361 125.391  24.433  1.00  0.00     0.031 C 
ATOM     19  F   UNL     1      46.183 123.034  21.360  1.00  0.00    -0.223 F 
BRANCH  15  20
ATOM     20  C   UNL     1      48.682 124.090  21.361  1.00  0.00     0.137 A 
ATOM     21  N   UNL     1      48.372 123.131  20.443  1.00  0.00    -0.219 NA
ATOM     22  C   UNL     1      50.017 124.466  21.510  1.00  0.00     0.016 A 
ATOM     23  C   UNL     1      49.341 122.552  19.676  1.00  0.00     0.224 A 
ATOM     24  C   UNL     1      50.969 123.869  20.736  1.00  0.00     0.049 A 
ATOM     25  C   UNL     1      50.601 125.444  22.457  1.00  0.00     0.042 C 
ATOM     26  N   UNL     1      50.645 122.920  19.823  1.00  0.00    -0.241 NA
ATOM     27  C   UNL     1      52.332 124.358  21.030  1.00  0.00     0.057 C 
ATOM     28  C   UNL     1      52.117 125.372  22.174  1.00  0.00     0.011 C 
ENDBRANCH  15  20
ENDBRANCH   1  12
TORSDOF 2
ENDMDL
MODEL 5
REMARK VINA RESULT:      -4.0      4.881      7.761
REMARK SMILES C[C@@H]1CC[C@H](c2ccc3[nH+]cccc3c2)[C@@H](F)N1c1ncnc2c1CCC2
REMARK SMILES IDX 6 1 7 2 8 3 9 4 10 5 11 6 12 7 13 8 14 9 15 10 5 12 2 13
REMARK SMILES IDX 3 14 18 15 4 16 16 17 1 18 17 19 19 20 20 21 24 22 21 23
REMARK SMILES IDX 23 24 25 25 22 26 27 27 26 28
REMARK H PARENT 10 11
ROOT
ATOM      1  C   UNL     1      45.661 130.771  16.841  1.00  0.00    -0.039 A 
ATOM      2  C   UNL     1      45.008 131.711  16.022  1.00  0.00     0.011 A 
ATOM      3  C   UNL     1      45.380 131.873  14.685  1.00  0.00     0.080 A 
ATOM      4  C   UNL     1      46.412 131.098  14.140  1.00  0.00     0.210 A 
ATOM      5  N   UNL     1      46.782 131.251  12.835  1.00  0.00    -0.211 N 
ATOM      6  C   UNL     1      47.782 130.506  12.288  1.00  0.00     0.306 A 
ATOM      7  C   UNL     1      48.459 129.559  13.059  1.00  0.00     0.071 A 
ATOM      8  C   UNL     1      48.104 129.380  14.396  1.00  0.00     0.021 A 
ATOM      9  C   UNL     1      47.074 130.150  14.952  1.00  0.00     0.047 A 
ATOM     10  C   UNL     1      46.696 129.992  16.295  1.00  0.00     0.019 A 
ATOM     11  H   UNL     1      46.295 131.950  12.229  1.00  0.00     0.453 HD
ENDROOT
BRANCH   1  12
ATOM     12  C   UNL     1      45.260 130.585  18.293  1.00  0.00     0.074 C 
ATOM     13  C   UNL     1      45.356 131.156  21.210  1.00  0.00     0.083 C 
ATOM     14  C   UNL     1      46.035 129.909  20.609  1.00  0.00     0.026 C 
ATOM     15  N   UNL     1      44.321 131.660  20.295  1.00  0.00    -0.323 N 
ATOM     16  C   UNL     1      46.455 130.122  19.147  1.00  0.00     0.015 C 
ATOM     17  C   UNL     1      44.638 131.866  18.875  1.00  0.00     0.271 C 
ATOM     18  C   UNL     1      46.368 132.260  21.547  1.00  0.00     0.031 C 
ATOM     19  F   UNL     1      43.495 132.189  18.158  1.00  0.00    -0.223 F 
BRANCH  15  20
ATOM     20  C   UNL     1      43.094 132.162  20.840  1.00  0.00     0.137 A 
ATOM     21  N   UNL     1      42.234 132.879  20.060  1.00  0.00    -0.219 NA
ATOM     22  C   UNL     1      42.764 131.952  22.179  1.00  0.00     0.016 A 
ATOM     23  C   UNL     1      41.070 133.376  20.571  1.00  0.00     0.224 A 
ATOM     24  C   UNL     1      41.598 132.464  22.668  1.00  0.00     0.049 A 
ATOM     25  C   UNL     1      43.546 131.249  23.223  1.00  0.00     0.042 C 
ATOM     26  N   UNL     1      40.750 133.170  21.880  1.00  0.00    -0.241 NA
ATOM     27  C   UNL     1      41.407 132.177  24.105  1.00  0.00     0.057 C 
ATOM     28  C   UNL     1      42.685 131.404  24.495  1.00  0.00     0.011 C 
ENDBRANCH  15  20
ENDBRANCH   1  12
TORSDOF 2
ENDMDL
MODEL 6
REMARK VINA RESULT:      -4.0      1.978      2.899
REMARK SMILES C[C@@H]1CC[C@H](c2ccc3[nH+]cccc3c2)[C@@H](F)N1c1ncnc2c1CCC2
REMARK SMILES IDX 6 1 7 2 8 3 9 4 10 5 11 6 12 7 13 8 14 9 15 10 5 12 2 13
REMARK SMILES IDX 3 14 18 15 4 16 16 17 1 18 17 19 19 20 20 21 24 22 21 23
REMARK SMILES IDX 23 24 25 25 22 26 27 27 26 28
REMARK H PARENT 10 11
ROOT
ATOM      1  C   UNL     1      46.435 125.609  23.044  1.00  0.00    -0.039 A 
ATOM      2  C   UNL     1      46.580 124.734  24.137  1.00  0.00     0.011 A 
ATOM      3  C   UNL     1      47.822 124.171  24.439  1.00  0.00     0.080 A 
ATOM      4  C   UNL     1      48.944 124.472  23.656  1.00  0.00     0.210 A 
ATOM      5  N   UNL     1      50.161 123.925  23.946  1.00  0.00    -0.211 N 
ATOM      6  C   UNL     1      51.263 124.207  23.197  1.00  0.00     0.306 A 
ATOM      7  C   UNL     1      51.170 125.071  22.104  1.00  0.00     0.071 A 
ATOM      8  C   UNL     1      49.940 125.645  21.783  1.00  0.00     0.021 A 
ATOM      9  C   UNL     1      48.811 125.351  22.558  1.00  0.00     0.047 A 
ATOM     10  C   UNL     1      47.561 125.913  22.258  1.00  0.00     0.019 A 
ATOM     11  H   UNL     1      50.266 123.275  24.758  1.00  0.00     0.453 HD
ENDROOT
BRANCH   1  12
ATOM     12  C   UNL     1      45.090 126.229  22.710  1.00  0.00     0.074 C 
ATOM     13  C   UNL     1      42.261 126.978  23.240  1.00  0.00     0.083 C 
ATOM     14  C   UNL     1      42.625 125.797  22.318  1.00  0.00     0.026 C 
ATOM     15  N   UNL     1      43.404 127.896  23.361  1.00  0.00    -0.323 N 
ATOM     16  C   UNL     1      43.976 125.166  22.684  1.00  0.00     0.015 C 
ATOM     17  C   UNL     1      44.736 127.366  23.684  1.00  0.00     0.271 C 
ATOM     18  C   UNL     1      41.791 126.509  24.623  1.00  0.00     0.031 C 
ATOM     19  F   UNL     1      45.697 128.363  23.596  1.00  0.00    -0.223 F 
BRANCH  15  20
ATOM     20  C   UNL     1      43.162 129.309  23.394  1.00  0.00     0.137 A 
ATOM     21  N   UNL     1      42.224 129.829  24.235  1.00  0.00    -0.219 NA
ATOM     22  C   UNL     1      43.860 130.175  22.553  1.00  0.00     0.016 A 
ATOM     23  C   UNL     1      41.973 131.171  24.265  1.00  0.00     0.224 A 
ATOM     24  C   UNL     1      43.589 131.512  22.597  1.00  0.00     0.049 A 
ATOM     25  C   UNL     1      44.886 129.849  21.536  1.00  0.00     0.042 C 
ATOM     26  N   UNL     1      42.656 132.016  23.443  1.00  0.00    -0.241 NA
ATOM     27  C   UNL     1      44.392 132.289  21.631  1.00  0.00     0.057 C 
ATOM     28  C   UNL     1      45.231 131.215  20.906  1.00  0.00     0.011 C 
ENDBRANCH  15  20
ENDBRANCH   1  12
TORSDOF 2
ENDMDL
MODEL 7
REMARK VINA RESULT:      -4.0      4.995      8.134
REMARK SMILES C[C@@H]1CC[C@H](c2ccc3[nH+]cccc3c2)[C@@H](F)N1c1ncnc2c1CCC2
REMARK SMILES IDX 6 1 7 2 8 3 9 4 10 5 11 6 12 7 13 8 14 9 15 10 5 12 2 13
REMARK SMILES IDX 3 14 18 15 4 16 16 17 1 18 17 19 19 20 20 21 24 22 21 23
REMARK SMILES IDX 23 24 25 25 22 26 27 27 26 28
REMARK H PARENT 10 11
ROOT
ATOM      1  C   UNL     1      45.658 124.453  22.663  1.00  0.00    -0.039 A 
ATOM      2  C   UNL     1      44.998 124.859  21.488  1.00  0.00     0.011 A 
ATOM      3  C   UNL     1      43.616 124.710  21.358  1.00  0.00     0.080 A 
ATOM      4  C   UNL     1      42.864 124.153  22.401  1.00  0.00     0.210 A 
ATOM      5  N   UNL     1      41.512 124.003  22.281  1.00  0.00    -0.211 N 
ATOM      6  C   UNL     1      40.766 123.464  23.285  1.00  0.00     0.306 A 
ATOM      7  C   UNL     1      41.374 123.048  24.470  1.00  0.00     0.071 A 
ATOM      8  C   UNL     1      42.753 123.187  24.622  1.00  0.00     0.021 A 
ATOM      9  C   UNL     1      43.515 123.743  23.586  1.00  0.00     0.047 A 
ATOM     10  C   UNL     1      44.905 123.894  23.711  1.00  0.00     0.019 A 
ATOM     11  H   UNL     1      41.025 124.305  21.407  1.00  0.00     0.453 HD
ENDROOT
BRANCH   1  12
ATOM     12  C   UNL     1      47.160 124.615  22.815  1.00  0.00     0.074 C 
ATOM     13  C   UNL     1      49.895 123.766  23.617  1.00  0.00     0.083 C 
ATOM     14  C   UNL     1      49.093 124.792  24.442  1.00  0.00     0.026 C 
ATOM     15  N   UNL     1      49.370 123.699  22.245  1.00  0.00    -0.323 N 
ATOM     16  C   UNL     1      47.576 124.600  24.297  1.00  0.00     0.015 C 
ATOM     17  C   UNL     1      47.925 123.541  22.022  1.00  0.00     0.271 C 
ATOM     18  C   UNL     1      49.898 122.376  24.267  1.00  0.00     0.031 C 
ATOM     19  F   UNL     1      47.620 123.659  20.674  1.00  0.00    -0.223 F 
BRANCH  15  20
ATOM     20  C   UNL     1      50.287 123.553  21.154  1.00  0.00     0.137 A 
ATOM     21  N   UNL     1      50.005 122.708  20.122  1.00  0.00    -0.219 NA
ATOM     22  C   UNL     1      51.495 124.250  21.135  1.00  0.00     0.016 A 
ATOM     23  C   UNL     1      50.877 122.547  19.085  1.00  0.00     0.224 A 
ATOM     24  C   UNL     1      52.355 124.070  20.090  1.00  0.00     0.049 A 
ATOM     25  C   UNL     1      52.039 125.184  22.148  1.00  0.00     0.042 C 
ATOM     26  N   UNL     1      52.057 123.229  19.068  1.00  0.00    -0.241 NA
ATOM     27  C   UNL     1      53.597 124.857  20.230  1.00  0.00     0.057 C 
ATOM     28  C   UNL     1      53.422 125.575  21.585  1.00  0.00     0.011 C 
ENDBRANCH  15  20
ENDBRANCH   1  12
TORSDOF 2
ENDMDL
MODEL 8
REMARK VINA RESULT:      -3.8      3.807      7.593
REMARK SMILES C[C@@H]1CC[C@H](c2ccc3[nH+]cccc3c2)[C@@H](F)N1c1ncnc2c1CCC2
REMARK SMILES IDX 6 1 7 2 8 3 9 4 10 5 11 6 12 7 13 8 14 9 15 10 5 12 2 13
REMARK SMILES IDX 3 14 18 15 4 16 16 17 1 18 17 19 19 20 20 21 24 22 21 23
REMARK SMILES IDX 23 24 25 25 22 26 27 27 26 28
REMARK H PARENT 10 11
ROOT
ATOM      1  C   UNL     1      45.511 130.989  17.253  1.00  0.00    -0.039 A 
ATOM      2  C   UNL     1      45.987 129.674  17.405  1.00  0.00     0.011 A 
ATOM      3  C   UNL     1      46.764 129.077  16.409  1.00  0.00     0.080 A 
ATOM      4  C   UNL     1      47.081 129.785  15.242  1.00  0.00     0.210 A 
ATOM      5  N   UNL     1      47.840 129.208  14.264  1.00  0.00    -0.211 N 
ATOM      6  C   UNL     1      48.159 129.881  13.124  1.00  0.00     0.306 A 
ATOM      7  C   UNL     1      47.712 131.189  12.928  1.00  0.00     0.071 A 
ATOM      8  C   UNL     1      46.935 131.804  13.909  1.00  0.00     0.021 A 
ATOM      9  C   UNL     1      46.611 131.107  15.080  1.00  0.00     0.047 A 
ATOM     10  C   UNL     1      45.830 131.701  16.083  1.00  0.00     0.019 A 
ATOM     11  H   UNL     1      48.192 128.231  14.379  1.00  0.00     0.453 HD
ENDROOT
BRANCH   1  12
ATOM     12  C   UNL     1      44.669 131.647  18.332  1.00  0.00     0.074 C 
ATOM     13  C   UNL     1      42.342 131.877  20.170  1.00  0.00     0.083 C 
ATOM     14  C   UNL     1      42.445 132.725  18.886  1.00  0.00     0.026 C 
ATOM     15  N   UNL     1      43.675 131.397  20.567  1.00  0.00    -0.323 N 
ATOM     16  C   UNL     1      43.279 132.036  17.797  1.00  0.00     0.015 C 
ATOM     17  C   UNL     1      44.543 130.749  19.575  1.00  0.00     0.271 C 
ATOM     18  C   UNL     1      41.366 130.704  20.011  1.00  0.00     0.031 C 
ATOM     19  F   UNL     1      45.805 130.516  20.103  1.00  0.00    -0.223 F 
BRANCH  15  20
ATOM     20  C   UNL     1      44.014 131.357  21.959  1.00  0.00     0.137 A 
ATOM     21  N   UNL     1      44.256 132.510  22.645  1.00  0.00    -0.219 NA
ATOM     22  C   UNL     1      44.129 130.142  22.634  1.00  0.00     0.016 A 
ATOM     23  C   UNL     1      44.596 132.485  23.966  1.00  0.00     0.224 A 
ATOM     24  C   UNL     1      44.476 130.140  23.954  1.00  0.00     0.049 A 
ATOM     25  C   UNL     1      43.958 128.770  22.102  1.00  0.00     0.042 C 
ATOM     26  N   UNL     1      44.708 131.296  24.624  1.00  0.00    -0.241 NA
ATOM     27  C   UNL     1      44.579 128.778  24.515  1.00  0.00     0.057 C 
ATOM     28  C   UNL     1      44.269 127.863  23.312  1.00  0.00     0.011 C 
ENDBRANCH  15  20
ENDBRANCH   1  12
TORSDOF 2
ENDMDL
MODEL 9
REMARK VINA RESULT:      -3.4      1.631      2.964
REMARK SMILES C[C@@H]1CC[C@H](c2ccc3[nH+]cccc3c2)[C@@H](F)N1c1ncnc2c1CCC2
REMARK SMILES IDX 6 1 7 2 8 3 9 4 10 5 11 6 12 7 13 8 14 9 15 10 5 12 2 13
REMARK SMILES IDX 3 14 18 15 4 16 16 17 1 18 17 19 19 20 20 21 24 22 21 23
REMARK SMILES IDX 23 24 25 25 22 26 27 27 26 28
REMARK H PARENT 10 11
ROOT
ATOM      1  C   UNL     1      45.135 127.465  23.314  1.00  0.00    -0.039 A 
ATOM      2  C   UNL     1      46.427 127.453  22.758  1.00  0.00     0.011 A 
ATOM      3  C   UNL     1      47.210 126.297  22.797  1.00  0.00     0.080 A 
ATOM      4  C   UNL     1      46.715 125.128  23.392  1.00  0.00     0.210 A 
ATOM      5  N   UNL     1      47.475 123.994  23.433  1.00  0.00    -0.211 N 
ATOM      6  C   UNL     1      47.010 122.850  24.007  1.00  0.00     0.306 A 
ATOM      7  C   UNL     1      45.734 122.811  24.571  1.00  0.00     0.071 A 
ATOM      8  C   UNL     1      44.935 123.954  24.544  1.00  0.00     0.021 A 
ATOM      9  C   UNL     1      45.419 125.128  23.952  1.00  0.00     0.047 A 
ATOM     10  C   UNL     1      44.637 126.293  23.911  1.00  0.00     0.019 A 
ATOM     11  H   UNL     1      48.434 123.988  23.020  1.00  0.00     0.453 HD
ENDROOT
BRANCH   1  12
ATOM     12  C   UNL     1      44.275 128.716  23.273  1.00  0.00     0.074 C 
ATOM     13  C   UNL     1      43.769 131.644  23.404  1.00  0.00     0.083 C 
ATOM     14  C   UNL     1      43.416 130.709  24.579  1.00  0.00     0.026 C 
ATOM     15  N   UNL     1      43.877 130.871  22.158  1.00  0.00    -0.323 N 
ATOM     16  C   UNL     1      44.309 129.461  24.621  1.00  0.00     0.015 C 
ATOM     17  C   UNL     1      44.694 129.649  22.124  1.00  0.00     0.271 C 
ATOM     18  C   UNL     1      45.056 132.438  23.665  1.00  0.00     0.031 C 
ATOM     19  F   UNL     1      44.538 128.987  20.915  1.00  0.00    -0.223 F 
BRANCH  15  20
ATOM     20  C   UNL     1      43.380 131.440  20.940  1.00  0.00     0.137 A 
ATOM     21  N   UNL     1      42.145 132.016  20.901  1.00  0.00    -0.219 NA
ATOM     22  C   UNL     1      44.134 131.395  19.767  1.00  0.00     0.016 A 
ATOM     23  C   UNL     1      41.653 132.548  19.744  1.00  0.00     0.224 A 
ATOM     24  C   UNL     1      43.619 131.927  18.621  1.00  0.00     0.049 A 
ATOM     25  C   UNL     1      45.470 130.793  19.550  1.00  0.00     0.042 C 
ATOM     26  N   UNL     1      42.391 132.503  18.599  1.00  0.00    -0.241 NA
ATOM     27  C   UNL     1      44.527 131.779  17.465  1.00  0.00     0.057 C 
ATOM     28  C   UNL     1      45.735 131.014  18.046  1.00  0.00     0.011 C 
ENDBRANCH  15  20
ENDBRANCH   1  12
TORSDOF 2
ENDMDL


