MODEL 1
REMARK VINA RESULT:      -0.7      0.000      0.000
REMARK SMILES Cc1ccc(-c2ccc(/N=C(\O)c3cccc(C)c3)c(C(=O)[N-][C@@H](C)[C@H](C)O)c2)cc1
REMARK SMILES IDX 21 1 22 2 20 3 9 4 8 5 7 6 29 7 6 8 10 9 11 10 12 11 13 13
REMARK SMILES IDX 14 14 19 15 15 16 17 17 16 18 18 19 5 20 4 21 30 22 3 23
REMARK SMILES IDX 31 24 2 25 1 26 23 27 24 28 25 29 26 30 27 31 28 32
REMARK H PARENT 12 12 28 33
ROOT
ATOM      1  C   UNL     1      45.043 132.501  20.125  1.00  0.00     0.084 C 
ATOM      2  O   UNL     1      45.453 133.657  19.824  1.00  0.00    -0.315 OA
ENDROOT
BRANCH   1   3
ATOM      3  C   UNL     1      44.962 132.091  21.556  1.00  0.00     0.026 A 
ATOM      4  C   UNL     1      45.687 132.754  22.580  1.00  0.00     0.076 A 
ATOM      5  C   UNL     1      45.613 132.271  23.899  1.00  0.00     0.030 A 
ATOM      6  C   UNL     1      44.798 131.188  24.219  1.00  0.00     0.011 A 
ATOM      7  C   UNL     1      44.135 131.002  21.901  1.00  0.00     0.021 A 
ATOM      8  C   UNL     1      44.046 130.544  23.226  1.00  0.00    -0.018 A 
BRANCH   4   9
ATOM      9  N   UNL     1      46.543 133.862  22.254  1.00  0.00    -0.213 NA
BRANCH   9  10
ATOM     10  C   UNL     1      47.814 133.817  21.978  1.00  0.00     0.218 C 
BRANCH  10  11
ATOM     11  O   UNL     1      48.479 132.589  21.928  1.00  0.00    -0.493 OA
ATOM     12  H   UNL     1      48.041 131.744  21.585  1.00  0.00     0.295 HD
ENDBRANCH  10  11
BRANCH  10  13
ATOM     13  C   UNL     1      48.546 135.090  21.758  1.00  0.00     0.037 A 
ATOM     14  C   UNL     1      49.747 135.343  22.446  1.00  0.00     0.014 A 
ATOM     15  C   UNL     1      48.072 136.049  20.843  1.00  0.00     0.017 A 
ATOM     16  C   UNL     1      50.446 136.535  22.241  1.00  0.00     0.001 A 
ATOM     17  C   UNL     1      48.782 137.241  20.623  1.00  0.00    -0.050 A 
ATOM     18  C   UNL     1      49.962 137.485  21.341  1.00  0.00     0.003 A 
ATOM     19  C   UNL     1      48.250 138.272  19.672  1.00  0.00     0.044 C 
ENDBRANCH  10  13
ENDBRANCH   9  10
ENDBRANCH   4   9
BRANCH   8  20
ATOM     20  C   UNL     1      43.181 129.384  23.569  1.00  0.00    -0.018 A 
ATOM     21  C   UNL     1      43.748 128.129  23.858  1.00  0.00     0.009 A 
ATOM     22  C   UNL     1      41.781 129.525  23.614  1.00  0.00     0.009 A 
ATOM     23  C   UNL     1      42.935 127.041  24.188  1.00  0.00     0.004 A 
ATOM     24  C   UNL     1      40.969 128.436  23.945  1.00  0.00     0.004 A 
ATOM     25  C   UNL     1      41.540 127.184  24.220  1.00  0.00    -0.051 A 
ATOM     26  C   UNL     1      40.670 126.030  24.621  1.00  0.00     0.044 C 
ENDBRANCH   8  20
ENDBRANCH   1   3
BRANCH   1  27
ATOM     27  N   UNL     1      44.672 131.599  19.075  1.00  0.00    -0.645 NA
BRANCH  27  28
ATOM     28  C   UNL     1      45.617 130.908  18.187  1.00  0.00    -0.081 C 
ATOM     29  C   UNL     1      46.011 129.549  18.780  1.00  0.00    -0.011 C 
BRANCH  28  30
ATOM     30  C   UNL     1      45.098 130.785  16.731  1.00  0.00     0.096 C 
ATOM     31  C   UNL     1      46.199 131.109  15.715  1.00  0.00     0.037 C 
BRANCH  30  32
ATOM     32  O   UNL     1      43.996 131.629  16.502  1.00  0.00    -0.395 OA
ATOM     33  H   UNL     1      43.350 131.464  17.235  1.00  0.00     0.210 HD
ENDBRANCH  30  32
ENDBRANCH  28  30
ENDBRANCH  27  28
ENDBRANCH   1  27
TORSDOF 10
ENDMDL
MODEL 2
REMARK VINA RESULT:      -0.5      1.833      7.984
REMARK SMILES Cc1ccc(-c2ccc(/N=C(\O)c3cccc(C)c3)c(C(=O)[N-][C@@H](C)[C@H](C)O)c2)cc1
REMARK SMILES IDX 21 1 22 2 20 3 9 4 8 5 7 6 29 7 6 8 10 9 11 10 12 11 13 13
REMARK SMILES IDX 14 14 19 15 15 16 17 17 16 18 18 19 5 20 4 21 30 22 3 23
REMARK SMILES IDX 31 24 2 25 1 26 23 27 24 28 25 29 26 30 27 31 28 32
REMARK H PARENT 12 12 28 33
ROOT
ATOM      1  C   UNL     1      45.535 130.412  19.784  1.00  0.00     0.084 C 
ATOM      2  O   UNL     1      46.182 129.335  19.919  1.00  0.00    -0.315 OA
ENDROOT
BRANCH   1   3
ATOM      3  C   UNL     1      45.545 131.426  20.877  1.00  0.00     0.026 A 
ATOM      4  C   UNL     1      44.596 131.417  21.932  1.00  0.00     0.076 A 
ATOM      5  C   UNL     1      44.625 132.443  22.893  1.00  0.00     0.030 A 
ATOM      6  C   UNL     1      45.603 133.435  22.851  1.00  0.00     0.011 A 
ATOM      7  C   UNL     1      46.533 132.432  20.856  1.00  0.00     0.021 A 
ATOM      8  C   UNL     1      46.570 133.438  21.836  1.00  0.00    -0.018 A 
BRANCH   4   9
ATOM      9  N   UNL     1      43.574 130.406  21.972  1.00  0.00    -0.213 NA
BRANCH   9  10
ATOM     10  C   UNL     1      42.927 129.986  23.021  1.00  0.00     0.218 C 
BRANCH  10  11
ATOM     11  O   UNL     1      42.100 130.859  23.732  1.00  0.00    -0.493 OA
ATOM     12  H   UNL     1      42.362 131.254  24.626  1.00  0.00     0.295 HD
ENDBRANCH  10  11
BRANCH  10  13
ATOM     13  C   UNL     1      43.115 128.582  23.465  1.00  0.00     0.037 A 
ATOM     14  C   UNL     1      42.017 127.704  23.519  1.00  0.00     0.014 A 
ATOM     15  C   UNL     1      44.391 128.095  23.808  1.00  0.00     0.017 A 
ATOM     16  C   UNL     1      42.185 126.380  23.928  1.00  0.00     0.001 A 
ATOM     17  C   UNL     1      44.564 126.759  24.204  1.00  0.00    -0.050 A 
ATOM     18  C   UNL     1      43.451 125.910  24.279  1.00  0.00     0.003 A 
ATOM     19  C   UNL     1      45.923 126.260  24.602  1.00  0.00     0.044 C 
ENDBRANCH  10  13
ENDBRANCH   9  10
ENDBRANCH   4   9
BRANCH   8  20
ATOM     20  C   UNL     1      47.610 134.500  21.790  1.00  0.00    -0.018 A 
ATOM     21  C   UNL     1      48.919 134.240  22.235  1.00  0.00     0.009 A 
ATOM     22  C   UNL     1      47.302 135.781  21.294  1.00  0.00     0.009 A 
ATOM     23  C   UNL     1      49.898 135.236  22.183  1.00  0.00     0.004 A 
ATOM     24  C   UNL     1      48.283 136.776  21.242  1.00  0.00     0.004 A 
ATOM     25  C   UNL     1      49.583 136.514  21.699  1.00  0.00    -0.051 A 
ATOM     26  C   UNL     1      50.645 137.570  21.598  1.00  0.00     0.044 C 
ENDBRANCH   8  20
ENDBRANCH   1   3
BRANCH   1  27
ATOM     27  N   UNL     1      44.793 130.631  18.578  1.00  0.00    -0.645 NA
BRANCH  27  28
ATOM     28  C   UNL     1      45.324 130.451  17.220  1.00  0.00    -0.081 C 
ATOM     29  C   UNL     1      45.103 129.008  16.746  1.00  0.00    -0.011 C 
BRANCH  28  30
ATOM     30  C   UNL     1      44.769 131.490  16.211  1.00  0.00     0.096 C 
ATOM     31  C   UNL     1      45.891 132.346  15.614  1.00  0.00     0.037 C 
BRANCH  30  32
ATOM     32  O   UNL     1      43.814 132.332  16.810  1.00  0.00    -0.395 OA
ATOM     33  H   UNL     1      43.344 132.803  16.076  1.00  0.00     0.210 HD
ENDBRANCH  30  32
ENDBRANCH  28  30
ENDBRANCH  27  28
ENDBRANCH   1  27
TORSDOF 10
ENDMDL
MODEL 3
REMARK VINA RESULT:       0.2      4.329      8.725
REMARK SMILES Cc1ccc(-c2ccc(/N=C(\O)c3cccc(C)c3)c(C(=O)[N-][C@@H](C)[C@H](C)O)c2)cc1
REMARK SMILES IDX 21 1 22 2 20 3 9 4 8 5 7 6 29 7 6 8 10 9 11 10 12 11 13 13
REMARK SMILES IDX 14 14 19 15 15 16 17 17 16 18 18 19 5 20 4 21 30 22 3 23
REMARK SMILES IDX 31 24 2 25 1 26 23 27 24 28 25 29 26 30 27 31 28 32
REMARK H PARENT 12 12 28 33
ROOT
ATOM      1  C   UNL     1      42.953 132.107  20.213  1.00  0.00     0.084 C 
ATOM      2  O   UNL     1      42.054 132.402  19.377  1.00  0.00    -0.315 OA
ENDROOT
BRANCH   1   3
ATOM      3  C   UNL     1      44.120 131.282  19.788  1.00  0.00     0.026 A 
ATOM      4  C   UNL     1      44.813 130.425  20.681  1.00  0.00     0.076 A 
ATOM      5  C   UNL     1      45.947 129.727  20.226  1.00  0.00     0.030 A 
ATOM      6  C   UNL     1      46.363 129.827  18.900  1.00  0.00     0.011 A 
ATOM      7  C   UNL     1      44.551 131.363  18.447  1.00  0.00     0.021 A 
ATOM      8  C   UNL     1      45.668 130.640  17.995  1.00  0.00    -0.018 A 
BRANCH   4   9
ATOM      9  N   UNL     1      44.399 130.330  22.055  1.00  0.00    -0.213 NA
BRANCH   9  10
ATOM     10  C   UNL     1      43.616 129.432  22.578  1.00  0.00     0.218 C 
BRANCH  10  11
ATOM     11  O   UNL     1      42.297 129.756  22.905  1.00  0.00    -0.493 OA
ATOM     12  H   UNL     1      42.038 130.164  23.794  1.00  0.00     0.295 HD
ENDBRANCH  10  11
BRANCH  10  13
ATOM     13  C   UNL     1      44.160 128.078  22.853  1.00  0.00     0.037 A 
ATOM     14  C   UNL     1      45.536 127.825  22.698  1.00  0.00     0.014 A 
ATOM     15  C   UNL     1      43.324 127.038  23.300  1.00  0.00     0.017 A 
ATOM     16  C   UNL     1      46.058 126.557  22.962  1.00  0.00     0.001 A 
ATOM     17  C   UNL     1      43.851 125.767  23.582  1.00  0.00    -0.050 A 
ATOM     18  C   UNL     1      45.219 125.528  23.392  1.00  0.00     0.003 A 
ATOM     19  C   UNL     1      42.945 124.655  24.024  1.00  0.00     0.044 C 
ENDBRANCH  10  13
ENDBRANCH   9  10
ENDBRANCH   4   9
BRANCH   8  20
ATOM     20  C   UNL     1      46.117 130.750  16.581  1.00  0.00    -0.018 A 
ATOM     21  C   UNL     1      46.019 131.973  15.892  1.00  0.00     0.009 A 
ATOM     22  C   UNL     1      46.651 129.632  15.912  1.00  0.00     0.009 A 
ATOM     23  C   UNL     1      46.449 132.077  14.566  1.00  0.00     0.004 A 
ATOM     24  C   UNL     1      47.082 129.739  14.586  1.00  0.00     0.004 A 
ATOM     25  C   UNL     1      46.971 130.958  13.901  1.00  0.00    -0.051 A 
ATOM     26  C   UNL     1      47.477 131.081  12.494  1.00  0.00     0.044 C 
ENDBRANCH   8  20
ENDBRANCH   1   3
BRANCH   1  27
ATOM     27  N   UNL     1      42.825 132.565  21.565  1.00  0.00    -0.645 NA
BRANCH  27  28
ATOM     28  C   UNL     1      41.653 133.266  22.107  1.00  0.00    -0.081 C 
ATOM     29  C   UNL     1      40.586 133.445  21.019  1.00  0.00    -0.011 C 
BRANCH  28  30
ATOM     30  C   UNL     1      41.083 132.593  23.382  1.00  0.00     0.096 C 
ATOM     31  C   UNL     1      39.930 133.409  23.978  1.00  0.00     0.037 C 
BRANCH  30  32
ATOM     32  O   UNL     1      42.077 132.415  24.361  1.00  0.00    -0.395 OA
ATOM     33  H   UNL     1      42.506 133.298  24.500  1.00  0.00     0.210 HD
ENDBRANCH  30  32
ENDBRANCH  28  30
ENDBRANCH  27  28
ENDBRANCH   1  27
TORSDOF 10
ENDMDL
MODEL 4
REMARK VINA RESULT:       0.3      2.710      7.626
REMARK SMILES Cc1ccc(-c2ccc(/N=C(\O)c3cccc(C)c3)c(C(=O)[N-][C@@H](C)[C@H](C)O)c2)cc1
REMARK SMILES IDX 21 1 22 2 20 3 9 4 8 5 7 6 29 7 6 8 10 9 11 10 12 11 13 13
REMARK SMILES IDX 14 14 19 15 15 16 17 17 16 18 18 19 5 20 4 21 30 22 3 23
REMARK SMILES IDX 31 24 2 25 1 26 23 27 24 28 25 29 26 30 27 31 28 32
REMARK H PARENT 12 12 28 33
ROOT
ATOM      1  C   UNL     1      46.312 132.954  21.168  1.00  0.00     0.084 C 
ATOM      2  O   UNL     1      45.556 133.965  21.156  1.00  0.00    -0.315 OA
ENDROOT
BRANCH   1   3
ATOM      3  C   UNL     1      45.965 131.757  20.349  1.00  0.00     0.026 A 
ATOM      4  C   UNL     1      45.391 130.589  20.913  1.00  0.00     0.076 A 
ATOM      5  C   UNL     1      45.151 129.473  20.091  1.00  0.00     0.030 A 
ATOM      6  C   UNL     1      45.420 129.521  18.725  1.00  0.00     0.011 A 
ATOM      7  C   UNL     1      46.222 131.790  18.963  1.00  0.00     0.021 A 
ATOM      8  C   UNL     1      45.954 130.680  18.144  1.00  0.00    -0.018 A 
BRANCH   4   9
ATOM      9  N   UNL     1      45.126 130.527  22.325  1.00  0.00    -0.213 NA
BRANCH   9  10
ATOM     10  C   UNL     1      44.230 131.202  22.986  1.00  0.00     0.218 C 
BRANCH  10  11
ATOM     11  O   UNL     1      44.317 131.311  24.376  1.00  0.00    -0.493 OA
ATOM     12  H   UNL     1      45.129 131.009  24.898  1.00  0.00     0.295 HD
ENDBRANCH  10  11
BRANCH  10  13
ATOM     13  C   UNL     1      43.102 131.816  22.241  1.00  0.00     0.037 A 
ATOM     14  C   UNL     1      42.063 132.462  22.937  1.00  0.00     0.014 A 
ATOM     15  C   UNL     1      43.064 131.792  20.834  1.00  0.00     0.017 A 
ATOM     16  C   UNL     1      41.001 133.048  22.245  1.00  0.00     0.001 A 
ATOM     17  C   UNL     1      42.005 132.396  20.136  1.00  0.00    -0.050 A 
ATOM     18  C   UNL     1      40.965 133.007  20.851  1.00  0.00     0.003 A 
ATOM     19  C   UNL     1      41.956 132.334  18.637  1.00  0.00     0.044 C 
ENDBRANCH  10  13
ENDBRANCH   9  10
ENDBRANCH   4   9
BRANCH   8  20
ATOM     20  C   UNL     1      46.246 130.727  16.687  1.00  0.00    -0.018 A 
ATOM     21  C   UNL     1      46.037 131.910  15.953  1.00  0.00     0.009 A 
ATOM     22  C   UNL     1      46.741 129.591  16.020  1.00  0.00     0.009 A 
ATOM     23  C   UNL     1      46.320 131.956  14.585  1.00  0.00     0.004 A 
ATOM     24  C   UNL     1      47.025 129.640  14.652  1.00  0.00     0.004 A 
ATOM     25  C   UNL     1      46.803 130.818  13.924  1.00  0.00    -0.051 A 
ATOM     26  C   UNL     1      47.152 130.881  12.465  1.00  0.00     0.044 C 
ENDBRANCH   8  20
ENDBRANCH   1   3
BRANCH   1  27
ATOM     27  N   UNL     1      47.490 132.976  21.984  1.00  0.00    -0.645 NA
BRANCH  27  28
ATOM     28  C   UNL     1      48.056 134.178  22.611  1.00  0.00    -0.081 C 
ATOM     29  C   UNL     1      49.108 133.789  23.659  1.00  0.00    -0.011 C 
BRANCH  28  30
ATOM     30  C   UNL     1      48.604 135.197  21.579  1.00  0.00     0.096 C 
ATOM     31  C   UNL     1      49.923 135.818  22.052  1.00  0.00     0.037 C 
BRANCH  30  32
ATOM     32  O   UNL     1      47.676 136.222  21.323  1.00  0.00    -0.395 OA
ATOM     33  H   UNL     1      47.485 136.662  22.190  1.00  0.00     0.210 HD
ENDBRANCH  30  32
ENDBRANCH  28  30
ENDBRANCH  27  28
ENDBRANCH   1  27
TORSDOF 10
ENDMDL
MODEL 5
REMARK VINA RESULT:       0.5      2.672      7.710
REMARK SMILES Cc1ccc(-c2ccc(/N=C(\O)c3cccc(C)c3)c(C(=O)[N-][C@@H](C)[C@H](C)O)c2)cc1
REMARK SMILES IDX 21 1 22 2 20 3 9 4 8 5 7 6 29 7 6 8 10 9 11 10 12 11 13 13
REMARK SMILES IDX 14 14 19 15 15 16 17 17 16 18 18 19 5 20 4 21 30 22 3 23
REMARK SMILES IDX 31 24 2 25 1 26 23 27 24 28 25 29 26 30 27 31 28 32
REMARK H PARENT 12 12 28 33
ROOT
ATOM      1  C   UNL     1      46.315 133.115  21.163  1.00  0.00     0.084 C 
ATOM      2  O   UNL     1      45.998 134.259  20.731  1.00  0.00    -0.315 OA
ENDROOT
BRANCH   1   3
ATOM      3  C   UNL     1      45.959 131.900  20.376  1.00  0.00     0.026 A 
ATOM      4  C   UNL     1      45.381 130.750  20.973  1.00  0.00     0.076 A 
ATOM      5  C   UNL     1      45.131 129.614  20.181  1.00  0.00     0.030 A 
ATOM      6  C   UNL     1      45.395 129.626  18.813  1.00  0.00     0.011 A 
ATOM      7  C   UNL     1      46.210 131.895  18.989  1.00  0.00     0.021 A 
ATOM      8  C   UNL     1      45.932 130.766  18.201  1.00  0.00    -0.018 A 
BRANCH   4   9
ATOM      9  N   UNL     1      45.121 130.726  22.387  1.00  0.00    -0.213 NA
BRANCH   9  10
ATOM     10  C   UNL     1      43.986 130.961  22.980  1.00  0.00     0.218 C 
BRANCH  10  11
ATOM     11  O   UNL     1      43.757 130.481  24.272  1.00  0.00    -0.493 OA
ATOM     12  H   UNL     1      44.160 130.910  25.095  1.00  0.00     0.295 HD
ENDBRANCH  10  11
BRANCH  10  13
ATOM     13  C   UNL     1      42.935 131.710  22.247  1.00  0.00     0.037 A 
ATOM     14  C   UNL     1      41.952 132.426  22.955  1.00  0.00     0.014 A 
ATOM     15  C   UNL     1      42.917 131.744  20.840  1.00  0.00     0.017 A 
ATOM     16  C   UNL     1      40.963 133.139  22.274  1.00  0.00     0.001 A 
ATOM     17  C   UNL     1      41.934 132.474  20.153  1.00  0.00    -0.050 A 
ATOM     18  C   UNL     1      40.947 133.156  20.879  1.00  0.00     0.003 A 
ATOM     19  C   UNL     1      41.904 132.475  18.653  1.00  0.00     0.044 C 
ENDBRANCH  10  13
ENDBRANCH   9  10
ENDBRANCH   4   9
BRANCH   8  20
ATOM     20  C   UNL     1      46.219 130.774  16.741  1.00  0.00    -0.018 A 
ATOM     21  C   UNL     1      45.875 131.886  15.951  1.00  0.00     0.009 A 
ATOM     22  C   UNL     1      46.843 129.671  16.129  1.00  0.00     0.009 A 
ATOM     23  C   UNL     1      46.152 131.896  14.580  1.00  0.00     0.004 A 
ATOM     24  C   UNL     1      47.121 129.683  14.759  1.00  0.00     0.004 A 
ATOM     25  C   UNL     1      46.764 130.790  13.974  1.00  0.00    -0.051 A 
ATOM     26  C   UNL     1      47.106 130.819  12.513  1.00  0.00     0.044 C 
ENDBRANCH   8  20
ENDBRANCH   1   3
BRANCH   1  27
ATOM     27  N   UNL     1      47.007 133.011  22.413  1.00  0.00    -0.645 NA
BRANCH  27  28
ATOM     28  C   UNL     1      47.489 134.151  23.205  1.00  0.00    -0.081 C 
ATOM     29  C   UNL     1      46.788 134.187  24.570  1.00  0.00    -0.011 C 
BRANCH  28  30
ATOM     30  C   UNL     1      49.033 134.186  23.337  1.00  0.00     0.096 C 
ATOM     31  C   UNL     1      49.647 135.271  22.446  1.00  0.00     0.037 C 
BRANCH  30  32
ATOM     32  O   UNL     1      49.607 132.943  23.015  1.00  0.00    -0.395 OA
ATOM     33  H   UNL     1      49.759 132.465  23.869  1.00  0.00     0.210 HD
ENDBRANCH  30  32
ENDBRANCH  28  30
ENDBRANCH  27  28
ENDBRANCH   1  27
TORSDOF 10
ENDMDL
MODEL 6
REMARK VINA RESULT:       0.6      1.223      2.001
REMARK SMILES Cc1ccc(-c2ccc(/N=C(\O)c3cccc(C)c3)c(C(=O)[N-][C@@H](C)[C@H](C)O)c2)cc1
REMARK SMILES IDX 21 1 22 2 20 3 9 4 8 5 7 6 29 7 6 8 10 9 11 10 12 11 13 13
REMARK SMILES IDX 14 14 19 15 15 16 17 17 16 18 18 19 5 20 4 21 30 22 3 23
REMARK SMILES IDX 31 24 2 25 1 26 23 27 24 28 25 29 26 30 27 31 28 32
REMARK H PARENT 12 12 28 33
ROOT
ATOM      1  C   UNL     1      46.136 130.633  19.531  1.00  0.00     0.084 C 
ATOM      2  O   UNL     1      47.149 129.879  19.490  1.00  0.00    -0.315 OA
ENDROOT
BRANCH   1   3
ATOM      3  C   UNL     1      45.452 130.887  20.832  1.00  0.00     0.026 A 
ATOM      4  C   UNL     1      45.639 132.084  21.569  1.00  0.00     0.076 A 
ATOM      5  C   UNL     1      45.013 132.228  22.821  1.00  0.00     0.030 A 
ATOM      6  C   UNL     1      44.173 131.233  23.317  1.00  0.00     0.011 A 
ATOM      7  C   UNL     1      44.592 129.896  21.346  1.00  0.00     0.021 A 
ATOM      8  C   UNL     1      43.948 130.059  22.585  1.00  0.00    -0.018 A 
BRANCH   4   9
ATOM      9  N   UNL     1      46.518 133.107  21.070  1.00  0.00    -0.213 NA
BRANCH   9  10
ATOM     10  C   UNL     1      47.682 133.443  21.547  1.00  0.00     0.218 C 
BRANCH  10  11
ATOM     11  O   UNL     1      48.430 132.522  22.285  1.00  0.00    -0.493 OA
ATOM     12  H   UNL     1      48.899 131.733  21.859  1.00  0.00     0.295 HD
ENDBRANCH  10  11
BRANCH  10  13
ATOM     13  C   UNL     1      48.176 134.825  21.325  1.00  0.00     0.037 A 
ATOM     14  C   UNL     1      47.415 135.735  20.567  1.00  0.00     0.014 A 
ATOM     15  C   UNL     1      49.391 135.260  21.888  1.00  0.00     0.017 A 
ATOM     16  C   UNL     1      47.868 137.039  20.358  1.00  0.00     0.001 A 
ATOM     17  C   UNL     1      49.839 136.576  21.694  1.00  0.00    -0.050 A 
ATOM     18  C   UNL     1      49.080 137.457  20.910  1.00  0.00     0.003 A 
ATOM     19  C   UNL     1      51.153 137.019  22.269  1.00  0.00     0.044 C 
ENDBRANCH  10  13
ENDBRANCH   9  10
ENDBRANCH   4   9
BRANCH   8  20
ATOM     20  C   UNL     1      43.056 128.996  23.119  1.00  0.00    -0.018 A 
ATOM     21  C   UNL     1      41.683 128.994  22.812  1.00  0.00     0.009 A 
ATOM     22  C   UNL     1      43.572 127.974  23.938  1.00  0.00     0.009 A 
ATOM     23  C   UNL     1      40.846 127.989  23.308  1.00  0.00     0.004 A 
ATOM     24  C   UNL     1      42.734 126.970  24.432  1.00  0.00     0.004 A 
ATOM     25  C   UNL     1      41.364 126.979  24.131  1.00  0.00    -0.051 A 
ATOM     26  C   UNL     1      40.476 125.874  24.625  1.00  0.00     0.044 C 
ENDBRANCH   8  20
ENDBRANCH   1   3
BRANCH   1  27
ATOM     27  N   UNL     1      45.658 131.224  18.317  1.00  0.00    -0.645 NA
BRANCH  27  28
ATOM     28  C   UNL     1      44.440 130.815  17.605  1.00  0.00    -0.081 C 
ATOM     29  C   UNL     1      43.302 131.807  17.880  1.00  0.00    -0.011 C 
BRANCH  28  30
ATOM     30  C   UNL     1      44.671 130.592  16.088  1.00  0.00     0.096 C 
ATOM     31  C   UNL     1      45.641 129.433  15.834  1.00  0.00     0.037 C 
BRANCH  30  32
ATOM     32  O   UNL     1      45.164 131.753  15.465  1.00  0.00    -0.395 OA
ATOM     33  H   UNL     1      45.752 131.455  14.725  1.00  0.00     0.210 HD
ENDBRANCH  30  32
ENDBRANCH  28  30
ENDBRANCH  27  28
ENDBRANCH   1  27
TORSDOF 10
ENDMDL
MODEL 7
REMARK VINA RESULT:       0.6      4.153      7.742
REMARK SMILES Cc1ccc(-c2ccc(/N=C(\O)c3cccc(C)c3)c(C(=O)[N-][C@@H](C)[C@H](C)O)c2)cc1
REMARK SMILES IDX 21 1 22 2 20 3 9 4 8 5 7 6 29 7 6 8 10 9 11 10 12 11 13 13
REMARK SMILES IDX 14 14 19 15 15 16 17 17 16 18 18 19 5 20 4 21 30 22 3 23
REMARK SMILES IDX 31 24 2 25 1 26 23 27 24 28 25 29 26 30 27 31 28 32
REMARK H PARENT 12 12 28 33
ROOT
ATOM      1  C   UNL     1      45.029 128.017  21.520  1.00  0.00     0.084 C 
ATOM      2  O   UNL     1      43.875 127.506  21.575  1.00  0.00    -0.315 OA
ENDROOT
BRANCH   1   3
ATOM      3  C   UNL     1      45.214 129.371  20.923  1.00  0.00     0.026 A 
ATOM      4  C   UNL     1      45.096 130.561  21.686  1.00  0.00     0.076 A 
ATOM      5  C   UNL     1      45.218 131.807  21.044  1.00  0.00     0.030 A 
ATOM      6  C   UNL     1      45.505 131.883  19.682  1.00  0.00     0.011 A 
ATOM      7  C   UNL     1      45.513 129.468  19.549  1.00  0.00     0.021 A 
ATOM      8  C   UNL     1      45.660 130.717  18.920  1.00  0.00    -0.018 A 
BRANCH   4   9
ATOM      9  N   UNL     1      44.785 130.490  23.088  1.00  0.00    -0.213 NA
BRANCH   9  10
ATOM     10  C   UNL     1      43.601 130.491  23.630  1.00  0.00     0.218 C 
BRANCH  10  11
ATOM     11  O   UNL     1      43.284 129.562  24.624  1.00  0.00    -0.493 OA
ATOM     12  H   UNL     1      43.233 128.567  24.447  1.00  0.00     0.295 HD
ENDBRANCH  10  11
BRANCH  10  13
ATOM     13  C   UNL     1      42.591 131.465  23.146  1.00  0.00     0.037 A 
ATOM     14  C   UNL     1      41.672 132.037  24.045  1.00  0.00     0.014 A 
ATOM     15  C   UNL     1      42.552 131.857  21.794  1.00  0.00     0.017 A 
ATOM     16  C   UNL     1      40.723 132.959  23.601  1.00  0.00     0.001 A 
ATOM     17  C   UNL     1      41.609 132.798  21.349  1.00  0.00    -0.050 A 
ATOM     18  C   UNL     1      40.683 133.332  22.256  1.00  0.00     0.003 A 
ATOM     19  C   UNL     1      41.554 133.182  19.899  1.00  0.00     0.044 C 
ENDBRANCH  10  13
ENDBRANCH   9  10
ENDBRANCH   4   9
BRANCH   8  20
ATOM     20  C   UNL     1      45.960 130.800  17.466  1.00  0.00    -0.018 A 
ATOM     21  C   UNL     1      46.596 129.734  16.804  1.00  0.00     0.009 A 
ATOM     22  C   UNL     1      45.607 131.946  16.728  1.00  0.00     0.009 A 
ATOM     23  C   UNL     1      46.869 129.809  15.435  1.00  0.00     0.004 A 
ATOM     24  C   UNL     1      45.880 132.019  15.359  1.00  0.00     0.004 A 
ATOM     25  C   UNL     1      46.526 130.958  14.708  1.00  0.00    -0.051 A 
ATOM     26  C   UNL     1      46.776 131.020  13.229  1.00  0.00     0.044 C 
ENDBRANCH   8  20
ENDBRANCH   1   3
BRANCH   1  27
ATOM     27  N   UNL     1      46.144 127.273  22.025  1.00  0.00    -0.645 NA
BRANCH  27  28
ATOM     28  C   UNL     1      46.154 126.529  23.292  1.00  0.00    -0.081 C 
ATOM     29  C   UNL     1      44.961 125.565  23.355  1.00  0.00    -0.011 C 
BRANCH  28  30
ATOM     30  C   UNL     1      47.502 125.813  23.562  1.00  0.00     0.096 C 
ATOM     31  C   UNL     1      48.335 125.686  22.282  1.00  0.00     0.037 C 
BRANCH  30  32
ATOM     32  O   UNL     1      47.306 124.534  24.115  1.00  0.00    -0.395 OA
ATOM     33  H   UNL     1      48.177 124.245  24.488  1.00  0.00     0.210 HD
ENDBRANCH  30  32
ENDBRANCH  28  30
ENDBRANCH  27  28
ENDBRANCH   1  27
TORSDOF 10
ENDMDL
MODEL 8
REMARK VINA RESULT:       0.8      2.393      7.858
REMARK SMILES Cc1ccc(-c2ccc(/N=C(\O)c3cccc(C)c3)c(C(=O)[N-][C@@H](C)[C@H](C)O)c2)cc1
REMARK SMILES IDX 21 1 22 2 20 3 9 4 8 5 7 6 29 7 6 8 10 9 11 10 12 11 13 13
REMARK SMILES IDX 14 14 19 15 15 16 17 17 16 18 18 19 5 20 4 21 30 22 3 23
REMARK SMILES IDX 31 24 2 25 1 26 23 27 24 28 25 29 26 30 27 31 28 32
REMARK H PARENT 12 12 28 33
ROOT
ATOM      1  C   UNL     1      45.970 133.216  20.842  1.00  0.00     0.084 C 
ATOM      2  O   UNL     1      46.264 132.434  21.789  1.00  0.00    -0.315 OA
ENDROOT
BRANCH   1   3
ATOM      3  C   UNL     1      45.123 132.732  19.714  1.00  0.00     0.026 A 
ATOM      4  C   UNL     1      43.711 132.637  19.809  1.00  0.00     0.076 A 
ATOM      5  C   UNL     1      42.981 132.109  18.729  1.00  0.00     0.030 A 
ATOM      6  C   UNL     1      43.623 131.729  17.552  1.00  0.00     0.011 A 
ATOM      7  C   UNL     1      45.753 132.351  18.512  1.00  0.00     0.021 A 
ATOM      8  C   UNL     1      45.014 131.849  17.427  1.00  0.00    -0.018 A 
BRANCH   4   9
ATOM      9  N   UNL     1      43.044 133.013  21.027  1.00  0.00    -0.213 NA
BRANCH   9  10
ATOM     10  C   UNL     1      42.462 132.219  21.879  1.00  0.00     0.218 C 
BRANCH  10  11
ATOM     11  O   UNL     1      41.106 132.378  22.173  1.00  0.00    -0.493 OA
ATOM     12  H   UNL     1      40.516 131.610  22.465  1.00  0.00     0.295 HD
ENDBRANCH  10  11
BRANCH  10  13
ATOM     13  C   UNL     1      43.273 131.176  22.557  1.00  0.00     0.037 A 
ATOM     14  C   UNL     1      43.436 131.203  23.954  1.00  0.00     0.014 A 
ATOM     15  C   UNL     1      43.865 130.130  21.824  1.00  0.00     0.017 A 
ATOM     16  C   UNL     1      44.190 130.222  24.601  1.00  0.00     0.001 A 
ATOM     17  C   UNL     1      44.611 129.133  22.475  1.00  0.00    -0.050 A 
ATOM     18  C   UNL     1      44.785 129.197  23.865  1.00  0.00     0.003 A 
ATOM     19  C   UNL     1      45.267 128.042  21.681  1.00  0.00     0.044 C 
ENDBRANCH  10  13
ENDBRANCH   9  10
ENDBRANCH   4   9
BRANCH   8  20
ATOM     20  C   UNL     1      45.697 131.437  16.172  1.00  0.00    -0.018 A 
ATOM     21  C   UNL     1      46.251 130.150  16.049  1.00  0.00     0.009 A 
ATOM     22  C   UNL     1      45.796 132.328  15.087  1.00  0.00     0.009 A 
ATOM     23  C   UNL     1      46.885 129.760  14.866  1.00  0.00     0.004 A 
ATOM     24  C   UNL     1      46.430 131.936  13.904  1.00  0.00     0.004 A 
ATOM     25  C   UNL     1      46.991 130.655  13.791  1.00  0.00    -0.051 A 
ATOM     26  C   UNL     1      47.630 130.222  12.504  1.00  0.00     0.044 C 
ENDBRANCH   8  20
ENDBRANCH   1   3
BRANCH   1  27
ATOM     27  N   UNL     1      46.471 134.559  20.867  1.00  0.00    -0.645 NA
BRANCH  27  28
ATOM     28  C   UNL     1      47.503 135.054  21.788  1.00  0.00    -0.081 C 
ATOM     29  C   UNL     1      48.260 133.880  22.423  1.00  0.00    -0.011 C 
BRANCH  28  30
ATOM     30  C   UNL     1      48.460 136.080  21.127  1.00  0.00     0.096 C 
ATOM     31  C   UNL     1      47.909 136.577  19.786  1.00  0.00     0.037 C 
BRANCH  30  32
ATOM     32  O   UNL     1      49.742 135.537  20.928  1.00  0.00    -0.395 OA
ATOM     33  H   UNL     1      50.118 135.350  21.825  1.00  0.00     0.210 HD
ENDBRANCH  30  32
ENDBRANCH  28  30
ENDBRANCH  27  28
ENDBRANCH   1  27
TORSDOF 10
ENDMDL
MODEL 9
REMARK VINA RESULT:       1.7      2.063      7.779
REMARK SMILES Cc1ccc(-c2ccc(/N=C(\O)c3cccc(C)c3)c(C(=O)[N-][C@@H](C)[C@H](C)O)c2)cc1
REMARK SMILES IDX 21 1 22 2 20 3 9 4 8 5 7 6 29 7 6 8 10 9 11 10 12 11 13 13
REMARK SMILES IDX 14 14 19 15 15 16 17 17 16 18 18 19 5 20 4 21 30 22 3 23
REMARK SMILES IDX 31 24 2 25 1 26 23 27 24 28 25 29 26 30 27 31 28 32
REMARK H PARENT 12 12 28 33
ROOT
ATOM      1  C   UNL     1      44.093 132.390  21.686  1.00  0.00     0.084 C 
ATOM      2  O   UNL     1      43.199 132.489  20.799  1.00  0.00    -0.315 OA
ENDROOT
BRANCH   1   3
ATOM      3  C   UNL     1      45.531 132.391  21.293  1.00  0.00     0.026 A 
ATOM      4  C   UNL     1      46.038 131.564  20.258  1.00  0.00     0.076 A 
ATOM      5  C   UNL     1      47.418 131.569  19.986  1.00  0.00     0.030 A 
ATOM      6  C   UNL     1      48.281 132.412  20.683  1.00  0.00     0.011 A 
ATOM      7  C   UNL     1      46.418 133.244  21.981  1.00  0.00     0.021 A 
ATOM      8  C   UNL     1      47.792 133.262  21.684  1.00  0.00    -0.018 A 
BRANCH   4   9
ATOM      9  N   UNL     1      45.156 130.680  19.546  1.00  0.00    -0.213 NA
BRANCH   9  10
ATOM     10  C   UNL     1      45.440 129.970  18.492  1.00  0.00     0.218 C 
BRANCH  10  11
ATOM     11  O   UNL     1      45.989 128.693  18.633  1.00  0.00    -0.493 OA
ATOM     12  H   UNL     1      45.565 127.868  18.227  1.00  0.00     0.295 HD
ENDBRANCH  10  11
BRANCH  10  13
ATOM     13  C   UNL     1      45.206 130.556  17.148  1.00  0.00     0.037 A 
ATOM     14  C   UNL     1      44.006 131.237  16.872  1.00  0.00     0.014 A 
ATOM     15  C   UNL     1      46.185 130.471  16.140  1.00  0.00     0.017 A 
ATOM     16  C   UNL     1      43.779 131.798  15.614  1.00  0.00     0.001 A 
ATOM     17  C   UNL     1      45.966 131.049  14.879  1.00  0.00    -0.050 A 
ATOM     18  C   UNL     1      44.750 131.696  14.617  1.00  0.00     0.003 A 
ATOM     19  C   UNL     1      47.001 130.921  13.800  1.00  0.00     0.044 C 
ENDBRANCH  10  13
ENDBRANCH   9  10
ENDBRANCH   4   9
BRANCH   8  20
ATOM     20  C   UNL     1      48.715 134.157  22.431  1.00  0.00    -0.018 A 
ATOM     21  C   UNL     1      49.261 135.297  21.814  1.00  0.00     0.009 A 
ATOM     22  C   UNL     1      49.053 133.879  23.769  1.00  0.00     0.009 A 
ATOM     23  C   UNL     1      50.122 136.143  22.520  1.00  0.00     0.004 A 
ATOM     24  C   UNL     1      49.914 134.727  24.474  1.00  0.00     0.004 A 
ATOM     25  C   UNL     1      50.464 135.855  23.849  1.00  0.00    -0.051 A 
ATOM     26  C   UNL     1      51.350 136.788  24.622  1.00  0.00     0.044 C 
ENDBRANCH   8  20
ENDBRANCH   1   3
BRANCH   1  27
ATOM     27  N   UNL     1      43.700 132.268  23.058  1.00  0.00    -0.645 NA
BRANCH  27  28
ATOM     28  C   UNL     1      43.397 131.001  23.736  1.00  0.00    -0.081 C 
ATOM     29  C   UNL     1      41.988 131.043  24.344  1.00  0.00    -0.011 C 
BRANCH  28  30
ATOM     30  C   UNL     1      43.605 129.763  22.825  1.00  0.00     0.096 C 
ATOM     31  C   UNL     1      42.847 128.542  23.358  1.00  0.00     0.037 C 
BRANCH  30  32
ATOM     32  O   UNL     1      44.968 129.441  22.696  1.00  0.00    -0.395 OA
ATOM     33  H   UNL     1      45.460 130.297  22.611  1.00  0.00     0.210 HD
ENDBRANCH  30  32
ENDBRANCH  28  30
ENDBRANCH  27  28
ENDBRANCH   1  27
TORSDOF 10
ENDMDL


