MODEL 1
REMARK VINA RESULT:      -9.7      0.000      0.000
REMARK SMILES Cc1ccc(-c2ccc(O)cc2)c2c[n-]nc12
REMARK SMILES IDX 6 1 7 2 8 3 9 4 11 5 12 6 5 7 2 8 3 9 17 10 4 11 16 12 13 13
REMARK SMILES IDX 15 14 14 15 1 16 10 17
REMARK H PARENT 10 18
ROOT
ATOM      1  C   UNL     1      45.563 130.979  17.124  1.00  0.00    -0.018 A 
ATOM      2  C   UNL     1      45.975 129.728  16.631  1.00  0.00     0.012 A 
ATOM      3  C   UNL     1      46.452 129.608  15.322  1.00  0.00     0.047 A 
ATOM      4  C   UNL     1      46.527 130.735  14.493  1.00  0.00     0.115 A 
ATOM      5  C   UNL     1      46.127 131.982  14.981  1.00  0.00     0.047 A 
ATOM      6  C   UNL     1      45.651 132.106  16.289  1.00  0.00     0.012 A 
ENDROOT
BRANCH   1   7
ATOM      7  C   UNL     1      45.068 131.106  18.514  1.00  0.00    -0.011 A 
ATOM      8  C   UNL     1      44.125 131.370  21.198  1.00  0.00    -0.027 A 
ATOM      9  C   UNL     1      45.396 130.818  20.934  1.00  0.00     0.006 A 
ATOM     10  C   UNL     1      43.350 131.752  20.100  1.00  0.00     0.050 A 
ATOM     11  C   UNL     1      45.863 130.690  19.607  1.00  0.00     0.010 A 
ATOM     12  N   UNL     1      42.099 132.245  20.107  1.00  0.00    -0.367 NA
ATOM     13  C   UNL     1      43.803 131.630  18.816  1.00  0.00    -0.014 A 
ATOM     14  N   UNL     1      41.742 132.436  18.840  1.00  0.00    -0.581 NA
ATOM     15  C   UNL     1      42.760 132.066  18.029  1.00  0.00    -0.113 A 
ATOM     16  C   UNL     1      43.597 131.468  22.600  1.00  0.00     0.046 C 
ENDBRANCH   1   7
BRANCH   4  17
ATOM     17  O   UNL     1      46.999 130.626  13.187  1.00  0.00    -0.508 OA
ATOM     18  H   UNL     1      47.046 129.731  12.714  1.00  0.00     0.293 HD
ENDBRANCH   4  17
TORSDOF 2
ENDMDL
MODEL 2
REMARK VINA RESULT:      -9.6      0.052      1.175
REMARK SMILES Cc1ccc(-c2ccc(O)cc2)c2c[n-]nc12
REMARK SMILES IDX 6 1 7 2 8 3 9 4 11 5 12 6 5 7 2 8 3 9 17 10 4 11 16 12 13 13
REMARK SMILES IDX 15 14 14 15 1 16 10 17
REMARK H PARENT 10 18
ROOT
ATOM      1  C   UNL     1      45.561 130.967  17.112  1.00  0.00    -0.018 A 
ATOM      2  C   UNL     1      45.698 132.106  16.299  1.00  0.00     0.012 A 
ATOM      3  C   UNL     1      46.156 131.984  14.984  1.00  0.00     0.047 A 
ATOM      4  C   UNL     1      46.477 130.723  14.464  1.00  0.00     0.115 A 
ATOM      5  C   UNL     1      46.335 129.586  15.265  1.00  0.00     0.047 A 
ATOM      6  C   UNL     1      45.876 129.705  16.580  1.00  0.00     0.012 A 
ENDROOT
BRANCH   1   7
ATOM      7  C   UNL     1      45.066 131.098  18.502  1.00  0.00    -0.011 A 
ATOM      8  C   UNL     1      44.121 131.372  21.184  1.00  0.00    -0.027 A 
ATOM      9  C   UNL     1      45.391 130.816  20.922  1.00  0.00     0.006 A 
ATOM     10  C   UNL     1      43.348 131.752  20.084  1.00  0.00     0.050 A 
ATOM     11  C   UNL     1      45.859 130.684  19.596  1.00  0.00     0.010 A 
ATOM     12  N   UNL     1      42.097 132.247  20.089  1.00  0.00    -0.367 NA
ATOM     13  C   UNL     1      43.801 131.626  18.801  1.00  0.00    -0.014 A 
ATOM     14  N   UNL     1      41.742 132.435  18.822  1.00  0.00    -0.581 NA
ATOM     15  C   UNL     1      42.759 132.061  18.012  1.00  0.00    -0.113 A 
ATOM     16  C   UNL     1      43.592 131.474  22.585  1.00  0.00     0.046 C 
ENDBRANCH   1   7
BRANCH   4  17
ATOM     17  O   UNL     1      46.936 130.589  13.155  1.00  0.00    -0.508 OA
ATOM     18  H   UNL     1      46.536 131.129  12.397  1.00  0.00     0.293 HD
ENDBRANCH   4  17
TORSDOF 2
ENDMDL
MODEL 3
REMARK VINA RESULT:      -9.0      1.567      2.668
REMARK SMILES Cc1ccc(-c2ccc(O)cc2)c2c[n-]nc12
REMARK SMILES IDX 6 1 7 2 8 3 9 4 11 5 12 6 5 7 2 8 3 9 17 10 4 11 16 12 13 13
REMARK SMILES IDX 15 14 14 15 1 16 10 17
REMARK H PARENT 10 18
ROOT
ATOM      1  C   UNL     1      45.423 130.957  16.388  1.00  0.00    -0.018 A 
ATOM      2  C   UNL     1      45.999 131.936  15.558  1.00  0.00     0.012 A 
ATOM      3  C   UNL     1      46.836 131.563  14.502  1.00  0.00     0.047 A 
ATOM      4  C   UNL     1      47.102 130.209  14.259  1.00  0.00     0.115 A 
ATOM      5  C   UNL     1      46.526 129.231  15.075  1.00  0.00     0.047 A 
ATOM      6  C   UNL     1      45.688 129.601  16.131  1.00  0.00     0.012 A 
ENDROOT
BRANCH   1   7
ATOM      7  C   UNL     1      44.528 131.354  17.499  1.00  0.00    -0.011 A 
ATOM      8  C   UNL     1      42.794 132.100  19.644  1.00  0.00    -0.027 A 
ATOM      9  C   UNL     1      42.356 132.176  18.305  1.00  0.00     0.006 A 
ATOM     10  C   UNL     1      44.106 131.674  19.866  1.00  0.00     0.050 A 
ATOM     11  C   UNL     1      43.212 131.804  17.245  1.00  0.00     0.010 A 
ATOM     12  N   UNL     1      44.751 131.578  21.042  1.00  0.00    -0.367 NA
ATOM     13  C   UNL     1      44.934 131.312  18.841  1.00  0.00    -0.014 A 
ATOM     14  N   UNL     1      45.988 131.164  20.781  1.00  0.00    -0.581 NA
ATOM     15  C   UNL     1      46.131 130.997  19.446  1.00  0.00    -0.113 A 
ATOM     16  C   UNL     1      41.911 132.536  20.776  1.00  0.00     0.046 C 
ENDBRANCH   1   7
BRANCH   4  17
ATOM     17  O   UNL     1      47.936 129.827  13.210  1.00  0.00    -0.508 OA
ATOM     18  H   UNL     1      48.773 130.349  12.982  1.00  0.00     0.293 HD
ENDBRANCH   4  17
TORSDOF 2
ENDMDL
MODEL 4
REMARK VINA RESULT:      -9.0      1.564      2.394
REMARK SMILES Cc1ccc(-c2ccc(O)cc2)c2c[n-]nc12
REMARK SMILES IDX 6 1 7 2 8 3 9 4 11 5 12 6 5 7 2 8 3 9 17 10 4 11 16 12 13 13
REMARK SMILES IDX 15 14 14 15 1 16 10 17
REMARK H PARENT 10 18
ROOT
ATOM      1  C   UNL     1      45.335 130.989  16.376  1.00  0.00    -0.018 A 
ATOM      2  C   UNL     1      45.561 129.632  16.084  1.00  0.00     0.012 A 
ATOM      3  C   UNL     1      46.385 129.267  15.015  1.00  0.00     0.047 A 
ATOM      4  C   UNL     1      46.996 130.253  14.229  1.00  0.00     0.115 A 
ATOM      5  C   UNL     1      46.782 131.604  14.520  1.00  0.00     0.047 A 
ATOM      6  C   UNL     1      45.959 131.971  15.589  1.00  0.00     0.012 A 
ENDROOT
BRANCH   1   7
ATOM      7  C   UNL     1      44.470 131.372  17.516  1.00  0.00    -0.011 A 
ATOM      8  C   UNL     1      42.792 132.089  19.714  1.00  0.00    -0.027 A 
ATOM      9  C   UNL     1      42.320 132.183  18.388  1.00  0.00     0.006 A 
ATOM     10  C   UNL     1      44.110 131.660  19.897  1.00  0.00     0.050 A 
ATOM     11  C   UNL     1      43.148 131.825  17.302  1.00  0.00     0.010 A 
ATOM     12  N   UNL     1      44.786 131.549  21.054  1.00  0.00    -0.367 NA
ATOM     13  C   UNL     1      44.911 131.312  18.846  1.00  0.00    -0.014 A 
ATOM     14  N   UNL     1      46.014 131.138  20.756  1.00  0.00    -0.581 NA
ATOM     15  C   UNL     1      46.122 130.989  19.416  1.00  0.00    -0.113 A 
ATOM     16  C   UNL     1      41.939 132.511  20.875  1.00  0.00     0.046 C 
ENDBRANCH   1   7
BRANCH   4  17
ATOM     17  O   UNL     1      47.818 129.901  13.160  1.00  0.00    -0.508 OA
ATOM     18  H   UNL     1      48.573 129.235  13.271  1.00  0.00     0.293 HD
ENDBRANCH   4  17
TORSDOF 2
ENDMDL
MODEL 5
REMARK VINA RESULT:      -7.7      1.674      2.565
REMARK SMILES Cc1ccc(-c2ccc(O)cc2)c2c[n-]nc12
REMARK SMILES IDX 6 1 7 2 8 3 9 4 11 5 12 6 5 7 2 8 3 9 17 10 4 11 16 12 13 13
REMARK SMILES IDX 15 14 14 15 1 16 10 17
REMARK H PARENT 10 18
ROOT
ATOM      1  C   UNL     1      44.604 131.412  16.719  1.00  0.00    -0.018 A 
ATOM      2  C   UNL     1      43.883 131.611  15.528  1.00  0.00     0.012 A 
ATOM      3  C   UNL     1      44.495 131.397  14.289  1.00  0.00     0.047 A 
ATOM      4  C   UNL     1      45.830 130.977  14.226  1.00  0.00     0.115 A 
ATOM      5  C   UNL     1      46.549 130.769  15.407  1.00  0.00     0.047 A 
ATOM      6  C   UNL     1      45.939 130.982  16.647  1.00  0.00     0.012 A 
ENDROOT
BRANCH   1   7
ATOM      7  C   UNL     1      43.950 131.630  18.030  1.00  0.00    -0.011 A 
ATOM      8  C   UNL     1      42.679 132.029  20.558  1.00  0.00    -0.027 A 
ATOM      9  C   UNL     1      42.000 132.323  19.357  1.00  0.00     0.006 A 
ATOM     10  C   UNL     1      43.993 131.564  20.455  1.00  0.00     0.050 A 
ATOM     11  C   UNL     1      42.627 132.123  18.108  1.00  0.00     0.010 A 
ATOM     12  N   UNL     1      44.845 131.276  21.455  1.00  0.00    -0.367 NA
ATOM     13  C   UNL     1      44.600 131.369  19.246  1.00  0.00    -0.014 A 
ATOM     14  N   UNL     1      45.994 130.901  20.900  1.00  0.00    -0.581 NA
ATOM     15  C   UNL     1      45.876 130.952  19.553  1.00  0.00    -0.113 A 
ATOM     16  C   UNL     1      42.042 132.282  21.893  1.00  0.00     0.046 C 
ENDBRANCH   1   7
BRANCH   4  17
ATOM     17  O   UNL     1      46.450 130.762  12.997  1.00  0.00    -0.508 OA
ATOM     18  H   UNL     1      46.787 131.532  12.432  1.00  0.00     0.293 HD
ENDBRANCH   4  17
TORSDOF 2
ENDMDL
MODEL 6
REMARK VINA RESULT:      -7.6      1.690      2.453
REMARK SMILES Cc1ccc(-c2ccc(O)cc2)c2c[n-]nc12
REMARK SMILES IDX 6 1 7 2 8 3 9 4 11 5 12 6 5 7 2 8 3 9 17 10 4 11 16 12 13 13
REMARK SMILES IDX 15 14 14 15 1 16 10 17
REMARK H PARENT 10 18
ROOT
ATOM      1  C   UNL     1      44.615 131.389  16.728  1.00  0.00    -0.018 A 
ATOM      2  C   UNL     1      45.977 131.053  16.639  1.00  0.00     0.012 A 
ATOM      3  C   UNL     1      46.578 130.867  15.390  1.00  0.00     0.047 A 
ATOM      4  C   UNL     1      45.828 131.021  14.217  1.00  0.00     0.115 A 
ATOM      5  C   UNL     1      44.475 131.364  14.299  1.00  0.00     0.047 A 
ATOM      6  C   UNL     1      43.871 131.550  15.546  1.00  0.00     0.012 A 
ENDROOT
BRANCH   1   7
ATOM      7  C   UNL     1      43.983 131.595  18.051  1.00  0.00    -0.011 A 
ATOM      8  C   UNL     1      42.753 131.972  20.603  1.00  0.00    -0.027 A 
ATOM      9  C   UNL     1      42.076 132.329  19.418  1.00  0.00     0.006 A 
ATOM     10  C   UNL     1      44.046 131.458  20.472  1.00  0.00     0.050 A 
ATOM     11  C   UNL     1      42.682 132.139  18.157  1.00  0.00     0.010 A 
ATOM     12  N   UNL     1      44.894 131.106  21.454  1.00  0.00    -0.367 NA
ATOM     13  C   UNL     1      44.632 131.273  19.251  1.00  0.00    -0.014 A 
ATOM     14  N   UNL     1      46.022 130.701  20.876  1.00  0.00    -0.581 NA
ATOM     15  C   UNL     1      45.894 130.796  19.533  1.00  0.00    -0.113 A 
ATOM     16  C   UNL     1      42.140 132.212  21.951  1.00  0.00     0.046 C 
ENDBRANCH   1   7
BRANCH   4  17
ATOM     17  O   UNL     1      46.416 130.837  12.967  1.00  0.00    -0.508 OA
ATOM     18  H   UNL     1      47.234 131.365  12.685  1.00  0.00     0.293 HD
ENDBRANCH   4  17
TORSDOF 2
ENDMDL
MODEL 7
REMARK VINA RESULT:      -7.4      3.322      5.734
REMARK SMILES Cc1ccc(-c2ccc(O)cc2)c2c[n-]nc12
REMARK SMILES IDX 6 1 7 2 8 3 9 4 11 5 12 6 5 7 2 8 3 9 17 10 4 11 16 12 13 13
REMARK SMILES IDX 15 14 14 15 1 16 10 17
REMARK H PARENT 10 18
ROOT
ATOM      1  C   UNL     1      44.143 131.396  18.447  1.00  0.00    -0.018 A 
ATOM      2  C   UNL     1      44.676 131.376  19.748  1.00  0.00     0.012 A 
ATOM      3  C   UNL     1      43.900 131.788  20.835  1.00  0.00     0.047 A 
ATOM      4  C   UNL     1      42.581 132.218  20.637  1.00  0.00     0.115 A 
ATOM      5  C   UNL     1      42.043 132.231  19.347  1.00  0.00     0.047 A 
ATOM      6  C   UNL     1      42.817 131.819  18.258  1.00  0.00     0.012 A 
ENDROOT
BRANCH   1   7
ATOM      7  C   UNL     1      44.964 130.949  17.298  1.00  0.00    -0.011 A 
ATOM      8  C   UNL     1      46.540 130.067  15.084  1.00  0.00    -0.027 A 
ATOM      9  C   UNL     1      46.981 129.860  16.408  1.00  0.00     0.006 A 
ATOM     10  C   UNL     1      45.326 130.738  14.909  1.00  0.00     0.050 A 
ATOM     11  C   UNL     1      46.200 130.293  17.502  1.00  0.00     0.010 A 
ATOM     12  N   UNL     1      44.742 131.092  13.751  1.00  0.00    -0.367 NA
ATOM     13  C   UNL     1      44.570 131.155  15.968  1.00  0.00    -0.014 A 
ATOM     14  N   UNL     1      43.620 131.738  14.057  1.00  0.00    -0.581 NA
ATOM     15  C   UNL     1      43.490 131.796  15.402  1.00  0.00    -0.113 A 
ATOM     16  C   UNL     1      47.381 129.654  13.911  1.00  0.00     0.046 C 
ENDBRANCH   1   7
BRANCH   4  17
ATOM     17  O   UNL     1      41.799 132.632  21.713  1.00  0.00    -0.508 OA
ATOM     18  H   UNL     1      41.768 133.602  22.003  1.00  0.00     0.293 HD
ENDBRANCH   4  17
TORSDOF 2
ENDMDL
MODEL 8
REMARK VINA RESULT:      -7.3      3.313      5.778
REMARK SMILES Cc1ccc(-c2ccc(O)cc2)c2c[n-]nc12
REMARK SMILES IDX 6 1 7 2 8 3 9 4 11 5 12 6 5 7 2 8 3 9 17 10 4 11 16 12 13 13
REMARK SMILES IDX 15 14 14 15 1 16 10 17
REMARK H PARENT 10 18
ROOT
ATOM      1  C   UNL     1      44.157 131.368  18.472  1.00  0.00    -0.018 A 
ATOM      2  C   UNL     1      42.839 131.827  18.304  1.00  0.00     0.012 A 
ATOM      3  C   UNL     1      42.087 132.234  19.410  1.00  0.00     0.047 A 
ATOM      4  C   UNL     1      42.644 132.193  20.695  1.00  0.00     0.115 A 
ATOM      5  C   UNL     1      43.958 131.745  20.867  1.00  0.00     0.047 A 
ATOM      6  C   UNL     1      44.712 131.338  19.763  1.00  0.00     0.012 A 
ENDROOT
BRANCH   1   7
ATOM      7  C   UNL     1      44.955 130.947  17.298  1.00  0.00    -0.011 A 
ATOM      8  C   UNL     1      46.485 130.114  15.033  1.00  0.00    -0.027 A 
ATOM      9  C   UNL     1      46.960 129.893  16.343  1.00  0.00     0.006 A 
ATOM     10  C   UNL     1      45.261 130.773  14.898  1.00  0.00     0.050 A 
ATOM     11  C   UNL     1      46.203 130.302  17.462  1.00  0.00     0.010 A 
ATOM     12  N   UNL     1      44.644 131.138  13.760  1.00  0.00    -0.367 NA
ATOM     13  C   UNL     1      44.526 131.168  15.981  1.00  0.00    -0.014 A 
ATOM     14  N   UNL     1      43.524 131.767  14.101  1.00  0.00    -0.581 NA
ATOM     15  C   UNL     1      43.426 131.805  15.450  1.00  0.00    -0.113 A 
ATOM     16  C   UNL     1      47.302 129.727  13.835  1.00  0.00     0.046 C 
ENDBRANCH   1   7
BRANCH   4  17
ATOM     17  O   UNL     1      41.903 132.595  21.805  1.00  0.00    -0.508 OA
ATOM     18  H   UNL     1      41.070 132.097  22.094  1.00  0.00     0.293 HD
ENDBRANCH   4  17
TORSDOF 2
ENDMDL


