REMARK SMILES CC[C@](C)(N)/C=C(/O)n1nc2cc(-c3c[nH+]c(F)cc3C)ccc2c1C
REMARK SMILES IDX 7 1 8 2 6 4 3 5 4 6 5 7 2 10 1 11 9 12 10 13 25 14 11 15
REMARK SMILES IDX 24 16 12 17 23 18 13 19 22 20 26 21 14 22 20 23 15 24 19 25
REMARK SMILES IDX 16 26 17 27 21 28 18 30
REMARK H PARENT 8 3 5 8 5 9 16 29
ROOT
ATOM      1  C   UNL     1       2.841   0.270   2.866  1.00  0.00     0.209 C 
ENDROOT
BRANCH   1   2
ATOM      2  O   UNL     1       3.230   0.697   4.137  1.00  0.00    -0.493 OA
ATOM      3  H   UNL     1       3.949   0.222   4.671  1.00  0.00     0.295 HD
ENDBRANCH   1   2
BRANCH   1   4
ATOM      4  C   UNL     1       3.442  -0.808   2.320  1.00  0.00     0.062 C 
BRANCH   4   5
ATOM      5  C   UNL     1       3.204  -1.382   0.926  1.00  0.00     0.036 C 
ATOM      6  C   UNL     1       2.050  -2.404   1.015  1.00  0.00     0.033 C 
BRANCH   5   7
ATOM      7  N   UNL     1       2.857  -0.304  -0.013  1.00  0.00    -0.322 NA
ATOM      8  H   UNL     1       3.694   0.300  -0.183  1.00  0.00     0.119 HD
ATOM      9  H   UNL     1       2.552  -0.699  -0.932  1.00  0.00     0.119 HD
ENDBRANCH   5   7
BRANCH   5  10
ATOM     10  C   UNL     1       4.518  -2.093   0.473  1.00  0.00     0.023 C 
ATOM     11  C   UNL     1       4.489  -2.677  -0.944  1.00  0.00     0.006 C 
ENDBRANCH   5  10
ENDBRANCH   4   5
ENDBRANCH   1   4
BRANCH   1  12
ATOM     12  N   UNL     1       1.824   1.022   2.186  1.00  0.00    -0.205 N 
ATOM     13  N   UNL     1       0.687   0.495   1.741  1.00  0.00    -0.165 NA
ATOM     14  C   UNL     1       1.815   2.368   2.008  1.00  0.00     0.052 A 
ATOM     15  C   UNL     1      -0.047   1.513   1.259  1.00  0.00     0.094 A 
ATOM     16  C   UNL     1       0.616   2.700   1.414  1.00  0.00     0.023 A 
ATOM     17  C   UNL     1      -1.315   1.450   0.690  1.00  0.00     0.040 A 
ATOM     18  C   UNL     1       0.062   3.914   1.016  1.00  0.00     0.013 A 
ATOM     19  C   UNL     1      -1.917   2.659   0.275  1.00  0.00    -0.010 A 
ATOM     20  C   UNL     1      -1.218   3.886   0.433  1.00  0.00     0.010 A 
ATOM     21  C   UNL     1       2.890   3.314   2.451  1.00  0.00     0.067 C 
BRANCH  19  22
ATOM     22  C   UNL     1      -3.259   2.638  -0.348  1.00  0.00     0.049 A 
ATOM     23  C   UNL     1      -4.356   3.349   0.194  1.00  0.00    -0.028 A 
ATOM     24  C   UNL     1      -3.454   1.880  -1.514  1.00  0.00     0.317 A 
ATOM     25  C   UNL     1      -5.587   3.316  -0.478  1.00  0.00     0.118 A 
ATOM     26  N   UNL     1      -4.667   1.857  -2.129  1.00  0.00    -0.186 N 
ATOM     27  C   UNL     1      -5.724   2.558  -1.642  1.00  0.00     0.358 A 
ATOM     28  C   UNL     1      -4.240   4.153   1.462  1.00  0.00     0.045 C 
ATOM     29  H   UNL     1      -4.785   1.291  -2.999  1.00  0.00     0.456 HD
ATOM     30  F   UNL     1      -6.917   2.519  -2.286  1.00  0.00    -0.136 F 
ENDBRANCH  19  22
ENDBRANCH   1  12
TORSDOF 7


