MODEL 1
REMARK VINA RESULT:      -8.8      0.000      0.000
REMARK SMILES CC(=O)c1ccc(/C(N=[N+]=[N-])=N/[C@@H]2C=CCC2)c(F)c1[O-]
REMARK SMILES IDX 8 1 12 2 13 3 15 4 14 5 16 6 17 7 9 8 10 9 11 10 7 11 6 12
REMARK SMILES IDX 18 13 5 14 20 15 4 16 19 17 21 18 2 19 3 20 1 21
REMARK H PARENT
ROOT
ATOM      1  C   UNL     1      45.397 131.224  16.446  1.00  0.00     0.132 C 
ENDROOT
BRANCH   1   2
ATOM      2  N   UNL     1      46.340 130.470  15.961  1.00  0.00    -0.275 NA
BRANCH   2   3
ATOM      3  C   UNL     1      46.359 129.928  14.601  1.00  0.00     0.128 C 
ATOM      4  C   UNL     1      48.401 129.559  13.525  1.00  0.00    -0.029 C 
ATOM      5  C   UNL     1      47.552 129.058  14.404  1.00  0.00    -0.005 C 
ATOM      6  C   UNL     1      47.938 130.857  12.969  1.00  0.00     0.029 C 
ATOM      7  C   UNL     1      46.547 131.059  13.579  1.00  0.00     0.035 C 
ENDBRANCH   2   3
ENDBRANCH   1   2
BRANCH   1   8
ATOM      8  N   UNL     1      44.682 132.125  15.586  1.00  0.00    -0.041 NA
BRANCH   8   9
ATOM      9  N   UNL     1      43.872 131.727  14.748  1.00  0.00     0.007 N 
ATOM     10  N   UNL     1      43.065 131.325  13.912  1.00  0.00    -0.003 NA
ENDBRANCH   8   9
ENDBRANCH   1   8
BRANCH   1  11
ATOM     11  C   UNL     1      45.107 131.149  17.896  1.00  0.00     0.037 A 
ATOM     12  C   UNL     1      46.044 130.570  18.762  1.00  0.00     0.014 A 
ATOM     13  C   UNL     1      43.889 131.617  18.417  1.00  0.00     0.125 A 
ATOM     14  C   UNL     1      45.788 130.489  20.132  1.00  0.00     0.012 A 
ATOM     15  C   UNL     1      43.626 131.533  19.791  1.00  0.00    -0.060 A 
ATOM     16  C   UNL     1      44.581 130.974  20.671  1.00  0.00     0.012 A 
ATOM     17  F   UNL     1      42.933 132.112  17.590  1.00  0.00    -0.207 F 
ATOM     18  O   UNL     1      42.402 131.998  20.262  1.00  0.00    -0.870 OA
BRANCH  16  19
ATOM     19  C   UNL     1      44.324 130.890  22.138  1.00  0.00     0.159 C 
ATOM     20  O   UNL     1      44.445 131.916  22.862  1.00  0.00    -0.295 OA
ATOM     21  C   UNL     1      43.953 129.597  22.802  1.00  0.00     0.093 C 
ENDBRANCH  16  19
ENDBRANCH   1  11
TORSDOF 6
ENDMDL
MODEL 2
REMARK VINA RESULT:      -8.3      1.246      1.702
REMARK SMILES CC(=O)c1ccc(/C(N=[N+]=[N-])=N/[C@@H]2C=CCC2)c(F)c1[O-]
REMARK SMILES IDX 8 1 12 2 13 3 15 4 14 5 16 6 17 7 9 8 10 9 11 10 7 11 6 12
REMARK SMILES IDX 18 13 5 14 20 15 4 16 19 17 21 18 2 19 3 20 1 21
REMARK H PARENT
ROOT
ATOM      1  C   UNL     1      44.385 131.733  17.301  1.00  0.00     0.132 C 
ENDROOT
BRANCH   1   2
ATOM      2  N   UNL     1      45.519 132.050  16.747  1.00  0.00    -0.275 NA
BRANCH   2   3
ATOM      3  C   UNL     1      46.505 131.087  16.254  1.00  0.00     0.128 C 
ATOM      4  C   UNL     1      46.349 130.283  14.065  1.00  0.00    -0.029 C 
ATOM      5  C   UNL     1      46.758 131.299  14.802  1.00  0.00    -0.005 C 
ATOM      6  C   UNL     1      45.744 129.200  14.883  1.00  0.00     0.029 C 
ATOM      7  C   UNL     1      45.940 129.660  16.331  1.00  0.00     0.035 C 
ENDBRANCH   2   3
ENDBRANCH   1   2
BRANCH   1   8
ATOM      8  N   UNL     1      43.208 131.578  16.491  1.00  0.00    -0.041 NA
BRANCH   8   9
ATOM      9  N   UNL     1      43.240 131.680  15.264  1.00  0.00     0.007 N 
ATOM     10  N   UNL     1      43.270 131.786  14.039  1.00  0.00    -0.003 NA
ENDBRANCH   8   9
ENDBRANCH   1   8
BRANCH   1  11
ATOM     11  C   UNL     1      44.336 131.571  18.771  1.00  0.00     0.037 A 
ATOM     12  C   UNL     1      45.384 130.920  19.433  1.00  0.00     0.014 A 
ATOM     13  C   UNL     1      43.235 132.029  19.514  1.00  0.00     0.125 A 
ATOM     14  C   UNL     1      45.355 130.755  20.819  1.00  0.00     0.012 A 
ATOM     15  C   UNL     1      43.199 131.863  20.905  1.00  0.00    -0.060 A 
ATOM     16  C   UNL     1      44.268 131.229  21.579  1.00  0.00     0.012 A 
ATOM     17  F   UNL     1      42.171 132.596  18.889  1.00  0.00    -0.207 F 
ATOM     18  O   UNL     1      42.084 132.321  21.601  1.00  0.00    -0.870 OA
BRANCH  16  19
ATOM     19  C   UNL     1      44.254 131.056  23.061  1.00  0.00     0.159 C 
ATOM     20  O   UNL     1      44.406 132.055  23.816  1.00  0.00    -0.295 OA
ATOM     21  C   UNL     1      44.098 129.707  23.696  1.00  0.00     0.093 C 
ENDBRANCH  16  19
ENDBRANCH   1  11
TORSDOF 6
ENDMDL
MODEL 3
REMARK VINA RESULT:      -8.1      0.855      1.301
REMARK SMILES CC(=O)c1ccc(/C(N=[N+]=[N-])=N/[C@@H]2C=CCC2)c(F)c1[O-]
REMARK SMILES IDX 8 1 12 2 13 3 15 4 14 5 16 6 17 7 9 8 10 9 11 10 7 11 6 12
REMARK SMILES IDX 18 13 5 14 20 15 4 16 19 17 21 18 2 19 3 20 1 21
REMARK H PARENT
ROOT
ATOM      1  C   UNL     1      44.714 131.107  16.603  1.00  0.00     0.132 C 
ENDROOT
BRANCH   1   2
ATOM      2  N   UNL     1      45.522 130.266  16.025  1.00  0.00    -0.275 NA
BRANCH   2   3
ATOM      3  C   UNL     1      46.878 130.586  15.576  1.00  0.00     0.128 C 
ATOM      4  C   UNL     1      47.252 131.186  13.348  1.00  0.00    -0.029 C 
ATOM      5  C   UNL     1      46.842 131.636  14.520  1.00  0.00    -0.005 C 
ATOM      6  C   UNL     1      47.640 129.753  13.398  1.00  0.00     0.029 C 
ATOM      7  C   UNL     1      47.508 129.372  14.876  1.00  0.00     0.035 C 
ENDBRANCH   2   3
ENDBRANCH   1   2
BRANCH   1   8
ATOM      8  N   UNL     1      43.939 132.020  15.809  1.00  0.00    -0.041 NA
BRANCH   8   9
ATOM      9  N   UNL     1      43.522 131.723  14.689  1.00  0.00     0.007 N 
ATOM     10  N   UNL     1      43.104 131.428  13.571  1.00  0.00    -0.003 NA
ENDBRANCH   8   9
ENDBRANCH   1   8
BRANCH   1  11
ATOM     11  C   UNL     1      44.642 131.118  18.081  1.00  0.00     0.037 A 
ATOM     12  C   UNL     1      45.683 130.555  18.831  1.00  0.00     0.014 A 
ATOM     13  C   UNL     1      43.528 131.652  18.749  1.00  0.00     0.125 A 
ATOM     14  C   UNL     1      45.633 130.554  20.226  1.00  0.00     0.012 A 
ATOM     15  C   UNL     1      43.471 131.649  20.149  1.00  0.00    -0.060 A 
ATOM     16  C   UNL     1      44.532 131.106  20.909  1.00  0.00     0.012 A 
ATOM     17  F   UNL     1      42.472 132.135  18.045  1.00  0.00    -0.207 F 
ATOM     18  O   UNL     1      42.342 132.178  20.769  1.00  0.00    -0.870 OA
BRANCH  16  19
ATOM     19  C   UNL     1      44.495 131.107  22.400  1.00  0.00     0.159 C 
ATOM     20  O   UNL     1      44.297 130.031  23.029  1.00  0.00    -0.295 OA
ATOM     21  C   UNL     1      44.654 132.369  23.193  1.00  0.00     0.093 C 
ENDBRANCH  16  19
ENDBRANCH   1  11
TORSDOF 6
ENDMDL
MODEL 4
REMARK VINA RESULT:      -8.0      3.374      6.775
REMARK SMILES CC(=O)c1ccc(/C(N=[N+]=[N-])=N/[C@@H]2C=CCC2)c(F)c1[O-]
REMARK SMILES IDX 8 1 12 2 13 3 15 4 14 5 16 6 17 7 9 8 10 9 11 10 7 11 6 12
REMARK SMILES IDX 18 13 5 14 20 15 4 16 19 17 21 18 2 19 3 20 1 21
REMARK H PARENT
ROOT
ATOM      1  C   UNL     1      43.268 131.839  19.669  1.00  0.00     0.132 C 
ENDROOT
BRANCH   1   2
ATOM      2  N   UNL     1      43.220 130.996  20.659  1.00  0.00    -0.275 NA
BRANCH   2   3
ATOM      3  C   UNL     1      44.017 131.101  21.882  1.00  0.00     0.128 C 
ATOM      4  C   UNL     1      44.313 129.221  23.240  1.00  0.00    -0.029 C 
ATOM      5  C   UNL     1      44.738 129.824  22.144  1.00  0.00    -0.005 C 
ATOM      6  C   UNL     1      43.230 129.978  23.917  1.00  0.00     0.029 C 
ATOM      7  C   UNL     1      43.100 131.270  23.103  1.00  0.00     0.035 C 
ENDBRANCH   2   3
ENDBRANCH   1   2
BRANCH   1   8
ATOM      8  N   UNL     1      42.568 133.091  19.755  1.00  0.00    -0.041 NA
BRANCH   8   9
ATOM      9  N   UNL     1      41.639 133.268  20.544  1.00  0.00     0.007 N 
ATOM     10  N   UNL     1      40.712 133.448  21.332  1.00  0.00    -0.003 NA
ENDBRANCH   8   9
ENDBRANCH   1   8
BRANCH   1  11
ATOM     11  C   UNL     1      44.027 131.463  18.455  1.00  0.00     0.037 A 
ATOM     12  C   UNL     1      45.301 130.895  18.581  1.00  0.00     0.014 A 
ATOM     13  C   UNL     1      43.506 131.699  17.172  1.00  0.00     0.125 A 
ATOM     14  C   UNL     1      46.033 130.535  17.449  1.00  0.00     0.012 A 
ATOM     15  C   UNL     1      44.239 131.343  16.032  1.00  0.00    -0.060 A 
ATOM     16  C   UNL     1      45.514 130.745  16.157  1.00  0.00     0.012 A 
ATOM     17  F   UNL     1      42.307 132.318  17.020  1.00  0.00    -0.207 F 
ATOM     18  O   UNL     1      43.690 131.606  14.780  1.00  0.00    -0.870 OA
BRANCH  16  19
ATOM     19  C   UNL     1      46.302 130.347  14.955  1.00  0.00     0.159 C 
ATOM     20  O   UNL     1      46.411 129.129  14.644  1.00  0.00    -0.295 OA
ATOM     21  C   UNL     1      47.012 131.359  14.105  1.00  0.00     0.093 C 
ENDBRANCH  16  19
ENDBRANCH   1  11
TORSDOF 6
ENDMDL
MODEL 5
REMARK VINA RESULT:      -7.8      3.365      6.825
REMARK SMILES CC(=O)c1ccc(/C(N=[N+]=[N-])=N/[C@@H]2C=CCC2)c(F)c1[O-]
REMARK SMILES IDX 8 1 12 2 13 3 15 4 14 5 16 6 17 7 9 8 10 9 11 10 7 11 6 12
REMARK SMILES IDX 18 13 5 14 20 15 4 16 19 17 21 18 2 19 3 20 1 21
REMARK H PARENT
ROOT
ATOM      1  C   UNL     1      43.417 131.754  19.363  1.00  0.00     0.132 C 
ENDROOT
BRANCH   1   2
ATOM      2  N   UNL     1      43.937 131.594  20.546  1.00  0.00    -0.275 NA
BRANCH   2   3
ATOM      3  C   UNL     1      43.350 130.780  21.611  1.00  0.00     0.128 C 
ATOM      4  C   UNL     1      43.624 131.418  23.843  1.00  0.00    -0.029 C 
ATOM      5  C   UNL     1      42.921 131.643  22.748  1.00  0.00    -0.005 C 
ATOM      6  C   UNL     1      44.653 130.365  23.648  1.00  0.00     0.029 C 
ATOM      7  C   UNL     1      44.414 129.856  22.224  1.00  0.00     0.035 C 
ENDBRANCH   2   3
ENDBRANCH   1   2
BRANCH   1   8
ATOM      8  N   UNL     1      42.084 132.271  19.227  1.00  0.00    -0.041 NA
BRANCH   8   9
ATOM      9  N   UNL     1      41.555 132.954  20.105  1.00  0.00     0.007 N 
ATOM     10  N   UNL     1      41.025 133.638  20.979  1.00  0.00    -0.003 NA
ENDBRANCH   8   9
ENDBRANCH   1   8
BRANCH   1  11
ATOM     11  C   UNL     1      44.216 131.363  18.180  1.00  0.00     0.037 A 
ATOM     12  C   UNL     1      45.478 130.779  18.356  1.00  0.00     0.014 A 
ATOM     13  C   UNL     1      43.747 131.600  16.877  1.00  0.00     0.125 A 
ATOM     14  C   UNL     1      46.247 130.405  17.253  1.00  0.00     0.012 A 
ATOM     15  C   UNL     1      44.518 131.231  15.767  1.00  0.00    -0.060 A 
ATOM     16  C   UNL     1      45.780 130.617  15.942  1.00  0.00     0.012 A 
ATOM     17  F   UNL     1      42.563 132.234  16.679  1.00  0.00    -0.207 F 
ATOM     18  O   UNL     1      44.020 131.495  14.495  1.00  0.00    -0.870 OA
BRANCH  16  19
ATOM     19  C   UNL     1      46.608 130.204  14.772  1.00  0.00     0.159 C 
ATOM     20  O   UNL     1      46.923 128.992  14.616  1.00  0.00    -0.295 OA
ATOM     21  C   UNL     1      47.117 131.200  13.774  1.00  0.00     0.093 C 
ENDBRANCH  16  19
ENDBRANCH   1  11
TORSDOF 6
ENDMDL
MODEL 6
REMARK VINA RESULT:      -7.4      1.406      1.906
REMARK SMILES CC(=O)c1ccc(/C(N=[N+]=[N-])=N/[C@@H]2C=CCC2)c(F)c1[O-]
REMARK SMILES IDX 8 1 12 2 13 3 15 4 14 5 16 6 17 7 9 8 10 9 11 10 7 11 6 12
REMARK SMILES IDX 18 13 5 14 20 15 4 16 19 17 21 18 2 19 3 20 1 21
REMARK H PARENT
ROOT
ATOM      1  C   UNL     1      45.098 131.401  16.279  1.00  0.00     0.132 C 
ENDROOT
BRANCH   1   2
ATOM      2  N   UNL     1      46.134 130.733  15.862  1.00  0.00    -0.275 NA
BRANCH   2   3
ATOM      3  C   UNL     1      46.230 130.068  14.562  1.00  0.00     0.128 C 
ATOM      4  C   UNL     1      48.330 129.551  13.674  1.00  0.00    -0.029 C 
ATOM      5  C   UNL     1      47.406 129.154  14.530  1.00  0.00    -0.005 C 
ATOM      6  C   UNL     1      47.948 130.803  12.971  1.00  0.00     0.029 C 
ATOM      7  C   UNL     1      46.525 131.095  13.458  1.00  0.00     0.035 C 
ENDBRANCH   2   3
ENDBRANCH   1   2
BRANCH   1   8
ATOM      8  N   UNL     1      44.369 132.240  15.369  1.00  0.00    -0.041 NA
BRANCH   8   9
ATOM      9  N   UNL     1      43.612 131.776  14.514  1.00  0.00     0.007 N 
ATOM     10  N   UNL     1      42.856 131.311  13.663  1.00  0.00    -0.003 NA
ENDBRANCH   8   9
ENDBRANCH   1   8
BRANCH   1  11
ATOM     11  C   UNL     1      44.716 131.297  17.705  1.00  0.00     0.037 A 
ATOM     12  C   UNL     1      43.535 131.902  18.154  1.00  0.00     0.014 A 
ATOM     13  C   UNL     1      45.539 130.631  18.629  1.00  0.00     0.125 A 
ATOM     14  C   UNL     1      43.159 131.817  19.496  1.00  0.00     0.012 A 
ATOM     15  C   UNL     1      45.168 130.546  19.978  1.00  0.00    -0.060 A 
ATOM     16  C   UNL     1      43.963 131.133  20.428  1.00  0.00     0.012 A 
ATOM     17  F   UNL     1      46.726 130.101  18.235  1.00  0.00    -0.207 F 
ATOM     18  O   UNL     1      46.018 129.887  20.860  1.00  0.00    -0.870 OA
BRANCH  16  19
ATOM     19  C   UNL     1      43.545 131.041  21.857  1.00  0.00     0.159 C 
ATOM     20  O   UNL     1      42.898 130.038  22.264  1.00  0.00    -0.295 OA
ATOM     21  C   UNL     1      43.844 132.134  22.839  1.00  0.00     0.093 C 
ENDBRANCH  16  19
ENDBRANCH   1  11
TORSDOF 6
ENDMDL
MODEL 7
REMARK VINA RESULT:      -7.3      3.371      6.513
REMARK SMILES CC(=O)c1ccc(/C(N=[N+]=[N-])=N/[C@@H]2C=CCC2)c(F)c1[O-]
REMARK SMILES IDX 8 1 12 2 13 3 15 4 14 5 16 6 17 7 9 8 10 9 11 10 7 11 6 12
REMARK SMILES IDX 18 13 5 14 20 15 4 16 19 17 21 18 2 19 3 20 1 21
REMARK H PARENT
ROOT
ATOM      1  C   UNL     1      44.498 131.801  18.293  1.00  0.00     0.132 C 
ENDROOT
BRANCH   1   2
ATOM      2  N   UNL     1      45.115 132.447  19.240  1.00  0.00    -0.275 NA
BRANCH   2   3
ATOM      3  C   UNL     1      45.754 131.822  20.398  1.00  0.00     0.128 C 
ATOM      4  C   UNL     1      45.164 129.645  21.014  1.00  0.00    -0.029 C 
ATOM      5  C   UNL     1      45.903 130.355  20.181  1.00  0.00    -0.005 C 
ATOM      6  C   UNL     1      44.383 130.499  21.945  1.00  0.00     0.029 C 
ATOM      7  C   UNL     1      44.843 131.926  21.631  1.00  0.00     0.035 C 
ENDBRANCH   2   3
ENDBRANCH   1   2
BRANCH   1   8
ATOM      8  N   UNL     1      43.129 131.401  18.469  1.00  0.00    -0.041 NA
BRANCH   8   9
ATOM      9  N   UNL     1      42.328 132.078  19.113  1.00  0.00     0.007 N 
ATOM     10  N   UNL     1      41.528 132.758  19.755  1.00  0.00    -0.003 NA
ENDBRANCH   8   9
ENDBRANCH   1   8
BRANCH   1  11
ATOM     11  C   UNL     1      45.247 131.466  17.061  1.00  0.00     0.037 A 
ATOM     12  C   UNL     1      45.706 132.493  16.226  1.00  0.00     0.014 A 
ATOM     13  C   UNL     1      45.476 130.129  16.693  1.00  0.00     0.125 A 
ATOM     14  C   UNL     1      46.412 132.197  15.059  1.00  0.00     0.012 A 
ATOM     15  C   UNL     1      46.180 129.827  15.520  1.00  0.00    -0.060 A 
ATOM     16  C   UNL     1      46.668 130.863  14.689  1.00  0.00     0.012 A 
ATOM     17  F   UNL     1      44.976 129.114  17.444  1.00  0.00    -0.207 F 
ATOM     18  O   UNL     1      46.374 128.490  15.187  1.00  0.00    -0.870 OA
BRANCH  16  19
ATOM     19  C   UNL     1      47.432 130.560  13.445  1.00  0.00     0.159 C 
ATOM     20  O   UNL     1      47.159 131.166  12.372  1.00  0.00    -0.295 OA
ATOM     21  C   UNL     1      48.511 129.520  13.414  1.00  0.00     0.093 C 
ENDBRANCH  16  19
ENDBRANCH   1  11
TORSDOF 6
ENDMDL
MODEL 8
REMARK VINA RESULT:      -7.2      1.355      2.024
REMARK SMILES CC(=O)c1ccc(/C(N=[N+]=[N-])=N/[C@@H]2C=CCC2)c(F)c1[O-]
REMARK SMILES IDX 8 1 12 2 13 3 15 4 14 5 16 6 17 7 9 8 10 9 11 10 7 11 6 12
REMARK SMILES IDX 18 13 5 14 20 15 4 16 19 17 21 18 2 19 3 20 1 21
REMARK H PARENT
ROOT
ATOM      1  C   UNL     1      44.476 131.219  16.356  1.00  0.00     0.132 C 
ENDROOT
BRANCH   1   2
ATOM      2  N   UNL     1      45.358 130.380  15.894  1.00  0.00    -0.275 NA
BRANCH   2   3
ATOM      3  C   UNL     1      46.724 130.735  15.506  1.00  0.00     0.128 C 
ATOM      4  C   UNL     1      47.250 131.026  13.247  1.00  0.00    -0.029 C 
ATOM      5  C   UNL     1      46.711 131.611  14.301  1.00  0.00    -0.005 C 
ATOM      6  C   UNL     1      47.725 129.651  13.546  1.00  0.00     0.029 C 
ATOM      7  C   UNL     1      47.490 129.484  15.051  1.00  0.00     0.035 C 
ENDBRANCH   2   3
ENDBRANCH   1   2
BRANCH   1   8
ATOM      8  N   UNL     1      43.798 132.115  15.461  1.00  0.00    -0.041 NA
BRANCH   8   9
ATOM      9  N   UNL     1      43.334 131.738  14.385  1.00  0.00     0.007 N 
ATOM     10  N   UNL     1      42.869 131.358  13.311  1.00  0.00    -0.003 NA
ENDBRANCH   8   9
ENDBRANCH   1   8
BRANCH   1  11
ATOM     11  C   UNL     1      44.220 131.245  17.813  1.00  0.00     0.037 A 
ATOM     12  C   UNL     1      42.994 131.723  18.295  1.00  0.00     0.014 A 
ATOM     13  C   UNL     1      45.201 130.830  18.730  1.00  0.00     0.125 A 
ATOM     14  C   UNL     1      42.734 131.757  19.665  1.00  0.00     0.012 A 
ATOM     15  C   UNL     1      44.946 130.867  20.107  1.00  0.00    -0.060 A 
ATOM     16  C   UNL     1      43.700 131.324  20.594  1.00  0.00     0.012 A 
ATOM     17  F   UNL     1      46.424 130.434  18.294  1.00  0.00    -0.207 F 
ATOM     18  O   UNL     1      45.950 130.458  20.980  1.00  0.00    -0.870 OA
BRANCH  16  19
ATOM     19  C   UNL     1      43.405 131.356  22.056  1.00  0.00     0.159 C 
ATOM     20  O   UNL     1      43.608 132.410  22.720  1.00  0.00    -0.295 OA
ATOM     21  C   UNL     1      42.899 130.148  22.786  1.00  0.00     0.093 C 
ENDBRANCH  16  19
ENDBRANCH   1  11
TORSDOF 6
ENDMDL
MODEL 9
REMARK VINA RESULT:      -7.2      0.846      1.019
REMARK SMILES CC(=O)c1ccc(/C(N=[N+]=[N-])=N/[C@@H]2C=CCC2)c(F)c1[O-]
REMARK SMILES IDX 8 1 12 2 13 3 15 4 14 5 16 6 17 7 9 8 10 9 11 10 7 11 6 12
REMARK SMILES IDX 18 13 5 14 20 15 4 16 19 17 21 18 2 19 3 20 1 21
REMARK H PARENT
ROOT
ATOM      1  C   UNL     1      45.012 130.551  16.147  1.00  0.00     0.132 C 
ENDROOT
BRANCH   1   2
ATOM      2  N   UNL     1      46.187 130.495  15.590  1.00  0.00    -0.275 NA
BRANCH   2   3
ATOM      3  C   UNL     1      46.458 129.929  14.268  1.00  0.00     0.128 C 
ATOM      4  C   UNL     1      48.660 129.777  13.498  1.00  0.00    -0.029 C 
ATOM      5  C   UNL     1      47.757 129.200  14.271  1.00  0.00    -0.005 C 
ATOM      6  C   UNL     1      48.137 130.998  12.834  1.00  0.00     0.029 C 
ATOM      7  C   UNL     1      46.661 131.051  13.238  1.00  0.00     0.035 C 
ENDBRANCH   2   3
ENDBRANCH   1   2
BRANCH   1   8
ATOM      8  N   UNL     1      43.830 130.375  15.350  1.00  0.00    -0.041 NA
BRANCH   8   9
ATOM      9  N   UNL     1      43.464 131.216  14.528  1.00  0.00     0.007 N 
ATOM     10  N   UNL     1      43.097 132.053  13.706  1.00  0.00    -0.003 NA
ENDBRANCH   8   9
ENDBRANCH   1   8
BRANCH   1  11
ATOM     11  C   UNL     1      44.930 130.828  17.598  1.00  0.00     0.037 A 
ATOM     12  C   UNL     1      45.886 130.284  18.465  1.00  0.00     0.014 A 
ATOM     13  C   UNL     1      43.884 131.601  18.130  1.00  0.00     0.125 A 
ATOM     14  C   UNL     1      45.824 130.533  19.837  1.00  0.00     0.012 A 
ATOM     15  C   UNL     1      43.815 131.850  19.507  1.00  0.00    -0.060 A 
ATOM     16  C   UNL     1      44.794 131.324  20.381  1.00  0.00     0.012 A 
ATOM     17  F   UNL     1      42.902 132.077  17.322  1.00  0.00    -0.207 F 
ATOM     18  O   UNL     1      42.756 132.611  19.993  1.00  0.00    -0.870 OA
BRANCH  16  19
ATOM     19  C   UNL     1      44.745 131.591  21.848  1.00  0.00     0.159 C 
ATOM     20  O   UNL     1      43.881 131.016  22.567  1.00  0.00    -0.295 OA
ATOM     21  C   UNL     1      45.680 132.560  22.506  1.00  0.00     0.093 C 
ENDBRANCH  16  19
ENDBRANCH   1  11
TORSDOF 6
ENDMDL


