MODEL 1
REMARK VINA RESULT:     -10.5      0.000      0.000
REMARK SMILES Cn1cnc2cc(-c3ccc4cc[nH]c4c3)c[nH+]c21
REMARK SMILES IDX 1 1 2 2 3 3 4 4 5 5 6 6 7 7 17 8 18 9 19 10 8 12 9 13 16 14
REMARK SMILES IDX 10 15 15 16 11 17 14 18 12 19 13 20
REMARK H PARENT 18 11 14 21
ROOT
ATOM      1  C   UNL     1      44.205 130.568  23.888  1.00  0.00     0.298 C 
ATOM      2  N   UNL     1      43.753 131.149  22.630  1.00  0.00    -0.218 N 
ATOM      3  C   UNL     1      42.639 131.892  22.411  1.00  0.00     0.316 A 
ATOM      4  N   UNL     1      42.484 132.257  21.109  1.00  0.00    -0.208 NA
ATOM      5  C   UNL     1      43.556 131.704  20.511  1.00  0.00     0.157 A 
ATOM      6  C   UNL     1      43.911 131.743  19.168  1.00  0.00     0.049 A 
ATOM      7  C   UNL     1      45.089 131.061  18.780  1.00  0.00     0.023 A 
ATOM      8  C   UNL     1      45.846 130.376  19.774  1.00  0.00     0.206 A 
ATOM      9  N   UNL     1      45.445 130.373  21.082  1.00  0.00    -0.245 N 
ATOM     10  C   UNL     1      44.312 131.039  21.418  1.00  0.00     0.306 A 
ATOM     11  H   UNL     1      46.007 129.869  21.802  1.00  0.00     0.312 HD
ENDROOT
BRANCH   7  12
ATOM     12  C   UNL     1      45.526 131.060  17.362  1.00  0.00    -0.013 A 
ATOM     13  C   UNL     1      45.025 132.033  16.453  1.00  0.00     0.009 A 
ATOM     14  C   UNL     1      46.445 130.088  16.898  1.00  0.00     0.035 A 
ATOM     15  C   UNL     1      45.431 132.040  15.107  1.00  0.00     0.011 A 
ATOM     16  C   UNL     1      46.827 130.126  15.558  1.00  0.00     0.046 A 
ATOM     17  C   UNL     1      46.337 131.067  14.696  1.00  0.00    -0.001 A 
ATOM     18  N   UNL     1      47.676 129.298  14.928  1.00  0.00    -0.361 N 
ATOM     19  C   UNL     1      46.900 130.830  13.461  1.00  0.00     0.028 A 
ATOM     20  C   UNL     1      47.725 129.725  13.645  1.00  0.00     0.083 A 
ATOM     21  H   UNL     1      48.193 128.490  15.339  1.00  0.00     0.166 HD
ENDBRANCH   7  12
TORSDOF 1
ENDMDL
MODEL 2
REMARK VINA RESULT:      -9.8      0.932      1.114
REMARK SMILES Cn1cnc2cc(-c3ccc4cc[nH]c4c3)c[nH+]c21
REMARK SMILES IDX 1 1 2 2 3 3 4 4 5 5 6 6 7 7 17 8 18 9 19 10 8 12 9 13 16 14
REMARK SMILES IDX 10 15 15 16 11 17 14 18 12 19 13 20
REMARK H PARENT 18 11 14 21
ROOT
ATOM      1  C   UNL     1      43.177 131.366  22.855  1.00  0.00     0.298 C 
ATOM      2  N   UNL     1      42.958 131.772  21.473  1.00  0.00    -0.218 N 
ATOM      3  C   UNL     1      41.881 132.415  20.957  1.00  0.00     0.316 A 
ATOM      4  N   UNL     1      41.970 132.621  19.614  1.00  0.00    -0.208 NA
ATOM      5  C   UNL     1      43.160 132.071  19.303  1.00  0.00     0.157 A 
ATOM      6  C   UNL     1      43.770 131.981  18.058  1.00  0.00     0.049 A 
ATOM      7  C   UNL     1      45.027 131.335  17.988  1.00  0.00     0.023 A 
ATOM      8  C   UNL     1      45.600 130.816  19.184  1.00  0.00     0.206 A 
ATOM      9  N   UNL     1      44.952 130.935  20.382  1.00  0.00    -0.245 N 
ATOM     10  C   UNL     1      43.749 131.562  20.412  1.00  0.00     0.306 A 
ATOM     11  H   UNL     1      45.380 130.551  21.253  1.00  0.00     0.312 HD
ENDROOT
BRANCH   7  12
ATOM     12  C   UNL     1      45.734 131.202  16.690  1.00  0.00    -0.013 A 
ATOM     13  C   UNL     1      45.743 132.280  15.761  1.00  0.00     0.009 A 
ATOM     14  C   UNL     1      46.406 129.999  16.362  1.00  0.00     0.035 A 
ATOM     15  C   UNL     1      46.408 132.163  14.527  1.00  0.00     0.011 A 
ATOM     16  C   UNL     1      47.055 129.920  15.131  1.00  0.00     0.046 A 
ATOM     17  C   UNL     1      47.055 130.964  14.248  1.00  0.00    -0.001 A 
ATOM     18  N   UNL     1      47.738 128.876  14.636  1.00  0.00    -0.361 N 
ATOM     19  C   UNL     1      47.772 130.568  13.140  1.00  0.00     0.028 A 
ATOM     20  C   UNL     1      48.180 129.267  13.419  1.00  0.00     0.083 A 
ATOM     21  H   UNL     1      47.899 127.951  15.092  1.00  0.00     0.166 HD
ENDBRANCH   7  12
TORSDOF 1
ENDMDL
MODEL 3
REMARK VINA RESULT:      -9.6      1.282      6.929
REMARK SMILES Cn1cnc2cc(-c3ccc4cc[nH]c4c3)c[nH+]c21
REMARK SMILES IDX 1 1 2 2 3 3 4 4 5 5 6 6 7 7 17 8 18 9 19 10 8 12 9 13 16 14
REMARK SMILES IDX 10 15 15 16 11 17 14 18 12 19 13 20
REMARK H PARENT 18 11 14 21
ROOT
ATOM      1  C   UNL     1      47.968 129.489  13.989  1.00  0.00     0.298 C 
ATOM      2  N   UNL     1      46.820 130.267  14.436  1.00  0.00    -0.218 N 
ATOM      3  C   UNL     1      46.011 131.059  13.688  1.00  0.00     0.316 A 
ATOM      4  N   UNL     1      45.043 131.681  14.417  1.00  0.00    -0.208 NA
ATOM      5  C   UNL     1      45.282 131.244  15.668  1.00  0.00     0.157 A 
ATOM      6  C   UNL     1      44.602 131.562  16.837  1.00  0.00     0.049 A 
ATOM      7  C   UNL     1      45.060 130.980  18.044  1.00  0.00     0.023 A 
ATOM      8  C   UNL     1      46.183 130.105  18.000  1.00  0.00     0.206 A 
ATOM      9  N   UNL     1      46.812 129.828  16.818  1.00  0.00    -0.245 N 
ATOM     10  C   UNL     1      46.344 130.403  15.681  1.00  0.00     0.306 A 
ATOM     11  H   UNL     1      47.633 129.185  16.797  1.00  0.00     0.312 HD
ENDROOT
BRANCH   7  12
ATOM     12  C   UNL     1      44.382 131.279  19.329  1.00  0.00    -0.013 A 
ATOM     13  C   UNL     1      43.128 131.950  19.343  1.00  0.00     0.009 A 
ATOM     14  C   UNL     1      44.978 130.899  20.556  1.00  0.00     0.035 A 
ATOM     15  C   UNL     1      42.477 132.239  20.555  1.00  0.00     0.011 A 
ATOM     16  C   UNL     1      44.304 131.201  21.739  1.00  0.00     0.046 A 
ATOM     17  C   UNL     1      43.099 131.847  21.736  1.00  0.00    -0.001 A 
ATOM     18  N   UNL     1      44.700 130.933  22.993  1.00  0.00    -0.361 N 
ATOM     19  C   UNL     1      42.708 131.996  23.049  1.00  0.00     0.028 A 
ATOM     20  C   UNL     1      43.726 131.416  23.799  1.00  0.00     0.083 A 
ATOM     21  H   UNL     1      45.576 130.451  23.291  1.00  0.00     0.166 HD
ENDBRANCH   7  12
TORSDOF 1
ENDMDL
MODEL 4
REMARK VINA RESULT:      -9.6      0.707      1.670
REMARK SMILES Cn1cnc2cc(-c3ccc4cc[nH]c4c3)c[nH+]c21
REMARK SMILES IDX 1 1 2 2 3 3 4 4 5 5 6 6 7 7 17 8 18 9 19 10 8 12 9 13 16 14
REMARK SMILES IDX 10 15 15 16 11 17 14 18 12 19 13 20
REMARK H PARENT 18 11 14 21
ROOT
ATOM      1  C   UNL     1      42.419 131.950  22.821  1.00  0.00     0.298 C 
ATOM      2  N   UNL     1      43.476 131.211  22.143  1.00  0.00    -0.218 N 
ATOM      3  C   UNL     1      44.314 130.286  22.674  1.00  0.00     0.316 A 
ATOM      4  N   UNL     1      45.218 129.802  21.777  1.00  0.00    -0.208 NA
ATOM      5  C   UNL     1      44.912 130.472  20.650  1.00  0.00     0.157 A 
ATOM      6  C   UNL     1      45.521 130.387  19.404  1.00  0.00     0.049 A 
ATOM      7  C   UNL     1      45.021 131.216  18.371  1.00  0.00     0.023 A 
ATOM      8  C   UNL     1      43.929 132.086  18.655  1.00  0.00     0.206 A 
ATOM      9  N   UNL     1      43.370 132.125  19.903  1.00  0.00    -0.245 N 
ATOM     10  C   UNL     1      43.874 131.315  20.868  1.00  0.00     0.306 A 
ATOM     11  H   UNL     1      42.570 132.765  20.101  1.00  0.00     0.312 HD
ENDROOT
BRANCH   7  12
ATOM     12  C   UNL     1      45.625 131.178  17.016  1.00  0.00    -0.013 A 
ATOM     13  C   UNL     1      45.453 132.270  16.120  1.00  0.00     0.009 A 
ATOM     14  C   UNL     1      46.378 130.053  16.601  1.00  0.00     0.035 A 
ATOM     15  C   UNL     1      46.021 132.243  14.834  1.00  0.00     0.011 A 
ATOM     16  C   UNL     1      46.926 130.062  15.319  1.00  0.00     0.046 A 
ATOM     17  C   UNL     1      46.753 131.118  14.469  1.00  0.00    -0.001 A 
ATOM     18  N   UNL     1      47.661 129.099  14.740  1.00  0.00    -0.361 N 
ATOM     19  C   UNL     1      47.408 130.816  13.295  1.00  0.00     0.028 A 
ATOM     20  C   UNL     1      47.959 129.556  13.502  1.00  0.00     0.083 A 
ATOM     21  H   UNL     1      47.947 128.185  15.156  1.00  0.00     0.166 HD
ENDBRANCH   7  12
TORSDOF 1
ENDMDL
MODEL 5
REMARK VINA RESULT:      -9.4      1.167      7.119
REMARK SMILES Cn1cnc2cc(-c3ccc4cc[nH]c4c3)c[nH+]c21
REMARK SMILES IDX 1 1 2 2 3 3 4 4 5 5 6 6 7 7 17 8 18 9 19 10 8 12 9 13 16 14
REMARK SMILES IDX 10 15 15 16 11 17 14 18 12 19 13 20
REMARK H PARENT 18 11 14 21
ROOT
ATOM      1  C   UNL     1      47.777 131.410  12.390  1.00  0.00     0.298 C 
ATOM      2  N   UNL     1      47.503 130.606  13.574  1.00  0.00    -0.218 N 
ATOM      3  C   UNL     1      47.862 129.318  13.804  1.00  0.00     0.316 A 
ATOM      4  N   UNL     1      47.421 128.843  15.002  1.00  0.00    -0.208 NA
ATOM      5  C   UNL     1      46.759 129.896  15.519  1.00  0.00     0.157 A 
ATOM      6  C   UNL     1      46.088 129.982  16.732  1.00  0.00     0.049 A 
ATOM      7  C   UNL     1      45.450 131.207  17.044  1.00  0.00     0.023 A 
ATOM      8  C   UNL     1      45.528 132.279  16.111  1.00  0.00     0.206 A 
ATOM      9  N   UNL     1      46.205 132.135  14.931  1.00  0.00    -0.245 N 
ATOM     10  C   UNL     1      46.806 130.947  14.666  1.00  0.00     0.306 A 
ATOM     11  H   UNL     1      46.257 132.927  14.254  1.00  0.00     0.312 HD
ENDROOT
BRANCH   7  12
ATOM     12  C   UNL     1      44.714 131.368  18.322  1.00  0.00    -0.013 A 
ATOM     13  C   UNL     1      43.350 131.774  18.321  1.00  0.00     0.009 A 
ATOM     14  C   UNL     1      45.362 131.120  19.557  1.00  0.00     0.035 A 
ATOM     15  C   UNL     1      42.643 131.931  19.527  1.00  0.00     0.011 A 
ATOM     16  C   UNL     1      44.630 131.285  20.731  1.00  0.00     0.046 A 
ATOM     17  C   UNL     1      43.320 131.676  20.715  1.00  0.00    -0.001 A 
ATOM     18  N   UNL     1      45.059 131.107  21.991  1.00  0.00    -0.361 N 
ATOM     19  C   UNL     1      42.894 131.748  22.024  1.00  0.00     0.028 A 
ATOM     20  C   UNL     1      44.001 131.388  22.785  1.00  0.00     0.083 A 
ATOM     21  H   UNL     1      46.012 130.811  22.299  1.00  0.00     0.166 HD
ENDBRANCH   7  12
TORSDOF 1
ENDMDL
MODEL 6
REMARK VINA RESULT:      -8.9      1.292      1.841
REMARK SMILES Cn1cnc2cc(-c3ccc4cc[nH]c4c3)c[nH+]c21
REMARK SMILES IDX 1 1 2 2 3 3 4 4 5 5 6 6 7 7 17 8 18 9 19 10 8 12 9 13 16 14
REMARK SMILES IDX 10 15 15 16 11 17 14 18 12 19 13 20
REMARK H PARENT 18 11 14 21
ROOT
ATOM      1  C   UNL     1      43.000 132.095  22.789  1.00  0.00     0.298 C 
ATOM      2  N   UNL     1      42.776 132.230  21.355  1.00  0.00    -0.218 N 
ATOM      3  C   UNL     1      41.700 132.772  20.730  1.00  0.00     0.316 A 
ATOM      4  N   UNL     1      41.782 132.714  19.372  1.00  0.00    -0.208 NA
ATOM      5  C   UNL     1      42.965 132.103  19.167  1.00  0.00     0.157 A 
ATOM      6  C   UNL     1      43.566 131.769  17.960  1.00  0.00     0.049 A 
ATOM      7  C   UNL     1      44.817 131.109  18.009  1.00  0.00     0.023 A 
ATOM      8  C   UNL     1      45.393 130.823  19.280  1.00  0.00     0.206 A 
ATOM      9  N   UNL     1      44.754 131.178  20.436  1.00  0.00    -0.245 N 
ATOM     10  C   UNL     1      43.557 131.811  20.351  1.00  0.00     0.306 A 
ATOM     11  H   UNL     1      45.185 130.964  21.362  1.00  0.00     0.312 HD
ENDROOT
BRANCH   7  12
ATOM     12  C   UNL     1      45.514 130.721  16.758  1.00  0.00    -0.013 A 
ATOM     13  C   UNL     1      45.609 129.353  16.381  1.00  0.00     0.009 A 
ATOM     14  C   UNL     1      46.093 131.710  15.927  1.00  0.00     0.035 A 
ATOM     15  C   UNL     1      46.268 128.974  15.198  1.00  0.00     0.011 A 
ATOM     16  C   UNL     1      46.738 131.299  14.762  1.00  0.00     0.046 A 
ATOM     17  C   UNL     1      46.822 129.979  14.412  1.00  0.00    -0.001 A 
ATOM     18  N   UNL     1      47.350 132.073  13.851  1.00  0.00    -0.361 N 
ATOM     19  C   UNL     1      47.517 129.910  13.224  1.00  0.00     0.028 A 
ATOM     20  C   UNL     1      47.827 131.229  12.908  1.00  0.00     0.083 A 
ATOM     21  H   UNL     1      47.440 133.113  13.864  1.00  0.00     0.166 HD
ENDBRANCH   7  12
TORSDOF 1
ENDMDL
MODEL 7
REMARK VINA RESULT:      -8.7      1.447      2.536
REMARK SMILES Cn1cnc2cc(-c3ccc4cc[nH]c4c3)c[nH+]c21
REMARK SMILES IDX 1 1 2 2 3 3 4 4 5 5 6 6 7 7 17 8 18 9 19 10 8 12 9 13 16 14
REMARK SMILES IDX 10 15 15 16 11 17 14 18 12 19 13 20
REMARK H PARENT 18 11 14 21
ROOT
ATOM      1  C   UNL     1      41.073 133.098  20.968  1.00  0.00     0.298 C 
ATOM      2  N   UNL     1      42.347 132.411  20.802  1.00  0.00    -0.218 N 
ATOM      3  C   UNL     1      43.205 132.007  21.771  1.00  0.00     0.316 A 
ATOM      4  N   UNL     1      44.332 131.420  21.281  1.00  0.00    -0.208 NA
ATOM      5  C   UNL     1      44.145 131.475  19.949  1.00  0.00     0.157 A 
ATOM      6  C   UNL     1      44.989 131.027  18.940  1.00  0.00     0.049 A 
ATOM      7  C   UNL     1      44.571 131.216  17.601  1.00  0.00     0.023 A 
ATOM      8  C   UNL     1      43.319 131.849  17.355  1.00  0.00     0.206 A 
ATOM      9  N   UNL     1      42.530 132.269  18.391  1.00  0.00    -0.245 N 
ATOM     10  C   UNL     1      42.962 132.069  19.662  1.00  0.00     0.306 A 
ATOM     11  H   UNL     1      41.614 132.731  18.200  1.00  0.00     0.312 HD
ENDROOT
BRANCH   7  12
ATOM     12  C   UNL     1      45.424 130.764  16.474  1.00  0.00    -0.013 A 
ATOM     13  C   UNL     1      45.712 129.382  16.299  1.00  0.00     0.009 A 
ATOM     14  C   UNL     1      45.963 131.705  15.563  1.00  0.00     0.035 A 
ATOM     15  C   UNL     1      46.521 128.943  15.236  1.00  0.00     0.011 A 
ATOM     16  C   UNL     1      46.759 131.234  14.521  1.00  0.00     0.046 A 
ATOM     17  C   UNL     1      47.027 129.902  14.365  1.00  0.00    -0.001 A 
ATOM     18  N   UNL     1      47.361 131.957  13.564  1.00  0.00    -0.361 N 
ATOM     19  C   UNL     1      47.836 129.770  13.257  1.00  0.00     0.028 A 
ATOM     20  C   UNL     1      48.020 131.067  12.787  1.00  0.00     0.083 A 
ATOM     21  H   UNL     1      47.330 132.993  13.440  1.00  0.00     0.166 HD
ENDBRANCH   7  12
TORSDOF 1
ENDMDL
MODEL 8
REMARK VINA RESULT:      -8.1      1.702      7.255
REMARK SMILES Cn1cnc2cc(-c3ccc4cc[nH]c4c3)c[nH+]c21
REMARK SMILES IDX 1 1 2 2 3 3 4 4 5 5 6 6 7 7 17 8 18 9 19 10 8 12 9 13 16 14
REMARK SMILES IDX 10 15 15 16 11 17 14 18 12 19 13 20
REMARK H PARENT 18 11 14 21
ROOT
ATOM      1  C   UNL     1      47.833 131.275  12.320  1.00  0.00     0.298 C 
ATOM      2  N   UNL     1      47.561 130.497  13.521  1.00  0.00    -0.218 N 
ATOM      3  C   UNL     1      47.902 129.207  13.770  1.00  0.00     0.316 A 
ATOM      4  N   UNL     1      47.469 128.761  14.981  1.00  0.00    -0.208 NA
ATOM      5  C   UNL     1      46.832 129.834  15.488  1.00  0.00     0.157 A 
ATOM      6  C   UNL     1      46.178 129.953  16.707  1.00  0.00     0.049 A 
ATOM      7  C   UNL     1      45.565 131.193  17.006  1.00  0.00     0.023 A 
ATOM      8  C   UNL     1      45.648 132.248  16.053  1.00  0.00     0.206 A 
ATOM      9  N   UNL     1      46.307 132.071  14.867  1.00  0.00    -0.245 N 
ATOM     10  C   UNL     1      46.884 130.869  14.615  1.00  0.00     0.306 A 
ATOM     11  H   UNL     1      46.362 132.851  14.175  1.00  0.00     0.312 HD
ENDROOT
BRANCH   7  12
ATOM     12  C   UNL     1      44.848 131.389  18.291  1.00  0.00    -0.013 A 
ATOM     13  C   UNL     1      45.383 130.867  19.501  1.00  0.00     0.009 A 
ATOM     14  C   UNL     1      43.621 132.095  18.324  1.00  0.00     0.035 A 
ATOM     15  C   UNL     1      44.711 131.045  20.723  1.00  0.00     0.011 A 
ATOM     16  C   UNL     1      42.983 132.254  19.553  1.00  0.00     0.046 A 
ATOM     17  C   UNL     1      43.510 131.746  20.709  1.00  0.00    -0.001 A 
ATOM     18  N   UNL     1      41.821 132.882  19.793  1.00  0.00    -0.361 N 
ATOM     19  C   UNL     1      42.645 132.067  21.732  1.00  0.00     0.028 A 
ATOM     20  C   UNL     1      41.610 132.772  21.125  1.00  0.00     0.083 A 
ATOM     21  H   UNL     1      41.204 133.359  19.099  1.00  0.00     0.166 HD
ENDBRANCH   7  12
TORSDOF 1
ENDMDL
MODEL 9
REMARK VINA RESULT:      -8.1      1.419      7.047
REMARK SMILES Cn1cnc2cc(-c3ccc4cc[nH]c4c3)c[nH+]c21
REMARK SMILES IDX 1 1 2 2 3 3 4 4 5 5 6 6 7 7 17 8 18 9 19 10 8 12 9 13 16 14
REMARK SMILES IDX 10 15 15 16 11 17 14 18 12 19 13 20
REMARK H PARENT 18 11 14 21
ROOT
ATOM      1  C   UNL     1      48.008 129.581  13.644  1.00  0.00     0.298 C 
ATOM      2  N   UNL     1      46.868 130.284  14.219  1.00  0.00    -0.218 N 
ATOM      3  C   UNL     1      45.965 131.067  13.576  1.00  0.00     0.316 A 
ATOM      4  N   UNL     1      45.035 131.610  14.410  1.00  0.00    -0.208 NA
ATOM      5  C   UNL     1      45.397 131.133  15.616  1.00  0.00     0.157 A 
ATOM      6  C   UNL     1      44.804 131.368  16.850  1.00  0.00     0.049 A 
ATOM      7  C   UNL     1      45.387 130.759  17.987  1.00  0.00     0.023 A 
ATOM      8  C   UNL     1      46.540 129.941  17.812  1.00  0.00     0.206 A 
ATOM      9  N   UNL     1      47.079 129.745  16.570  1.00  0.00    -0.245 N 
ATOM     10  C   UNL     1      46.492 130.344  15.503  1.00  0.00     0.306 A 
ATOM     11  H   UNL     1      47.924 129.143  16.452  1.00  0.00     0.312 HD
ENDROOT
BRANCH   7  12
ATOM     12  C   UNL     1      44.806 130.970  19.336  1.00  0.00    -0.013 A 
ATOM     13  C   UNL     1      45.463 130.459  20.490  1.00  0.00     0.009 A 
ATOM     14  C   UNL     1      43.590 131.679  19.487  1.00  0.00     0.035 A 
ATOM     15  C   UNL     1      44.920 130.652  21.773  1.00  0.00     0.011 A 
ATOM     16  C   UNL     1      43.083 131.852  20.774  1.00  0.00     0.046 A 
ATOM     17  C   UNL     1      43.725 131.356  21.875  1.00  0.00    -0.001 A 
ATOM     18  N   UNL     1      41.952 132.485  21.126  1.00  0.00    -0.361 N 
ATOM     19  C   UNL     1      42.971 131.690  22.978  1.00  0.00     0.028 A 
ATOM     20  C   UNL     1      41.880 132.390  22.473  1.00  0.00     0.083 A 
ATOM     21  H   UNL     1      41.268 132.956  20.494  1.00  0.00     0.166 HD
ENDBRANCH   7  12
TORSDOF 1
ENDMDL


