REMARK SMILES C=Cc1ccc(-c2ccc(O)cc2)c2c[n-]nc12
REMARK SMILES IDX 3 1 4 2 5 3 6 4 14 5 15 6 16 7 17 8 18 9 2 10 1 11 7 12 8 13
REMARK SMILES IDX 13 14 9 15 12 16 10 17 11 18
REMARK H PARENT 11 19
ROOT
ATOM      1  C   UNL     1       0.296   0.072   1.633  1.00  0.00    -0.002 A 
ATOM      2  C   UNL     1       1.690  -0.022   1.391  1.00  0.00     0.011 A 
ATOM      3  C   UNL     1       2.191  -0.151   0.077  1.00  0.00     0.010 A 
ATOM      4  C   UNL     1       1.319  -0.175  -1.033  1.00  0.00    -0.011 A 
ATOM      5  C   UNL     1      -0.051  -0.075  -0.762  1.00  0.00    -0.014 A 
ATOM      6  C   UNL     1      -1.167  -0.110  -1.570  1.00  0.00    -0.113 A 
ATOM      7  N   UNL     1      -2.263  -0.002  -0.786  1.00  0.00    -0.581 NA
ATOM      8  N   UNL     1      -1.884   0.092   0.485  1.00  0.00    -0.367 NA
ATOM      9  C   UNL     1      -0.539   0.046   0.510  1.00  0.00     0.055 A 
ENDROOT
BRANCH   1  10
ATOM     10  C   UNL     1      -0.288   0.212   2.990  1.00  0.00     0.002 C 
ATOM     11  C   UNL     1       0.374  -0.037   4.120  1.00  0.00     0.009 C 
ENDBRANCH   1  10
BRANCH   4  12
ATOM     12  C   UNL     1       1.849  -0.299  -2.411  1.00  0.00    -0.018 A 
ATOM     13  C   UNL     1       1.420   0.575  -3.425  1.00  0.00     0.012 A 
ATOM     14  C   UNL     1       2.812  -1.277  -2.713  1.00  0.00     0.012 A 
ATOM     15  C   UNL     1       1.932   0.461  -4.720  1.00  0.00     0.047 A 
ATOM     16  C   UNL     1       3.322  -1.389  -4.010  1.00  0.00     0.047 A 
ATOM     17  C   UNL     1       2.882  -0.521  -5.018  1.00  0.00     0.115 A 
BRANCH  17  18
ATOM     18  O   UNL     1       3.382  -0.624  -6.314  1.00  0.00    -0.508 OA
ATOM     19  H   UNL     1       4.072  -1.324  -6.561  1.00  0.00     0.293 HD
ENDBRANCH  17  18
ENDBRANCH   4  12
TORSDOF 3


