REMARK SMILES CC(C)c1ccc(/N=C(\O)N(N)c2ccccc2-c2[nH]c3ccccc3[nH+]2)cc1
REMARK SMILES IDX 9 1 10 2 8 4 7 5 6 6 28 7 5 8 29 9 4 10 2 11 1 12 3 13 11 14
REMARK SMILES IDX 13 15 14 16 18 17 15 18 17 19 16 20 19 21 20 22 27 23 21 24
REMARK SMILES IDX 26 25 22 26 25 27 23 28 24 29 12 32
REMARK H PARENT 10 3 20 30 27 31 12 33 12 34
ROOT
ATOM      1  C   UNL     1      -0.259  -1.607   1.128  1.00  0.00     0.309 C 
ENDROOT
BRANCH   1   2
ATOM      2  O   UNL     1      -1.516  -1.952   0.622  1.00  0.00    -0.479 OA
ATOM      3  H   UNL     1      -2.099  -1.310   0.102  1.00  0.00     0.297 HD
ENDBRANCH   1   2
BRANCH   1   4
ATOM      4  N   UNL     1       0.167  -0.375   1.118  1.00  0.00    -0.196 NA
BRANCH   4   5
ATOM      5  C   UNL     1      -0.576   0.784   0.717  1.00  0.00     0.069 A 
ATOM      6  C   UNL     1      -1.858   1.041   1.227  1.00  0.00     0.029 A 
ATOM      7  C   UNL     1       0.032   1.726  -0.119  1.00  0.00     0.029 A 
ATOM      8  C   UNL     1      -2.545   2.201   0.856  1.00  0.00     0.006 A 
ATOM      9  C   UNL     1      -0.652   2.885  -0.494  1.00  0.00     0.006 A 
ATOM     10  C   UNL     1      -1.953   3.132  -0.015  1.00  0.00    -0.045 A 
BRANCH  10  11
ATOM     11  C   UNL     1      -2.709   4.386  -0.414  1.00  0.00     0.013 C 
ATOM     12  C   UNL     1      -2.945   4.430  -1.928  1.00  0.00     0.012 C 
ATOM     13  C   UNL     1      -1.982   5.646   0.069  1.00  0.00     0.012 C 
ENDBRANCH  10  11
ENDBRANCH   4   5
ENDBRANCH   1   4
BRANCH   1  14
ATOM     14  N   UNL     1       0.593  -2.654   1.637  1.00  0.00    -0.231 N 
BRANCH  14  15
ATOM     15  C   UNL     1       1.954  -2.400   2.031  1.00  0.00     0.078 A 
ATOM     16  C   UNL     1       2.339  -2.688   3.350  1.00  0.00     0.029 A 
ATOM     17  C   UNL     1       2.906  -1.849   1.133  1.00  0.00     0.089 A 
ATOM     18  C   UNL     1       3.632  -2.403   3.792  1.00  0.00     0.002 A 
ATOM     19  C   UNL     1       4.198  -1.552   1.601  1.00  0.00     0.019 A 
ATOM     20  C   UNL     1       4.557  -1.829   2.921  1.00  0.00     0.001 A 
BRANCH  17  21
ATOM     21  C   UNL     1       2.587  -1.588  -0.288  1.00  0.00     0.287 A 
ATOM     22  N   UNL     1       1.831  -2.410  -1.062  1.00  0.00    -0.236 N 
ATOM     23  N   UNL     1       2.998  -0.476  -0.951  1.00  0.00    -0.236 N 
ATOM     24  C   UNL     1       1.756  -1.772  -2.240  1.00  0.00     0.172 A 
ATOM     25  C   UNL     1       2.459  -0.605  -2.173  1.00  0.00     0.172 A 
ATOM     26  C   UNL     1       1.073  -2.159  -3.391  1.00  0.00     0.056 A 
ATOM     27  C   UNL     1       2.532   0.276  -3.249  1.00  0.00     0.056 A 
ATOM     28  C   UNL     1       1.129  -1.295  -4.502  1.00  0.00     0.005 A 
ATOM     29  C   UNL     1       1.855  -0.082  -4.431  1.00  0.00     0.005 A 
ATOM     30  H   UNL     1       1.405  -3.329  -0.808  1.00  0.00     0.312 HD
ATOM     31  H   UNL     1       3.567   0.321  -0.586  1.00  0.00     0.312 HD
ENDBRANCH  17  21
ENDBRANCH  14  15
BRANCH  14  32
ATOM     32  N   UNL     1       0.062  -3.936   1.866  1.00  0.00    -0.239 NA
ATOM     33  H   UNL     1      -0.315  -4.295   0.960  1.00  0.00     0.144 HD
ATOM     34  H   UNL     1      -0.739  -3.836   2.531  1.00  0.00     0.144 HD
ENDBRANCH  14  32
ENDBRANCH   1  14
TORSDOF 8


