MODEL 1
REMARK VINA RESULT:      -5.6      0.000      0.000
REMARK SMILES Fc1cccc(F)c1C/C=C(\O/C(S)=[NH+]/Cc1cc(Cl)cc(Cl)c1)c1ccccc1
REMARK SMILES IDX 12 1 13 2 14 3 15 5 16 7 17 8 18 9 24 10 19 11 22 12 21 13
REMARK SMILES IDX 20 14 23 15 11 16 10 17 9 18 8 19 2 20 6 21 3 22 5 23 4 24
REMARK SMILES IDX 1 25 7 26 25 27 26 28 30 29 27 30 29 31 28 32
REMARK H PARENT 14 4 15 6
ROOT
ATOM      1  O   UNL     1      45.168 132.544  19.596  1.00  0.00    -0.400 OA
ENDROOT
BRANCH   1   2
ATOM      2  C   UNL     1      44.195 131.673  19.082  1.00  0.00     0.401 C 
BRANCH   2   3
ATOM      3  S   UNL     1      42.479 132.187  19.219  1.00  0.00    -0.031 SA
ATOM      4  H   UNL     1      42.084 131.312  18.190  1.00  0.00     0.118 HD
ENDBRANCH   2   3
BRANCH   2   5
ATOM      5  N   UNL     1      44.526 130.544  18.513  1.00  0.00    -0.200 N 
ATOM      6  H   UNL     1      43.828 129.768  18.476  1.00  0.00     0.450 HD
BRANCH   5   7
ATOM      7  C   UNL     1      45.841 130.309  17.909  1.00  0.00     0.389 C 
BRANCH   7   8
ATOM      8  C   UNL     1      45.768 130.453  16.412  1.00  0.00     0.019 A 
ATOM      9  C   UNL     1      44.617 130.972  15.798  1.00  0.00     0.030 A 
ATOM     10  C   UNL     1      46.882 130.127  15.624  1.00  0.00     0.030 A 
ATOM     11  C   UNL     1      44.576 131.144  14.410  1.00  0.00     0.043 A 
ATOM     12  C   UNL     1      46.843 130.306  14.236  1.00  0.00     0.043 A 
ATOM     13  C   UNL     1      45.689 130.812  13.630  1.00  0.00     0.041 A 
ATOM     14  Cl  UNL     1      43.131 131.784  13.648  1.00  0.00    -0.084 Cl
ATOM     15  Cl  UNL     1      48.244 129.905  13.261  1.00  0.00    -0.084 Cl
ENDBRANCH   7   8
ENDBRANCH   5   7
ENDBRANCH   2   5
ENDBRANCH   1   2
BRANCH   1  16
ATOM     16  C   UNL     1      45.596 132.562  20.933  1.00  0.00     0.138 C 
BRANCH  16  17
ATOM     17  C   UNL     1      46.517 133.453  21.346  1.00  0.00     0.026 C 
BRANCH  17  18
ATOM     18  C   UNL     1      47.357 133.238  22.576  1.00  0.00     0.073 C 
BRANCH  18  19
ATOM     19  C   UNL     1      48.542 134.171  22.585  1.00  0.00     0.027 A 
ATOM     20  C   UNL     1      48.557 135.308  21.753  1.00  0.00     0.129 A 
ATOM     21  C   UNL     1      49.616 133.953  23.470  1.00  0.00     0.129 A 
ATOM     22  C   UNL     1      49.645 136.187  21.784  1.00  0.00     0.040 A 
ATOM     23  C   UNL     1      50.699 134.839  23.495  1.00  0.00     0.040 A 
ATOM     24  C   UNL     1      50.714 135.952  22.650  1.00  0.00     0.006 A 
ATOM     25  F   UNL     1      47.518 135.573  20.922  1.00  0.00    -0.207 F 
ATOM     26  F   UNL     1      49.612 132.891  24.315  1.00  0.00    -0.207 F 
ENDBRANCH  18  19
ENDBRANCH  17  18
ENDBRANCH  16  17
BRANCH  16  27
ATOM     27  C   UNL     1      45.012 131.562  21.863  1.00  0.00     0.017 A 
ATOM     28  C   UNL     1      45.234 130.178  21.705  1.00  0.00     0.012 A 
ATOM     29  C   UNL     1      44.183 132.001  22.912  1.00  0.00     0.012 A 
ATOM     30  C   UNL     1      44.656 129.263  22.590  1.00  0.00     0.001 A 
ATOM     31  C   UNL     1      43.612 131.082  23.797  1.00  0.00     0.001 A 
ATOM     32  C   UNL     1      43.850 129.714  23.638  1.00  0.00     0.000 A 
ENDBRANCH  16  27
ENDBRANCH   1  16
TORSDOF 10
ENDMDL
MODEL 2
REMARK VINA RESULT:      -5.2      3.630      5.998
REMARK SMILES Fc1cccc(F)c1C/C=C(\O/C(S)=[NH+]/Cc1cc(Cl)cc(Cl)c1)c1ccccc1
REMARK SMILES IDX 12 1 13 2 14 3 15 5 16 7 17 8 18 9 24 10 19 11 22 12 21 13
REMARK SMILES IDX 20 14 23 15 11 16 10 17 9 18 8 19 2 20 6 21 3 22 5 23 4 24
REMARK SMILES IDX 1 25 7 26 25 27 26 28 30 29 27 30 29 31 28 32
REMARK H PARENT 14 4 15 6
ROOT
ATOM      1  O   UNL     1      44.947 130.435  21.006  1.00  0.00    -0.400 OA
ENDROOT
BRANCH   1   2
ATOM      2  C   UNL     1      45.867 131.250  20.326  1.00  0.00     0.401 C 
BRANCH   2   3
ATOM      3  S   UNL     1      46.623 132.586  21.258  1.00  0.00    -0.031 SA
ATOM      4  H   UNL     1      47.854 132.415  20.599  1.00  0.00     0.118 HD
ENDBRANCH   2   3
BRANCH   2   5
ATOM      5  N   UNL     1      46.173 131.032  19.074  1.00  0.00    -0.200 N 
ATOM      6  H   UNL     1      46.865 131.656  18.603  1.00  0.00     0.450 HD
BRANCH   5   7
ATOM      7  C   UNL     1      45.593 129.938  18.289  1.00  0.00     0.389 C 
BRANCH   7   8
ATOM      8  C   UNL     1      45.661 130.251  16.818  1.00  0.00     0.019 A 
ATOM      9  C   UNL     1      46.774 129.863  16.054  1.00  0.00     0.030 A 
ATOM     10  C   UNL     1      44.576 130.878  16.187  1.00  0.00     0.030 A 
ATOM     11  C   UNL     1      46.807 130.119  14.679  1.00  0.00     0.043 A 
ATOM     12  C   UNL     1      44.608 131.127  14.810  1.00  0.00     0.043 A 
ATOM     13  C   UNL     1      45.724 130.749  14.057  1.00  0.00     0.041 A 
ATOM     14  Cl  UNL     1      48.204 129.641  13.732  1.00  0.00    -0.084 Cl
ATOM     15  Cl  UNL     1      43.242 131.902  14.028  1.00  0.00    -0.084 Cl
ENDBRANCH   7   8
ENDBRANCH   5   7
ENDBRANCH   2   5
ENDBRANCH   1   2
BRANCH   1  16
ATOM     16  C   UNL     1      44.204 130.836  22.127  1.00  0.00     0.138 C 
BRANCH  16  17
ATOM     17  C   UNL     1      44.559 130.436  23.363  1.00  0.00     0.026 C 
BRANCH  17  18
ATOM     18  C   UNL     1      43.585 129.805  24.321  1.00  0.00     0.073 C 
BRANCH  18  19
ATOM     19  C   UNL     1      43.257 128.394  23.899  1.00  0.00     0.027 A 
ATOM     20  C   UNL     1      41.916 127.995  23.735  1.00  0.00     0.129 A 
ATOM     21  C   UNL     1      44.288 127.481  23.600  1.00  0.00     0.129 A 
ATOM     22  C   UNL     1      41.616 126.695  23.316  1.00  0.00     0.040 A 
ATOM     23  C   UNL     1      43.978 126.184  23.179  1.00  0.00     0.040 A 
ATOM     24  C   UNL     1      42.644 125.790  23.041  1.00  0.00     0.006 A 
ATOM     25  F   UNL     1      40.900 128.864  23.970  1.00  0.00    -0.207 F 
ATOM     26  F   UNL     1      45.590 127.848  23.705  1.00  0.00    -0.207 F 
ENDBRANCH  18  19
ENDBRANCH  17  18
ENDBRANCH  16  17
BRANCH  16  27
ATOM     27  C   UNL     1      43.016 131.697  21.902  1.00  0.00     0.017 A 
ATOM     28  C   UNL     1      42.683 132.189  20.623  1.00  0.00     0.012 A 
ATOM     29  C   UNL     1      42.216 132.066  23.000  1.00  0.00     0.012 A 
ATOM     30  C   UNL     1      41.564 133.010  20.449  1.00  0.00     0.001 A 
ATOM     31  C   UNL     1      41.097 132.884  22.819  1.00  0.00     0.001 A 
ATOM     32  C   UNL     1      40.770 133.354  21.545  1.00  0.00     0.000 A 
ENDBRANCH  16  27
ENDBRANCH   1  16
TORSDOF 10
ENDMDL
MODEL 3
REMARK VINA RESULT:      -5.0      0.487      1.933
REMARK SMILES Fc1cccc(F)c1C/C=C(\O/C(S)=[NH+]/Cc1cc(Cl)cc(Cl)c1)c1ccccc1
REMARK SMILES IDX 12 1 13 2 14 3 15 5 16 7 17 8 18 9 24 10 19 11 22 12 21 13
REMARK SMILES IDX 20 14 23 15 11 16 10 17 9 18 8 19 2 20 6 21 3 22 5 23 4 24
REMARK SMILES IDX 1 25 7 26 25 27 26 28 30 29 27 30 29 31 28 32
REMARK H PARENT 14 4 15 6
ROOT
ATOM      1  O   UNL     1      44.564 132.972  19.952  1.00  0.00    -0.400 OA
ENDROOT
BRANCH   1   2
ATOM      2  C   UNL     1      43.632 132.075  19.409  1.00  0.00     0.401 C 
BRANCH   2   3
ATOM      3  S   UNL     1      41.898 132.371  19.776  1.00  0.00    -0.031 SA
ATOM      4  H   UNL     1      42.042 131.878  21.086  1.00  0.00     0.118 HD
ENDBRANCH   2   3
BRANCH   2   5
ATOM      5  N   UNL     1      44.009 131.077  18.653  1.00  0.00    -0.200 N 
ATOM      6  H   UNL     1      43.295 130.388  18.326  1.00  0.00     0.450 HD
BRANCH   5   7
ATOM      7  C   UNL     1      45.398 130.877  18.229  1.00  0.00     0.389 C 
BRANCH   7   8
ATOM      8  C   UNL     1      45.490 130.838  16.726  1.00  0.00     0.019 A 
ATOM      9  C   UNL     1      46.601 130.261  16.092  1.00  0.00     0.030 A 
ATOM     10  C   UNL     1      44.427 131.325  15.949  1.00  0.00     0.030 A 
ATOM     11  C   UNL     1      46.655 130.189  14.695  1.00  0.00     0.043 A 
ATOM     12  C   UNL     1      44.480 131.246  14.553  1.00  0.00     0.043 A 
ATOM     13  C   UNL     1      45.594 130.680  13.927  1.00  0.00     0.041 A 
ATOM     14  Cl  UNL     1      48.051 129.475  13.908  1.00  0.00    -0.084 Cl
ATOM     15  Cl  UNL     1      43.142 131.847  13.591  1.00  0.00    -0.084 Cl
ENDBRANCH   7   8
ENDBRANCH   5   7
ENDBRANCH   2   5
ENDBRANCH   1   2
BRANCH   1  16
ATOM     16  C   UNL     1      45.296 132.746  21.129  1.00  0.00     0.138 C 
BRANCH  16  17
ATOM     17  C   UNL     1      46.352 133.523  21.439  1.00  0.00     0.026 C 
BRANCH  17  18
ATOM     18  C   UNL     1      47.632 132.963  21.999  1.00  0.00     0.073 C 
BRANCH  18  19
ATOM     19  C   UNL     1      48.645 134.059  22.217  1.00  0.00     0.027 A 
ATOM     20  C   UNL     1      48.589 135.241  21.452  1.00  0.00     0.129 A 
ATOM     21  C   UNL     1      49.616 133.942  23.231  1.00  0.00     0.129 A 
ATOM     22  C   UNL     1      49.511 136.268  21.677  1.00  0.00     0.040 A 
ATOM     23  C   UNL     1      50.534 134.975  23.449  1.00  0.00     0.040 A 
ATOM     24  C   UNL     1      50.484 136.135  22.670  1.00  0.00     0.006 A 
ATOM     25  F   UNL     1      47.637 135.405  20.499  1.00  0.00    -0.207 F 
ATOM     26  F   UNL     1      49.670 132.835  24.013  1.00  0.00    -0.207 F 
ENDBRANCH  18  19
ENDBRANCH  17  18
ENDBRANCH  16  17
BRANCH  16  27
ATOM     27  C   UNL     1      44.877 131.621  22.002  1.00  0.00     0.017 A 
ATOM     28  C   UNL     1      44.212 131.836  23.227  1.00  0.00     0.012 A 
ATOM     29  C   UNL     1      45.182 130.302  21.618  1.00  0.00     0.012 A 
ATOM     30  C   UNL     1      43.845 130.753  24.032  1.00  0.00     0.001 A 
ATOM     31  C   UNL     1      44.809 129.223  22.425  1.00  0.00     0.001 A 
ATOM     32  C   UNL     1      44.139 129.449  23.630  1.00  0.00     0.000 A 
ENDBRANCH  16  27
ENDBRANCH   1  16
TORSDOF 10
ENDMDL
MODEL 4
REMARK VINA RESULT:      -3.3      2.799      5.986
REMARK SMILES Fc1cccc(F)c1C/C=C(\O/C(S)=[NH+]/Cc1cc(Cl)cc(Cl)c1)c1ccccc1
REMARK SMILES IDX 12 1 13 2 14 3 15 5 16 7 17 8 18 9 24 10 19 11 22 12 21 13
REMARK SMILES IDX 20 14 23 15 11 16 10 17 9 18 8 19 2 20 6 21 3 22 5 23 4 24
REMARK SMILES IDX 1 25 7 26 25 27 26 28 30 29 27 30 29 31 28 32
REMARK H PARENT 14 4 15 6
ROOT
ATOM      1  O   UNL     1      44.340 131.348  20.817  1.00  0.00    -0.400 OA
ENDROOT
BRANCH   1   2
ATOM      2  C   UNL     1      45.095 130.376  20.141  1.00  0.00     0.401 C 
BRANCH   2   3
ATOM      3  S   UNL     1      45.541 128.898  21.059  1.00  0.00    -0.031 SA
ATOM      4  H   UNL     1      46.249 128.372  19.963  1.00  0.00     0.118 HD
ENDBRANCH   2   3
BRANCH   2   5
ATOM      5  N   UNL     1      45.442 130.535  18.891  1.00  0.00    -0.200 N 
ATOM      6  H   UNL     1      45.908 129.747  18.388  1.00  0.00     0.450 HD
BRANCH   5   7
ATOM      7  C   UNL     1      45.201 131.774  18.146  1.00  0.00     0.389 C 
BRANCH   7   8
ATOM      8  C   UNL     1      45.254 131.517  16.663  1.00  0.00     0.019 A 
ATOM      9  C   UNL     1      46.428 131.037  16.061  1.00  0.00     0.030 A 
ATOM     10  C   UNL     1      44.102 131.697  15.882  1.00  0.00     0.030 A 
ATOM     11  C   UNL     1      46.452 130.759  14.690  1.00  0.00     0.043 A 
ATOM     12  C   UNL     1      44.126 131.412  14.512  1.00  0.00     0.043 A 
ATOM     13  C   UNL     1      45.301 130.945  13.916  1.00  0.00     0.041 A 
ATOM     14  Cl  UNL     1      47.925 130.169  13.941  1.00  0.00    -0.084 Cl
ATOM     15  Cl  UNL     1      42.678 131.629  13.547  1.00  0.00    -0.084 Cl
ENDBRANCH   7   8
ENDBRANCH   5   7
ENDBRANCH   2   5
ENDBRANCH   1   2
BRANCH   1  16
ATOM     16  C   UNL     1      44.379 131.564  22.204  1.00  0.00     0.138 C 
BRANCH  16  17
ATOM     17  C   UNL     1      43.486 130.966  23.016  1.00  0.00     0.026 C 
BRANCH  17  18
ATOM     18  C   UNL     1      43.900 130.107  24.181  1.00  0.00     0.073 C 
BRANCH  18  19
ATOM     19  C   UNL     1      43.177 128.784  24.153  1.00  0.00     0.027 A 
ATOM     20  C   UNL     1      41.769 128.743  24.137  1.00  0.00     0.129 A 
ATOM     21  C   UNL     1      43.901 127.577  24.077  1.00  0.00     0.129 A 
ATOM     22  C   UNL     1      41.102 127.515  24.081  1.00  0.00     0.040 A 
ATOM     23  C   UNL     1      43.225 126.354  24.020  1.00  0.00     0.040 A 
ATOM     24  C   UNL     1      41.828 126.323  24.026  1.00  0.00     0.006 A 
ATOM     25  F   UNL     1      41.042 129.888  24.162  1.00  0.00    -0.207 F 
ATOM     26  F   UNL     1      45.257 127.584  24.048  1.00  0.00    -0.207 F 
ENDBRANCH  18  19
ENDBRANCH  17  18
ENDBRANCH  16  17
BRANCH  16  27
ATOM     27  C   UNL     1      45.421 132.478  22.736  1.00  0.00     0.017 A 
ATOM     28  C   UNL     1      46.472 132.960  21.929  1.00  0.00     0.012 A 
ATOM     29  C   UNL     1      45.384 132.847  24.093  1.00  0.00     0.012 A 
ATOM     30  C   UNL     1      47.445 133.808  22.466  1.00  0.00     0.001 A 
ATOM     31  C   UNL     1      46.358 133.698  24.624  1.00  0.00     0.001 A 
ATOM     32  C   UNL     1      47.386 134.180  23.811  1.00  0.00     0.000 A 
ENDBRANCH  16  27
ENDBRANCH   1  16
TORSDOF 10
ENDMDL
MODEL 5
REMARK VINA RESULT:      -2.8      5.163      8.147
REMARK SMILES Fc1cccc(F)c1C/C=C(\O/C(S)=[NH+]/Cc1cc(Cl)cc(Cl)c1)c1ccccc1
REMARK SMILES IDX 12 1 13 2 14 3 15 5 16 7 17 8 18 9 24 10 19 11 22 12 21 13
REMARK SMILES IDX 20 14 23 15 11 16 10 17 9 18 8 19 2 20 6 21 3 22 5 23 4 24
REMARK SMILES IDX 1 25 7 26 25 27 26 28 30 29 27 30 29 31 28 32
REMARK H PARENT 14 4 15 6
ROOT
ATOM      1  O   UNL     1      45.014 129.572  20.414  1.00  0.00    -0.400 OA
ENDROOT
BRANCH   1   2
ATOM      2  C   UNL     1      44.913 129.768  21.800  1.00  0.00     0.401 C 
BRANCH   2   3
ATOM      3  S   UNL     1      44.162 131.301  22.359  1.00  0.00    -0.031 SA
ATOM      4  H   UNL     1      44.378 130.972  23.709  1.00  0.00     0.118 HD
ENDBRANCH   2   3
BRANCH   2   5
ATOM      5  N   UNL     1      45.333 128.865  22.647  1.00  0.00    -0.200 N 
ATOM      6  H   UNL     1      46.232 128.369  22.458  1.00  0.00     0.450 HD
BRANCH   5   7
ATOM      7  C   UNL     1      44.601 128.514  23.868  1.00  0.00     0.389 C 
BRANCH   7   8
ATOM      8  C   UNL     1      43.575 127.449  23.580  1.00  0.00     0.019 A 
ATOM      9  C   UNL     1      43.957 126.218  23.026  1.00  0.00     0.030 A 
ATOM     10  C   UNL     1      42.232 127.662  23.929  1.00  0.00     0.030 A 
ATOM     11  C   UNL     1      43.002 125.219  22.805  1.00  0.00     0.043 A 
ATOM     12  C   UNL     1      41.280 126.660  23.714  1.00  0.00     0.043 A 
ATOM     13  C   UNL     1      41.665 125.439  23.151  1.00  0.00     0.041 A 
ATOM     14  Cl  UNL     1      43.484 123.686  22.101  1.00  0.00    -0.084 Cl
ATOM     15  Cl  UNL     1      39.606 126.931  24.163  1.00  0.00    -0.084 Cl
ENDBRANCH   7   8
ENDBRANCH   5   7
ENDBRANCH   2   5
ENDBRANCH   1   2
BRANCH   1  16
ATOM     16  C   UNL     1      44.873 130.585  19.453  1.00  0.00     0.138 C 
BRANCH  16  17
ATOM     17  C   UNL     1      45.795 130.745  18.485  1.00  0.00     0.026 C 
BRANCH  17  18
ATOM     18  C   UNL     1      46.079 129.686  17.454  1.00  0.00     0.073 C 
BRANCH  18  19
ATOM     19  C   UNL     1      45.972 130.253  16.060  1.00  0.00     0.027 A 
ATOM     20  C   UNL     1      47.034 130.101  15.147  1.00  0.00     0.129 A 
ATOM     21  C   UNL     1      44.786 130.884  15.636  1.00  0.00     0.129 A 
ATOM     22  C   UNL     1      46.921 130.603  13.847  1.00  0.00     0.040 A 
ATOM     23  C   UNL     1      44.681 131.381  14.332  1.00  0.00     0.040 A 
ATOM     24  C   UNL     1      45.748 131.244  13.441  1.00  0.00     0.006 A 
ATOM     25  F   UNL     1      48.173 129.458  15.510  1.00  0.00    -0.207 F 
ATOM     26  F   UNL     1      43.728 131.008  16.477  1.00  0.00    -0.207 F 
ENDBRANCH  18  19
ENDBRANCH  17  18
ENDBRANCH  16  17
BRANCH  16  27
ATOM     27  C   UNL     1      43.688 131.475  19.551  1.00  0.00     0.017 A 
ATOM     28  C   UNL     1      42.445 131.126  18.985  1.00  0.00     0.012 A 
ATOM     29  C   UNL     1      43.815 132.721  20.194  1.00  0.00     0.012 A 
ATOM     30  C   UNL     1      41.353 131.995  19.083  1.00  0.00     0.001 A 
ATOM     31  C   UNL     1      42.719 133.583  20.292  1.00  0.00     0.001 A 
ATOM     32  C   UNL     1      41.489 133.220  19.740  1.00  0.00     0.000 A 
ENDBRANCH  16  27
ENDBRANCH   1  16
TORSDOF 10
ENDMDL
MODEL 6
REMARK VINA RESULT:      -2.8      3.940      6.485
REMARK SMILES Fc1cccc(F)c1C/C=C(\O/C(S)=[NH+]/Cc1cc(Cl)cc(Cl)c1)c1ccccc1
REMARK SMILES IDX 12 1 13 2 14 3 15 5 16 7 17 8 18 9 24 10 19 11 22 12 21 13
REMARK SMILES IDX 20 14 23 15 11 16 10 17 9 18 8 19 2 20 6 21 3 22 5 23 4 24
REMARK SMILES IDX 1 25 7 26 25 27 26 28 30 29 27 30 29 31 28 32
REMARK H PARENT 14 4 15 6
ROOT
ATOM      1  O   UNL     1      45.773 131.121  21.870  1.00  0.00    -0.400 OA
ENDROOT
BRANCH   1   2
ATOM      2  C   UNL     1      44.815 130.113  22.059  1.00  0.00     0.401 C 
BRANCH   2   3
ATOM      3  S   UNL     1      45.191 128.488  21.391  1.00  0.00    -0.031 SA
ATOM      4  H   UNL     1      46.443 128.461  22.031  1.00  0.00     0.118 HD
ENDBRANCH   2   3
BRANCH   2   5
ATOM      5  N   UNL     1      43.705 130.343  22.709  1.00  0.00    -0.200 N 
ATOM      6  H   UNL     1      42.932 130.859  22.231  1.00  0.00     0.450 HD
BRANCH   5   7
ATOM      7  C   UNL     1      43.482 129.904  24.090  1.00  0.00     0.389 C 
BRANCH   7   8
ATOM      8  C   UNL     1      42.708 128.612  24.114  1.00  0.00     0.019 A 
ATOM      9  C   UNL     1      41.329 128.598  23.854  1.00  0.00     0.030 A 
ATOM     10  C   UNL     1      43.381 127.400  24.335  1.00  0.00     0.030 A 
ATOM     11  C   UNL     1      40.629 127.387  23.834  1.00  0.00     0.043 A 
ATOM     12  C   UNL     1      42.680 126.189  24.308  1.00  0.00     0.043 A 
ATOM     13  C   UNL     1      41.304 126.183  24.060  1.00  0.00     0.041 A 
ATOM     14  Cl  UNL     1      38.903 127.377  23.518  1.00  0.00    -0.084 Cl
ATOM     15  Cl  UNL     1      43.532 124.679  24.575  1.00  0.00    -0.084 Cl
ENDBRANCH   7   8
ENDBRANCH   5   7
ENDBRANCH   2   5
ENDBRANCH   1   2
BRANCH   1  16
ATOM     16  C   UNL     1      45.674 132.146  20.916  1.00  0.00     0.138 C 
BRANCH  16  17
ATOM     17  C   UNL     1      46.501 133.208  20.962  1.00  0.00     0.026 C 
BRANCH  17  18
ATOM     18  C   UNL     1      46.430 134.242  22.053  1.00  0.00     0.073 C 
BRANCH  18  19
ATOM     19  C   UNL     1      47.800 134.512  22.624  1.00  0.00     0.027 A 
ATOM     20  C   UNL     1      48.165 133.978  23.876  1.00  0.00     0.129 A 
ATOM     21  C   UNL     1      48.750 135.244  21.885  1.00  0.00     0.129 A 
ATOM     22  C   UNL     1      49.446 134.206  24.390  1.00  0.00     0.040 A 
ATOM     23  C   UNL     1      50.029 135.465  22.407  1.00  0.00     0.040 A 
ATOM     24  C   UNL     1      50.375 134.950  23.659  1.00  0.00     0.006 A 
ATOM     25  F   UNL     1      47.290 133.230  24.593  1.00  0.00    -0.207 F 
ATOM     26  F   UNL     1      48.443 135.735  20.657  1.00  0.00    -0.207 F 
ENDBRANCH  18  19
ENDBRANCH  17  18
ENDBRANCH  16  17
BRANCH  16  27
ATOM     27  C   UNL     1      44.625 132.024  19.872  1.00  0.00     0.017 A 
ATOM     28  C   UNL     1      44.924 131.604  18.560  1.00  0.00     0.012 A 
ATOM     29  C   UNL     1      43.298 132.372  20.186  1.00  0.00     0.012 A 
ATOM     30  C   UNL     1      43.914 131.514  17.597  1.00  0.00     0.001 A 
ATOM     31  C   UNL     1      42.292 132.277  19.221  1.00  0.00     0.001 A 
ATOM     32  C   UNL     1      42.598 131.846  17.929  1.00  0.00     0.000 A 
ENDBRANCH  16  27
ENDBRANCH   1  16
TORSDOF 10
ENDMDL


