REMARK SMILES Cc1ccc(CCC(C#N)=C2CCC2)c(C)c1
REMARK SMILES IDX 7 1 6 2 5 3 2 4 3 5 17 6 4 7 15 8 1 9 16 10 8 11 9 12 10 13
REMARK SMILES IDX 11 14 12 15 14 16 13 17
REMARK H PARENT
ROOT
ATOM      1  C   UNL     1       1.774  -0.647   2.275  1.00  0.00     0.052 C 
ENDROOT
BRANCH   1   2
ATOM      2  C   UNL     1       0.500  -1.433   2.629  1.00  0.00     0.041 C 
BRANCH   2   3
ATOM      3  C   UNL     1      -0.204  -1.963   1.396  1.00  0.00    -0.045 A 
ATOM      4  C   UNL     1      -1.484  -2.795  -0.976  1.00  0.00    -0.051 A 
ATOM      5  C   UNL     1      -1.820  -1.572  -0.383  1.00  0.00     0.004 A 
ATOM      6  C   UNL     1      -0.529  -3.618  -0.364  1.00  0.00     0.007 A 
ATOM      7  C   UNL     1      -1.184  -1.160   0.787  1.00  0.00     0.004 A 
ATOM      8  C   UNL     1       0.129  -3.211   0.810  1.00  0.00    -0.048 A 
ATOM      9  C   UNL     1      -2.195  -3.253  -2.214  1.00  0.00     0.044 C 
ATOM     10  C   UNL     1       1.141  -4.136   1.436  1.00  0.00     0.044 C 
ENDBRANCH   2   3
ENDBRANCH   1   2
BRANCH   1  11
ATOM     11  C   UNL     1       1.466   0.617   1.516  1.00  0.00     0.029 C 
BRANCH  11  12
ATOM     12  C   UNL     1       0.964   1.767   2.223  1.00  0.00     0.095 C 
ATOM     13  N   UNL     1       0.560   2.690   2.792  1.00  0.00    -0.193 NA
ENDBRANCH  11  12
BRANCH  11  14
ATOM     14  C   UNL     1       1.584   0.666   0.189  1.00  0.00    -0.057 C 
ATOM     15  C   UNL     1       2.018  -0.259  -0.933  1.00  0.00     0.032 C 
ATOM     16  C   UNL     1       1.332   1.676  -0.915  1.00  0.00     0.032 C 
ATOM     17  C   UNL     1       1.760   0.748  -2.005  1.00  0.00     0.009 C 
ENDBRANCH  11  14
ENDBRANCH   1  11
TORSDOF 5


