REMARK SMILES O=C(c1ccc(F)cc1)[C@H]1O[C@@H]1[C@H]1CC[C@H]2[NH2+]C=C[C@@]2(F)C1
REMARK SMILES IDX 10 1 11 2 12 3 2 4 1 5 3 6 4 7 9 8 5 9 8 10 6 11 7 12 13 13
REMARK SMILES IDX 14 14 22 15 15 16 20 17 16 18 19 19 17 20 18 21 21 22
REMARK H PARENT 17 23 17 24
ROOT
ATOM      1  C   UNL     1       1.350  -2.148  -0.708  1.00  0.00     0.219 C 
ATOM      2  O   UNL     1       0.555  -3.126  -0.073  1.00  0.00    -0.361 OA
ATOM      3  C   UNL     1       0.238  -1.781   0.204  1.00  0.00     0.159 C 
ENDROOT
BRANCH   1   4
ATOM      4  C   UNL     1       2.723  -2.087  -0.107  1.00  0.00     0.194 C 
ATOM      5  O   UNL     1       3.311  -3.169   0.164  1.00  0.00    -0.291 OA
BRANCH   4   6
ATOM      6  C   UNL     1       3.405  -0.791   0.146  1.00  0.00     0.021 A 
ATOM      7  C   UNL     1       4.604  -0.755   0.883  1.00  0.00     0.015 A 
ATOM      8  C   UNL     1       2.872   0.419  -0.341  1.00  0.00     0.015 A 
ATOM      9  C   UNL     1       5.248   0.461   1.132  1.00  0.00     0.040 A 
ATOM     10  C   UNL     1       3.520   1.632  -0.089  1.00  0.00     0.040 A 
ATOM     11  C   UNL     1       4.707   1.653   0.647  1.00  0.00     0.123 A 
ATOM     12  F   UNL     1       5.333   2.831   0.890  1.00  0.00    -0.207 F 
ENDBRANCH   4   6
ENDBRANCH   1   4
BRANCH   3  13
ATOM     13  C   UNL     1      -1.085  -1.359  -0.457  1.00  0.00     0.025 C 
ATOM     14  C   UNL     1      -2.286  -1.746   0.451  1.00  0.00     0.013 C 
ATOM     15  C   UNL     1      -1.033   0.152  -0.781  1.00  0.00     0.058 C 
ATOM     16  C   UNL     1      -2.897  -0.536   1.166  1.00  0.00     0.069 C 
ATOM     17  C   UNL     1      -2.436   0.730  -1.040  1.00  0.00     0.186 C 
ATOM     18  C   UNL     1      -3.424   0.484   0.130  1.00  0.00     0.229 C 
ATOM     19  C   UNL     1      -2.390   2.210  -1.113  1.00  0.00     0.079 C 
ATOM     20  N   UNL     1      -3.711   1.798   0.741  1.00  0.00    -0.315 N 
ATOM     21  C   UNL     1      -3.094   2.745  -0.134  1.00  0.00     0.219 C 
ATOM     22  F   UNL     1      -2.945   0.223  -2.226  1.00  0.00    -0.232 F 
ATOM     23  H   UNL     1      -4.742   1.979   0.772  1.00  0.00     0.352 HD
ATOM     24  H   UNL     1      -3.295   1.906   1.694  1.00  0.00     0.352 HD
ENDBRANCH   3  13
TORSDOF 3


