MODEL 1
REMARK VINA RESULT:      -6.9      0.000      0.000
REMARK SMILES CC1CN(CCOC(=O)c2cc(F)ccc2Nc2cc3ccccc3[n-]2)C1
REMARK SMILES IDX 7 1 6 2 5 3 4 4 2 5 3 6 27 7 1 8 8 9 9 10 10 11 11 12 16 13
REMARK SMILES IDX 12 14 15 15 14 16 13 17 17 18 18 20 19 21 26 22 20 23 25 24
REMARK SMILES IDX 21 25 24 26 22 27 23 28
REMARK H PARENT 17 19
ROOT
ATOM      1  O   UNL     1      44.111 131.871  19.660  1.00  0.00    -0.461 OA
ENDROOT
BRANCH   1   2
ATOM      2  C   UNL     1      43.852 131.511  18.307  1.00  0.00     0.248 C 
BRANCH   2   3
ATOM      3  C   UNL     1      45.161 131.442  17.522  1.00  0.00     0.126 C 
BRANCH   3   4
ATOM      4  N   UNL     1      45.263 130.157  16.800  1.00  0.00    -0.299 NA
ATOM      5  C   UNL     1      46.228 129.984  14.861  1.00  0.00     0.014 C 
ATOM      6  C   UNL     1      46.634 129.913  16.324  1.00  0.00     0.089 C 
ATOM      7  C   UNL     1      44.830 130.254  15.396  1.00  0.00     0.089 C 
ATOM      8  C   UNL     1      46.846 131.158  14.099  1.00  0.00     0.010 C 
ENDBRANCH   3   4
ENDBRANCH   2   3
ENDBRANCH   1   2
BRANCH   1   9
ATOM      9  C   UNL     1      44.758 131.021  20.561  1.00  0.00     0.338 C 
ATOM     10  O   UNL     1      45.817 130.425  20.221  1.00  0.00    -0.246 OA
BRANCH   9  11
ATOM     11  C   UNL     1      44.180 130.789  21.905  1.00  0.00     0.066 A 
ATOM     12  C   UNL     1      43.390 131.793  22.495  1.00  0.00     0.055 A 
ATOM     13  C   UNL     1      44.435 129.598  22.628  1.00  0.00    -0.029 A 
ATOM     14  C   UNL     1      42.877 131.630  23.784  1.00  0.00     0.124 A 
ATOM     15  C   UNL     1      43.904 129.447  23.921  1.00  0.00     0.007 A 
ATOM     16  C   UNL     1      43.137 130.460  24.496  1.00  0.00     0.039 A 
ATOM     17  F   UNL     1      42.125 132.610  24.342  1.00  0.00    -0.207 F 
BRANCH  13  18
ATOM     18  N   UNL     1      45.132 128.500  22.018  1.00  0.00    -0.456 N 
ATOM     19  H   UNL     1      45.658 128.673  21.131  1.00  0.00     0.026 HD
BRANCH  18  20
ATOM     20  C   UNL     1      45.184 127.184  22.581  1.00  0.00    -0.060 A 
ATOM     21  C   UNL     1      46.027 126.783  23.616  1.00  0.00     0.007 A 
ATOM     22  N   UNL     1      44.455 126.154  22.084  1.00  0.00    -0.436 NA
ATOM     23  C   UNL     1      45.776 125.441  23.759  1.00  0.00    -0.023 A 
ATOM     24  C   UNL     1      44.829 125.099  22.829  1.00  0.00    -0.034 A 
ATOM     25  C   UNL     1      46.333 124.503  24.624  1.00  0.00     0.008 A 
ATOM     26  C   UNL     1      44.373 123.788  22.703  1.00  0.00     0.004 A 
ATOM     27  C   UNL     1      45.890 123.172  24.522  1.00  0.00     0.001 A 
ATOM     28  C   UNL     1      44.914 122.816  23.565  1.00  0.00     0.000 A 
ENDBRANCH  18  20
ENDBRANCH  13  18
ENDBRANCH   9  11
ENDBRANCH   1   9
TORSDOF 7
ENDMDL
MODEL 2
REMARK VINA RESULT:      -6.7      1.468      1.851
REMARK SMILES CC1CN(CCOC(=O)c2cc(F)ccc2Nc2cc3ccccc3[n-]2)C1
REMARK SMILES IDX 7 1 6 2 5 3 4 4 2 5 3 6 27 7 1 8 8 9 9 10 10 11 11 12 16 13
REMARK SMILES IDX 12 14 15 15 14 16 13 17 17 18 18 20 19 21 26 22 20 23 25 24
REMARK SMILES IDX 21 25 24 26 22 27 23 28
REMARK H PARENT 17 19
ROOT
ATOM      1  O   UNL     1      45.937 130.828  20.202  1.00  0.00    -0.461 OA
ENDROOT
BRANCH   1   2
ATOM      2  C   UNL     1      45.767 130.615  18.804  1.00  0.00     0.248 C 
BRANCH   2   3
ATOM      3  C   UNL     1      44.638 131.496  18.271  1.00  0.00     0.126 C 
BRANCH   3   4
ATOM      4  N   UNL     1      44.955 131.972  16.909  1.00  0.00    -0.299 NA
ATOM      5  C   UNL     1      45.255 130.610  15.241  1.00  0.00     0.014 C 
ATOM      6  C   UNL     1      44.092 131.334  15.901  1.00  0.00     0.089 C 
ATOM      7  C   UNL     1      46.107 131.274  16.313  1.00  0.00     0.089 C 
ATOM      8  C   UNL     1      45.184 129.087  15.351  1.00  0.00     0.010 C 
ENDBRANCH   3   4
ENDBRANCH   2   3
ENDBRANCH   1   2
BRANCH   1   9
ATOM      9  C   UNL     1      45.327 130.027  21.172  1.00  0.00     0.338 C 
ATOM     10  O   UNL     1      45.665 128.818  21.299  1.00  0.00    -0.246 OA
BRANCH   9  11
ATOM     11  C   UNL     1      44.254 130.587  22.025  1.00  0.00     0.066 A 
ATOM     12  C   UNL     1      43.337 131.497  21.467  1.00  0.00     0.055 A 
ATOM     13  C   UNL     1      44.152 130.262  23.400  1.00  0.00    -0.029 A 
ATOM     14  C   UNL     1      42.349 132.088  22.258  1.00  0.00     0.124 A 
ATOM     15  C   UNL     1      43.147 130.860  24.180  1.00  0.00     0.007 A 
ATOM     16  C   UNL     1      42.257 131.773  23.612  1.00  0.00     0.039 A 
ATOM     17  F   UNL     1      41.479 132.970  21.707  1.00  0.00    -0.207 F 
BRANCH  13  18
ATOM     18  N   UNL     1      44.988 129.249  23.981  1.00  0.00    -0.456 N 
ATOM     19  H   UNL     1      45.884 129.540  24.434  1.00  0.00     0.026 HD
BRANCH  18  20
ATOM     20  C   UNL     1      44.641 127.859  24.014  1.00  0.00    -0.060 A 
ATOM     21  C   UNL     1      45.467 126.834  24.472  1.00  0.00     0.007 A 
ATOM     22  N   UNL     1      43.474 127.391  23.508  1.00  0.00    -0.436 NA
ATOM     23  C   UNL     1      44.746 125.688  24.243  1.00  0.00    -0.023 A 
ATOM     24  C   UNL     1      43.558 126.059  23.667  1.00  0.00    -0.034 A 
ATOM     25  C   UNL     1      45.067 124.354  24.479  1.00  0.00     0.008 A 
ATOM     26  C   UNL     1      42.606 125.113  23.290  1.00  0.00     0.004 A 
ATOM     27  C   UNL     1      44.124 123.377  24.110  1.00  0.00     0.001 A 
ATOM     28  C   UNL     1      42.898 123.756  23.518  1.00  0.00     0.000 A 
ENDBRANCH  18  20
ENDBRANCH  13  18
ENDBRANCH   9  11
ENDBRANCH   1   9
TORSDOF 7
ENDMDL
MODEL 3
REMARK VINA RESULT:      -6.3      4.330      7.462
REMARK SMILES CC1CN(CCOC(=O)c2cc(F)ccc2Nc2cc3ccccc3[n-]2)C1
REMARK SMILES IDX 7 1 6 2 5 3 4 4 2 5 3 6 27 7 1 8 8 9 9 10 10 11 11 12 16 13
REMARK SMILES IDX 12 14 15 15 14 16 13 17 17 18 18 20 19 21 26 22 20 23 25 24
REMARK SMILES IDX 21 25 24 26 22 27 23 28
REMARK H PARENT 17 19
ROOT
ATOM      1  O   UNL     1      45.810 132.105  22.273  1.00  0.00    -0.461 OA
ENDROOT
BRANCH   1   2
ATOM      2  C   UNL     1      46.434 132.996  21.354  1.00  0.00     0.248 C 
BRANCH   2   3
ATOM      3  C   UNL     1      47.896 133.212  21.742  1.00  0.00     0.126 C 
BRANCH   3   4
ATOM      4  N   UNL     1      48.060 134.506  22.435  1.00  0.00    -0.299 NA
ATOM      5  C   UNL     1      49.163 136.163  21.562  1.00  0.00     0.014 C 
ATOM      6  C   UNL     1      47.737 135.637  21.550  1.00  0.00     0.089 C 
ATOM      7  C   UNL     1      49.458 134.970  22.458  1.00  0.00     0.089 C 
ATOM      8  C   UNL     1      49.857 136.112  20.200  1.00  0.00     0.010 C 
ENDBRANCH   3   4
ENDBRANCH   2   3
ENDBRANCH   1   2
BRANCH   1   9
ATOM      9  C   UNL     1      44.707 131.315  21.934  1.00  0.00     0.338 C 
ATOM     10  O   UNL     1      44.513 130.214  22.519  1.00  0.00    -0.246 OA
BRANCH   9  11
ATOM     11  C   UNL     1      43.786 131.753  20.860  1.00  0.00     0.066 A 
ATOM     12  C   UNL     1      42.612 132.450  21.204  1.00  0.00     0.055 A 
ATOM     13  C   UNL     1      44.036 131.453  19.499  1.00  0.00    -0.029 A 
ATOM     14  C   UNL     1      41.694 132.826  20.221  1.00  0.00     0.124 A 
ATOM     15  C   UNL     1      43.105 131.846  18.521  1.00  0.00     0.007 A 
ATOM     16  C   UNL     1      41.939 132.521  18.883  1.00  0.00     0.039 A 
ATOM     17  F   UNL     1      40.563 133.488  20.569  1.00  0.00    -0.207 F 
BRANCH  13  18
ATOM     18  N   UNL     1      45.276 130.854  19.092  1.00  0.00    -0.456 N 
ATOM     19  H   UNL     1      45.900 130.448  19.827  1.00  0.00     0.026 HD
BRANCH  18  20
ATOM     20  C   UNL     1      45.690 130.739  17.725  1.00  0.00    -0.060 A 
ATOM     21  C   UNL     1      46.129 129.567  17.112  1.00  0.00     0.007 A 
ATOM     22  N   UNL     1      45.775 131.813  16.902  1.00  0.00    -0.436 NA
ATOM     23  C   UNL     1      46.482 129.958  15.844  1.00  0.00    -0.023 A 
ATOM     24  C   UNL     1      46.254 131.307  15.752  1.00  0.00    -0.034 A 
ATOM     25  C   UNL     1      47.006 129.224  14.783  1.00  0.00     0.008 A 
ATOM     26  C   UNL     1      46.537 132.014  14.585  1.00  0.00     0.004 A 
ATOM     27  C   UNL     1      47.298 129.911  13.591  1.00  0.00     0.001 A 
ATOM     28  C   UNL     1      47.064 131.301  13.492  1.00  0.00     0.000 A 
ENDBRANCH  18  20
ENDBRANCH  13  18
ENDBRANCH   9  11
ENDBRANCH   1   9
TORSDOF 7
ENDMDL
MODEL 4
REMARK VINA RESULT:      -6.1      1.804      2.180
REMARK SMILES CC1CN(CCOC(=O)c2cc(F)ccc2Nc2cc3ccccc3[n-]2)C1
REMARK SMILES IDX 7 1 6 2 5 3 4 4 2 5 3 6 27 7 1 8 8 9 9 10 10 11 11 12 16 13
REMARK SMILES IDX 12 14 15 15 14 16 13 17 17 18 18 20 19 21 26 22 20 23 25 24
REMARK SMILES IDX 21 25 24 26 22 27 23 28
REMARK H PARENT 17 19
ROOT
ATOM      1  O   UNL     1      45.866 131.054  19.941  1.00  0.00    -0.461 OA
ENDROOT
BRANCH   1   2
ATOM      2  C   UNL     1      46.360 130.467  18.742  1.00  0.00     0.248 C 
BRANCH   2   3
ATOM      3  C   UNL     1      45.349 130.649  17.611  1.00  0.00     0.126 C 
BRANCH   3   4
ATOM      4  N   UNL     1      45.985 130.390  16.304  1.00  0.00    -0.299 NA
ATOM      5  C   UNL     1      45.045 130.939  14.422  1.00  0.00     0.014 C 
ATOM      6  C   UNL     1      45.963 131.586  15.446  1.00  0.00     0.089 C 
ATOM      7  C   UNL     1      45.079 129.731  15.347  1.00  0.00     0.089 C 
ATOM      8  C   UNL     1      43.672 131.603  14.308  1.00  0.00     0.010 C 
ENDBRANCH   3   4
ENDBRANCH   2   3
ENDBRANCH   1   2
BRANCH   1   9
ATOM      9  C   UNL     1      45.224 130.316  20.940  1.00  0.00     0.338 C 
ATOM     10  O   UNL     1      45.591 129.135  21.189  1.00  0.00    -0.246 OA
BRANCH   9  11
ATOM     11  C   UNL     1      44.086 130.908  21.680  1.00  0.00     0.066 A 
ATOM     12  C   UNL     1      43.194 131.759  21.002  1.00  0.00     0.055 A 
ATOM     13  C   UNL     1      43.896 130.670  23.064  1.00  0.00    -0.029 A 
ATOM     14  C   UNL     1      42.144 132.379  21.684  1.00  0.00     0.124 A 
ATOM     15  C   UNL     1      42.829 131.296  23.733  1.00  0.00     0.007 A 
ATOM     16  C   UNL     1      41.965 132.151  23.047  1.00  0.00     0.039 A 
ATOM     17  F   UNL     1      41.299 133.205  21.018  1.00  0.00    -0.207 F 
BRANCH  13  18
ATOM     18  N   UNL     1      44.707 129.716  23.766  1.00  0.00    -0.456 N 
ATOM     19  H   UNL     1      45.599 130.042  24.200  1.00  0.00     0.026 HD
BRANCH  18  20
ATOM     20  C   UNL     1      44.339 128.342  23.943  1.00  0.00    -0.060 A 
ATOM     21  C   UNL     1      45.155 127.247  23.663  1.00  0.00     0.007 A 
ATOM     22  N   UNL     1      43.095 127.969  24.331  1.00  0.00    -0.436 NA
ATOM     23  C   UNL     1      44.360 126.157  23.913  1.00  0.00    -0.023 A 
ATOM     24  C   UNL     1      43.135 126.626  24.313  1.00  0.00    -0.034 A 
ATOM     25  C   UNL     1      44.625 124.795  23.793  1.00  0.00     0.008 A 
ATOM     26  C   UNL     1      42.089 125.757  24.622  1.00  0.00     0.004 A 
ATOM     27  C   UNL     1      43.590 123.895  24.101  1.00  0.00     0.001 A 
ATOM     28  C   UNL     1      42.326 124.374  24.514  1.00  0.00     0.000 A 
ENDBRANCH  18  20
ENDBRANCH  13  18
ENDBRANCH   9  11
ENDBRANCH   1   9
TORSDOF 7
ENDMDL
MODEL 5
REMARK VINA RESULT:      -5.9      1.525      2.089
REMARK SMILES CC1CN(CCOC(=O)c2cc(F)ccc2Nc2cc3ccccc3[n-]2)C1
REMARK SMILES IDX 7 1 6 2 5 3 4 4 2 5 3 6 27 7 1 8 8 9 9 10 10 11 11 12 16 13
REMARK SMILES IDX 12 14 15 15 14 16 13 17 17 18 18 20 19 21 26 22 20 23 25 24
REMARK SMILES IDX 21 25 24 26 22 27 23 28
REMARK H PARENT 17 19
ROOT
ATOM      1  O   UNL     1      44.201 130.755  18.170  1.00  0.00    -0.461 OA
ENDROOT
BRANCH   1   2
ATOM      2  C   UNL     1      44.965 129.916  17.310  1.00  0.00     0.248 C 
BRANCH   2   3
ATOM      3  C   UNL     1      46.025 130.738  16.579  1.00  0.00     0.126 C 
BRANCH   3   4
ATOM      4  N   UNL     1      45.645 130.927  15.163  1.00  0.00    -0.299 NA
ATOM      5  C   UNL     1      46.960 130.375  13.522  1.00  0.00     0.014 C 
ATOM      6  C   UNL     1      45.890 129.710  14.373  1.00  0.00     0.089 C 
ATOM      7  C   UNL     1      46.690 131.605  14.377  1.00  0.00     0.089 C 
ATOM      8  C   UNL     1      48.358 129.781  13.702  1.00  0.00     0.010 C 
ENDBRANCH   3   4
ENDBRANCH   2   3
ENDBRANCH   1   2
BRANCH   1   9
ATOM      9  C   UNL     1      44.710 131.291  19.356  1.00  0.00     0.338 C 
ATOM     10  O   UNL     1      45.943 131.538  19.463  1.00  0.00    -0.246 OA
BRANCH   9  11
ATOM     11  C   UNL     1      43.806 131.534  20.505  1.00  0.00     0.066 A 
ATOM     12  C   UNL     1      42.682 132.363  20.331  1.00  0.00     0.055 A 
ATOM     13  C   UNL     1      44.068 130.986  21.785  1.00  0.00    -0.029 A 
ATOM     14  C   UNL     1      41.843 132.659  21.407  1.00  0.00     0.124 A 
ATOM     15  C   UNL     1      43.209 131.288  22.855  1.00  0.00     0.007 A 
ATOM     16  C   UNL     1      42.108 132.125  22.667  1.00  0.00     0.039 A 
ATOM     17  F   UNL     1      40.769 133.466  21.226  1.00  0.00    -0.207 F 
BRANCH  13  18
ATOM     18  N   UNL     1      45.132 130.041  21.978  1.00  0.00    -0.456 N 
ATOM     19  H   UNL     1      46.114 130.350  21.798  1.00  0.00     0.026 HD
BRANCH  18  20
ATOM     20  C   UNL     1      44.926 128.702  22.447  1.00  0.00    -0.060 A 
ATOM     21  C   UNL     1      44.224 128.351  23.598  1.00  0.00     0.007 A 
ATOM     22  N   UNL     1      45.488 127.628  21.840  1.00  0.00    -0.436 NA
ATOM     23  C   UNL     1      44.358 126.988  23.676  1.00  0.00    -0.023 A 
ATOM     24  C   UNL     1      45.117 126.588  22.607  1.00  0.00    -0.034 A 
ATOM     25  C   UNL     1      43.884 126.084  24.624  1.00  0.00     0.008 A 
ATOM     26  C   UNL     1      45.454 125.249  22.414  1.00  0.00     0.004 A 
ATOM     27  C   UNL     1      44.206 124.725  24.453  1.00  0.00     0.001 A 
ATOM     28  C   UNL     1      44.988 124.309  23.352  1.00  0.00     0.000 A 
ENDBRANCH  18  20
ENDBRANCH  13  18
ENDBRANCH   9  11
ENDBRANCH   1   9
TORSDOF 7
ENDMDL
MODEL 6
REMARK VINA RESULT:      -5.3      1.262      1.653
REMARK SMILES CC1CN(CCOC(=O)c2cc(F)ccc2Nc2cc3ccccc3[n-]2)C1
REMARK SMILES IDX 7 1 6 2 5 3 4 4 2 5 3 6 27 7 1 8 8 9 9 10 10 11 11 12 16 13
REMARK SMILES IDX 12 14 15 15 14 16 13 17 17 18 18 20 19 21 26 22 20 23 25 24
REMARK SMILES IDX 21 25 24 26 22 27 23 28
REMARK H PARENT 17 19
ROOT
ATOM      1  O   UNL     1      44.491 130.492  19.453  1.00  0.00    -0.461 OA
ENDROOT
BRANCH   1   2
ATOM      2  C   UNL     1      45.736 130.639  18.777  1.00  0.00     0.248 C 
BRANCH   2   3
ATOM      3  C   UNL     1      45.591 130.223  17.314  1.00  0.00     0.126 C 
BRANCH   3   4
ATOM      4  N   UNL     1      45.026 131.330  16.516  1.00  0.00    -0.299 NA
ATOM      5  C   UNL     1      45.474 131.590  14.404  1.00  0.00     0.014 C 
ATOM      6  C   UNL     1      44.453 130.845  15.250  1.00  0.00     0.089 C 
ATOM      7  C   UNL     1      46.046 132.052  15.736  1.00  0.00     0.089 C 
ATOM      8  C   UNL     1      46.404 130.678  13.603  1.00  0.00     0.010 C 
ENDBRANCH   3   4
ENDBRANCH   2   3
ENDBRANCH   1   2
BRANCH   1   9
ATOM      9  C   UNL     1      43.864 131.545  20.125  1.00  0.00     0.338 C 
ATOM     10  O   UNL     1      43.686 132.652  19.545  1.00  0.00    -0.246 OA
BRANCH   9  11
ATOM     11  C   UNL     1      43.442 131.375  21.535  1.00  0.00     0.066 A 
ATOM     12  C   UNL     1      42.397 132.172  22.039  1.00  0.00     0.055 A 
ATOM     13  C   UNL     1      44.090 130.459  22.399  1.00  0.00    -0.029 A 
ATOM     14  C   UNL     1      42.013 132.078  23.379  1.00  0.00     0.124 A 
ATOM     15  C   UNL     1      43.685 130.371  23.743  1.00  0.00     0.007 A 
ATOM     16  C   UNL     1      42.659 131.182  24.229  1.00  0.00     0.039 A 
ATOM     17  F   UNL     1      41.011 132.859  23.853  1.00  0.00    -0.207 F 
BRANCH  13  18
ATOM     18  N   UNL     1      45.075 129.543  21.897  1.00  0.00    -0.456 N 
ATOM     19  H   UNL     1      45.775 129.893  21.204  1.00  0.00     0.026 HD
BRANCH  18  20
ATOM     20  C   UNL     1      45.181 128.180  22.326  1.00  0.00    -0.060 A 
ATOM     21  C   UNL     1      45.953 127.198  21.707  1.00  0.00     0.007 A 
ATOM     22  N   UNL     1      44.451 127.686  23.356  1.00  0.00    -0.436 NA
ATOM     23  C   UNL     1      45.682 126.055  22.417  1.00  0.00    -0.023 A 
ATOM     24  C   UNL     1      44.782 126.384  23.398  1.00  0.00    -0.034 A 
ATOM     25  C   UNL     1      46.148 124.754  22.249  1.00  0.00     0.008 A 
ATOM     26  C   UNL     1      44.287 125.426  24.281  1.00  0.00     0.004 A 
ATOM     27  C   UNL     1      45.668 123.766  23.128  1.00  0.00     0.001 A 
ATOM     28  C   UNL     1      44.741 124.102  24.141  1.00  0.00     0.000 A 
ENDBRANCH  18  20
ENDBRANCH  13  18
ENDBRANCH   9  11
ENDBRANCH   1   9
TORSDOF 7
ENDMDL
MODEL 7
REMARK VINA RESULT:      -5.1      1.764      2.700
REMARK SMILES CC1CN(CCOC(=O)c2cc(F)ccc2Nc2cc3ccccc3[n-]2)C1
REMARK SMILES IDX 7 1 6 2 5 3 4 4 2 5 3 6 27 7 1 8 8 9 9 10 10 11 11 12 16 13
REMARK SMILES IDX 12 14 15 15 14 16 13 17 17 18 18 20 19 21 26 22 20 23 25 24
REMARK SMILES IDX 21 25 24 26 22 27 23 28
REMARK H PARENT 17 19
ROOT
ATOM      1  O   UNL     1      44.951 130.564  18.167  1.00  0.00    -0.461 OA
ENDROOT
BRANCH   1   2
ATOM      2  C   UNL     1      46.046 130.768  17.280  1.00  0.00     0.248 C 
BRANCH   2   3
ATOM      3  C   UNL     1      45.659 131.765  16.188  1.00  0.00     0.126 C 
BRANCH   3   4
ATOM      4  N   UNL     1      45.322 131.054  14.938  1.00  0.00    -0.299 NA
ATOM      5  C   UNL     1      46.740 129.764  13.913  1.00  0.00     0.014 C 
ATOM      6  C   UNL     1      45.694 129.632  15.008  1.00  0.00     0.089 C 
ATOM      7  C   UNL     1      46.339 131.232  13.887  1.00  0.00     0.089 C 
ATOM      8  C   UNL     1      48.172 129.513  14.386  1.00  0.00     0.010 C 
ENDBRANCH   3   4
ENDBRANCH   2   3
ENDBRANCH   1   2
BRANCH   1   9
ATOM      9  C   UNL     1      43.907 131.482  18.309  1.00  0.00     0.338 C 
ATOM     10  O   UNL     1      43.459 132.093  17.300  1.00  0.00    -0.246 OA
BRANCH   9  11
ATOM     11  C   UNL     1      43.351 131.768  19.652  1.00  0.00     0.066 A 
ATOM     12  C   UNL     1      42.197 132.565  19.762  1.00  0.00     0.055 A 
ATOM     13  C   UNL     1      43.976 131.292  20.831  1.00  0.00    -0.029 A 
ATOM     14  C   UNL     1      41.681 132.901  21.016  1.00  0.00     0.124 A 
ATOM     15  C   UNL     1      43.439 131.634  22.085  1.00  0.00     0.007 A 
ATOM     16  C   UNL     1      42.304 132.439  22.174  1.00  0.00     0.039 A 
ATOM     17  F   UNL     1      40.573 133.678  21.106  1.00  0.00    -0.207 F 
BRANCH  13  18
ATOM     18  N   UNL     1      45.082 130.379  20.762  1.00  0.00    -0.456 N 
ATOM     19  H   UNL     1      45.864 130.590  20.102  1.00  0.00     0.026 HD
BRANCH  18  20
ATOM     20  C   UNL     1      45.196 129.209  21.582  1.00  0.00    -0.060 A 
ATOM     21  C   UNL     1      45.861 128.037  21.227  1.00  0.00     0.007 A 
ATOM     22  N   UNL     1      44.574 129.103  22.782  1.00  0.00    -0.436 NA
ATOM     23  C   UNL     1      45.639 127.187  22.281  1.00  0.00    -0.023 A 
ATOM     24  C   UNL     1      44.868 127.858  23.195  1.00  0.00    -0.034 A 
ATOM     25  C   UNL     1      46.043 125.869  22.482  1.00  0.00     0.008 A 
ATOM     26  C   UNL     1      44.449 127.251  24.378  1.00  0.00     0.004 A 
ATOM     27  C   UNL     1      45.637 125.232  23.669  1.00  0.00     0.001 A 
ATOM     28  C   UNL     1      44.843 125.921  24.613  1.00  0.00     0.000 A 
ENDBRANCH  18  20
ENDBRANCH  13  18
ENDBRANCH   9  11
ENDBRANCH   1   9
TORSDOF 7
ENDMDL
MODEL 8
REMARK VINA RESULT:      -4.3      1.881      7.437
REMARK SMILES CC1CN(CCOC(=O)c2cc(F)ccc2Nc2cc3ccccc3[n-]2)C1
REMARK SMILES IDX 7 1 6 2 5 3 4 4 2 5 3 6 27 7 1 8 8 9 9 10 10 11 11 12 16 13
REMARK SMILES IDX 12 14 15 15 14 16 13 17 17 18 18 20 19 21 26 22 20 23 25 24
REMARK SMILES IDX 21 25 24 26 22 27 23 28
REMARK H PARENT 17 19
ROOT
ATOM      1  O   UNL     1      44.591 129.929  22.757  1.00  0.00    -0.461 OA
ENDROOT
BRANCH   1   2
ATOM      2  C   UNL     1      44.882 129.483  24.078  1.00  0.00     0.248 C 
BRANCH   2   3
ATOM      3  C   UNL     1      44.872 127.956  24.132  1.00  0.00     0.126 C 
BRANCH   3   4
ATOM      4  N   UNL     1      45.390 127.392  22.868  1.00  0.00    -0.299 NA
ATOM      5  C   UNL     1      46.188 125.375  22.735  1.00  0.00     0.014 C 
ATOM      6  C   UNL     1      44.834 126.055  22.607  1.00  0.00     0.089 C 
ATOM      7  C   UNL     1      46.717 126.772  23.020  1.00  0.00     0.089 C 
ATOM      8  C   UNL     1      46.292 124.410  23.917  1.00  0.00     0.010 C 
ENDBRANCH   3   4
ENDBRANCH   2   3
ENDBRANCH   1   2
BRANCH   1   9
ATOM      9  C   UNL     1      43.289 130.024  22.258  1.00  0.00     0.338 C 
ATOM     10  O   UNL     1      42.475 129.074  22.425  1.00  0.00    -0.246 OA
BRANCH   9  11
ATOM     11  C   UNL     1      42.875 131.226  21.498  1.00  0.00     0.066 A 
ATOM     12  C   UNL     1      41.865 132.056  22.021  1.00  0.00     0.055 A 
ATOM     13  C   UNL     1      43.441 131.539  20.237  1.00  0.00    -0.029 A 
ATOM     14  C   UNL     1      41.412 133.164  21.303  1.00  0.00     0.124 A 
ATOM     15  C   UNL     1      42.977 132.663  19.532  1.00  0.00     0.007 A 
ATOM     16  C   UNL     1      41.964 133.464  20.059  1.00  0.00     0.039 A 
ATOM     17  F   UNL     1      40.432 133.948  21.817  1.00  0.00    -0.207 F 
BRANCH  13  18
ATOM     18  N   UNL     1      44.553 130.792  19.724  1.00  0.00    -0.456 N 
ATOM     19  H   UNL     1      45.070 130.155  20.372  1.00  0.00     0.026 HD
BRANCH  18  20
ATOM     20  C   UNL     1      44.973 130.836  18.354  1.00  0.00    -0.060 A 
ATOM     21  C   UNL     1      44.323 131.530  17.334  1.00  0.00     0.007 A 
ATOM     22  N   UNL     1      46.025 130.115  17.895  1.00  0.00    -0.436 NA
ATOM     23  C   UNL     1      45.036 131.220  16.204  1.00  0.00    -0.023 A 
ATOM     24  C   UNL     1      46.049 130.374  16.576  1.00  0.00    -0.034 A 
ATOM     25  C   UNL     1      44.846 131.606  14.879  1.00  0.00     0.008 A 
ATOM     26  C   UNL     1      46.944 129.856  15.641  1.00  0.00     0.004 A 
ATOM     27  C   UNL     1      45.737 131.101  13.914  1.00  0.00     0.001 A 
ATOM     28  C   UNL     1      46.782 130.229  14.295  1.00  0.00     0.000 A 
ENDBRANCH  18  20
ENDBRANCH  13  18
ENDBRANCH   9  11
ENDBRANCH   1   9
TORSDOF 7
ENDMDL
MODEL 9
REMARK VINA RESULT:      -4.2      4.464      6.822
REMARK SMILES CC1CN(CCOC(=O)c2cc(F)ccc2Nc2cc3ccccc3[n-]2)C1
REMARK SMILES IDX 7 1 6 2 5 3 4 4 2 5 3 6 27 7 1 8 8 9 9 10 10 11 11 12 16 13
REMARK SMILES IDX 12 14 15 15 14 16 13 17 17 18 18 20 19 21 26 22 20 23 25 24
REMARK SMILES IDX 21 25 24 26 22 27 23 28
REMARK H PARENT 17 19
ROOT
ATOM      1  O   UNL     1      45.576 130.825  19.478  1.00  0.00    -0.461 OA
ENDROOT
BRANCH   1   2
ATOM      2  C   UNL     1      45.593 130.246  18.178  1.00  0.00     0.248 C 
BRANCH   2   3
ATOM      3  C   UNL     1      45.347 131.321  17.120  1.00  0.00     0.126 C 
BRANCH   3   4
ATOM      4  N   UNL     1      44.694 130.736  15.931  1.00  0.00    -0.299 NA
ATOM      5  C   UNL     1      45.664 130.665  13.987  1.00  0.00     0.014 C 
ATOM      6  C   UNL     1      45.587 129.797  15.233  1.00  0.00     0.089 C 
ATOM      7  C   UNL     1      44.757 131.617  14.752  1.00  0.00     0.089 C 
ATOM      8  C   UNL     1      47.060 131.222  13.701  1.00  0.00     0.010 C 
ENDBRANCH   3   4
ENDBRANCH   2   3
ENDBRANCH   1   2
BRANCH   1   9
ATOM      9  C   UNL     1      44.492 131.557  19.970  1.00  0.00     0.338 C 
ATOM     10  O   UNL     1      43.644 132.046  19.173  1.00  0.00    -0.246 OA
BRANCH   9  11
ATOM     11  C   UNL     1      44.358 131.793  21.426  1.00  0.00     0.066 A 
ATOM     12  C   UNL     1      43.095 131.653  22.031  1.00  0.00     0.055 A 
ATOM     13  C   UNL     1      45.462 132.196  22.218  1.00  0.00    -0.029 A 
ATOM     14  C   UNL     1      42.924 131.924  23.391  1.00  0.00     0.124 A 
ATOM     15  C   UNL     1      45.273 132.457  23.586  1.00  0.00     0.007 A 
ATOM     16  C   UNL     1      44.010 132.329  24.165  1.00  0.00     0.039 A 
ATOM     17  F   UNL     1      41.699 131.793  23.957  1.00  0.00    -0.207 F 
BRANCH  13  18
ATOM     18  N   UNL     1      46.788 132.233  21.668  1.00  0.00    -0.456 N 
ATOM     19  H   UNL     1      47.168 131.369  21.220  1.00  0.00     0.026 HD
BRANCH  18  20
ATOM     20  C   UNL     1      47.609 133.407  21.661  1.00  0.00    -0.060 A 
ATOM     21  C   UNL     1      48.737 133.607  22.455  1.00  0.00     0.007 A 
ATOM     22  N   UNL     1      47.304 134.500  20.917  1.00  0.00    -0.436 NA
ATOM     23  C   UNL     1      49.140 134.885  22.158  1.00  0.00    -0.023 A 
ATOM     24  C   UNL     1      48.262 135.388  21.233  1.00  0.00    -0.034 A 
ATOM     25  C   UNL     1      50.200 135.639  22.656  1.00  0.00     0.008 A 
ATOM     26  C   UNL     1      48.389 136.687  20.742  1.00  0.00     0.004 A 
ATOM     27  C   UNL     1      50.354 136.952  22.176  1.00  0.00     0.001 A 
ATOM     28  C   UNL     1      49.451 137.474  21.222  1.00  0.00     0.000 A 
ENDBRANCH  18  20
ENDBRANCH  13  18
ENDBRANCH   9  11
ENDBRANCH   1   9
TORSDOF 7
ENDMDL


