REMARK SMILES Cc1[nH][nH+]c2c1ccc1c(NN)cccc12
REMARK SMILES IDX 11 1 10 3 2 4 3 5 6 6 4 7 5 8 7 9 16 10 8 11 15 12 9 13
REMARK SMILES IDX 14 14 13 15 1 16 12 19
REMARK H PARENT 11 2 3 17 4 18 12 20 12 21
ROOT
ATOM      1  N   UNL     1      -2.016  -1.630  -2.807  1.00  0.00    -0.324 N 
ATOM      2  H   UNL     1      -1.252  -2.330  -2.674  1.00  0.00     0.181 HD
ENDROOT
BRANCH   1   3
ATOM      3  C   UNL     1      -1.775  -0.233  -2.554  1.00  0.00     0.057 A 
ATOM      4  C   UNL     1       1.893   1.823   1.084  1.00  0.00     0.084 A 
ATOM      5  N   UNL     1       1.719   3.128   0.779  1.00  0.00    -0.171 N 
ATOM      6  C   UNL     1       1.053   1.082   0.279  1.00  0.00     0.074 A 
ATOM      7  N   UNL     1       0.798   3.236  -0.170  1.00  0.00    -0.125 N 
ATOM      8  C   UNL     1       0.380   1.994  -0.489  1.00  0.00     0.243 A 
ATOM      9  C   UNL     1       0.834  -0.285   0.172  1.00  0.00     0.018 A 
ATOM     10  C   UNL     1      -0.575   1.597  -1.436  1.00  0.00     0.058 A 
ATOM     11  C   UNL     1      -0.114  -0.728  -0.766  1.00  0.00     0.012 A 
ATOM     12  C   UNL     1      -1.288   2.528  -2.204  1.00  0.00     0.016 A 
ATOM     13  C   UNL     1      -0.819   0.196  -1.594  1.00  0.00     0.013 A 
ATOM     14  C   UNL     1      -2.241   2.092  -3.121  1.00  0.00     0.003 A 
ATOM     15  C   UNL     1      -2.484   0.730  -3.295  1.00  0.00     0.028 A 
ATOM     16  C   UNL     1       2.882   1.302   2.077  1.00  0.00     0.071 C 
ATOM     17  H   UNL     1       2.223   3.938   1.206  1.00  0.00     0.238 HD
ATOM     18  H   UNL     1       0.483   4.142  -0.582  1.00  0.00     0.488 HD
ENDBRANCH   1   3
BRANCH   1  19
ATOM     19  N   UNL     1      -3.207  -2.060  -3.411  1.00  0.00    -0.250 NA
ATOM     20  H   UNL     1      -2.965  -2.378  -4.377  1.00  0.00     0.143 HD
ATOM     21  H   UNL     1      -3.534  -2.901  -2.884  1.00  0.00     0.143 HD
ENDBRANCH   1  19
TORSDOF 2


