MODEL 1
REMARK VINA RESULT:      -5.8      0.000      0.000
REMARK SMILES C/C=C(C)/C(O)=[N+]1\C[C@@H](c2ccc3c(C)[nH]nc3c2)[C@H](C)C[C@H]1F
REMARK SMILES IDX 5 1 6 2 3 4 4 5 2 6 1 7 7 8 8 9 23 10 9 11 22 12 20 13 24 14
REMARK SMILES IDX 21 15 10 16 11 17 19 18 12 19 18 20 13 21 17 22 14 23 16 24
REMARK SMILES IDX 15 25
REMARK H PARENT 6 3 16 26
ROOT
ATOM      1  C   UNL     1      42.601 129.353  23.648  1.00  0.00     0.365 C 
ENDROOT
BRANCH   1   2
ATOM      2  O   UNL     1      41.329 129.351  24.227  1.00  0.00    -0.460 OA
ATOM      3  H   UNL     1      40.870 128.488  24.492  1.00  0.00     0.300 HD
ENDBRANCH   1   2
BRANCH   1   4
ATOM      4  C   UNL     1      43.419 128.127  23.800  1.00  0.00     0.056 C 
ATOM      5  C   UNL     1      42.751 126.854  24.252  1.00  0.00     0.055 C 
BRANCH   4   6
ATOM      6  C   UNL     1      44.713 128.160  23.443  1.00  0.00    -0.017 C 
ATOM      7  C   UNL     1      45.604 126.955  23.469  1.00  0.00     0.036 C 
ENDBRANCH   4   6
ENDBRANCH   1   4
BRANCH   1   8
ATOM      8  N   UNL     1      43.034 130.418  23.004  1.00  0.00    -0.166 N 
ATOM      9  C   UNL     1      43.086 130.506  21.531  1.00  0.00     0.366 C 
ATOM     10  C   UNL     1      43.425 131.644  23.726  1.00  0.00     0.445 C 
ATOM     11  C   UNL     1      44.506 130.890  21.079  1.00  0.00     0.088 C 
ATOM     12  C   UNL     1      44.836 132.073  23.302  1.00  0.00     0.119 C 
ATOM     13  C   UNL     1      44.959 132.205  21.770  1.00  0.00     0.009 C 
ATOM     14  F   UNL     1      42.521 132.655  23.449  1.00  0.00    -0.175 F 
ATOM     15  C   UNL     1      46.405 132.569  21.397  1.00  0.00     0.009 C 
BRANCH  11  16
ATOM     16  C   UNL     1      44.572 130.977  19.564  1.00  0.00    -0.036 A 
ATOM     17  C   UNL     1      43.564 131.685  18.854  1.00  0.00     0.005 A 
ATOM     18  C   UNL     1      45.632 130.368  18.845  1.00  0.00     0.035 A 
ATOM     19  C   UNL     1      43.600 131.783  17.451  1.00  0.00     0.012 A 
ATOM     20  C   UNL     1      45.635 130.483  17.458  1.00  0.00     0.093 A 
ATOM     21  C   UNL     1      44.655 131.161  16.790  1.00  0.00     0.023 A 
ATOM     22  N   UNL     1      46.546 129.996  16.595  1.00  0.00    -0.175 NA
ATOM     23  C   UNL     1      44.996 131.064  15.460  1.00  0.00     0.040 A 
ATOM     24  N   UNL     1      46.149 130.360  15.380  1.00  0.00    -0.282 N 
ATOM     25  C   UNL     1      44.291 131.686  14.300  1.00  0.00     0.067 C 
ATOM     26  H   UNL     1      46.670 130.133  14.504  1.00  0.00     0.190 HD
ENDBRANCH  11  16
ENDBRANCH   1   8
TORSDOF 5
ENDMDL
MODEL 2
REMARK VINA RESULT:      -5.8      1.033      1.492
REMARK SMILES C/C=C(C)/C(O)=[N+]1\C[C@@H](c2ccc3c(C)[nH]nc3c2)[C@H](C)C[C@H]1F
REMARK SMILES IDX 5 1 6 2 3 4 4 5 2 6 1 7 7 8 8 9 23 10 9 11 22 12 20 13 24 14
REMARK SMILES IDX 21 15 10 16 11 17 19 18 12 19 18 20 13 21 17 22 14 23 16 24
REMARK SMILES IDX 15 25
REMARK H PARENT 6 3 16 26
ROOT
ATOM      1  C   UNL     1      42.581 129.346  23.444  1.00  0.00     0.365 C 
ENDROOT
BRANCH   1   2
ATOM      2  O   UNL     1      41.331 129.383  24.067  1.00  0.00    -0.460 OA
ATOM      3  H   UNL     1      41.074 130.136  24.694  1.00  0.00     0.300 HD
ENDBRANCH   1   2
BRANCH   1   4
ATOM      4  C   UNL     1      43.360 128.090  23.555  1.00  0.00     0.056 C 
ATOM      5  C   UNL     1      42.624 126.789  23.743  1.00  0.00     0.055 C 
BRANCH   4   6
ATOM      6  C   UNL     1      44.692 128.134  23.391  1.00  0.00    -0.017 C 
ATOM      7  C   UNL     1      45.414 127.378  22.318  1.00  0.00     0.036 C 
ENDBRANCH   4   6
ENDBRANCH   1   4
BRANCH   1   8
ATOM      8  N   UNL     1      43.030 130.403  22.797  1.00  0.00    -0.166 N 
ATOM      9  C   UNL     1      43.182 130.447  21.329  1.00  0.00     0.366 C 
ATOM     10  C   UNL     1      43.337 131.662  23.504  1.00  0.00     0.445 C 
ATOM     11  C   UNL     1      44.619 130.858  20.963  1.00  0.00     0.088 C 
ATOM     12  C   UNL     1      44.763 132.117  23.164  1.00  0.00     0.119 C 
ATOM     13  C   UNL     1      44.988 132.205  21.640  1.00  0.00     0.009 C 
ATOM     14  F   UNL     1      42.429 132.638  23.133  1.00  0.00    -0.175 F 
ATOM     15  C   UNL     1      46.446 132.599  21.355  1.00  0.00     0.009 C 
BRANCH  11  16
ATOM     16  C   UNL     1      44.788 130.899  19.454  1.00  0.00    -0.036 A 
ATOM     17  C   UNL     1      45.937 130.312  18.856  1.00  0.00     0.005 A 
ATOM     18  C   UNL     1      43.809 131.510  18.628  1.00  0.00     0.035 A 
ATOM     19  C   UNL     1      46.118 130.334  17.462  1.00  0.00     0.012 A 
ATOM     20  C   UNL     1      44.022 131.516  17.254  1.00  0.00     0.093 A 
ATOM     21  C   UNL     1      45.135 130.953  16.695  1.00  0.00     0.023 A 
ATOM     22  N   UNL     1      43.221 132.026  16.300  1.00  0.00    -0.175 NA
ATOM     23  C   UNL     1      44.992 131.147  15.340  1.00  0.00     0.040 A 
ATOM     24  N   UNL     1      43.820 131.791  15.136  1.00  0.00    -0.282 N 
ATOM     25  C   UNL     1      45.903 130.667  14.258  1.00  0.00     0.067 C 
ATOM     26  H   UNL     1      43.422 132.065  14.210  1.00  0.00     0.190 HD
ENDBRANCH  11  16
ENDBRANCH   1   8
TORSDOF 5
ENDMDL
MODEL 3
REMARK VINA RESULT:      -5.1      3.324      7.807
REMARK SMILES C/C=C(C)/C(O)=[N+]1\C[C@@H](c2ccc3c(C)[nH]nc3c2)[C@H](C)C[C@H]1F
REMARK SMILES IDX 5 1 6 2 3 4 4 5 2 6 1 7 7 8 8 9 23 10 9 11 22 12 20 13 24 14
REMARK SMILES IDX 21 15 10 16 11 17 19 18 12 19 18 20 13 21 17 22 14 23 16 24
REMARK SMILES IDX 15 25
REMARK H PARENT 6 3 16 26
ROOT
ATOM      1  C   UNL     1      46.249 129.696  15.173  1.00  0.00     0.365 C 
ENDROOT
BRANCH   1   2
ATOM      2  O   UNL     1      45.861 128.367  15.367  1.00  0.00    -0.460 OA
ATOM      3  H   UNL     1      45.826 127.709  14.597  1.00  0.00     0.300 HD
ENDBRANCH   1   2
BRANCH   1   4
ATOM      4  C   UNL     1      47.356 129.949  14.221  1.00  0.00     0.056 C 
ATOM      5  C   UNL     1      48.398 128.881  14.012  1.00  0.00     0.055 C 
BRANCH   4   6
ATOM      6  C   UNL     1      47.350 131.084  13.503  1.00  0.00    -0.017 C 
ATOM      7  C   UNL     1      47.919 131.185  12.120  1.00  0.00     0.036 C 
ENDBRANCH   4   6
ENDBRANCH   1   4
BRANCH   1   8
ATOM      8  N   UNL     1      45.642 130.665  15.828  1.00  0.00    -0.166 N 
ATOM      9  C   UNL     1      45.649 130.775  17.300  1.00  0.00     0.366 C 
ATOM     10  C   UNL     1      44.974 131.772  15.113  1.00  0.00     0.445 C 
ATOM     11  C   UNL     1      44.206 130.874  17.824  1.00  0.00     0.088 C 
ATOM     12  C   UNL     1      43.529 131.916  15.609  1.00  0.00     0.119 C 
ATOM     13  C   UNL     1      43.461 132.055  17.144  1.00  0.00     0.009 C 
ATOM     14  F   UNL     1      45.668 132.950  15.328  1.00  0.00    -0.175 F 
ATOM     15  C   UNL     1      41.993 132.129  17.592  1.00  0.00     0.009 C 
BRANCH  11  16
ATOM     16  C   UNL     1      44.202 130.980  19.340  1.00  0.00    -0.036 A 
ATOM     17  C   UNL     1      45.305 130.478  20.084  1.00  0.00     0.005 A 
ATOM     18  C   UNL     1      43.116 131.581  20.026  1.00  0.00     0.035 A 
ATOM     19  C   UNL     1      45.329 130.564  21.488  1.00  0.00     0.012 A 
ATOM     20  C   UNL     1      43.172 131.647  21.414  1.00  0.00     0.093 A 
ATOM     21  C   UNL     1      44.236 131.154  22.116  1.00  0.00     0.023 A 
ATOM     22  N   UNL     1      42.263 132.183  22.249  1.00  0.00    -0.175 NA
ATOM     23  C   UNL     1      43.938 131.401  23.436  1.00  0.00     0.040 A 
ATOM     24  N   UNL     1      42.742 132.032  23.480  1.00  0.00    -0.282 N 
ATOM     25  C   UNL     1      44.799 131.117  24.624  1.00  0.00     0.067 C 
ATOM     26  H   UNL     1      42.255 132.366  24.341  1.00  0.00     0.190 HD
ENDBRANCH  11  16
ENDBRANCH   1   8
TORSDOF 5
ENDMDL
MODEL 4
REMARK VINA RESULT:      -5.0      2.068      3.251
REMARK SMILES C/C=C(C)/C(O)=[N+]1\C[C@@H](c2ccc3c(C)[nH]nc3c2)[C@H](C)C[C@H]1F
REMARK SMILES IDX 5 1 6 2 3 4 4 5 2 6 1 7 7 8 8 9 23 10 9 11 22 12 20 13 24 14
REMARK SMILES IDX 21 15 10 16 11 17 19 18 12 19 18 20 13 21 17 22 14 23 16 24
REMARK SMILES IDX 15 25
REMARK H PARENT 6 3 16 26
ROOT
ATOM      1  C   UNL     1      44.849 131.785  22.511  1.00  0.00     0.365 C 
ENDROOT
BRANCH   1   2
ATOM      2  O   UNL     1      46.056 132.483  22.415  1.00  0.00    -0.460 OA
ATOM      3  H   UNL     1      46.628 132.665  23.231  1.00  0.00     0.300 HD
ENDBRANCH   1   2
BRANCH   1   4
ATOM      4  C   UNL     1      44.331 131.506  23.871  1.00  0.00     0.056 C 
ATOM      5  C   UNL     1      43.618 132.602  24.620  1.00  0.00     0.055 C 
BRANCH   4   6
ATOM      6  C   UNL     1      44.430 130.260  24.361  1.00  0.00    -0.017 C 
ATOM      7  C   UNL     1      44.448 129.036  23.496  1.00  0.00     0.036 C 
ENDBRANCH   4   6
ENDBRANCH   1   4
BRANCH   1   8
ATOM      8  N   UNL     1      44.220 131.396  21.420  1.00  0.00    -0.166 N 
ATOM      9  C   UNL     1      44.915 131.059  20.162  1.00  0.00     0.366 C 
ATOM     10  C   UNL     1      42.758 131.190  21.411  1.00  0.00     0.445 C 
ATOM     11  C   UNL     1      44.327 131.881  19.002  1.00  0.00     0.088 C 
ATOM     12  C   UNL     1      42.125 131.987  20.262  1.00  0.00     0.119 C 
ATOM     13  C   UNL     1      42.792 131.668  18.909  1.00  0.00     0.009 C 
ATOM     14  F   UNL     1      42.479 129.842  21.261  1.00  0.00    -0.175 F 
ATOM     15  C   UNL     1      42.168 132.540  17.807  1.00  0.00     0.009 C 
BRANCH  11  16
ATOM     16  C   UNL     1      45.041 131.546  17.704  1.00  0.00    -0.036 A 
ATOM     17  C   UNL     1      45.197 132.548  16.706  1.00  0.00     0.005 A 
ATOM     18  C   UNL     1      45.564 130.248  17.473  1.00  0.00     0.035 A 
ATOM     19  C   UNL     1      45.855 132.266  15.495  1.00  0.00     0.012 A 
ATOM     20  C   UNL     1      46.206 130.004  16.264  1.00  0.00     0.093 A 
ATOM     21  C   UNL     1      46.342 130.976  15.312  1.00  0.00     0.023 A 
ATOM     22  N   UNL     1      46.780 128.858  15.854  1.00  0.00    -0.175 NA
ATOM     23  C   UNL     1      47.023 130.372  14.280  1.00  0.00     0.040 A 
ATOM     24  N   UNL     1      47.279 129.094  14.645  1.00  0.00    -0.282 N 
ATOM     25  C   UNL     1      47.488 131.008  13.011  1.00  0.00     0.067 C 
ATOM     26  H   UNL     1      47.797 128.385  14.079  1.00  0.00     0.190 HD
ENDBRANCH  11  16
ENDBRANCH   1   8
TORSDOF 5
ENDMDL
MODEL 5
REMARK VINA RESULT:      -4.9      1.178      1.251
REMARK SMILES C/C=C(C)/C(O)=[N+]1\C[C@@H](c2ccc3c(C)[nH]nc3c2)[C@H](C)C[C@H]1F
REMARK SMILES IDX 5 1 6 2 3 4 4 5 2 6 1 7 7 8 8 9 23 10 9 11 22 12 20 13 24 14
REMARK SMILES IDX 21 15 10 16 11 17 19 18 12 19 18 20 13 21 17 22 14 23 16 24
REMARK SMILES IDX 15 25
REMARK H PARENT 6 3 16 26
ROOT
ATOM      1  C   UNL     1      44.383 128.495  23.713  1.00  0.00     0.365 C 
ENDROOT
BRANCH   1   2
ATOM      2  O   UNL     1      45.431 128.344  24.624  1.00  0.00    -0.460 OA
ATOM      3  H   UNL     1      46.092 129.092  24.798  1.00  0.00     0.300 HD
ENDBRANCH   1   2
BRANCH   1   4
ATOM      4  C   UNL     1      43.504 127.322  23.487  1.00  0.00     0.056 C 
ATOM      5  C   UNL     1      42.090 127.359  24.004  1.00  0.00     0.055 C 
BRANCH   4   6
ATOM      6  C   UNL     1      43.963 126.299  22.748  1.00  0.00    -0.017 C 
ATOM      7  C   UNL     1      45.422 126.023  22.543  1.00  0.00     0.036 C 
ENDBRANCH   4   6
ENDBRANCH   1   4
BRANCH   1   8
ATOM      8  N   UNL     1      44.207 129.642  23.087  1.00  0.00    -0.166 N 
ATOM      9  C   UNL     1      44.068 129.751  21.622  1.00  0.00     0.366 C 
ATOM     10  C   UNL     1      44.054 130.906  23.834  1.00  0.00     0.445 C 
ATOM     11  C   UNL     1      45.096 130.754  21.071  1.00  0.00     0.088 C 
ATOM     12  C   UNL     1      45.056 131.945  23.314  1.00  0.00     0.119 C 
ATOM     13  C   UNL     1      44.953 132.125  21.786  1.00  0.00     0.009 C 
ATOM     14  F   UNL     1      42.762 131.380  23.685  1.00  0.00    -0.175 F 
ATOM     15  C   UNL     1      46.021 133.123  21.309  1.00  0.00     0.009 C 
BRANCH  11  16
ATOM     16  C   UNL     1      44.966 130.868  19.562  1.00  0.00    -0.036 A 
ATOM     17  C   UNL     1      43.862 131.569  19.001  1.00  0.00     0.005 A 
ATOM     18  C   UNL     1      45.934 130.292  18.701  1.00  0.00     0.035 A 
ATOM     19  C   UNL     1      43.717 131.692  17.607  1.00  0.00     0.012 A 
ATOM     20  C   UNL     1      45.757 130.431  17.328  1.00  0.00     0.093 A 
ATOM     21  C   UNL     1      44.688 131.102  16.804  1.00  0.00     0.023 A 
ATOM     22  N   UNL     1      46.557 129.976  16.346  1.00  0.00    -0.175 NA
ATOM     23  C   UNL     1      44.857 131.033  15.440  1.00  0.00     0.040 A 
ATOM     24  N   UNL     1      46.001 130.353  15.199  1.00  0.00    -0.282 N 
ATOM     25  C   UNL     1      43.998 131.662  14.392  1.00  0.00     0.067 C 
ATOM     26  H   UNL     1      46.409 130.151  14.259  1.00  0.00     0.190 HD
ENDBRANCH  11  16
ENDBRANCH   1   8
TORSDOF 5
ENDMDL
MODEL 6
REMARK VINA RESULT:      -4.5      2.133      3.488
REMARK SMILES C/C=C(C)/C(O)=[N+]1\C[C@@H](c2ccc3c(C)[nH]nc3c2)[C@H](C)C[C@H]1F
REMARK SMILES IDX 5 1 6 2 3 4 4 5 2 6 1 7 7 8 8 9 23 10 9 11 22 12 20 13 24 14
REMARK SMILES IDX 21 15 10 16 11 17 19 18 12 19 18 20 13 21 17 22 14 23 16 24
REMARK SMILES IDX 15 25
REMARK H PARENT 6 3 16 26
ROOT
ATOM      1  C   UNL     1      44.658 131.592  22.322  1.00  0.00     0.365 C 
ENDROOT
BRANCH   1   2
ATOM      2  O   UNL     1      45.812 132.379  22.283  1.00  0.00    -0.460 OA
ATOM      3  H   UNL     1      45.762 133.387  22.193  1.00  0.00     0.300 HD
ENDBRANCH   1   2
BRANCH   1   4
ATOM      4  C   UNL     1      44.182 131.148  23.654  1.00  0.00     0.056 C 
ATOM      5  C   UNL     1      44.217 129.680  23.991  1.00  0.00     0.055 C 
BRANCH   4   6
ATOM      6  C   UNL     1      43.820 132.074  24.556  1.00  0.00    -0.017 C 
ATOM      7  C   UNL     1      42.477 132.742  24.555  1.00  0.00     0.036 C 
ENDBRANCH   4   6
ENDBRANCH   1   4
BRANCH   1   8
ATOM      8  N   UNL     1      44.040 131.266  21.205  1.00  0.00    -0.166 N 
ATOM      9  C   UNL     1      44.751 130.919  19.958  1.00  0.00     0.366 C 
ATOM     10  C   UNL     1      42.569 131.143  21.151  1.00  0.00     0.445 C 
ATOM     11  C   UNL     1      44.244 131.802  18.804  1.00  0.00     0.088 C 
ATOM     12  C   UNL     1      42.016 132.002  20.006  1.00  0.00     0.119 C 
ATOM     13  C   UNL     1      42.703 131.679  18.663  1.00  0.00     0.009 C 
ATOM     14  F   UNL     1      42.220 129.818  20.958  1.00  0.00    -0.175 F 
ATOM     15  C   UNL     1      42.161 132.611  17.567  1.00  0.00     0.009 C 
BRANCH  11  16
ATOM     16  C   UNL     1      44.976 131.458  17.518  1.00  0.00    -0.036 A 
ATOM     17  C   UNL     1      45.364 132.497  16.628  1.00  0.00     0.005 A 
ATOM     18  C   UNL     1      45.286 130.113  17.193  1.00  0.00     0.035 A 
ATOM     19  C   UNL     1      46.044 132.208  15.431  1.00  0.00     0.012 A 
ATOM     20  C   UNL     1      45.957 129.863  16.001  1.00  0.00     0.093 A 
ATOM     21  C   UNL     1      46.317 130.873  15.152  1.00  0.00     0.023 A 
ATOM     22  N   UNL     1      46.355 128.673  15.514  1.00  0.00    -0.175 NA
ATOM     23  C   UNL     1      46.953 130.248  14.104  1.00  0.00     0.040 A 
ATOM     24  N   UNL     1      46.965 128.920  14.359  1.00  0.00    -0.282 N 
ATOM     25  C   UNL     1      47.602 130.898  12.926  1.00  0.00     0.067 C 
ATOM     26  H   UNL     1      47.393 128.182  13.757  1.00  0.00     0.190 HD
ENDBRANCH  11  16
ENDBRANCH   1   8
TORSDOF 5
ENDMDL
MODEL 7
REMARK VINA RESULT:      -4.4      1.556      2.010
REMARK SMILES C/C=C(C)/C(O)=[N+]1\C[C@@H](c2ccc3c(C)[nH]nc3c2)[C@H](C)C[C@H]1F
REMARK SMILES IDX 5 1 6 2 3 4 4 5 2 6 1 7 7 8 8 9 23 10 9 11 22 12 20 13 24 14
REMARK SMILES IDX 21 15 10 16 11 17 19 18 12 19 18 20 13 21 17 22 14 23 16 24
REMARK SMILES IDX 15 25
REMARK H PARENT 6 3 16 26
ROOT
ATOM      1  C   UNL     1      44.122 128.596  23.834  1.00  0.00     0.365 C 
ENDROOT
BRANCH   1   2
ATOM      2  O   UNL     1      45.240 128.311  24.622  1.00  0.00    -0.460 OA
ATOM      3  H   UNL     1      45.148 127.872  25.530  1.00  0.00     0.300 HD
ENDBRANCH   1   2
BRANCH   1   4
ATOM      4  C   UNL     1      43.052 127.572  23.775  1.00  0.00     0.056 C 
ATOM      5  C   UNL     1      41.622 127.997  23.982  1.00  0.00     0.055 C 
BRANCH   4   6
ATOM      6  C   UNL     1      43.377 126.311  23.447  1.00  0.00    -0.017 C 
ATOM      7  C   UNL     1      42.951 125.118  24.248  1.00  0.00     0.036 C 
ENDBRANCH   4   6
ENDBRANCH   1   4
BRANCH   1   8
ATOM      8  N   UNL     1      44.049 129.735  23.175  1.00  0.00    -0.166 N 
ATOM      9  C   UNL     1      44.007 129.815  21.701  1.00  0.00     0.366 C 
ATOM     10  C   UNL     1      43.918 131.023  23.883  1.00  0.00     0.445 C 
ATOM     11  C   UNL     1      45.121 130.748  21.195  1.00  0.00     0.088 C 
ATOM     12  C   UNL     1      45.006 131.995  23.405  1.00  0.00     0.119 C 
ATOM     13  C   UNL     1      45.008 132.142  21.870  1.00  0.00     0.009 C 
ATOM     14  F   UNL     1      42.666 131.562  23.642  1.00  0.00    -0.175 F 
ATOM     15  C   UNL     1      46.157 133.070  21.441  1.00  0.00     0.009 C 
BRANCH  11  16
ATOM     16  C   UNL     1      45.091 130.832  19.679  1.00  0.00    -0.036 A 
ATOM     17  C   UNL     1      46.153 130.266  18.921  1.00  0.00     0.005 A 
ATOM     18  C   UNL     1      44.013 131.460  19.005  1.00  0.00     0.035 A 
ATOM     19  C   UNL     1      46.151 130.326  17.515  1.00  0.00     0.012 A 
ATOM     20  C   UNL     1      44.044 131.504  17.615  1.00  0.00     0.093 A 
ATOM     21  C   UNL     1      45.076 130.961  16.900  1.00  0.00     0.023 A 
ATOM     22  N   UNL     1      43.125 132.035  16.788  1.00  0.00    -0.175 NA
ATOM     23  C   UNL     1      44.756 131.191  15.582  1.00  0.00     0.040 A 
ATOM     24  N   UNL     1      43.567 131.835  15.550  1.00  0.00    -0.282 N 
ATOM     25  C   UNL     1      45.520 130.745  14.377  1.00  0.00     0.067 C 
ATOM     26  H   UNL     1      43.051 132.132  14.692  1.00  0.00     0.190 HD
ENDBRANCH  11  16
ENDBRANCH   1   8
TORSDOF 5
ENDMDL
MODEL 8
REMARK VINA RESULT:      -4.2      0.727      1.085
REMARK SMILES C/C=C(C)/C(O)=[N+]1\C[C@@H](c2ccc3c(C)[nH]nc3c2)[C@H](C)C[C@H]1F
REMARK SMILES IDX 5 1 6 2 3 4 4 5 2 6 1 7 7 8 8 9 23 10 9 11 22 12 20 13 24 14
REMARK SMILES IDX 21 15 10 16 11 17 19 18 12 19 18 20 13 21 17 22 14 23 16 24
REMARK SMILES IDX 15 25
REMARK H PARENT 6 3 16 26
ROOT
ATOM      1  C   UNL     1      42.984 128.743  23.653  1.00  0.00     0.365 C 
ENDROOT
BRANCH   1   2
ATOM      2  O   UNL     1      41.986 128.629  24.625  1.00  0.00    -0.460 OA
ATOM      3  H   UNL     1      41.414 129.422  24.890  1.00  0.00     0.300 HD
ENDBRANCH   1   2
BRANCH   1   4
ATOM      4  C   UNL     1      43.796 127.536  23.367  1.00  0.00     0.056 C 
ATOM      5  C   UNL     1      45.192 127.706  22.827  1.00  0.00     0.055 C 
BRANCH   4   6
ATOM      6  C   UNL     1      43.299 126.329  23.683  1.00  0.00    -0.017 C 
ATOM      7  C   UNL     1      43.392 125.139  22.775  1.00  0.00     0.036 C 
ENDBRANCH   4   6
ENDBRANCH   1   4
BRANCH   1   8
ATOM      8  N   UNL     1      43.181 129.891  23.036  1.00  0.00    -0.166 N 
ATOM      9  C   UNL     1      43.264 130.015  21.567  1.00  0.00     0.366 C 
ATOM     10  C   UNL     1      43.249 131.162  23.784  1.00  0.00     0.445 C 
ATOM     11  C   UNL     1      44.571 130.727  21.175  1.00  0.00     0.088 C 
ATOM     12  C   UNL     1      44.535 131.914  23.420  1.00  0.00     0.119 C 
ATOM     13  C   UNL     1      44.679 132.098  21.895  1.00  0.00     0.009 C 
ATOM     14  F   UNL     1      42.145 131.940  23.481  1.00  0.00    -0.175 F 
ATOM     15  C   UNL     1      46.013 132.795  21.582  1.00  0.00     0.009 C 
BRANCH  11  16
ATOM     16  C   UNL     1      44.670 130.853  19.665  1.00  0.00    -0.036 A 
ATOM     17  C   UNL     1      43.871 131.814  18.984  1.00  0.00     0.005 A 
ATOM     18  C   UNL     1      45.554 130.032  18.921  1.00  0.00     0.035 A 
ATOM     19  C   UNL     1      43.943 131.955  17.586  1.00  0.00     0.012 A 
ATOM     20  C   UNL     1      45.598 130.196  17.540  1.00  0.00     0.093 A 
ATOM     21  C   UNL     1      44.819 131.119  16.900  1.00  0.00     0.023 A 
ATOM     22  N   UNL     1      46.369 129.535  16.657  1.00  0.00    -0.175 NA
ATOM     23  C   UNL     1      45.138 130.993  15.567  1.00  0.00     0.040 A 
ATOM     24  N   UNL     1      46.084 130.032  15.457  1.00  0.00    -0.282 N 
ATOM     25  C   UNL     1      44.617 131.814  14.433  1.00  0.00     0.067 C 
ATOM     26  H   UNL     1      46.541 129.718  14.573  1.00  0.00     0.190 HD
ENDBRANCH  11  16
ENDBRANCH   1   8
TORSDOF 5
ENDMDL
MODEL 9
REMARK VINA RESULT:      -4.1      1.809      2.465
REMARK SMILES C/C=C(C)/C(O)=[N+]1\C[C@@H](c2ccc3c(C)[nH]nc3c2)[C@H](C)C[C@H]1F
REMARK SMILES IDX 5 1 6 2 3 4 4 5 2 6 1 7 7 8 8 9 23 10 9 11 22 12 20 13 24 14
REMARK SMILES IDX 21 15 10 16 11 17 19 18 12 19 18 20 13 21 17 22 14 23 16 24
REMARK SMILES IDX 15 25
REMARK H PARENT 6 3 16 26
ROOT
ATOM      1  C   UNL     1      45.163 127.927  23.167  1.00  0.00     0.365 C 
ENDROOT
BRANCH   1   2
ATOM      2  O   UNL     1      45.621 127.998  24.486  1.00  0.00    -0.460 OA
ATOM      3  H   UNL     1      45.889 127.166  24.998  1.00  0.00     0.300 HD
ENDBRANCH   1   2
BRANCH   1   4
ATOM      4  C   UNL     1      45.205 126.602  22.503  1.00  0.00     0.056 C 
ATOM      5  C   UNL     1      46.544 125.991  22.179  1.00  0.00     0.055 C 
BRANCH   4   6
ATOM      6  C   UNL     1      44.055 125.943  22.293  1.00  0.00    -0.017 C 
ATOM      7  C   UNL     1      43.099 125.587  23.391  1.00  0.00     0.036 C 
ENDBRANCH   4   6
ENDBRANCH   1   4
BRANCH   1   8
ATOM      8  N   UNL     1      44.722 129.010  22.559  1.00  0.00    -0.166 N 
ATOM      9  C   UNL     1      44.675 129.150  21.090  1.00  0.00     0.366 C 
ATOM     10  C   UNL     1      44.161 130.142  23.322  1.00  0.00     0.445 C 
ATOM     11  C   UNL     1      45.420 130.426  20.662  1.00  0.00     0.088 C 
ATOM     12  C   UNL     1      44.868 131.444  22.922  1.00  0.00     0.119 C 
ATOM     13  C   UNL     1      44.840 131.666  21.396  1.00  0.00     0.009 C 
ATOM     14  F   UNL     1      42.804 130.245  23.070  1.00  0.00    -0.175 F 
ATOM     15  C   UNL     1      45.618 132.944  21.045  1.00  0.00     0.009 C 
BRANCH  11  16
ATOM     16  C   UNL     1      45.382 130.576  19.150  1.00  0.00    -0.036 A 
ATOM     17  C   UNL     1      46.423 130.012  18.360  1.00  0.00     0.005 A 
ATOM     18  C   UNL     1      44.319 131.263  18.512  1.00  0.00     0.035 A 
ATOM     19  C   UNL     1      46.413 130.134  16.959  1.00  0.00     0.012 A 
ATOM     20  C   UNL     1      44.342 131.366  17.125  1.00  0.00     0.093 A 
ATOM     21  C   UNL     1      45.353 130.825  16.380  1.00  0.00     0.023 A 
ATOM     22  N   UNL     1      43.434 131.959  16.328  1.00  0.00    -0.175 NA
ATOM     23  C   UNL     1      45.032 131.120  15.075  1.00  0.00     0.040 A 
ATOM     24  N   UNL     1      43.862 131.799  15.080  1.00  0.00    -0.282 N 
ATOM     25  C   UNL     1      45.774 130.705  13.847  1.00  0.00     0.067 C 
ATOM     26  H   UNL     1      43.350 132.147  14.239  1.00  0.00     0.190 HD
ENDBRANCH  11  16
ENDBRANCH   1   8
TORSDOF 5
ENDMDL


