REMARK SMILES C=Cc1ccc(-c2cnc3ocnc3c2C)c(Cl)c1F
REMARK SMILES IDX 3 1 4 2 5 3 6 4 17 5 18 6 19 7 20 8 2 9 1 10 7 11 8 12 15 13
REMARK SMILES IDX 9 14 14 15 10 16 13 17 11 18 12 19 16 20
REMARK H PARENT
ROOT
ATOM      1  C   UNL     1       0.908  -1.253  -2.671  1.00  0.00     0.011 A 
ATOM      2  C   UNL     1       1.808  -1.627  -1.654  1.00  0.00     0.012 A 
ATOM      3  C   UNL     1       1.501  -1.389  -0.313  1.00  0.00     0.011 A 
ATOM      4  C   UNL     1       0.292  -0.778   0.041  1.00  0.00     0.005 A 
ATOM      5  C   UNL     1      -0.626  -0.421  -0.964  1.00  0.00     0.085 A 
ATOM      6  Cl  UNL     1      -2.180   0.304  -0.557  1.00  0.00    -0.080 Cl
ATOM      7  C   UNL     1      -0.317  -0.661  -2.311  1.00  0.00     0.149 A 
ATOM      8  F   UNL     1      -1.212  -0.306  -3.270  1.00  0.00    -0.205 F 
ENDROOT
BRANCH   1   9
ATOM      9  C   UNL     1       1.197  -1.500  -4.107  1.00  0.00     0.003 C 
ATOM     10  C   UNL     1       2.425  -1.671  -4.601  1.00  0.00     0.009 C 
ENDBRANCH   1   9
BRANCH   4  11
ATOM     11  C   UNL     1       0.002  -0.531   1.467  1.00  0.00     0.007 A 
ATOM     12  C   UNL     1      -0.434  -1.613   2.277  1.00  0.00     0.124 A 
ATOM     13  C   UNL     1       0.154   0.760   2.043  1.00  0.00    -0.010 A 
ATOM     14  N   UNL     1      -0.733  -1.421   3.597  1.00  0.00    -0.219 NA
ATOM     15  C   UNL     1      -0.181   0.885   3.394  1.00  0.00     0.133 A 
ATOM     16  C   UNL     1      -0.602  -0.180   4.119  1.00  0.00     0.246 A 
ATOM     17  N   UNL     1      -0.152   1.979   4.175  1.00  0.00    -0.214 NA
ATOM     18  O   UNL     1      -0.845   0.194   5.344  1.00  0.00    -0.425 OA
ATOM     19  C   UNL     1      -0.574   1.490   5.373  1.00  0.00     0.311 A 
ATOM     20  C   UNL     1       0.610   1.950   1.243  1.00  0.00     0.047 C 
ENDBRANCH   4  11
TORSDOF 2


