MODEL 1
REMARK VINA RESULT:      -0.3      0.000      0.000
REMARK SMILES CC1=CCC=C[C@H]1C(=O)Oc1ccc(N(C(=O)Oc2ccccc2)c2ccc3cc[nH]c3c2)c(F)c1
REMARK SMILES IDX 11 1 12 2 13 3 14 4 34 5 35 6 36 7 10 8 8 9 9 10 7 11 2 12
REMARK SMILES IDX 3 13 4 14 6 15 5 16 1 17 15 18 16 19 17 20 18 21 19 22 20 23
REMARK SMILES IDX 24 24 21 25 23 26 22 27 25 28 26 29 33 30 27 31 32 32 28 33
REMARK SMILES IDX 31 34 29 35 30 36
REMARK H PARENT 31 37
ROOT
ATOM      1  C   UNL     1      44.171 131.583  18.407  1.00  0.00     0.133 A 
ATOM      2  C   UNL     1      43.002 131.181  19.080  1.00  0.00     0.049 A 
ATOM      3  C   UNL     1      43.081 130.634  20.364  1.00  0.00     0.034 A 
ATOM      4  C   UNL     1      44.322 130.504  21.004  1.00  0.00     0.088 A 
ATOM      5  C   UNL     1      45.487 130.914  20.337  1.00  0.00     0.151 A 
ATOM      6  F   UNL     1      46.700 130.771  20.926  1.00  0.00    -0.205 F 
ATOM      7  C   UNL     1      45.407 131.453  19.050  1.00  0.00     0.088 A 
ENDROOT
BRANCH   1   8
ATOM      8  O   UNL     1      44.141 132.154  17.127  1.00  0.00    -0.426 OA
BRANCH   8   9
ATOM      9  C   UNL     1      44.555 131.520  15.947  1.00  0.00     0.322 C 
ATOM     10  O   UNL     1      43.725 131.217  15.048  1.00  0.00    -0.251 OA
BRANCH   9  11
ATOM     11  C   UNL     1      46.009 131.191  15.767  1.00  0.00     0.147 C 
ATOM     12  C   UNL     1      46.216 129.692  15.592  1.00  0.00    -0.059 C 
ATOM     13  C   UNL     1      46.989 129.197  14.605  1.00  0.00    -0.023 C 
ATOM     14  C   UNL     1      47.767 130.071  13.660  1.00  0.00     0.054 C 
ATOM     15  C   UNL     1      46.537 132.015  14.615  1.00  0.00    -0.012 C 
ATOM     16  C   UNL     1      47.314 131.504  13.654  1.00  0.00    -0.026 C 
ATOM     17  C   UNL     1      45.599 128.727  16.575  1.00  0.00     0.040 C 
ENDBRANCH   9  11
ENDBRANCH   8   9
ENDBRANCH   1   8
BRANCH   4  18
ATOM     18  N   UNL     1      44.389 129.938  22.324  1.00  0.00    -0.243 N 
BRANCH  18  19
ATOM     19  C   UNL     1      44.345 130.790  23.486  1.00  0.00     0.424 C 
ATOM     20  O   UNL     1      44.609 130.314  24.625  1.00  0.00    -0.223 OA
BRANCH  19  21
ATOM     21  O   UNL     1      43.950 132.130  23.346  1.00  0.00    -0.410 OA
BRANCH  21  22
ATOM     22  C   UNL     1      42.693 132.583  22.918  1.00  0.00     0.132 A 
ATOM     23  C   UNL     1      42.436 132.984  21.594  1.00  0.00     0.047 A 
ATOM     24  C   UNL     1      41.644 132.591  23.846  1.00  0.00     0.047 A 
ATOM     25  C   UNL     1      41.157 133.411  21.223  1.00  0.00     0.004 A 
ATOM     26  C   UNL     1      40.363 133.003  23.470  1.00  0.00     0.004 A 
ATOM     27  C   UNL     1      40.122 133.426  22.161  1.00  0.00     0.000 A 
ENDBRANCH  21  22
ENDBRANCH  19  21
ENDBRANCH  18  19
BRANCH  18  28
ATOM     28  C   UNL     1      44.495 128.510  22.471  1.00  0.00     0.055 A 
ATOM     29  C   UNL     1      43.421 127.761  23.022  1.00  0.00     0.027 A 
ATOM     30  C   UNL     1      45.668 127.843  22.049  1.00  0.00     0.053 A 
ATOM     31  C   UNL     1      43.524 126.367  23.181  1.00  0.00     0.012 A 
ATOM     32  C   UNL     1      45.737 126.462  22.221  1.00  0.00     0.047 A 
ATOM     33  C   UNL     1      44.705 125.752  22.771  1.00  0.00    -0.000 A 
ATOM     34  N   UNL     1      46.763 125.651  21.910  1.00  0.00    -0.361 N 
ATOM     35  C   UNL     1      45.089 124.429  22.806  1.00  0.00     0.028 A 
ATOM     36  C   UNL     1      46.371 124.407  22.264  1.00  0.00     0.083 A 
ATOM     37  H   UNL     1      47.671 125.919  21.475  1.00  0.00     0.166 HD
ENDBRANCH  18  28
ENDBRANCH   4  18
TORSDOF 8
ENDMDL
MODEL 2
REMARK VINA RESULT:       0.7      2.651      7.092
REMARK SMILES CC1=CCC=C[C@H]1C(=O)Oc1ccc(N(C(=O)Oc2ccccc2)c2ccc3cc[nH]c3c2)c(F)c1
REMARK SMILES IDX 11 1 12 2 13 3 14 4 34 5 35 6 36 7 10 8 8 9 9 10 7 11 2 12
REMARK SMILES IDX 3 13 4 14 6 15 5 16 1 17 15 18 16 19 17 20 18 21 19 22 20 23
REMARK SMILES IDX 24 24 21 25 23 26 22 27 25 28 26 29 33 30 27 31 32 32 28 33
REMARK SMILES IDX 31 34 29 35 30 36
REMARK H PARENT 31 37
ROOT
ATOM      1  C   UNL     1      45.692 125.859  22.924  1.00  0.00     0.133 A 
ATOM      2  C   UNL     1      46.540 126.651  22.128  1.00  0.00     0.049 A 
ATOM      3  C   UNL     1      46.196 127.973  21.832  1.00  0.00     0.034 A 
ATOM      4  C   UNL     1      45.017 128.531  22.345  1.00  0.00     0.088 A 
ATOM      5  C   UNL     1      44.175 127.744  23.147  1.00  0.00     0.151 A 
ATOM      6  F   UNL     1      43.015 128.254  23.631  1.00  0.00    -0.205 F 
ATOM      7  C   UNL     1      44.516 126.419  23.436  1.00  0.00     0.088 A 
ENDROOT
BRANCH   1   8
ATOM      8  O   UNL     1      46.003 124.535  23.264  1.00  0.00    -0.426 OA
BRANCH   8   9
ATOM      9  C   UNL     1      46.152 123.479  22.355  1.00  0.00     0.322 C 
ATOM     10  O   UNL     1      45.326 123.309  21.417  1.00  0.00    -0.251 OA
BRANCH   9  11
ATOM     11  C   UNL     1      47.308 122.534  22.516  1.00  0.00     0.147 C 
ATOM     12  C   UNL     1      48.518 123.005  21.719  1.00  0.00    -0.059 C 
ATOM     13  C   UNL     1      49.748 123.054  22.266  1.00  0.00    -0.023 C 
ATOM     14  C   UNL     1      50.042 122.578  23.663  1.00  0.00     0.054 C 
ATOM     15  C   UNL     1      47.581 122.376  23.995  1.00  0.00    -0.012 C 
ATOM     16  C   UNL     1      48.813 122.415  24.513  1.00  0.00    -0.026 C 
ATOM     17  C   UNL     1      48.364 123.368  20.262  1.00  0.00     0.040 C 
ENDBRANCH   9  11
ENDBRANCH   8   9
ENDBRANCH   1   8
BRANCH   4  18
ATOM     18  N   UNL     1      44.674 129.892  22.031  1.00  0.00    -0.243 N 
BRANCH  18  19
ATOM     19  C   UNL     1      44.112 130.753  23.040  1.00  0.00     0.424 C 
ATOM     20  O   UNL     1      44.872 131.336  23.863  1.00  0.00    -0.223 OA
BRANCH  19  21
ATOM     21  O   UNL     1      42.718 130.890  23.136  1.00  0.00    -0.410 OA
BRANCH  21  22
ATOM     22  C   UNL     1      41.946 131.917  22.572  1.00  0.00     0.132 A 
ATOM     23  C   UNL     1      42.023 132.272  21.212  1.00  0.00     0.047 A 
ATOM     24  C   UNL     1      41.030 132.582  23.396  1.00  0.00     0.047 A 
ATOM     25  C   UNL     1      41.215 133.294  20.704  1.00  0.00     0.004 A 
ATOM     26  C   UNL     1      40.212 133.592  22.884  1.00  0.00     0.004 A 
ATOM     27  C   UNL     1      40.314 133.958  21.540  1.00  0.00     0.000 A 
ENDBRANCH  21  22
ENDBRANCH  19  21
ENDBRANCH  18  19
BRANCH  18  28
ATOM     28  C   UNL     1      44.904 130.384  20.698  1.00  0.00     0.055 A 
ATOM     29  C   UNL     1      44.497 131.695  20.334  1.00  0.00     0.027 A 
ATOM     30  C   UNL     1      45.555 129.565  19.747  1.00  0.00     0.053 A 
ATOM     31  C   UNL     1      44.708 132.177  19.029  1.00  0.00     0.012 A 
ATOM     32  C   UNL     1      45.748 130.073  18.465  1.00  0.00     0.047 A 
ATOM     33  C   UNL     1      45.335 131.330  18.118  1.00  0.00    -0.000 A 
ATOM     34  N   UNL     1      46.320 129.452  17.418  1.00  0.00    -0.361 N 
ATOM     35  C   UNL     1      45.664 131.520  16.793  1.00  0.00     0.028 A 
ATOM     36  C   UNL     1      46.272 130.333  16.394  1.00  0.00     0.083 A 
ATOM     37  H   UNL     1      46.727 128.493  17.398  1.00  0.00     0.166 HD
ENDBRANCH  18  28
ENDBRANCH   4  18
TORSDOF 8
ENDMDL
MODEL 3
REMARK VINA RESULT:       1.1      5.222      7.623
REMARK SMILES CC1=CCC=C[C@H]1C(=O)Oc1ccc(N(C(=O)Oc2ccccc2)c2ccc3cc[nH]c3c2)c(F)c1
REMARK SMILES IDX 11 1 12 2 13 3 14 4 34 5 35 6 36 7 10 8 8 9 9 10 7 11 2 12
REMARK SMILES IDX 3 13 4 14 6 15 5 16 1 17 15 18 16 19 17 20 18 21 19 22 20 23
REMARK SMILES IDX 24 24 21 25 23 26 22 27 25 28 26 29 33 30 27 31 32 32 28 33
REMARK SMILES IDX 31 34 29 35 30 36
REMARK H PARENT 31 37
ROOT
ATOM      1  C   UNL     1      48.984 134.333  23.301  1.00  0.00     0.133 A 
ATOM      2  C   UNL     1      47.673 134.737  23.616  1.00  0.00     0.049 A 
ATOM      3  C   UNL     1      46.581 134.145  22.976  1.00  0.00     0.034 A 
ATOM      4  C   UNL     1      46.778 133.127  22.033  1.00  0.00     0.088 A 
ATOM      5  C   UNL     1      48.085 132.717  21.725  1.00  0.00     0.151 A 
ATOM      6  F   UNL     1      48.301 131.753  20.795  1.00  0.00    -0.205 F 
ATOM      7  C   UNL     1      49.177 133.315  22.361  1.00  0.00     0.088 A 
ENDROOT
BRANCH   1   8
ATOM      8  O   UNL     1      50.110 134.883  23.930  1.00  0.00    -0.426 OA
BRANCH   8   9
ATOM      9  C   UNL     1      51.430 134.769  23.472  1.00  0.00     0.322 C 
ATOM     10  O   UNL     1      52.022 133.655  23.470  1.00  0.00    -0.251 OA
BRANCH   9  11
ATOM     11  C   UNL     1      52.143 135.999  22.988  1.00  0.00     0.147 C 
ATOM     12  C   UNL     1      51.198 136.918  22.225  1.00  0.00    -0.059 C 
ATOM     13  C   UNL     1      51.142 138.240  22.477  1.00  0.00    -0.023 C 
ATOM     14  C   UNL     1      52.053 138.924  23.461  1.00  0.00     0.054 C 
ATOM     15  C   UNL     1      52.799 136.658  24.180  1.00  0.00    -0.012 C 
ATOM     16  C   UNL     1      52.741 137.976  24.402  1.00  0.00    -0.026 C 
ATOM     17  C   UNL     1      50.343 136.362  21.112  1.00  0.00     0.040 C 
ENDBRANCH   9  11
ENDBRANCH   8   9
ENDBRANCH   1   8
BRANCH   4  18
ATOM     18  N   UNL     1      45.645 132.527  21.380  1.00  0.00    -0.243 N 
BRANCH  18  19
ATOM     19  C   UNL     1      45.257 132.952  20.058  1.00  0.00     0.424 C 
ATOM     20  O   UNL     1      45.731 134.018  19.576  1.00  0.00    -0.223 OA
BRANCH  19  21
ATOM     21  O   UNL     1      44.310 132.204  19.342  1.00  0.00    -0.410 OA
BRANCH  21  22
ATOM     22  C   UNL     1      44.424 131.778  18.010  1.00  0.00     0.132 A 
ATOM     23  C   UNL     1      43.319 131.365  17.242  1.00  0.00     0.047 A 
ATOM     24  C   UNL     1      45.690 131.812  17.413  1.00  0.00     0.047 A 
ATOM     25  C   UNL     1      43.493 130.968  15.913  1.00  0.00     0.004 A 
ATOM     26  C   UNL     1      45.860 131.429  16.080  1.00  0.00     0.004 A 
ATOM     27  C   UNL     1      44.763 130.994  15.333  1.00  0.00     0.000 A 
ENDBRANCH  21  22
ENDBRANCH  19  21
ENDBRANCH  18  19
BRANCH  18  28
ATOM     28  C   UNL     1      44.909 131.494  22.059  1.00  0.00     0.055 A 
ATOM     29  C   UNL     1      43.763 131.816  22.834  1.00  0.00     0.027 A 
ATOM     30  C   UNL     1      45.317 130.145  21.943  1.00  0.00     0.053 A 
ATOM     31  C   UNL     1      43.048 130.812  23.512  1.00  0.00     0.012 A 
ATOM     32  C   UNL     1      44.587 129.176  22.626  1.00  0.00     0.047 A 
ATOM     33  C   UNL     1      43.496 129.499  23.386  1.00  0.00    -0.000 A 
ATOM     34  N   UNL     1      44.821 127.853  22.664  1.00  0.00    -0.361 N 
ATOM     35  C   UNL     1      43.011 128.328  23.928  1.00  0.00     0.028 A 
ATOM     36  C   UNL     1      43.860 127.329  23.458  1.00  0.00     0.083 A 
ATOM     37  H   UNL     1      45.580 127.331  22.177  1.00  0.00     0.166 HD
ENDBRANCH  18  28
ENDBRANCH   4  18
TORSDOF 8
ENDMDL
MODEL 4
REMARK VINA RESULT:       1.4      4.872      7.245
REMARK SMILES CC1=CCC=C[C@H]1C(=O)Oc1ccc(N(C(=O)Oc2ccccc2)c2ccc3cc[nH]c3c2)c(F)c1
REMARK SMILES IDX 11 1 12 2 13 3 14 4 34 5 35 6 36 7 10 8 8 9 9 10 7 11 2 12
REMARK SMILES IDX 3 13 4 14 6 15 5 16 1 17 15 18 16 19 17 20 18 21 19 22 20 23
REMARK SMILES IDX 24 24 21 25 23 26 22 27 25 28 26 29 33 30 27 31 32 32 28 33
REMARK SMILES IDX 31 34 29 35 30 36
REMARK H PARENT 31 37
ROOT
ATOM      1  C   UNL     1      47.709 134.427  21.724  1.00  0.00     0.133 A 
ATOM      2  C   UNL     1      46.308 134.313  21.647  1.00  0.00     0.049 A 
ATOM      3  C   UNL     1      45.722 133.148  21.145  1.00  0.00     0.034 A 
ATOM      4  C   UNL     1      46.522 132.072  20.736  1.00  0.00     0.088 A 
ATOM      5  C   UNL     1      47.919 132.181  20.821  1.00  0.00     0.151 A 
ATOM      6  F   UNL     1      48.713 131.163  20.405  1.00  0.00    -0.205 F 
ATOM      7  C   UNL     1      48.504 133.350  21.316  1.00  0.00     0.088 A 
ENDROOT
BRANCH   1   8
ATOM      8  O   UNL     1      48.342 135.567  22.238  1.00  0.00    -0.426 OA
BRANCH   8   9
ATOM      9  C   UNL     1      49.585 136.062  21.819  1.00  0.00     0.322 C 
ATOM     10  O   UNL     1      49.881 136.117  20.594  1.00  0.00    -0.251 OA
BRANCH   9  11
ATOM     11  C   UNL     1      50.575 136.519  22.851  1.00  0.00     0.147 C 
ATOM     12  C   UNL     1      51.387 135.347  23.390  1.00  0.00    -0.059 C 
ATOM     13  C   UNL     1      52.729 135.409  23.494  1.00  0.00    -0.023 C 
ATOM     14  C   UNL     1      53.519 136.649  23.172  1.00  0.00     0.054 C 
ATOM     15  C   UNL     1      51.419 137.613  22.239  1.00  0.00    -0.012 C 
ATOM     16  C   UNL     1      52.750 137.659  22.368  1.00  0.00    -0.026 C 
ATOM     17  C   UNL     1      50.684 134.106  23.881  1.00  0.00     0.040 C 
ENDBRANCH   9  11
ENDBRANCH   8   9
ENDBRANCH   1   8
BRANCH   4  18
ATOM     18  N   UNL     1      45.907 130.879  20.219  1.00  0.00    -0.243 N 
BRANCH  18  19
ATOM     19  C   UNL     1      45.549 129.801  21.105  1.00  0.00     0.424 C 
ATOM     20  O   UNL     1      45.650 128.605  20.713  1.00  0.00    -0.223 OA
BRANCH  19  21
ATOM     21  O   UNL     1      45.033 130.093  22.377  1.00  0.00    -0.410 OA
BRANCH  21  22
ATOM     22  C   UNL     1      43.937 130.923  22.656  1.00  0.00     0.132 A 
ATOM     23  C   UNL     1      43.056 131.386  21.660  1.00  0.00     0.047 A 
ATOM     24  C   UNL     1      43.690 131.263  23.992  1.00  0.00     0.047 A 
ATOM     25  C   UNL     1      41.970 132.197  22.002  1.00  0.00     0.004 A 
ATOM     26  C   UNL     1      42.595 132.061  24.334  1.00  0.00     0.004 A 
ATOM     27  C   UNL     1      41.742 132.539  23.337  1.00  0.00     0.000 A 
ENDBRANCH  21  22
ENDBRANCH  19  21
ENDBRANCH  18  19
BRANCH  18  28
ATOM     28  C   UNL     1      45.647 130.779  18.806  1.00  0.00     0.055 A 
ATOM     29  C   UNL     1      46.363 129.849  18.006  1.00  0.00     0.027 A 
ATOM     30  C   UNL     1      44.662 131.600  18.211  1.00  0.00     0.053 A 
ATOM     31  C   UNL     1      46.123 129.757  16.623  1.00  0.00     0.012 A 
ATOM     32  C   UNL     1      44.450 131.483  16.839  1.00  0.00     0.047 A 
ATOM     33  C   UNL     1      45.158 130.598  16.074  1.00  0.00    -0.000 A 
ATOM     34  N   UNL     1      43.583 132.182  16.085  1.00  0.00    -0.361 N 
ATOM     35  C   UNL     1      44.719 130.735  14.774  1.00  0.00     0.028 A 
ATOM     36  C   UNL     1      43.743 131.727  14.822  1.00  0.00     0.083 A 
ATOM     37  H   UNL     1      42.917 132.916  16.404  1.00  0.00     0.166 HD
ENDBRANCH  18  28
ENDBRANCH   4  18
TORSDOF 8
ENDMDL
MODEL 5
REMARK VINA RESULT:       1.6      2.762      4.107
REMARK SMILES CC1=CCC=C[C@H]1C(=O)Oc1ccc(N(C(=O)Oc2ccccc2)c2ccc3cc[nH]c3c2)c(F)c1
REMARK SMILES IDX 11 1 12 2 13 3 14 4 34 5 35 6 36 7 10 8 8 9 9 10 7 11 2 12
REMARK SMILES IDX 3 13 4 14 6 15 5 16 1 17 15 18 16 19 17 20 18 21 19 22 20 23
REMARK SMILES IDX 24 24 21 25 23 26 22 27 25 28 26 29 33 30 27 31 32 32 28 33
REMARK SMILES IDX 31 34 29 35 30 36
REMARK H PARENT 31 37
ROOT
ATOM      1  C   UNL     1      45.273 130.841  17.299  1.00  0.00     0.133 A 
ATOM      2  C   UNL     1      46.241 130.192  18.087  1.00  0.00     0.049 A 
ATOM      3  C   UNL     1      46.242 130.354  19.476  1.00  0.00     0.034 A 
ATOM      4  C   UNL     1      45.265 131.143  20.099  1.00  0.00     0.088 A 
ATOM      5  C   UNL     1      44.294 131.784  19.313  1.00  0.00     0.151 A 
ATOM      6  F   UNL     1      43.356 132.574  19.892  1.00  0.00    -0.205 F 
ATOM      7  C   UNL     1      44.298 131.627  17.924  1.00  0.00     0.088 A 
ENDROOT
BRANCH   1   8
ATOM      8  O   UNL     1      45.218 130.694  15.905  1.00  0.00    -0.426 OA
BRANCH   8   9
ATOM      9  C   UNL     1      45.390 129.489  15.211  1.00  0.00     0.322 C 
ATOM     10  O   UNL     1      44.802 128.437  15.582  1.00  0.00    -0.251 OA
BRANCH   9  11
ATOM     11  C   UNL     1      46.300 129.458  14.017  1.00  0.00     0.147 C 
ATOM     12  C   UNL     1      46.445 130.844  13.401  1.00  0.00    -0.059 C 
ATOM     13  C   UNL     1      47.652 131.351  13.081  1.00  0.00    -0.023 C 
ATOM     14  C   UNL     1      48.931 130.571  13.225  1.00  0.00     0.054 C 
ATOM     15  C   UNL     1      47.614 128.844  14.444  1.00  0.00    -0.012 C 
ATOM     16  C   UNL     1      48.800 129.358  14.102  1.00  0.00    -0.026 C 
ATOM     17  C   UNL     1      45.215 131.656  13.076  1.00  0.00     0.040 C 
ENDBRANCH   9  11
ENDBRANCH   8   9
ENDBRANCH   1   8
BRANCH   4  18
ATOM     18  N   UNL     1      45.279 131.303  21.528  1.00  0.00    -0.243 N 
BRANCH  18  19
ATOM     19  C   UNL     1      45.631 132.571  22.116  1.00  0.00     0.424 C 
ATOM     20  O   UNL     1      44.845 133.123  22.935  1.00  0.00    -0.223 OA
BRANCH  19  21
ATOM     21  O   UNL     1      46.819 133.208  21.727  1.00  0.00    -0.410 OA
BRANCH  21  22
ATOM     22  C   UNL     1      47.889 133.551  22.568  1.00  0.00     0.132 A 
ATOM     23  C   UNL     1      47.928 134.751  23.303  1.00  0.00     0.047 A 
ATOM     24  C   UNL     1      48.938 132.635  22.708  1.00  0.00     0.047 A 
ATOM     25  C   UNL     1      49.013 135.030  24.138  1.00  0.00     0.004 A 
ATOM     26  C   UNL     1      50.016 132.909  23.555  1.00  0.00     0.004 A 
ATOM     27  C   UNL     1      50.060 134.113  24.260  1.00  0.00     0.000 A 
ENDBRANCH  21  22
ENDBRANCH  19  21
ENDBRANCH  18  19
BRANCH  18  28
ATOM     28  C   UNL     1      44.930 130.184  22.363  1.00  0.00     0.055 A 
ATOM     29  C   UNL     1      44.475 130.390  23.692  1.00  0.00     0.027 A 
ATOM     30  C   UNL     1      45.025 128.868  21.853  1.00  0.00     0.053 A 
ATOM     31  C   UNL     1      44.147 129.300  24.518  1.00  0.00     0.012 A 
ATOM     32  C   UNL     1      44.691 127.811  22.697  1.00  0.00     0.047 A 
ATOM     33  C   UNL     1      44.273 128.020  23.982  1.00  0.00    -0.000 A 
ATOM     34  N   UNL     1      44.734 126.497  22.415  1.00  0.00    -0.361 N 
ATOM     35  C   UNL     1      44.034 126.783  24.543  1.00  0.00     0.028 A 
ATOM     36  C   UNL     1      44.332 125.864  23.540  1.00  0.00     0.083 A 
ATOM     37  H   UNL     1      45.011 126.052  21.515  1.00  0.00     0.166 HD
ENDBRANCH  18  28
ENDBRANCH   4  18
TORSDOF 8
ENDMDL
MODEL 6
REMARK VINA RESULT:       1.6      5.066      8.340
REMARK SMILES CC1=CCC=C[C@H]1C(=O)Oc1ccc(N(C(=O)Oc2ccccc2)c2ccc3cc[nH]c3c2)c(F)c1
REMARK SMILES IDX 11 1 12 2 13 3 14 4 34 5 35 6 36 7 10 8 8 9 9 10 7 11 2 12
REMARK SMILES IDX 3 13 4 14 6 15 5 16 1 17 15 18 16 19 17 20 18 21 19 22 20 23
REMARK SMILES IDX 24 24 21 25 23 26 22 27 25 28 26 29 33 30 27 31 32 32 28 33
REMARK SMILES IDX 31 34 29 35 30 36
REMARK H PARENT 31 37
ROOT
ATOM      1  C   UNL     1      48.903 123.106  22.763  1.00  0.00     0.133 A 
ATOM      2  C   UNL     1      48.409 123.986  23.745  1.00  0.00     0.049 A 
ATOM      3  C   UNL     1      47.162 124.595  23.581  1.00  0.00     0.034 A 
ATOM      4  C   UNL     1      46.380 124.318  22.451  1.00  0.00     0.088 A 
ATOM      5  C   UNL     1      46.867 123.434  21.476  1.00  0.00     0.151 A 
ATOM      6  F   UNL     1      46.140 123.173  20.362  1.00  0.00    -0.205 F 
ATOM      7  C   UNL     1      48.118 122.831  21.637  1.00  0.00     0.088 A 
ENDROOT
BRANCH   1   8
ATOM      8  O   UNL     1      50.138 122.456  22.891  1.00  0.00    -0.426 OA
BRANCH   8   9
ATOM      9  C   UNL     1      51.383 123.093  22.982  1.00  0.00     0.322 C 
ATOM     10  O   UNL     1      51.763 123.624  24.061  1.00  0.00    -0.251 OA
BRANCH   9  11
ATOM     11  C   UNL     1      52.265 123.149  21.767  1.00  0.00     0.147 C 
ATOM     12  C   UNL     1      51.439 123.305  20.496  1.00  0.00    -0.059 C 
ATOM     13  C   UNL     1      51.753 124.221  19.560  1.00  0.00    -0.023 C 
ATOM     14  C   UNL     1      52.973 125.098  19.650  1.00  0.00     0.054 C 
ATOM     15  C   UNL     1      53.277 124.253  21.973  1.00  0.00    -0.012 C 
ATOM     16  C   UNL     1      53.581 125.143  21.023  1.00  0.00    -0.026 C 
ATOM     17  C   UNL     1      50.279 122.377  20.233  1.00  0.00     0.040 C 
ENDBRANCH   9  11
ENDBRANCH   8   9
ENDBRANCH   1   8
BRANCH   4  18
ATOM     18  N   UNL     1      45.099 124.954  22.294  1.00  0.00    -0.243 N 
BRANCH  18  19
ATOM     19  C   UNL     1      43.909 124.162  22.119  1.00  0.00     0.424 C 
ATOM     20  O   UNL     1      43.651 123.655  20.991  1.00  0.00    -0.223 OA
BRANCH  19  21
ATOM     21  O   UNL     1      43.015 124.009  23.191  1.00  0.00    -0.410 OA
BRANCH  21  22
ATOM     22  C   UNL     1      42.002 124.907  23.560  1.00  0.00     0.132 A 
ATOM     23  C   UNL     1      42.208 126.297  23.647  1.00  0.00     0.047 A 
ATOM     24  C   UNL     1      40.724 124.393  23.807  1.00  0.00     0.047 A 
ATOM     25  C   UNL     1      41.154 127.144  24.003  1.00  0.00     0.004 A 
ATOM     26  C   UNL     1      39.667 125.243  24.149  1.00  0.00     0.004 A 
ATOM     27  C   UNL     1      39.886 126.617  24.260  1.00  0.00     0.000 A 
ENDBRANCH  21  22
ENDBRANCH  19  21
ENDBRANCH  18  19
BRANCH  18  28
ATOM     28  C   UNL     1      45.021 126.391  22.322  1.00  0.00     0.055 A 
ATOM     29  C   UNL     1      44.899 127.129  21.114  1.00  0.00     0.027 A 
ATOM     30  C   UNL     1      45.049 127.075  23.559  1.00  0.00     0.053 A 
ATOM     31  C   UNL     1      44.837 128.535  21.134  1.00  0.00     0.012 A 
ATOM     32  C   UNL     1      44.985 128.466  23.543  1.00  0.00     0.047 A 
ATOM     33  C   UNL     1      44.887 129.169  22.373  1.00  0.00    -0.000 A 
ATOM     34  N   UNL     1      45.019 129.297  24.599  1.00  0.00    -0.361 N 
ATOM     35  C   UNL     1      44.853 130.508  22.700  1.00  0.00     0.028 A 
ATOM     36  C   UNL     1      44.938 130.547  24.090  1.00  0.00     0.083 A 
ATOM     37  H   UNL     1      45.086 129.038  25.606  1.00  0.00     0.166 HD
ENDBRANCH  18  28
ENDBRANCH   4  18
TORSDOF 8
ENDMDL
MODEL 7
REMARK VINA RESULT:       1.6      3.075      5.134
REMARK SMILES CC1=CCC=C[C@H]1C(=O)Oc1ccc(N(C(=O)Oc2ccccc2)c2ccc3cc[nH]c3c2)c(F)c1
REMARK SMILES IDX 11 1 12 2 13 3 14 4 34 5 35 6 36 7 10 8 8 9 9 10 7 11 2 12
REMARK SMILES IDX 3 13 4 14 6 15 5 16 1 17 15 18 16 19 17 20 18 21 19 22 20 23
REMARK SMILES IDX 24 24 21 25 23 26 22 27 25 28 26 29 33 30 27 31 32 32 28 33
REMARK SMILES IDX 31 34 29 35 30 36
REMARK H PARENT 31 37
ROOT
ATOM      1  C   UNL     1      45.800 130.137  18.689  1.00  0.00     0.133 A 
ATOM      2  C   UNL     1      45.801 131.543  18.733  1.00  0.00     0.049 A 
ATOM      3  C   UNL     1      45.643 132.210  19.952  1.00  0.00     0.034 A 
ATOM      4  C   UNL     1      45.509 131.485  21.144  1.00  0.00     0.088 A 
ATOM      5  C   UNL     1      45.518 130.082  21.102  1.00  0.00     0.151 A 
ATOM      6  F   UNL     1      45.361 129.360  22.239  1.00  0.00    -0.205 F 
ATOM      7  C   UNL     1      45.668 129.416  19.881  1.00  0.00     0.088 A 
ENDROOT
BRANCH   1   8
ATOM      8  O   UNL     1      45.975 129.423  17.494  1.00  0.00    -0.426 OA
BRANCH   8   9
ATOM      9  C   UNL     1      46.476 129.957  16.299  1.00  0.00     0.322 C 
ATOM     10  O   UNL     1      47.483 129.450  15.734  1.00  0.00    -0.251 OA
BRANCH   9  11
ATOM     11  C   UNL     1      45.802 131.157  15.697  1.00  0.00     0.147 C 
ATOM     12  C   UNL     1      45.898 131.134  14.176  1.00  0.00    -0.059 C 
ATOM     13  C   UNL     1      44.821 131.361  13.399  1.00  0.00    -0.023 C 
ATOM     14  C   UNL     1      43.473 131.730  13.956  1.00  0.00     0.054 C 
ATOM     15  C   UNL     1      44.383 131.207  16.215  1.00  0.00    -0.012 C 
ATOM     16  C   UNL     1      43.331 131.447  15.425  1.00  0.00    -0.026 C 
ATOM     17  C   UNL     1      47.234 130.919  13.509  1.00  0.00     0.040 C 
ENDBRANCH   9  11
ENDBRANCH   8   9
ENDBRANCH   1   8
BRANCH   4  18
ATOM     18  N   UNL     1      45.345 132.182  22.391  1.00  0.00    -0.243 N 
BRANCH  18  19
ATOM     19  C   UNL     1      44.151 132.001  23.176  1.00  0.00     0.424 C 
ATOM     20  O   UNL     1      44.227 131.486  24.326  1.00  0.00    -0.223 OA
BRANCH  19  21
ATOM     21  O   UNL     1      42.905 132.347  22.630  1.00  0.00    -0.410 OA
BRANCH  21  22
ATOM     22  C   UNL     1      42.521 132.209  21.287  1.00  0.00     0.132 A 
ATOM     23  C   UNL     1      42.608 130.989  20.590  1.00  0.00     0.047 A 
ATOM     24  C   UNL     1      41.990 133.328  20.635  1.00  0.00     0.047 A 
ATOM     25  C   UNL     1      42.194 130.909  19.257  1.00  0.00     0.004 A 
ATOM     26  C   UNL     1      41.563 133.242  19.307  1.00  0.00     0.004 A 
ATOM     27  C   UNL     1      41.677 132.035  18.613  1.00  0.00     0.000 A 
ENDBRANCH  21  22
ENDBRANCH  19  21
ENDBRANCH  18  19
BRANCH  18  28
ATOM     28  C   UNL     1      46.392 133.058  22.848  1.00  0.00     0.055 A 
ATOM     29  C   UNL     1      46.373 133.576  24.170  1.00  0.00     0.027 A 
ATOM     30  C   UNL     1      47.458 133.393  21.982  1.00  0.00     0.053 A 
ATOM     31  C   UNL     1      47.386 134.444  24.618  1.00  0.00     0.012 A 
ATOM     32  C   UNL     1      48.445 134.254  22.457  1.00  0.00     0.047 A 
ATOM     33  C   UNL     1      48.407 134.764  23.726  1.00  0.00    -0.000 A 
ATOM     34  N   UNL     1      49.521 134.710  21.791  1.00  0.00    -0.361 N 
ATOM     35  C   UNL     1      49.510 135.576  23.877  1.00  0.00     0.028 A 
ATOM     36  C   UNL     1      50.176 135.518  22.654  1.00  0.00     0.083 A 
ATOM     37  H   UNL     1      49.802 134.483  20.814  1.00  0.00     0.166 HD
ENDBRANCH  18  28
ENDBRANCH   4  18
TORSDOF 8
ENDMDL
MODEL 8
REMARK VINA RESULT:       1.9      2.869      4.370
REMARK SMILES CC1=CCC=C[C@H]1C(=O)Oc1ccc(N(C(=O)Oc2ccccc2)c2ccc3cc[nH]c3c2)c(F)c1
REMARK SMILES IDX 11 1 12 2 13 3 14 4 34 5 35 6 36 7 10 8 8 9 9 10 7 11 2 12
REMARK SMILES IDX 3 13 4 14 6 15 5 16 1 17 15 18 16 19 17 20 18 21 19 22 20 23
REMARK SMILES IDX 24 24 21 25 23 26 22 27 25 28 26 29 33 30 27 31 32 32 28 33
REMARK SMILES IDX 31 34 29 35 30 36
REMARK H PARENT 31 37
ROOT
ATOM      1  C   UNL     1      44.829 130.601  16.690  1.00  0.00     0.133 A 
ATOM      2  C   UNL     1      45.888 130.067  17.448  1.00  0.00     0.049 A 
ATOM      3  C   UNL     1      46.022 130.394  18.800  1.00  0.00     0.034 A 
ATOM      4  C   UNL     1      45.089 131.236  19.422  1.00  0.00     0.088 A 
ATOM      5  C   UNL     1      44.027 131.762  18.669  1.00  0.00     0.151 A 
ATOM      6  F   UNL     1      43.129 132.601  19.243  1.00  0.00    -0.205 F 
ATOM      7  C   UNL     1      43.899 131.440  17.315  1.00  0.00     0.088 A 
ENDROOT
BRANCH   1   8
ATOM      8  O   UNL     1      44.642 130.287  15.337  1.00  0.00    -0.426 OA
BRANCH   8   9
ATOM      9  C   UNL     1      45.458 130.723  14.284  1.00  0.00     0.322 C 
ATOM     10  O   UNL     1      45.353 131.892  13.823  1.00  0.00    -0.251 OA
BRANCH   9  11
ATOM     11  C   UNL     1      46.462 129.773  13.697  1.00  0.00     0.147 C 
ATOM     12  C   UNL     1      47.536 130.520  12.918  1.00  0.00    -0.059 C 
ATOM     13  C   UNL     1      48.846 130.255  13.090  1.00  0.00    -0.023 C 
ATOM     14  C   UNL     1      49.347 129.159  13.992  1.00  0.00     0.054 C 
ATOM     15  C   UNL     1      47.009 128.918  14.818  1.00  0.00    -0.012 C 
ATOM     16  C   UNL     1      48.313 128.658  14.960  1.00  0.00    -0.026 C 
ATOM     17  C   UNL     1      47.140 131.540  11.878  1.00  0.00     0.040 C 
ENDBRANCH   9  11
ENDBRANCH   8   9
ENDBRANCH   1   8
BRANCH   4  18
ATOM     18  N   UNL     1      45.239 131.566  20.813  1.00  0.00    -0.243 N 
BRANCH  18  19
ATOM     19  C   UNL     1      45.892 132.789  21.206  1.00  0.00     0.424 C 
ATOM     20  O   UNL     1      45.636 133.863  20.593  1.00  0.00    -0.223 OA
BRANCH  19  21
ATOM     21  O   UNL     1      46.853 132.763  22.230  1.00  0.00    -0.410 OA
BRANCH  21  22
ATOM     22  C   UNL     1      47.924 133.655  22.384  1.00  0.00     0.132 A 
ATOM     23  C   UNL     1      48.022 134.863  21.667  1.00  0.00     0.047 A 
ATOM     24  C   UNL     1      48.911 133.344  23.327  1.00  0.00     0.047 A 
ATOM     25  C   UNL     1      49.106 135.720  21.876  1.00  0.00     0.004 A 
ATOM     26  C   UNL     1      49.986 134.210  23.546  1.00  0.00     0.004 A 
ATOM     27  C   UNL     1      50.091 135.392  22.810  1.00  0.00     0.000 A 
ENDBRANCH  21  22
ENDBRANCH  19  21
ENDBRANCH  18  19
BRANCH  18  28
ATOM     28  C   UNL     1      44.723 130.663  21.809  1.00  0.00     0.055 A 
ATOM     29  C   UNL     1      43.659 131.062  22.661  1.00  0.00     0.027 A 
ATOM     30  C   UNL     1      45.266 129.364  21.931  1.00  0.00     0.053 A 
ATOM     31  C   UNL     1      43.159 130.190  23.644  1.00  0.00     0.012 A 
ATOM     32  C   UNL     1      44.749 128.525  22.915  1.00  0.00     0.047 A 
ATOM     33  C   UNL     1      43.736 128.925  23.744  1.00  0.00    -0.000 A 
ATOM     34  N   UNL     1      45.138 127.272  23.207  1.00  0.00    -0.361 N 
ATOM     35  C   UNL     1      43.465 127.878  24.598  1.00  0.00     0.028 A 
ATOM     36  C   UNL     1      44.356 126.871  24.234  1.00  0.00     0.083 A 
ATOM     37  H   UNL     1      45.882 126.715  22.736  1.00  0.00     0.166 HD
ENDBRANCH  18  28
ENDBRANCH   4  18
TORSDOF 8
ENDMDL
MODEL 9
REMARK VINA RESULT:       2.0      2.723      4.650
REMARK SMILES CC1=CCC=C[C@H]1C(=O)Oc1ccc(N(C(=O)Oc2ccccc2)c2ccc3cc[nH]c3c2)c(F)c1
REMARK SMILES IDX 11 1 12 2 13 3 14 4 34 5 35 6 36 7 10 8 8 9 9 10 7 11 2 12
REMARK SMILES IDX 3 13 4 14 6 15 5 16 1 17 15 18 16 19 17 20 18 21 19 22 20 23
REMARK SMILES IDX 24 24 21 25 23 26 22 27 25 28 26 29 33 30 27 31 32 32 28 33
REMARK SMILES IDX 31 34 29 35 30 36
REMARK H PARENT 31 37
ROOT
ATOM      1  C   UNL     1      44.436 131.005  16.834  1.00  0.00     0.133 A 
ATOM      2  C   UNL     1      45.597 130.315  17.231  1.00  0.00     0.049 A 
ATOM      3  C   UNL     1      46.034 130.376  18.557  1.00  0.00     0.034 A 
ATOM      4  C   UNL     1      45.308 131.103  19.511  1.00  0.00     0.088 A 
ATOM      5  C   UNL     1      44.144 131.783  19.118  1.00  0.00     0.151 A 
ATOM      6  F   UNL     1      43.441 132.516  20.017  1.00  0.00    -0.205 F 
ATOM      7  C   UNL     1      43.713 131.728  17.789  1.00  0.00     0.088 A 
ENDROOT
BRANCH   1   8
ATOM      8  O   UNL     1      43.947 130.958  15.521  1.00  0.00    -0.426 OA
BRANCH   8   9
ATOM      9  C   UNL     1      44.734 131.006  14.362  1.00  0.00     0.322 C 
ATOM     10  O   UNL     1      44.207 131.144  13.225  1.00  0.00    -0.251 OA
BRANCH   9  11
ATOM     11  C   UNL     1      46.225 130.879  14.487  1.00  0.00     0.147 C 
ATOM     12  C   UNL     1      46.658 129.419  14.446  1.00  0.00    -0.059 C 
ATOM     13  C   UNL     1      47.670 129.006  13.660  1.00  0.00    -0.023 C 
ATOM     14  C   UNL     1      48.501 129.948  12.831  1.00  0.00     0.054 C 
ATOM     15  C   UNL     1      46.860 131.731  13.411  1.00  0.00    -0.012 C 
ATOM     16  C   UNL     1      47.874 131.302  12.652  1.00  0.00    -0.026 C 
ATOM     17  C   UNL     1      45.989 128.410  15.348  1.00  0.00     0.040 C 
ENDBRANCH   9  11
ENDBRANCH   8   9
ENDBRANCH   1   8
BRANCH   4  18
ATOM     18  N   UNL     1      45.769 131.159  20.871  1.00  0.00    -0.243 N 
BRANCH  18  19
ATOM     19  C   UNL     1      45.495 130.074  21.780  1.00  0.00     0.424 C 
ATOM     20  O   UNL     1      45.683 128.882  21.410  1.00  0.00    -0.223 OA
BRANCH  19  21
ATOM     21  O   UNL     1      44.965 130.353  23.049  1.00  0.00    -0.410 OA
BRANCH  21  22
ATOM     22  C   UNL     1      43.866 131.180  23.326  1.00  0.00     0.132 A 
ATOM     23  C   UNL     1      43.838 132.077  24.410  1.00  0.00     0.047 A 
ATOM     24  C   UNL     1      42.771 131.135  22.454  1.00  0.00     0.047 A 
ATOM     25  C   UNL     1      42.720 132.888  24.625  1.00  0.00     0.004 A 
ATOM     26  C   UNL     1      41.660 131.957  22.661  1.00  0.00     0.004 A 
ATOM     27  C   UNL     1      41.629 132.825  23.755  1.00  0.00     0.000 A 
ENDBRANCH  21  22
ENDBRANCH  19  21
ENDBRANCH  18  19
BRANCH  18  28
ATOM     28  C   UNL     1      46.515 132.309  21.313  1.00  0.00     0.055 A 
ATOM     29  C   UNL     1      46.016 133.620  21.090  1.00  0.00     0.027 A 
ATOM     30  C   UNL     1      47.745 132.134  21.987  1.00  0.00     0.053 A 
ATOM     31  C   UNL     1      46.747 134.747  21.506  1.00  0.00     0.012 A 
ATOM     32  C   UNL     1      48.444 133.272  22.386  1.00  0.00     0.047 A 
ATOM     33  C   UNL     1      47.964 134.531  22.150  1.00  0.00    -0.000 A 
ATOM     34  N   UNL     1      49.631 133.322  23.014  1.00  0.00    -0.361 N 
ATOM     35  C   UNL     1      48.885 135.424  22.655  1.00  0.00     0.028 A 
ATOM     36  C   UNL     1      49.905 134.635  23.182  1.00  0.00     0.083 A 
ATOM     37  H   UNL     1      50.219 132.519  23.320  1.00  0.00     0.166 HD
ENDBRANCH  18  28
ENDBRANCH   4  18
TORSDOF 8
ENDMDL


