REMARK SMILES c1cc([NH2+]c2ccc3cc[nH]c3c2)c2oncc2c1
REMARK SMILES IDX 5 1 6 2 7 3 8 4 9 5 10 6 11 7 12 8 13 9 4 11 3 14 1 15 2 16
REMARK SMILES IDX 19 17 18 18 14 19 17 20 15 21 16 22
REMARK H PARENT 11 10 4 12 4 13
ROOT
ATOM      1  C   UNL     1       0.596  -0.279   0.636  1.00  0.00     0.136 A 
ATOM      2  C   UNL     1       1.474  -1.017   1.476  1.00  0.00     0.069 A 
ATOM      3  C   UNL     1       0.977  -2.006   2.344  1.00  0.00     0.016 A 
ATOM      4  C   UNL     1      -0.395  -2.239   2.346  1.00  0.00    -0.000 A 
ATOM      5  C   UNL     1      -1.152  -3.132   3.073  1.00  0.00     0.028 A 
ATOM      6  C   UNL     1      -2.462  -2.920   2.655  1.00  0.00     0.083 A 
ATOM      7  N   UNL     1      -2.516  -1.947   1.718  1.00  0.00    -0.361 N 
ATOM      8  C   UNL     1      -1.249  -1.540   1.538  1.00  0.00     0.051 A 
ATOM      9  C   UNL     1      -0.792  -0.553   0.667  1.00  0.00     0.094 A 
ATOM     10  H   UNL     1      -3.370  -1.589   1.234  1.00  0.00     0.166 HD
ENDROOT
BRANCH   1  11
ATOM     11  N   UNL     1       1.121   0.707  -0.273  1.00  0.00    -0.278 N 
ATOM     12  H   UNL     1       0.413   1.461  -0.438  1.00  0.00     0.358 HD
ATOM     13  H   UNL     1       1.965   1.166   0.143  1.00  0.00     0.358 HD
BRANCH  11  14
ATOM     14  C   UNL     1       1.470   0.075  -1.520  1.00  0.00     0.181 A 
ATOM     15  C   UNL     1       3.065  -1.136  -2.945  1.00  0.00     0.007 A 
ATOM     16  C   UNL     1       2.752  -0.487  -1.728  1.00  0.00     0.072 A 
ATOM     17  C   UNL     1       2.104  -1.241  -3.967  1.00  0.00     0.014 A 
ATOM     18  C   UNL     1       0.852  -0.685  -3.729  1.00  0.00     0.048 A 
ATOM     19  C   UNL     1       0.542  -0.056  -2.560  1.00  0.00     0.227 A 
ATOM     20  C   UNL     1      -0.292  -0.617  -4.488  1.00  0.00     0.167 A 
ATOM     21  O   UNL     1      -0.699   0.359  -2.615  1.00  0.00    -0.350 OA
ATOM     22  N   UNL     1      -1.232   0.037  -3.765  1.00  0.00    -0.087 NA
ENDBRANCH  11  14
ENDBRANCH   1  11
TORSDOF 2


