MODEL 1
REMARK VINA RESULT:      -9.2      0.000      0.000
REMARK SMILES Oc1ccc([NH2+]c2cc3[nH]ccc3cc2F)c(F)c1
REMARK SMILES IDX 2 1 3 2 4 3 5 4 17 5 18 6 19 7 1 8 6 10 7 13 8 14 15 15 9 16
REMARK SMILES IDX 14 17 10 18 13 19 11 20 12 21 16 22
REMARK H PARENT 1 9 6 11 6 12 10 23
ROOT
ATOM      1  C   UNL     1      47.517 129.925  14.029  1.00  0.00     0.118 A 
ATOM      2  C   UNL     1      47.264 131.296  13.960  1.00  0.00     0.052 A 
ATOM      3  C   UNL     1      46.079 131.820  14.483  1.00  0.00     0.075 A 
ATOM      4  C   UNL     1      45.127 130.974  15.085  1.00  0.00     0.171 A 
ATOM      5  C   UNL     1      45.389 129.590  15.150  1.00  0.00     0.187 A 
ATOM      6  F   UNL     1      44.494 128.741  15.710  1.00  0.00    -0.200 F 
ATOM      7  C   UNL     1      46.577 129.073  14.624  1.00  0.00     0.091 A 
ENDROOT
BRANCH   1   8
ATOM      8  O   UNL     1      48.703 129.416  13.503  1.00  0.00    -0.508 OA
ATOM      9  H   UNL     1      48.881 128.419  13.465  1.00  0.00     0.293 HD
ENDBRANCH   1   8
BRANCH   4  10
ATOM     10  N   UNL     1      43.919 131.528  15.649  1.00  0.00    -0.276 N 
ATOM     11  H   UNL     1      43.083 130.983  15.332  1.00  0.00     0.358 HD
ATOM     12  H   UNL     1      43.780 132.506  15.302  1.00  0.00     0.358 HD
BRANCH  10  13
ATOM     13  C   UNL     1      44.007 131.536  17.090  1.00  0.00     0.172 A 
ATOM     14  C   UNL     1      45.192 131.090  17.726  1.00  0.00     0.098 A 
ATOM     15  C   UNL     1      42.907 131.965  17.886  1.00  0.00     0.184 A 
ATOM     16  C   UNL     1      45.234 131.086  19.117  1.00  0.00     0.052 A 
ATOM     17  C   UNL     1      42.988 131.946  19.291  1.00  0.00     0.056 A 
ATOM     18  N   UNL     1      46.254 130.702  19.902  1.00  0.00    -0.361 N 
ATOM     19  C   UNL     1      44.171 131.498  19.871  1.00  0.00     0.003 A 
ATOM     20  C   UNL     1      45.828 130.876  21.174  1.00  0.00     0.083 A 
ATOM     21  C   UNL     1      44.528 131.372  21.196  1.00  0.00     0.028 A 
ATOM     22  F   UNL     1      41.766 132.412  17.306  1.00  0.00    -0.200 F 
ATOM     23  H   UNL     1      47.187 130.344  19.596  1.00  0.00     0.166 HD
ENDBRANCH  10  13
ENDBRANCH   4  10
TORSDOF 3
ENDMDL
MODEL 2
REMARK VINA RESULT:      -9.0      1.399      1.802
REMARK SMILES Oc1ccc([NH2+]c2cc3[nH]ccc3cc2F)c(F)c1
REMARK SMILES IDX 2 1 3 2 4 3 5 4 17 5 18 6 19 7 1 8 6 10 7 13 8 14 15 15 9 16
REMARK SMILES IDX 14 17 10 18 13 19 11 20 12 21 16 22
REMARK H PARENT 1 9 6 11 6 12 10 23
ROOT
ATOM      1  C   UNL     1      46.808 129.586  14.721  1.00  0.00     0.118 A 
ATOM      2  C   UNL     1      45.621 129.018  15.186  1.00  0.00     0.052 A 
ATOM      3  C   UNL     1      44.630 129.823  15.755  1.00  0.00     0.075 A 
ATOM      4  C   UNL     1      44.816 131.214  15.867  1.00  0.00     0.171 A 
ATOM      5  C   UNL     1      46.018 131.781  15.396  1.00  0.00     0.187 A 
ATOM      6  F   UNL     1      46.240 133.115  15.495  1.00  0.00    -0.200 F 
ATOM      7  C   UNL     1      47.004 130.970  14.827  1.00  0.00     0.091 A 
ENDROOT
BRANCH   1   8
ATOM      8  O   UNL     1      47.787 128.772  14.155  1.00  0.00    -0.508 OA
ATOM      9  H   UNL     1      48.411 129.116  13.435  1.00  0.00     0.293 HD
ENDBRANCH   1   8
BRANCH   4  10
ATOM     10  N   UNL     1      43.775 132.041  16.430  1.00  0.00    -0.276 N 
ATOM     11  H   UNL     1      42.853 131.823  15.984  1.00  0.00     0.358 HD
ATOM     12  H   UNL     1      43.970 133.049  16.222  1.00  0.00     0.358 HD
BRANCH  10  13
ATOM     13  C   UNL     1      43.711 131.847  17.859  1.00  0.00     0.172 A 
ATOM     14  C   UNL     1      44.836 131.336  18.552  1.00  0.00     0.098 A 
ATOM     15  C   UNL     1      42.520 132.140  18.583  1.00  0.00     0.184 A 
ATOM     16  C   UNL     1      44.731 131.136  19.926  1.00  0.00     0.052 A 
ATOM     17  C   UNL     1      42.453 131.924  19.972  1.00  0.00     0.056 A 
ATOM     18  N   UNL     1      45.675 130.663  20.756  1.00  0.00    -0.361 N 
ATOM     19  C   UNL     1      43.581 131.419  20.609  1.00  0.00     0.003 A 
ATOM     20  C   UNL     1      45.112 130.647  21.986  1.00  0.00     0.083 A 
ATOM     21  C   UNL     1      43.801 131.113  21.935  1.00  0.00     0.028 A 
ATOM     22  F   UNL     1      41.432 132.646  17.949  1.00  0.00    -0.200 F 
ATOM     23  H   UNL     1      46.645 130.367  20.507  1.00  0.00     0.166 HD
ENDBRANCH  10  13
ENDBRANCH   4  10
TORSDOF 3
ENDMDL
MODEL 3
REMARK VINA RESULT:      -8.7      2.573      5.853
REMARK SMILES Oc1ccc([NH2+]c2cc3[nH]ccc3cc2F)c(F)c1
REMARK SMILES IDX 2 1 3 2 4 3 5 4 17 5 18 6 19 7 1 8 6 10 7 13 8 14 15 15 9 16
REMARK SMILES IDX 14 17 10 18 13 19 11 20 12 21 16 22
REMARK H PARENT 1 9 6 11 6 12 10 23
ROOT
ATOM      1  C   UNL     1      44.607 131.466  20.806  1.00  0.00     0.118 A 
ATOM      2  C   UNL     1      45.641 131.335  19.876  1.00  0.00     0.052 A 
ATOM      3  C   UNL     1      45.371 131.412  18.508  1.00  0.00     0.075 A 
ATOM      4  C   UNL     1      44.057 131.622  18.048  1.00  0.00     0.171 A 
ATOM      5  C   UNL     1      43.018 131.753  18.992  1.00  0.00     0.187 A 
ATOM      6  F   UNL     1      41.737 131.945  18.590  1.00  0.00    -0.200 F 
ATOM      7  C   UNL     1      43.295 131.675  20.360  1.00  0.00     0.091 A 
ENDROOT
BRANCH   1   8
ATOM      8  O   UNL     1      44.890 131.388  22.168  1.00  0.00    -0.508 OA
ATOM      9  H   UNL     1      45.761 131.739  22.549  1.00  0.00     0.293 HD
ENDBRANCH   1   8
BRANCH   4  10
ATOM     10  N   UNL     1      43.792 131.730  16.633  1.00  0.00    -0.276 N 
ATOM     11  H   UNL     1      43.695 132.734  16.354  1.00  0.00     0.358 HD
ATOM     12  H   UNL     1      42.878 131.273  16.406  1.00  0.00     0.358 HD
BRANCH  10  13
ATOM     13  C   UNL     1      44.849 131.090  15.885  1.00  0.00     0.172 A 
ATOM     14  C   UNL     1      45.672 131.861  15.027  1.00  0.00     0.098 A 
ATOM     15  C   UNL     1      45.061 129.685  15.978  1.00  0.00     0.184 A 
ATOM     16  C   UNL     1      46.663 131.209  14.300  1.00  0.00     0.052 A 
ATOM     17  C   UNL     1      46.075 129.061  15.226  1.00  0.00     0.056 A 
ATOM     18  N   UNL     1      47.537 131.755  13.439  1.00  0.00    -0.361 N 
ATOM     19  C   UNL     1      46.856 129.859  14.396  1.00  0.00     0.003 A 
ATOM     20  C   UNL     1      48.297 130.733  12.984  1.00  0.00     0.083 A 
ATOM     21  C   UNL     1      47.900 129.529  13.559  1.00  0.00     0.028 A 
ATOM     22  F   UNL     1      44.300 128.924  16.802  1.00  0.00    -0.200 F 
ATOM     23  H   UNL     1      47.618 132.763  13.174  1.00  0.00     0.166 HD
ENDBRANCH  10  13
ENDBRANCH   4  10
TORSDOF 3
ENDMDL
MODEL 4
REMARK VINA RESULT:      -8.6      1.938      2.711
REMARK SMILES Oc1ccc([NH2+]c2cc3[nH]ccc3cc2F)c(F)c1
REMARK SMILES IDX 2 1 3 2 4 3 5 4 17 5 18 6 19 7 1 8 6 10 7 13 8 14 15 15 9 16
REMARK SMILES IDX 14 17 10 18 13 19 11 20 12 21 16 22
REMARK H PARENT 1 9 6 11 6 12 10 23
ROOT
ATOM      1  C   UNL     1      46.819 129.677  14.615  1.00  0.00     0.118 A 
ATOM      2  C   UNL     1      45.753 128.999  15.210  1.00  0.00     0.052 A 
ATOM      3  C   UNL     1      44.787 129.703  15.933  1.00  0.00     0.075 A 
ATOM      4  C   UNL     1      44.875 131.101  16.073  1.00  0.00     0.171 A 
ATOM      5  C   UNL     1      45.955 131.779  15.470  1.00  0.00     0.187 A 
ATOM      6  F   UNL     1      46.082 133.124  15.591  1.00  0.00    -0.200 F 
ATOM      7  C   UNL     1      46.918 131.069  14.747  1.00  0.00     0.091 A 
ENDROOT
BRANCH   1   8
ATOM      8  O   UNL     1      47.775 128.963  13.895  1.00  0.00    -0.508 OA
ATOM      9  H   UNL     1      48.451 129.431  13.303  1.00  0.00     0.293 HD
ENDBRANCH   1   8
BRANCH   4  10
ATOM     10  N   UNL     1      43.857 131.823  16.798  1.00  0.00    -0.276 N 
ATOM     11  H   UNL     1      42.904 131.518  16.491  1.00  0.00     0.358 HD
ATOM     12  H   UNL     1      43.922 132.845  16.580  1.00  0.00     0.358 HD
BRANCH  10  13
ATOM     13  C   UNL     1      44.026 131.621  18.217  1.00  0.00     0.172 A 
ATOM     14  C   UNL     1      42.962 131.919  19.104  1.00  0.00     0.098 A 
ATOM     15  C   UNL     1      45.262 131.148  18.745  1.00  0.00     0.184 A 
ATOM     16  C   UNL     1      43.168 131.738  20.468  1.00  0.00     0.052 A 
ATOM     17  C   UNL     1      45.432 130.978  20.132  1.00  0.00     0.056 A 
ATOM     18  N   UNL     1      42.294 131.963  21.463  1.00  0.00    -0.361 N 
ATOM     19  C   UNL     1      44.360 131.285  20.963  1.00  0.00     0.003 A 
ATOM     20  C   UNL     1      42.944 131.647  22.606  1.00  0.00     0.083 A 
ATOM     21  C   UNL     1      44.240 131.219  22.334  1.00  0.00     0.028 A 
ATOM     22  F   UNL     1      46.293 130.839  17.919  1.00  0.00    -0.200 F 
ATOM     23  H   UNL     1      41.313 132.311  21.375  1.00  0.00     0.166 HD
ENDBRANCH  10  13
ENDBRANCH   4  10
TORSDOF 3
ENDMDL
MODEL 5
REMARK VINA RESULT:      -8.3      3.432      6.391
REMARK SMILES Oc1ccc([NH2+]c2cc3[nH]ccc3cc2F)c(F)c1
REMARK SMILES IDX 2 1 3 2 4 3 5 4 17 5 18 6 19 7 1 8 6 10 7 13 8 14 15 15 9 16
REMARK SMILES IDX 14 17 10 18 13 19 11 20 12 21 16 22
REMARK H PARENT 1 9 6 11 6 12 10 23
ROOT
ATOM      1  C   UNL     1      43.268 129.214  23.204  1.00  0.00     0.118 A 
ATOM      2  C   UNL     1      44.512 128.981  22.613  1.00  0.00     0.052 A 
ATOM      3  C   UNL     1      45.052 129.912  21.722  1.00  0.00     0.075 A 
ATOM      4  C   UNL     1      44.352 131.092  21.407  1.00  0.00     0.171 A 
ATOM      5  C   UNL     1      43.096 131.319  22.007  1.00  0.00     0.187 A 
ATOM      6  F   UNL     1      42.384 132.438  21.722  1.00  0.00    -0.200 F 
ATOM      7  C   UNL     1      42.561 130.384  22.899  1.00  0.00     0.091 A 
ENDROOT
BRANCH   1   8
ATOM      8  O   UNL     1      42.741 128.278  24.092  1.00  0.00    -0.508 OA
ATOM      9  H   UNL     1      41.985 127.660  23.824  1.00  0.00     0.293 HD
ENDBRANCH   1   8
BRANCH   4  10
ATOM     10  N   UNL     1      44.931 132.061  20.507  1.00  0.00    -0.276 N 
ATOM     11  H   UNL     1      45.927 132.252  20.767  1.00  0.00     0.358 HD
ATOM     12  H   UNL     1      44.426 132.974  20.594  1.00  0.00     0.358 HD
BRANCH  10  13
ATOM     13  C   UNL     1      44.839 131.586  19.147  1.00  0.00     0.172 A 
ATOM     14  C   UNL     1      45.924 130.881  18.571  1.00  0.00     0.098 A 
ATOM     15  C   UNL     1      43.677 131.838  18.363  1.00  0.00     0.184 A 
ATOM     16  C   UNL     1      45.813 130.462  17.249  1.00  0.00     0.052 A 
ATOM     17  C   UNL     1      43.602 131.397  17.029  1.00  0.00     0.056 A 
ATOM     18  N   UNL     1      46.723 129.787  16.527  1.00  0.00    -0.361 N 
ATOM     19  C   UNL     1      44.693 130.711  16.506  1.00  0.00     0.003 A 
ATOM     20  C   UNL     1      46.168 129.608  15.307  1.00  0.00     0.083 A 
ATOM     21  C   UNL     1      44.897 130.173  15.254  1.00  0.00     0.028 A 
ATOM     22  F   UNL     1      42.615 132.496  18.893  1.00  0.00    -0.200 F 
ATOM     23  H   UNL     1      47.666 129.465  16.840  1.00  0.00     0.166 HD
ENDBRANCH  10  13
ENDBRANCH   4  10
TORSDOF 3
ENDMDL
MODEL 6
REMARK VINA RESULT:      -8.3      2.841      5.573
REMARK SMILES Oc1ccc([NH2+]c2cc3[nH]ccc3cc2F)c(F)c1
REMARK SMILES IDX 2 1 3 2 4 3 5 4 17 5 18 6 19 7 1 8 6 10 7 13 8 14 15 15 9 16
REMARK SMILES IDX 14 17 10 18 13 19 11 20 12 21 16 22
REMARK H PARENT 1 9 6 11 6 12 10 23
ROOT
ATOM      1  C   UNL     1      44.532 131.395  21.091  1.00  0.00     0.118 A 
ATOM      2  C   UNL     1      45.422 131.313  20.019  1.00  0.00     0.052 A 
ATOM      3  C   UNL     1      44.964 131.482  18.709  1.00  0.00     0.075 A 
ATOM      4  C   UNL     1      43.603 131.737  18.454  1.00  0.00     0.171 A 
ATOM      5  C   UNL     1      42.710 131.818  19.543  1.00  0.00     0.187 A 
ATOM      6  F   UNL     1      41.390 132.051  19.340  1.00  0.00    -0.200 F 
ATOM      7  C   UNL     1      43.175 131.648  20.850  1.00  0.00     0.091 A 
ENDROOT
BRANCH   1   8
ATOM      8  O   UNL     1      45.003 131.225  22.392  1.00  0.00    -0.508 OA
ATOM      9  H   UNL     1      45.490 130.383  22.673  1.00  0.00     0.293 HD
ENDBRANCH   1   8
BRANCH   4  10
ATOM     10  N   UNL     1      43.144 131.940  17.101  1.00  0.00    -0.276 N 
ATOM     11  H   UNL     1      42.960 132.954  16.925  1.00  0.00     0.358 HD
ATOM     12  H   UNL     1      42.232 131.447  16.957  1.00  0.00     0.358 HD
BRANCH  10  13
ATOM     13  C   UNL     1      44.121 131.427  16.169  1.00  0.00     0.172 A 
ATOM     14  C   UNL     1      45.282 130.775  16.651  1.00  0.00     0.098 A 
ATOM     15  C   UNL     1      43.945 131.590  14.765  1.00  0.00     0.184 A 
ATOM     16  C   UNL     1      46.216 130.318  15.726  1.00  0.00     0.052 A 
ATOM     17  C   UNL     1      44.912 131.113  13.860  1.00  0.00     0.056 A 
ATOM     18  N   UNL     1      47.372 129.683  15.979  1.00  0.00    -0.361 N 
ATOM     19  C   UNL     1      46.037 130.482  14.381  1.00  0.00     0.003 A 
ATOM     20  C   UNL     1      47.933 129.440  14.773  1.00  0.00     0.083 A 
ATOM     21  C   UNL     1      47.128 129.926  13.747  1.00  0.00     0.028 A 
ATOM     22  F   UNL     1      42.835 132.195  14.272  1.00  0.00    -0.200 F 
ATOM     23  H   UNL     1      47.761 129.426  16.914  1.00  0.00     0.166 HD
ENDBRANCH  10  13
ENDBRANCH   4  10
TORSDOF 3
ENDMDL
MODEL 7
REMARK VINA RESULT:      -8.2      1.534      2.008
REMARK SMILES Oc1ccc([NH2+]c2cc3[nH]ccc3cc2F)c(F)c1
REMARK SMILES IDX 2 1 3 2 4 3 5 4 17 5 18 6 19 7 1 8 6 10 7 13 8 14 15 15 9 16
REMARK SMILES IDX 14 17 10 18 13 19 11 20 12 21 16 22
REMARK H PARENT 1 9 6 11 6 12 10 23
ROOT
ATOM      1  C   UNL     1      47.494 129.804  13.958  1.00  0.00     0.118 A 
ATOM      2  C   UNL     1      47.289 131.182  13.867  1.00  0.00     0.052 A 
ATOM      3  C   UNL     1      46.153 131.764  14.435  1.00  0.00     0.075 A 
ATOM      4  C   UNL     1      45.202 130.970  15.105  1.00  0.00     0.171 A 
ATOM      5  C   UNL     1      45.415 129.579  15.193  1.00  0.00     0.187 A 
ATOM      6  F   UNL     1      44.518 128.779  15.820  1.00  0.00    -0.200 F 
ATOM      7  C   UNL     1      46.555 129.004  14.622  1.00  0.00     0.091 A 
ENDROOT
BRANCH   1   8
ATOM      8  O   UNL     1      48.632 129.237  13.388  1.00  0.00    -0.508 OA
ATOM      9  H   UNL     1      48.592 128.357  12.887  1.00  0.00     0.293 HD
ENDBRANCH   1   8
BRANCH   4  10
ATOM     10  N   UNL     1      44.046 131.584  15.714  1.00  0.00    -0.276 N 
ATOM     11  H   UNL     1      43.169 131.118  15.387  1.00  0.00     0.358 HD
ATOM     12  H   UNL     1      43.975 132.585  15.414  1.00  0.00     0.358 HD
BRANCH  10  13
ATOM     13  C   UNL     1      44.155 131.519  17.153  1.00  0.00     0.172 A 
ATOM     14  C   UNL     1      43.019 131.780  17.958  1.00  0.00     0.098 A 
ATOM     15  C   UNL     1      45.399 131.218  17.777  1.00  0.00     0.184 A 
ATOM     16  C   UNL     1      43.165 131.736  19.341  1.00  0.00     0.052 A 
ATOM     17  C   UNL     1      45.507 131.182  19.180  1.00  0.00     0.056 A 
ATOM     18  N   UNL     1      42.220 131.953  20.270  1.00  0.00    -0.361 N 
ATOM     19  C   UNL     1      44.366 131.448  19.930  1.00  0.00     0.003 A 
ATOM     20  C   UNL     1      42.832 131.799  21.466  1.00  0.00     0.083 A 
ATOM     21  C   UNL     1      44.177 131.483  21.295  1.00  0.00     0.028 A 
ATOM     22  F   UNL     1      46.499 130.948  17.032  1.00  0.00    -0.200 F 
ATOM     23  H   UNL     1      41.216 132.191  20.106  1.00  0.00     0.166 HD
ENDBRANCH  10  13
ENDBRANCH   4  10
TORSDOF 3
ENDMDL
MODEL 8
REMARK VINA RESULT:      -8.2      3.976      6.902
REMARK SMILES Oc1ccc([NH2+]c2cc3[nH]ccc3cc2F)c(F)c1
REMARK SMILES IDX 2 1 3 2 4 3 5 4 17 5 18 6 19 7 1 8 6 10 7 13 8 14 15 15 9 16
REMARK SMILES IDX 14 17 10 18 13 19 11 20 12 21 16 22
REMARK H PARENT 1 9 6 11 6 12 10 23
ROOT
ATOM      1  C   UNL     1      42.854 128.286  23.838  1.00  0.00     0.118 A 
ATOM      2  C   UNL     1      44.053 128.049  23.162  1.00  0.00     0.052 A 
ATOM      3  C   UNL     1      44.717 129.097  22.518  1.00  0.00     0.075 A 
ATOM      4  C   UNL     1      44.187 130.401  22.541  1.00  0.00     0.171 A 
ATOM      5  C   UNL     1      42.976 130.633  23.225  1.00  0.00     0.187 A 
ATOM      6  F   UNL     1      42.427 131.872  23.262  1.00  0.00    -0.200 F 
ATOM      7  C   UNL     1      42.317 129.580  23.868  1.00  0.00     0.091 A 
ENDROOT
BRANCH   1   8
ATOM      8  O   UNL     1      42.204 127.232  24.477  1.00  0.00    -0.508 OA
ATOM      9  H   UNL     1      42.508 126.273  24.361  1.00  0.00     0.293 HD
ENDBRANCH   1   8
BRANCH   4  10
ATOM     10  N   UNL     1      44.895 131.483  21.898  1.00  0.00    -0.276 N 
ATOM     11  H   UNL     1      45.909 131.459  22.153  1.00  0.00     0.358 HD
ATOM     12  H   UNL     1      44.528 132.402  22.241  1.00  0.00     0.358 HD
BRANCH  10  13
ATOM     13  C   UNL     1      44.724 131.399  20.467  1.00  0.00     0.172 A 
ATOM     14  C   UNL     1      45.716 130.772  19.674  1.00  0.00     0.098 A 
ATOM     15  C   UNL     1      43.579 131.963  19.834  1.00  0.00     0.184 A 
ATOM     16  C   UNL     1      45.533 130.733  18.294  1.00  0.00     0.052 A 
ATOM     17  C   UNL     1      43.430 131.904  18.436  1.00  0.00     0.056 A 
ATOM     18  N   UNL     1      46.351 130.191  17.377  1.00  0.00    -0.361 N 
ATOM     19  C   UNL     1      44.431 131.280  17.698  1.00  0.00     0.003 A 
ATOM     20  C   UNL     1      45.756 130.399  16.181  1.00  0.00     0.083 A 
ATOM     21  C   UNL     1      44.551 131.078  16.340  1.00  0.00     0.028 A 
ATOM     22  F   UNL     1      42.605 132.556  20.568  1.00  0.00    -0.200 F 
ATOM     23  H   UNL     1      47.261 129.708  17.549  1.00  0.00     0.166 HD
ENDBRANCH  10  13
ENDBRANCH   4  10
TORSDOF 3
ENDMDL
MODEL 9
REMARK VINA RESULT:      -7.7      4.345      7.037
REMARK SMILES Oc1ccc([NH2+]c2cc3[nH]ccc3cc2F)c(F)c1
REMARK SMILES IDX 2 1 3 2 4 3 5 4 17 5 18 6 19 7 1 8 6 10 7 13 8 14 15 15 9 16
REMARK SMILES IDX 14 17 10 18 13 19 11 20 12 21 16 22
REMARK H PARENT 1 9 6 11 6 12 10 23
ROOT
ATOM      1  C   UNL     1      43.143 126.591  23.507  1.00  0.00     0.118 A 
ATOM      2  C   UNL     1      44.385 126.722  22.883  1.00  0.00     0.052 A 
ATOM      3  C   UNL     1      44.907 127.990  22.615  1.00  0.00     0.075 A 
ATOM      4  C   UNL     1      44.189 129.149  22.969  1.00  0.00     0.171 A 
ATOM      5  C   UNL     1      42.935 129.008  23.598  1.00  0.00     0.187 A 
ATOM      6  F   UNL     1      42.208 130.099  23.945  1.00  0.00    -0.200 F 
ATOM      7  C   UNL     1      42.419 127.736  23.863  1.00  0.00     0.091 A 
ENDROOT
BRANCH   1   8
ATOM      8  O   UNL     1      42.634 125.320  23.769  1.00  0.00    -0.508 OA
ATOM      9  H   UNL     1      42.286 124.725  23.027  1.00  0.00     0.293 HD
ENDBRANCH   1   8
BRANCH   4  10
ATOM     10  N   UNL     1      44.750 130.455  22.715  1.00  0.00    -0.276 N 
ATOM     11  H   UNL     1      45.756 130.483  23.000  1.00  0.00     0.358 HD
ATOM     12  H   UNL     1      44.260 131.173  23.299  1.00  0.00     0.358 HD
BRANCH  10  13
ATOM     13  C   UNL     1      44.604 130.790  21.318  1.00  0.00     0.172 A 
ATOM     14  C   UNL     1      45.568 130.341  20.381  1.00  0.00     0.098 A 
ATOM     15  C   UNL     1      43.514 131.589  20.869  1.00  0.00     0.184 A 
ATOM     16  C   UNL     1      45.411 130.705  19.047  1.00  0.00     0.052 A 
ATOM     17  C   UNL     1      43.390 131.935  19.510  1.00  0.00     0.056 A 
ATOM     18  N   UNL     1      46.209 130.386  18.015  1.00  0.00    -0.361 N 
ATOM     19  C   UNL     1      44.361 131.474  18.628  1.00  0.00     0.003 A 
ATOM     20  C   UNL     1      45.654 130.962  16.925  1.00  0.00     0.083 A 
ATOM     21  C   UNL     1      44.496 131.654  17.268  1.00  0.00     0.028 A 
ATOM     22  F   UNL     1      42.567 132.019  21.740  1.00  0.00    -0.200 F 
ATOM     23  H   UNL     1      47.080 129.809  18.044  1.00  0.00     0.166 HD
ENDBRANCH  10  13
ENDBRANCH   4  10
TORSDOF 3
ENDMDL


