REMARK SMILES O=C1NC[C@H](/C(O)=[N+]2/CCC[C@H](c3ccc4cc(F)ccc4n3)[C@@H]2F)N1
REMARK SMILES IDX 8 1 9 2 10 3 11 4 12 5 24 6 25 7 6 8 7 9 5 11 26 12 4 13
REMARK SMILES IDX 2 14 3 15 1 17 13 19 23 20 14 21 22 22 15 23 21 24 16 25
REMARK SMILES IDX 20 26 17 27 18 28 19 29
REMARK H PARENT 7 10 26 16 3 18
ROOT
ATOM      1  N   UNL     1       2.681  -0.972   0.161  1.00  0.00    -0.168 N 
ATOM      2  C   UNL     1       3.575  -1.483   1.223  1.00  0.00     0.357 C 
ATOM      3  C   UNL     1       2.773  -2.204   2.313  1.00  0.00     0.074 C 
ATOM      4  C   UNL     1       1.683  -1.314   2.940  1.00  0.00     0.026 C 
ATOM      5  C   UNL     1       1.280  -0.126   2.042  1.00  0.00     0.142 C 
ATOM      6  C   UNL     1       1.331  -0.499   0.546  1.00  0.00     0.454 C 
ATOM      7  F   UNL     1       0.403  -1.487   0.259  1.00  0.00    -0.174 F 
ENDROOT
BRANCH   1   8
ATOM      8  C   UNL     1       3.117  -0.902  -1.081  1.00  0.00     0.361 C 
BRANCH   8   9
ATOM      9  O   UNL     1       4.455  -1.203  -1.357  1.00  0.00    -0.462 OA
ATOM     10  H   UNL     1       4.857  -1.098  -2.281  1.00  0.00     0.299 HD
ENDBRANCH   8   9
BRANCH   8  11
ATOM     11  C   UNL     1       2.230  -0.450  -2.234  1.00  0.00     0.240 C 
ATOM     12  N   UNL     1       2.617  -1.113  -3.475  1.00  0.00    -0.321 N 
ATOM     13  C   UNL     1       2.386   1.075  -2.510  1.00  0.00     0.158 C 
ATOM     14  C   UNL     1       2.937  -0.117  -4.417  1.00  0.00     0.315 C 
ATOM     15  N   UNL     1       2.813   1.185  -3.898  1.00  0.00    -0.335 N 
ATOM     16  H   UNL     1       2.607  -2.142  -3.652  1.00  0.00     0.166 HD
ATOM     17  O   UNL     1       3.290  -0.365  -5.599  1.00  0.00    -0.249 OA
ATOM     18  H   UNL     1       3.002   2.073  -4.415  1.00  0.00     0.165 HD
ENDBRANCH   8  11
ENDBRANCH   1   8
BRANCH   5  19
ATOM     19  C   UNL     1      -0.076   0.418   2.435  1.00  0.00     0.054 A 
ATOM     20  N   UNL     1      -1.189  -0.352   2.274  1.00  0.00    -0.252 NA
ATOM     21  C   UNL     1      -0.201   1.708   2.977  1.00  0.00     0.025 A 
ATOM     22  C   UNL     1      -2.429   0.089   2.616  1.00  0.00     0.071 A 
ATOM     23  C   UNL     1      -1.461   2.188   3.338  1.00  0.00     0.012 A 
ATOM     24  C   UNL     1      -3.545  -0.735   2.429  1.00  0.00     0.032 A 
ATOM     25  C   UNL     1      -2.592   1.382   3.161  1.00  0.00     0.003 A 
ATOM     26  C   UNL     1      -4.818  -0.278   2.782  1.00  0.00     0.041 A 
ATOM     27  C   UNL     1      -3.872   1.833   3.514  1.00  0.00     0.049 A 
ATOM     28  C   UNL     1      -4.982   1.002   3.323  1.00  0.00     0.123 A 
ATOM     29  F   UNL     1      -6.220   1.439   3.664  1.00  0.00    -0.207 F 
ENDBRANCH   5  19
TORSDOF 4


