MODEL 1
REMARK VINA RESULT:      -8.1      0.000      0.000
REMARK SMILES Cc1ccc(-c2cc(N)c([NH2+]c3ccc(C)[nH+]c3F)cc2F)cc1
REMARK SMILES IDX 6 1 7 2 8 3 10 4 20 5 21 6 22 7 5 8 2 9 3 10 24 11 4 12
REMARK SMILES IDX 23 13 1 14 9 15 11 18 12 21 13 22 18 23 14 24 17 25 15 26
REMARK SMILES IDX 19 27 16 29
REMARK H PARENT 9 16 9 17 11 19 11 20 17 28
ROOT
ATOM      1  C   UNL     1      44.907 131.114  19.025  1.00  0.00     0.020 A 
ATOM      2  C   UNL     1      43.723 131.802  19.328  1.00  0.00     0.043 A 
ATOM      3  C   UNL     1      43.187 131.793  20.625  1.00  0.00     0.095 A 
ATOM      4  C   UNL     1      43.868 131.099  21.659  1.00  0.00     0.161 A 
ATOM      5  C   UNL     1      45.049 130.403  21.342  1.00  0.00     0.110 A 
ATOM      6  C   UNL     1      45.567 130.410  20.046  1.00  0.00     0.137 A 
ATOM      7  F   UNL     1      46.735 129.763  19.802  1.00  0.00    -0.206 F 
ENDROOT
BRANCH   1   8
ATOM      8  C   UNL     1      45.443 131.135  17.643  1.00  0.00    -0.015 A 
ATOM      9  C   UNL     1      46.492 131.177  15.027  1.00  0.00    -0.051 A 
ATOM     10  C   UNL     1      46.586 130.016  15.809  1.00  0.00     0.004 A 
ATOM     11  C   UNL     1      45.853 132.309  15.550  1.00  0.00     0.004 A 
ATOM     12  C   UNL     1      46.075 129.998  17.109  1.00  0.00     0.009 A 
ATOM     13  C   UNL     1      45.340 132.292  16.851  1.00  0.00     0.009 A 
ATOM     14  C   UNL     1      47.007 131.183  13.618  1.00  0.00     0.044 C 
ENDBRANCH   1   8
BRANCH   3  15
ATOM     15  N   UNL     1      41.948 132.476  20.857  1.00  0.00    -0.394 N 
ATOM     16  H   UNL     1      41.138 132.021  21.324  1.00  0.00     0.156 HD
ATOM     17  H   UNL     1      41.795 133.436  20.476  1.00  0.00     0.156 HD
ENDBRANCH   3  15
BRANCH   4  18
ATOM     18  N   UNL     1      43.397 131.107  23.030  1.00  0.00    -0.272 N 
ATOM     19  H   UNL     1      42.600 131.776  23.143  1.00  0.00     0.358 HD
ATOM     20  H   UNL     1      44.156 131.461  23.657  1.00  0.00     0.358 HD
BRANCH  18  21
ATOM     21  C   UNL     1      42.940 129.795  23.436  1.00  0.00     0.239 A 
ATOM     22  C   UNL     1      41.628 129.377  23.158  1.00  0.00     0.085 A 
ATOM     23  C   UNL     1      43.809 128.881  24.064  1.00  0.00     0.420 A 
ATOM     24  C   UNL     1      41.196 128.108  23.539  1.00  0.00     0.080 A 
ATOM     25  N   UNL     1      43.364 127.646  24.428  1.00  0.00    -0.179 N 
ATOM     26  C   UNL     1      42.088 127.238  24.174  1.00  0.00     0.179 A 
ATOM     27  F   UNL     1      45.102 129.212  24.304  1.00  0.00    -0.131 F 
ATOM     28  H   UNL     1      44.029 126.998  24.909  1.00  0.00     0.456 HD
ATOM     29  C   UNL     1      41.625 125.884  24.624  1.00  0.00     0.124 C 
ENDBRANCH  18  21
ENDBRANCH   4  18
TORSDOF 4
ENDMDL
MODEL 2
REMARK VINA RESULT:      -8.1      1.112      1.291
REMARK SMILES Cc1ccc(-c2cc(N)c([NH2+]c3ccc(C)[nH+]c3F)cc2F)cc1
REMARK SMILES IDX 6 1 7 2 8 3 10 4 20 5 21 6 22 7 5 8 2 9 3 10 24 11 4 12
REMARK SMILES IDX 23 13 1 14 9 15 11 18 12 21 13 22 18 23 14 24 17 25 15 26
REMARK SMILES IDX 19 27 16 29
REMARK H PARENT 9 16 9 17 11 19 11 20 17 28
ROOT
ATOM      1  C   UNL     1      45.039 131.156  18.736  1.00  0.00     0.020 A 
ATOM      2  C   UNL     1      43.841 131.819  19.041  1.00  0.00     0.043 A 
ATOM      3  C   UNL     1      43.342 131.851  20.353  1.00  0.00     0.095 A 
ATOM      4  C   UNL     1      44.074 131.227  21.397  1.00  0.00     0.161 A 
ATOM      5  C   UNL     1      45.269 130.555  21.077  1.00  0.00     0.110 A 
ATOM      6  C   UNL     1      45.750 130.521  19.767  1.00  0.00     0.137 A 
ATOM      7  F   UNL     1      46.932 129.901  19.518  1.00  0.00    -0.206 F 
ENDROOT
BRANCH   1   8
ATOM      8  C   UNL     1      45.536 131.132  17.339  1.00  0.00    -0.015 A 
ATOM      9  C   UNL     1      46.511 131.091  14.694  1.00  0.00    -0.051 A 
ATOM     10  C   UNL     1      46.698 129.984  15.535  1.00  0.00     0.004 A 
ATOM     11  C   UNL     1      45.816 132.209  15.174  1.00  0.00     0.004 A 
ATOM     12  C   UNL     1      46.223 130.008  16.849  1.00  0.00     0.009 A 
ATOM     13  C   UNL     1      45.340 132.235  16.488  1.00  0.00     0.009 A 
ATOM     14  C   UNL     1      46.987 131.049  13.272  1.00  0.00     0.044 C 
ENDBRANCH   1   8
BRANCH   3  15
ATOM     15  N   UNL     1      42.088 132.503  20.590  1.00  0.00    -0.394 N 
ATOM     16  H   UNL     1      41.783 132.801  21.539  1.00  0.00     0.156 HD
ATOM     17  H   UNL     1      41.397 132.617  19.815  1.00  0.00     0.156 HD
ENDBRANCH   3  15
BRANCH   4  18
ATOM     18  N   UNL     1      43.641 131.281  22.779  1.00  0.00    -0.272 N 
ATOM     19  H   UNL     1      42.881 131.991  22.900  1.00  0.00     0.358 HD
ATOM     20  H   UNL     1      44.433 131.608  23.379  1.00  0.00     0.358 HD
BRANCH  18  21
ATOM     21  C   UNL     1      43.131 130.001  23.220  1.00  0.00     0.239 A 
ATOM     22  C   UNL     1      43.849 128.820  22.971  1.00  0.00     0.085 A 
ATOM     23  C   UNL     1      41.935 129.907  23.961  1.00  0.00     0.420 A 
ATOM     24  C   UNL     1      43.360 127.591  23.409  1.00  0.00     0.080 A 
ATOM     25  N   UNL     1      41.477 128.694  24.379  1.00  0.00    -0.179 N 
ATOM     26  C   UNL     1      42.162 127.541  24.129  1.00  0.00     0.179 A 
ATOM     27  F   UNL     1      41.233 131.022  24.280  1.00  0.00    -0.131 F 
ATOM     28  H   UNL     1      40.578 128.658  24.911  1.00  0.00     0.456 HD
ATOM     29  C   UNL     1      41.605 126.222  24.573  1.00  0.00     0.124 C 
ENDBRANCH  18  21
ENDBRANCH   4  18
TORSDOF 4
ENDMDL
MODEL 3
REMARK VINA RESULT:      -7.7      0.355      1.048
REMARK SMILES Cc1ccc(-c2cc(N)c([NH2+]c3ccc(C)[nH+]c3F)cc2F)cc1
REMARK SMILES IDX 6 1 7 2 8 3 10 4 20 5 21 6 22 7 5 8 2 9 3 10 24 11 4 12
REMARK SMILES IDX 23 13 1 14 9 15 11 18 12 21 13 22 18 23 14 24 17 25 15 26
REMARK SMILES IDX 19 27 16 29
REMARK H PARENT 9 16 9 17 11 19 11 20 17 28
ROOT
ATOM      1  C   UNL     1      44.945 130.963  19.083  1.00  0.00     0.020 A 
ATOM      2  C   UNL     1      43.797 131.676  19.458  1.00  0.00     0.043 A 
ATOM      3  C   UNL     1      43.333 131.664  20.782  1.00  0.00     0.095 A 
ATOM      4  C   UNL     1      44.051 130.941  21.770  1.00  0.00     0.161 A 
ATOM      5  C   UNL     1      45.195 130.219  21.381  1.00  0.00     0.110 A 
ATOM      6  C   UNL     1      45.641 130.230  20.058  1.00  0.00     0.137 A 
ATOM      7  F   UNL     1      46.777 129.557  19.743  1.00  0.00    -0.206 F 
ENDROOT
BRANCH   1   8
ATOM      8  C   UNL     1      45.406 130.988  17.674  1.00  0.00    -0.015 A 
ATOM      9  C   UNL     1      46.250 131.039  14.985  1.00  0.00    -0.051 A 
ATOM     10  C   UNL     1      45.789 132.210  15.604  1.00  0.00     0.004 A 
ATOM     11  C   UNL     1      46.307 129.848  15.722  1.00  0.00     0.004 A 
ATOM     12  C   UNL     1      45.361 132.183  16.935  1.00  0.00     0.009 A 
ATOM     13  C   UNL     1      45.881 129.819  17.053  1.00  0.00     0.009 A 
ATOM     14  C   UNL     1      46.745 131.076  13.569  1.00  0.00     0.044 C 
ENDBRANCH   1   8
BRANCH   3  15
ATOM     15  N   UNL     1      42.126 132.374  21.090  1.00  0.00    -0.394 N 
ATOM     16  H   UNL     1      42.015 133.392  20.910  1.00  0.00     0.156 HD
ATOM     17  H   UNL     1      41.345 131.896  21.593  1.00  0.00     0.156 HD
ENDBRANCH   3  15
BRANCH   4  18
ATOM     18  N   UNL     1      43.656 130.943  23.164  1.00  0.00    -0.272 N 
ATOM     19  H   UNL     1      42.975 131.715  23.354  1.00  0.00     0.358 HD
ATOM     20  H   UNL     1      44.490 131.146  23.762  1.00  0.00     0.358 HD
BRANCH  18  21
ATOM     21  C   UNL     1      43.028 129.692  23.534  1.00  0.00     0.239 A 
ATOM     22  C   UNL     1      41.629 129.588  23.606  1.00  0.00     0.085 A 
ATOM     23  C   UNL     1      43.793 128.533  23.773  1.00  0.00     0.420 A 
ATOM     24  C   UNL     1      41.028 128.379  23.950  1.00  0.00     0.080 A 
ATOM     25  N   UNL     1      43.184 127.362  24.108  1.00  0.00    -0.179 N 
ATOM     26  C   UNL     1      41.827 127.256  24.194  1.00  0.00     0.179 A 
ATOM     27  F   UNL     1      45.144 128.564  23.661  1.00  0.00    -0.131 F 
ATOM     28  H   UNL     1      43.782 126.525  24.297  1.00  0.00     0.456 HD
ATOM     29  C   UNL     1      41.195 125.959  24.602  1.00  0.00     0.124 C 
ENDBRANCH  18  21
ENDBRANCH   4  18
TORSDOF 4
ENDMDL
MODEL 4
REMARK VINA RESULT:      -7.4      1.528      2.118
REMARK SMILES Cc1ccc(-c2cc(N)c([NH2+]c3ccc(C)[nH+]c3F)cc2F)cc1
REMARK SMILES IDX 6 1 7 2 8 3 10 4 20 5 21 6 22 7 5 8 2 9 3 10 24 11 4 12
REMARK SMILES IDX 23 13 1 14 9 15 11 18 12 21 13 22 18 23 14 24 17 25 15 26
REMARK SMILES IDX 19 27 16 29
REMARK H PARENT 9 16 9 17 11 19 11 20 17 28
ROOT
ATOM      1  C   UNL     1      45.019 131.406  18.458  1.00  0.00     0.020 A 
ATOM      2  C   UNL     1      45.890 131.659  19.528  1.00  0.00     0.043 A 
ATOM      3  C   UNL     1      45.405 131.845  20.832  1.00  0.00     0.095 A 
ATOM      4  C   UNL     1      44.011 131.748  21.082  1.00  0.00     0.161 A 
ATOM      5  C   UNL     1      43.145 131.505  19.998  1.00  0.00     0.110 A 
ATOM      6  C   UNL     1      43.639 131.333  18.704  1.00  0.00     0.137 A 
ATOM      7  F   UNL     1      42.767 131.054  17.701  1.00  0.00    -0.206 F 
ENDROOT
BRANCH   1   8
ATOM      8  C   UNL     1      45.562 131.223  17.090  1.00  0.00    -0.015 A 
ATOM      9  C   UNL     1      46.563 130.877  14.478  1.00  0.00    -0.051 A 
ATOM     10  C   UNL     1      46.100 132.132  14.898  1.00  0.00     0.004 A 
ATOM     11  C   UNL     1      46.543 129.801  15.376  1.00  0.00     0.004 A 
ATOM     12  C   UNL     1      45.595 132.302  16.190  1.00  0.00     0.009 A 
ATOM     13  C   UNL     1      46.038 129.969  16.669  1.00  0.00     0.009 A 
ATOM     14  C   UNL     1      47.140 130.704  13.104  1.00  0.00     0.044 C 
ENDBRANCH   1   8
BRANCH   3  15
ATOM     15  N   UNL     1      46.343 132.147  21.873  1.00  0.00    -0.394 N 
ATOM     16  H   UNL     1      46.871 131.410  22.382  1.00  0.00     0.156 HD
ATOM     17  H   UNL     1      46.455 133.129  22.214  1.00  0.00     0.156 HD
ENDBRANCH   3  15
BRANCH   4  18
ATOM     18  N   UNL     1      43.458 131.868  22.416  1.00  0.00    -0.272 N 
ATOM     19  H   UNL     1      42.582 132.440  22.403  1.00  0.00     0.358 HD
ATOM     20  H   UNL     1      44.129 132.391  23.025  1.00  0.00     0.358 HD
BRANCH  18  21
ATOM     21  C   UNL     1      43.136 130.570  22.970  1.00  0.00     0.239 A 
ATOM     22  C   UNL     1      41.934 130.369  23.668  1.00  0.00     0.085 A 
ATOM     23  C   UNL     1      43.985 129.462  22.775  1.00  0.00     0.420 A 
ATOM     24  C   UNL     1      41.622 129.115  24.189  1.00  0.00     0.080 A 
ATOM     25  N   UNL     1      43.659 128.245  23.294  1.00  0.00    -0.179 N 
ATOM     26  C   UNL     1      42.500 128.045  23.985  1.00  0.00     0.179 A 
ATOM     27  F   UNL     1      45.129 129.587  22.059  1.00  0.00    -0.131 F 
ATOM     28  H   UNL     1      44.319 127.448  23.147  1.00  0.00     0.456 HD
ATOM     29  C   UNL     1      42.195 126.699  24.573  1.00  0.00     0.124 C 
ENDBRANCH  18  21
ENDBRANCH   4  18
TORSDOF 4
ENDMDL
MODEL 5
REMARK VINA RESULT:      -7.4      1.303      1.810
REMARK SMILES Cc1ccc(-c2cc(N)c([NH2+]c3ccc(C)[nH+]c3F)cc2F)cc1
REMARK SMILES IDX 6 1 7 2 8 3 10 4 20 5 21 6 22 7 5 8 2 9 3 10 24 11 4 12
REMARK SMILES IDX 23 13 1 14 9 15 11 18 12 21 13 22 18 23 14 24 17 25 15 26
REMARK SMILES IDX 19 27 16 29
REMARK H PARENT 9 16 9 17 11 19 11 20 17 28
ROOT
ATOM      1  C   UNL     1      45.090 131.200  18.255  1.00  0.00     0.020 A 
ATOM      2  C   UNL     1      43.868 131.874  18.393  1.00  0.00     0.043 A 
ATOM      3  C   UNL     1      43.222 131.962  19.636  1.00  0.00     0.095 A 
ATOM      4  C   UNL     1      43.828 131.386  20.783  1.00  0.00     0.161 A 
ATOM      5  C   UNL     1      45.049 130.702  20.631  1.00  0.00     0.110 A 
ATOM      6  C   UNL     1      45.676 130.612  19.387  1.00  0.00     0.137 A 
ATOM      7  F   UNL     1      46.877 129.983  19.301  1.00  0.00    -0.206 F 
ENDROOT
BRANCH   1   8
ATOM      8  C   UNL     1      45.744 131.117  16.926  1.00  0.00    -0.015 A 
ATOM      9  C   UNL     1      46.956 130.954  14.387  1.00  0.00    -0.051 A 
ATOM     10  C   UNL     1      46.273 132.117  14.772  1.00  0.00     0.004 A 
ATOM     11  C   UNL     1      47.049 129.882  15.284  1.00  0.00     0.004 A 
ATOM     12  C   UNL     1      45.663 132.194  16.027  1.00  0.00     0.009 A 
ATOM     13  C   UNL     1      46.441 129.958  16.541  1.00  0.00     0.009 A 
ATOM     14  C   UNL     1      47.642 130.886  13.054  1.00  0.00     0.044 C 
ENDBRANCH   1   8
BRANCH   3  15
ATOM     15  N   UNL     1      41.951 132.623  19.700  1.00  0.00    -0.394 N 
ATOM     16  H   UNL     1      41.860 133.658  19.731  1.00  0.00     0.156 HD
ATOM     17  H   UNL     1      41.073 132.068  19.810  1.00  0.00     0.156 HD
ENDBRANCH   3  15
BRANCH   4  18
ATOM     18  N   UNL     1      43.240 131.499  22.103  1.00  0.00    -0.272 N 
ATOM     19  H   UNL     1      42.311 131.979  22.053  1.00  0.00     0.358 HD
ATOM     20  H   UNL     1      43.843 132.110  22.701  1.00  0.00     0.358 HD
BRANCH  18  21
ATOM     21  C   UNL     1      43.039 130.198  22.702  1.00  0.00     0.239 A 
ATOM     22  C   UNL     1      43.974 129.168  22.506  1.00  0.00     0.085 A 
ATOM     23  C   UNL     1      41.938 129.944  23.546  1.00  0.00     0.420 A 
ATOM     24  C   UNL     1      43.782 127.920  23.096  1.00  0.00     0.080 A 
ATOM     25  N   UNL     1      41.773 128.716  24.111  1.00  0.00    -0.179 N 
ATOM     26  C   UNL     1      42.668 127.706  23.914  1.00  0.00     0.179 A 
ATOM     27  F   UNL     1      41.038 130.921  23.816  1.00  0.00    -0.131 F 
ATOM     28  H   UNL     1      40.936 128.556  24.717  1.00  0.00     0.456 HD
ATOM     29  C   UNL     1      42.430 126.357  24.524  1.00  0.00     0.124 C 
ENDBRANCH  18  21
ENDBRANCH   4  18
TORSDOF 4
ENDMDL
MODEL 6
REMARK VINA RESULT:      -7.1      1.878      2.322
REMARK SMILES Cc1ccc(-c2cc(N)c([NH2+]c3ccc(C)[nH+]c3F)cc2F)cc1
REMARK SMILES IDX 6 1 7 2 8 3 10 4 20 5 21 6 22 7 5 8 2 9 3 10 24 11 4 12
REMARK SMILES IDX 23 13 1 14 9 15 11 18 12 21 13 22 18 23 14 24 17 25 15 26
REMARK SMILES IDX 19 27 16 29
REMARK H PARENT 9 16 9 17 11 19 11 20 17 28
ROOT
ATOM      1  C   UNL     1      44.788 131.473  18.250  1.00  0.00     0.020 A 
ATOM      2  C   UNL     1      45.710 131.546  19.304  1.00  0.00     0.043 A 
ATOM      3  C   UNL     1      45.287 131.738  20.629  1.00  0.00     0.095 A 
ATOM      4  C   UNL     1      43.900 131.832  20.915  1.00  0.00     0.161 A 
ATOM      5  C   UNL     1      42.984 131.769  19.848  1.00  0.00     0.110 A 
ATOM      6  C   UNL     1      43.417 131.589  18.533  1.00  0.00     0.137 A 
ATOM      7  F   UNL     1      42.492 131.486  17.545  1.00  0.00    -0.206 F 
ENDROOT
BRANCH   1   8
ATOM      8  C   UNL     1      45.266 131.278  16.860  1.00  0.00    -0.015 A 
ATOM      9  C   UNL     1      46.200 130.930  14.224  1.00  0.00    -0.051 A 
ATOM     10  C   UNL     1      46.891 130.356  15.300  1.00  0.00     0.004 A 
ATOM     11  C   UNL     1      45.029 131.661  14.468  1.00  0.00     0.004 A 
ATOM     12  C   UNL     1      46.433 130.536  16.609  1.00  0.00     0.009 A 
ATOM     13  C   UNL     1      44.570 131.842  15.776  1.00  0.00     0.009 A 
ATOM     14  C   UNL     1      46.670 130.703  12.817  1.00  0.00     0.044 C 
ENDBRANCH   1   8
BRANCH   3  15
ATOM     15  N   UNL     1      46.283 131.852  21.654  1.00  0.00    -0.394 N 
ATOM     16  H   UNL     1      47.170 132.377  21.516  1.00  0.00     0.156 HD
ATOM     17  H   UNL     1      46.180 131.326  22.551  1.00  0.00     0.156 HD
ENDBRANCH   3  15
BRANCH   4  18
ATOM     18  N   UNL     1      43.401 131.967  22.269  1.00  0.00    -0.272 N 
ATOM     19  H   UNL     1      42.523 132.536  22.284  1.00  0.00     0.358 HD
ATOM     20  H   UNL     1      44.094 132.500  22.843  1.00  0.00     0.358 HD
BRANCH  18  21
ATOM     21  C   UNL     1      43.106 130.676  22.852  1.00  0.00     0.239 A 
ATOM     22  C   UNL     1      43.943 129.574  22.610  1.00  0.00     0.085 A 
ATOM     23  C   UNL     1      42.012 130.500  23.723  1.00  0.00     0.420 A 
ATOM     24  C   UNL     1      43.662 128.335  23.184  1.00  0.00     0.080 A 
ATOM     25  N   UNL     1      41.757 129.280  24.272  1.00  0.00    -0.179 N 
ATOM     26  C   UNL     1      42.557 128.202  24.031  1.00  0.00     0.179 A 
ATOM     27  F   UNL     1      41.207 131.545  24.037  1.00  0.00    -0.131 F 
ATOM     28  H   UNL     1      40.927 129.180  24.900  1.00  0.00     0.456 HD
ATOM     29  C   UNL     1      42.221 126.866  24.624  1.00  0.00     0.124 C 
ENDBRANCH  18  21
ENDBRANCH   4  18
TORSDOF 4
ENDMDL
MODEL 7
REMARK VINA RESULT:      -6.9      1.523      1.906
REMARK SMILES Cc1ccc(-c2cc(N)c([NH2+]c3ccc(C)[nH+]c3F)cc2F)cc1
REMARK SMILES IDX 6 1 7 2 8 3 10 4 20 5 21 6 22 7 5 8 2 9 3 10 24 11 4 12
REMARK SMILES IDX 23 13 1 14 9 15 11 18 12 21 13 22 18 23 14 24 17 25 15 26
REMARK SMILES IDX 19 27 16 29
REMARK H PARENT 9 16 9 17 11 19 11 20 17 28
ROOT
ATOM      1  C   UNL     1      44.925 131.500  18.288  1.00  0.00     0.020 A 
ATOM      2  C   UNL     1      45.739 131.633  19.423  1.00  0.00     0.043 A 
ATOM      3  C   UNL     1      45.183 131.813  20.699  1.00  0.00     0.095 A 
ATOM      4  C   UNL     1      43.772 131.833  20.853  1.00  0.00     0.161 A 
ATOM      5  C   UNL     1      42.965 131.710  19.705  1.00  0.00     0.110 A 
ATOM      6  C   UNL     1      43.530 131.543  18.440  1.00  0.00     0.137 A 
ATOM      7  F   UNL     1      42.709 131.382  17.371  1.00  0.00    -0.206 F 
ENDROOT
BRANCH   1   8
ATOM      8  C   UNL     1      45.543 131.321  16.951  1.00  0.00    -0.015 A 
ATOM      9  C   UNL     1      46.745 130.975  14.426  1.00  0.00    -0.051 A 
ATOM     10  C   UNL     1      46.530 129.871  15.264  1.00  0.00     0.004 A 
ATOM     11  C   UNL     1      46.337 132.248  14.846  1.00  0.00     0.004 A 
ATOM     12  C   UNL     1      45.942 130.044  16.521  1.00  0.00     0.009 A 
ATOM     13  C   UNL     1      45.748 132.422  16.102  1.00  0.00     0.009 A 
ATOM     14  C   UNL     1      47.340 130.784  13.062  1.00  0.00     0.044 C 
ENDBRANCH   1   8
BRANCH   3  15
ATOM     15  N   UNL     1      46.070 131.990  21.812  1.00  0.00    -0.394 N 
ATOM     16  H   UNL     1      46.229 132.916  22.257  1.00  0.00     0.156 HD
ATOM     17  H   UNL     1      46.656 131.195  22.151  1.00  0.00     0.156 HD
ENDBRANCH   3  15
BRANCH   4  18
ATOM     18  N   UNL     1      43.141 131.952  22.152  1.00  0.00    -0.272 N 
ATOM     19  H   UNL     1      42.195 132.391  22.064  1.00  0.00     0.358 HD
ATOM     20  H   UNL     1      43.700 132.601  22.752  1.00  0.00     0.358 HD
BRANCH  18  21
ATOM     21  C   UNL     1      42.976 130.657  22.776  1.00  0.00     0.239 A 
ATOM     22  C   UNL     1      41.895 129.829  22.432  1.00  0.00     0.085 A 
ATOM     23  C   UNL     1      43.922 130.165  23.699  1.00  0.00     0.420 A 
ATOM     24  C   UNL     1      41.748 128.578  23.027  1.00  0.00     0.080 A 
ATOM     25  N   UNL     1      43.756 128.939  24.268  1.00  0.00    -0.179 N 
ATOM     26  C   UNL     1      42.701 128.135  23.949  1.00  0.00     0.179 A 
ATOM     27  F   UNL     1      45.014 130.899  24.023  1.00  0.00    -0.131 F 
ATOM     28  H   UNL     1      44.466 128.611  24.962  1.00  0.00     0.456 HD
ATOM     29  C   UNL     1      42.534 126.806  24.625  1.00  0.00     0.124 C 
ENDBRANCH  18  21
ENDBRANCH   4  18
TORSDOF 4
ENDMDL
MODEL 8
REMARK VINA RESULT:      -6.6      1.594      2.368
REMARK SMILES Cc1ccc(-c2cc(N)c([NH2+]c3ccc(C)[nH+]c3F)cc2F)cc1
REMARK SMILES IDX 6 1 7 2 8 3 10 4 20 5 21 6 22 7 5 8 2 9 3 10 24 11 4 12
REMARK SMILES IDX 23 13 1 14 9 15 11 18 12 21 13 22 18 23 14 24 17 25 15 26
REMARK SMILES IDX 19 27 16 29
REMARK H PARENT 9 16 9 17 11 19 11 20 17 28
ROOT
ATOM      1  C   UNL     1      45.071 131.175  16.989  1.00  0.00     0.020 A 
ATOM      2  C   UNL     1      43.816 131.795  16.900  1.00  0.00     0.043 A 
ATOM      3  C   UNL     1      43.043 132.040  18.045  1.00  0.00     0.095 A 
ATOM      4  C   UNL     1      43.549 131.681  19.322  1.00  0.00     0.161 A 
ATOM      5  C   UNL     1      44.804 131.049  19.398  1.00  0.00     0.110 A 
ATOM      6  C   UNL     1      45.559 130.801  18.251  1.00  0.00     0.137 A 
ATOM      7  F   UNL     1      46.785 130.232  18.382  1.00  0.00    -0.206 F 
ENDROOT
BRANCH   1   8
ATOM      8  C   UNL     1      45.861 130.922  15.759  1.00  0.00    -0.015 A 
ATOM      9  C   UNL     1      47.387 130.435  13.440  1.00  0.00    -0.051 A 
ATOM     10  C   UNL     1      46.977 129.369  14.254  1.00  0.00     0.004 A 
ATOM     11  C   UNL     1      47.013 131.743  13.778  1.00  0.00     0.004 A 
ATOM     12  C   UNL     1      46.228 129.611  15.409  1.00  0.00     0.009 A 
ATOM     13  C   UNL     1      46.263 131.987  14.933  1.00  0.00     0.009 A 
ATOM     14  C   UNL     1      48.158 130.172  12.180  1.00  0.00     0.044 C 
ENDBRANCH   1   8
BRANCH   3  15
ATOM     15  N   UNL     1      41.748 132.633  17.881  1.00  0.00    -0.394 N 
ATOM     16  H   UNL     1      40.867 132.095  18.004  1.00  0.00     0.156 HD
ATOM     17  H   UNL     1      41.658 133.617  17.541  1.00  0.00     0.156 HD
ENDBRANCH   3  15
BRANCH   4  18
ATOM     18  N   UNL     1      42.824 131.965  20.544  1.00  0.00    -0.272 N 
ATOM     19  H   UNL     1      41.791 131.942  20.375  1.00  0.00     0.358 HD
ATOM     20  H   UNL     1      43.038 132.940  20.857  1.00  0.00     0.358 HD
BRANCH  18  21
ATOM     21  C   UNL     1      43.130 130.996  21.574  1.00  0.00     0.239 A 
ATOM     22  C   UNL     1      42.206 129.993  21.910  1.00  0.00     0.085 A 
ATOM     23  C   UNL     1      44.381 130.992  22.226  1.00  0.00     0.420 A 
ATOM     24  C   UNL     1      42.511 129.054  22.894  1.00  0.00     0.080 A 
ATOM     25  N   UNL     1      44.655 130.064  23.184  1.00  0.00    -0.179 N 
ATOM     26  C   UNL     1      43.758 129.096  23.526  1.00  0.00     0.179 A 
ATOM     27  F   UNL     1      45.331 131.902  21.898  1.00  0.00    -0.131 F 
ATOM     28  H   UNL     1      45.585 130.100  23.661  1.00  0.00     0.456 HD
ATOM     29  C   UNL     1      44.083 128.115  24.613  1.00  0.00     0.124 C 
ENDBRANCH  18  21
ENDBRANCH   4  18
TORSDOF 4
ENDMDL
MODEL 9
REMARK VINA RESULT:      -6.3      1.732      2.297
REMARK SMILES Cc1ccc(-c2cc(N)c([NH2+]c3ccc(C)[nH+]c3F)cc2F)cc1
REMARK SMILES IDX 6 1 7 2 8 3 10 4 20 5 21 6 22 7 5 8 2 9 3 10 24 11 4 12
REMARK SMILES IDX 23 13 1 14 9 15 11 18 12 21 13 22 18 23 14 24 17 25 15 26
REMARK SMILES IDX 19 27 16 29
REMARK H PARENT 9 16 9 17 11 19 11 20 17 28
ROOT
ATOM      1  C   UNL     1      45.332 130.567  19.332  1.00  0.00     0.020 A 
ATOM      2  C   UNL     1      45.668 129.367  19.976  1.00  0.00     0.043 A 
ATOM      3  C   UNL     1      45.432 129.186  21.347  1.00  0.00     0.095 A 
ATOM      4  C   UNL     1      44.816 130.223  22.095  1.00  0.00     0.161 A 
ATOM      5  C   UNL     1      44.494 131.427  21.442  1.00  0.00     0.110 A 
ATOM      6  C   UNL     1      44.743 131.600  20.080  1.00  0.00     0.137 A 
ATOM      7  F   UNL     1      44.369 132.762  19.486  1.00  0.00    -0.206 F 
ENDROOT
BRANCH   1   8
ATOM      8  C   UNL     1      45.602 130.731  17.883  1.00  0.00    -0.015 A 
ATOM      9  C   UNL     1      46.145 131.049  15.136  1.00  0.00    -0.051 A 
ATOM     10  C   UNL     1      46.547 129.885  15.807  1.00  0.00     0.004 A 
ATOM     11  C   UNL     1      45.453 132.044  15.839  1.00  0.00     0.004 A 
ATOM     12  C   UNL     1      46.285 129.731  17.171  1.00  0.00     0.009 A 
ATOM     13  C   UNL     1      45.189 131.892  17.204  1.00  0.00     0.009 A 
ATOM     14  C   UNL     1      46.392 131.196  13.663  1.00  0.00     0.044 C 
ENDBRANCH   1   8
BRANCH   3  15
ATOM     15  N   UNL     1      45.844 127.954  21.954  1.00  0.00    -0.394 N 
ATOM     16  H   UNL     1      46.640 127.392  21.593  1.00  0.00     0.156 HD
ATOM     17  H   UNL     1      45.287 127.538  22.734  1.00  0.00     0.156 HD
ENDBRANCH   3  15
BRANCH   4  18
ATOM     18  N   UNL     1      44.491 130.070  23.499  1.00  0.00    -0.272 N 
ATOM     19  H   UNL     1      44.367 131.005  23.954  1.00  0.00     0.358 HD
ATOM     20  H   UNL     1      45.294 129.619  23.995  1.00  0.00     0.358 HD
BRANCH  18  21
ATOM     21  C   UNL     1      43.266 129.321  23.676  1.00  0.00     0.239 A 
ATOM     22  C   UNL     1      43.287 127.917  23.724  1.00  0.00     0.085 A 
ATOM     23  C   UNL     1      42.031 129.974  23.866  1.00  0.00     0.420 A 
ATOM     24  C   UNL     1      42.106 127.200  23.908  1.00  0.00     0.080 A 
ATOM     25  N   UNL     1      40.890 129.252  24.043  1.00  0.00    -0.179 N 
ATOM     26  C   UNL     1      40.900 127.888  24.077  1.00  0.00     0.179 A 
ATOM     27  F   UNL     1      41.964 131.328  23.887  1.00  0.00    -0.131 F 
ATOM     28  H   UNL     1      39.988 129.767  24.163  1.00  0.00     0.456 HD
ATOM     29  C   UNL     1      39.616 127.128  24.237  1.00  0.00     0.124 C 
ENDBRANCH  18  21
ENDBRANCH   4  18
TORSDOF 4
ENDMDL


