MODEL 1
REMARK VINA RESULT:      -9.4      0.000      0.000
REMARK SMILES Cc1ccc([NH2+]c2cc(-c3c[nH+]c4c(c3)C(=O)NC4)cc(N)c2[O-])cc1F
REMARK SMILES IDX 7 1 8 2 9 3 20 4 21 5 23 6 24 7 6 8 5 11 2 12 3 13 26 14
REMARK SMILES IDX 4 15 25 16 1 17 27 18 10 19 11 20 15 21 12 22 14 23 13 24
REMARK SMILES IDX 16 25 19 26 18 27 17 29 22 31
REMARK H PARENT 6 9 6 10 12 28 18 30 22 32 22 33
ROOT
ATOM      1  C   UNL     1      43.986 131.065  21.968  1.00  0.00     0.129 A 
ATOM      2  C   UNL     1      44.624 130.790  20.746  1.00  0.00     0.076 A 
ATOM      3  C   UNL     1      44.153 131.343  19.545  1.00  0.00    -0.004 A 
ATOM      4  C   UNL     1      43.028 132.184  19.574  1.00  0.00     0.034 A 
ATOM      5  C   UNL     1      42.380 132.470  20.783  1.00  0.00     0.030 A 
ATOM      6  C   UNL     1      42.859 131.913  21.981  1.00  0.00    -0.021 A 
ATOM      7  O   UNL     1      42.213 132.199  23.180  1.00  0.00    -0.867 OA
ENDROOT
BRANCH   1   8
ATOM      8  N   UNL     1      44.516 130.516  23.195  1.00  0.00    -0.282 N 
ATOM      9  H   UNL     1      45.560 130.598  23.216  1.00  0.00     0.358 HD
ATOM     10  H   UNL     1      44.163 131.065  24.013  1.00  0.00     0.358 HD
BRANCH   8  11
ATOM     11  C   UNL     1      44.118 129.136  23.326  1.00  0.00     0.137 A 
ATOM     12  C   UNL     1      43.312 126.442  23.534  1.00  0.00    -0.015 A 
ATOM     13  C   UNL     1      42.487 127.468  24.020  1.00  0.00     0.012 A 
ATOM     14  C   UNL     1      44.534 126.770  22.926  1.00  0.00     0.132 A 
ATOM     15  C   UNL     1      42.888 128.803  23.920  1.00  0.00     0.068 A 
ATOM     16  C   UNL     1      44.935 128.106  22.826  1.00  0.00     0.107 A 
ATOM     17  C   UNL     1      42.869 125.010  23.616  1.00  0.00     0.047 C 
ATOM     18  F   UNL     1      45.338 125.797  22.427  1.00  0.00    -0.206 F 
ENDBRANCH   8  11
ENDBRANCH   1   8
BRANCH   3  19
ATOM     19  C   UNL     1      44.839 131.048  18.261  1.00  0.00     0.047 A 
ATOM     20  C   UNL     1      46.099 130.395  18.246  1.00  0.00     0.315 A 
ATOM     21  C   UNL     1      44.250 131.415  17.031  1.00  0.00     0.035 A 
ATOM     22  N   UNL     1      46.734 130.125  17.065  1.00  0.00    -0.212 N 
ATOM     23  C   UNL     1      44.939 131.116  15.863  1.00  0.00     0.109 A 
ATOM     24  C   UNL     1      46.155 130.484  15.891  1.00  0.00     0.211 A 
ATOM     25  C   UNL     1      44.621 131.357  14.479  1.00  0.00     0.258 C 
ATOM     26  C   UNL     1      46.702 130.275  14.509  1.00  0.00     0.225 C 
ATOM     27  N   UNL     1      45.667 130.859  13.652  1.00  0.00    -0.342 N 
ATOM     28  H   UNL     1      47.659 129.642  17.068  1.00  0.00     0.453 HD
ATOM     29  O   UNL     1      43.584 131.921  14.044  1.00  0.00    -0.269 OA
ATOM     30  H   UNL     1      45.692 130.904  12.609  1.00  0.00     0.164 HD
ENDBRANCH   3  19
BRANCH   5  31
ATOM     31  N   UNL     1      41.234 133.328  20.784  1.00  0.00    -0.399 N 
ATOM     32  H   UNL     1      41.141 134.112  21.468  1.00  0.00     0.156 HD
ATOM     33  H   UNL     1      40.461 133.187  20.095  1.00  0.00     0.156 HD
ENDBRANCH   5  31
TORSDOF 4
ENDMDL
MODEL 2
REMARK VINA RESULT:      -8.2      3.743      7.283
REMARK SMILES Cc1ccc([NH2+]c2cc(-c3c[nH+]c4c(c3)C(=O)NC4)cc(N)c2[O-])cc1F
REMARK SMILES IDX 7 1 8 2 9 3 20 4 21 5 23 6 24 7 6 8 5 11 2 12 3 13 26 14
REMARK SMILES IDX 4 15 25 16 1 17 27 18 10 19 11 20 15 21 12 22 14 23 13 24
REMARK SMILES IDX 16 25 19 26 18 27 17 29 22 31
REMARK H PARENT 6 9 6 10 12 28 18 30 22 32 22 33
ROOT
ATOM      1  C   UNL     1      44.494 130.203  22.467  1.00  0.00     0.129 A 
ATOM      2  C   UNL     1      45.042 128.915  22.327  1.00  0.00     0.076 A 
ATOM      3  C   UNL     1      44.390 127.791  22.858  1.00  0.00    -0.004 A 
ATOM      4  C   UNL     1      43.171 127.965  23.536  1.00  0.00     0.034 A 
ATOM      5  C   UNL     1      42.609 129.239  23.684  1.00  0.00     0.030 A 
ATOM      6  C   UNL     1      43.269 130.359  23.148  1.00  0.00    -0.021 A 
ATOM      7  O   UNL     1      42.708 131.624  23.296  1.00  0.00    -0.867 OA
ENDROOT
BRANCH   1   8
ATOM      8  N   UNL     1      45.164 131.337  21.875  1.00  0.00    -0.282 N 
ATOM      9  H   UNL     1      44.862 132.227  22.335  1.00  0.00     0.358 HD
ATOM     10  H   UNL     1      46.197 131.262  22.032  1.00  0.00     0.358 HD
BRANCH   8  11
ATOM     11  C   UNL     1      44.890 131.385  20.460  1.00  0.00     0.137 A 
ATOM     12  C   UNL     1      44.336 131.425  17.695  1.00  0.00    -0.015 A 
ATOM     13  C   UNL     1      45.585 130.987  18.162  1.00  0.00     0.012 A 
ATOM     14  C   UNL     1      43.357 131.824  18.619  1.00  0.00     0.132 A 
ATOM     15  C   UNL     1      45.861 130.970  19.532  1.00  0.00     0.068 A 
ATOM     16  C   UNL     1      43.633 131.807  19.990  1.00  0.00     0.107 A 
ATOM     17  C   UNL     1      44.029 131.415  16.226  1.00  0.00     0.047 C 
ATOM     18  F   UNL     1      42.133 132.228  18.194  1.00  0.00    -0.206 F 
ENDBRANCH   8  11
ENDBRANCH   1   8
BRANCH   3  19
ATOM     19  C   UNL     1      44.977 126.436  22.700  1.00  0.00     0.047 A 
ATOM     20  C   UNL     1      44.151 125.282  22.718  1.00  0.00     0.315 A 
ATOM     21  C   UNL     1      46.369 126.272  22.532  1.00  0.00     0.035 A 
ATOM     22  N   UNL     1      44.689 124.033  22.575  1.00  0.00    -0.212 N 
ATOM     23  C   UNL     1      46.861 124.981  22.391  1.00  0.00     0.109 A 
ATOM     24  C   UNL     1      46.029 123.892  22.415  1.00  0.00     0.211 A 
ATOM     25  C   UNL     1      48.201 124.483  22.214  1.00  0.00     0.258 C 
ATOM     26  C   UNL     1      46.792 122.609  22.249  1.00  0.00     0.225 C 
ATOM     27  N   UNL     1      48.180 123.063  22.126  1.00  0.00    -0.342 N 
ATOM     28  H   UNL     1      44.070 123.193  22.588  1.00  0.00     0.453 HD
ATOM     29  O   UNL     1      49.247 125.180  22.145  1.00  0.00    -0.269 OA
ATOM     30  H   UNL     1      49.013 122.449  21.997  1.00  0.00     0.164 HD
ENDBRANCH   3  19
BRANCH   5  31
ATOM     31  N   UNL     1      41.368 129.388  24.382  1.00  0.00    -0.399 N 
ATOM     32  H   UNL     1      41.007 130.328  24.655  1.00  0.00     0.156 HD
ATOM     33  H   UNL     1      40.795 128.552  24.634  1.00  0.00     0.156 HD
ENDBRANCH   5  31
TORSDOF 4
ENDMDL
MODEL 3
REMARK VINA RESULT:      -7.9      1.574      2.096
REMARK SMILES Cc1ccc([NH2+]c2cc(-c3c[nH+]c4c(c3)C(=O)NC4)cc(N)c2[O-])cc1F
REMARK SMILES IDX 7 1 8 2 9 3 20 4 21 5 23 6 24 7 6 8 5 11 2 12 3 13 26 14
REMARK SMILES IDX 4 15 25 16 1 17 27 18 10 19 11 20 15 21 12 22 14 23 13 24
REMARK SMILES IDX 16 25 19 26 18 27 17 29 22 31
REMARK H PARENT 6 9 6 10 12 28 18 30 22 32 22 33
ROOT
ATOM      1  C   UNL     1      44.153 131.025  21.487  1.00  0.00     0.129 A 
ATOM      2  C   UNL     1      44.537 130.908  20.139  1.00  0.00     0.076 A 
ATOM      3  C   UNL     1      43.799 131.530  19.120  1.00  0.00    -0.004 A 
ATOM      4  C   UNL     1      42.662 132.281  19.462  1.00  0.00     0.034 A 
ATOM      5  C   UNL     1      42.264 132.411  20.799  1.00  0.00     0.030 A 
ATOM      6  C   UNL     1      43.010 131.785  21.812  1.00  0.00    -0.021 A 
ATOM      7  O   UNL     1      42.613 131.915  23.140  1.00  0.00    -0.867 OA
ENDROOT
BRANCH   1   8
ATOM      8  N   UNL     1      44.954 130.409  22.518  1.00  0.00    -0.282 N 
ATOM      9  H   UNL     1      45.973 130.473  22.284  1.00  0.00     0.358 HD
ATOM     10  H   UNL     1      44.829 130.923  23.422  1.00  0.00     0.358 HD
BRANCH   8  11
ATOM     11  C   UNL     1      44.564 129.030  22.684  1.00  0.00     0.137 A 
ATOM     12  C   UNL     1      43.836 126.331  23.053  1.00  0.00    -0.015 A 
ATOM     13  C   UNL     1      44.953 126.664  22.273  1.00  0.00     0.012 A 
ATOM     14  C   UNL     1      43.094 127.354  23.666  1.00  0.00     0.132 A 
ATOM     15  C   UNL     1      45.313 128.001  22.087  1.00  0.00     0.068 A 
ATOM     16  C   UNL     1      43.454 128.693  23.480  1.00  0.00     0.107 A 
ATOM     17  C   UNL     1      43.467 124.893  23.276  1.00  0.00     0.047 C 
ATOM     18  F   UNL     1      42.023 127.057  24.444  1.00  0.00    -0.206 F 
ENDBRANCH   8  11
ENDBRANCH   1   8
BRANCH   3  19
ATOM     19  C   UNL     1      44.218 131.402  17.701  1.00  0.00     0.047 A 
ATOM     20  C   UNL     1      43.410 131.924  16.657  1.00  0.00     0.315 A 
ATOM     21  C   UNL     1      45.428 130.756  17.365  1.00  0.00     0.035 A 
ATOM     22  N   UNL     1      43.792 131.805  15.350  1.00  0.00    -0.212 N 
ATOM     23  C   UNL     1      45.767 130.664  16.021  1.00  0.00     0.109 A 
ATOM     24  C   UNL     1      44.958 131.181  15.043  1.00  0.00     0.211 A 
ATOM     25  C   UNL     1      46.903 130.074  15.361  1.00  0.00     0.258 C 
ATOM     26  C   UNL     1      45.532 130.954  13.674  1.00  0.00     0.225 C 
ATOM     27  N   UNL     1      46.780 130.239  13.953  1.00  0.00    -0.342 N 
ATOM     28  H   UNL     1      43.190 132.195  14.592  1.00  0.00     0.453 HD
ATOM     29  O   UNL     1      47.868 129.495  15.924  1.00  0.00    -0.269 OA
ATOM     30  H   UNL     1      47.464 129.905  13.239  1.00  0.00     0.164 HD
ENDBRANCH   3  19
BRANCH   5  31
ATOM     31  N   UNL     1      41.100 133.180  21.118  1.00  0.00    -0.399 N 
ATOM     32  H   UNL     1      41.085 134.218  21.004  1.00  0.00     0.156 HD
ATOM     33  H   UNL     1      40.235 132.715  21.475  1.00  0.00     0.156 HD
ENDBRANCH   5  31
TORSDOF 4
ENDMDL
MODEL 4
REMARK VINA RESULT:      -7.9      1.363      1.708
REMARK SMILES Cc1ccc([NH2+]c2cc(-c3c[nH+]c4c(c3)C(=O)NC4)cc(N)c2[O-])cc1F
REMARK SMILES IDX 7 1 8 2 9 3 20 4 21 5 23 6 24 7 6 8 5 11 2 12 3 13 26 14
REMARK SMILES IDX 4 15 25 16 1 17 27 18 10 19 11 20 15 21 12 22 14 23 13 24
REMARK SMILES IDX 16 25 19 26 18 27 17 29 22 31
REMARK H PARENT 6 9 6 10 12 28 18 30 22 32 22 33
ROOT
ATOM      1  C   UNL     1      44.166 131.135  21.438  1.00  0.00     0.129 A 
ATOM      2  C   UNL     1      44.555 130.994  20.094  1.00  0.00     0.076 A 
ATOM      3  C   UNL     1      43.802 131.572  19.060  1.00  0.00    -0.004 A 
ATOM      4  C   UNL     1      42.645 132.301  19.382  1.00  0.00     0.034 A 
ATOM      5  C   UNL     1      42.242 132.453  20.715  1.00  0.00     0.030 A 
ATOM      6  C   UNL     1      43.003 131.872  21.744  1.00  0.00    -0.021 A 
ATOM      7  O   UNL     1      42.602 132.024  23.068  1.00  0.00    -0.867 OA
ENDROOT
BRANCH   1   8
ATOM      8  N   UNL     1      44.982 130.565  22.485  1.00  0.00    -0.282 N 
ATOM      9  H   UNL     1      45.996 130.598  22.224  1.00  0.00     0.358 HD
ATOM     10  H   UNL     1      44.887 131.132  23.360  1.00  0.00     0.358 HD
BRANCH   8  11
ATOM     11  C   UNL     1      44.574 129.205  22.739  1.00  0.00     0.137 A 
ATOM     12  C   UNL     1      43.744 126.549  23.190  1.00  0.00    -0.015 A 
ATOM     13  C   UNL     1      42.997 127.621  23.701  1.00  0.00     0.012 A 
ATOM     14  C   UNL     1      44.898 126.810  22.435  1.00  0.00     0.132 A 
ATOM     15  C   UNL     1      43.410 128.938  23.481  1.00  0.00     0.068 A 
ATOM     16  C   UNL     1      45.311 128.129  22.214  1.00  0.00     0.107 A 
ATOM     17  C   UNL     1      43.284 125.135  23.402  1.00  0.00     0.047 C 
ATOM     18  F   UNL     1      45.623 125.791  21.909  1.00  0.00    -0.206 F 
ENDBRANCH   8  11
ENDBRANCH   1   8
BRANCH   3  19
ATOM     19  C   UNL     1      44.226 131.420  17.644  1.00  0.00     0.047 A 
ATOM     20  C   UNL     1      43.424 131.929  16.590  1.00  0.00     0.315 A 
ATOM     21  C   UNL     1      45.434 130.764  17.323  1.00  0.00     0.035 A 
ATOM     22  N   UNL     1      43.810 131.788  15.286  1.00  0.00    -0.212 N 
ATOM     23  C   UNL     1      45.777 130.650  15.982  1.00  0.00     0.109 A 
ATOM     24  C   UNL     1      44.974 131.155  14.992  1.00  0.00     0.211 A 
ATOM     25  C   UNL     1      46.913 130.045  15.335  1.00  0.00     0.258 C 
ATOM     26  C   UNL     1      45.552 130.905  13.630  1.00  0.00     0.225 C 
ATOM     27  N   UNL     1      46.796 130.188  13.924  1.00  0.00    -0.342 N 
ATOM     28  H   UNL     1      43.212 132.169  14.520  1.00  0.00     0.453 HD
ATOM     29  O   UNL     1      47.874 129.471  15.910  1.00  0.00    -0.269 OA
ATOM     30  H   UNL     1      47.481 129.840  13.218  1.00  0.00     0.164 HD
ENDBRANCH   3  19
BRANCH   5  31
ATOM     31  N   UNL     1      41.058 133.198  21.015  1.00  0.00    -0.399 N 
ATOM     32  H   UNL     1      40.509 133.674  20.265  1.00  0.00     0.156 HD
ATOM     33  H   UNL     1      40.715 133.283  21.998  1.00  0.00     0.156 HD
ENDBRANCH   5  31
TORSDOF 4
ENDMDL
MODEL 5
REMARK VINA RESULT:      -7.2      1.729      2.107
REMARK SMILES Cc1ccc([NH2+]c2cc(-c3c[nH+]c4c(c3)C(=O)NC4)cc(N)c2[O-])cc1F
REMARK SMILES IDX 7 1 8 2 9 3 20 4 21 5 23 6 24 7 6 8 5 11 2 12 3 13 26 14
REMARK SMILES IDX 4 15 25 16 1 17 27 18 10 19 11 20 15 21 12 22 14 23 13 24
REMARK SMILES IDX 16 25 19 26 18 27 17 29 22 31
REMARK H PARENT 6 9 6 10 12 28 18 30 22 32 22 33
ROOT
ATOM      1  C   UNL     1      44.480 131.358  20.575  1.00  0.00     0.129 A 
ATOM      2  C   UNL     1      45.204 131.309  19.371  1.00  0.00     0.076 A 
ATOM      3  C   UNL     1      44.578 131.562  18.140  1.00  0.00    -0.004 A 
ATOM      4  C   UNL     1      43.207 131.870  18.122  1.00  0.00     0.034 A 
ATOM      5  C   UNL     1      42.469 131.925  19.311  1.00  0.00     0.030 A 
ATOM      6  C   UNL     1      43.105 131.671  20.539  1.00  0.00    -0.021 A 
ATOM      7  O   UNL     1      42.370 131.726  21.719  1.00  0.00    -0.867 OA
ENDROOT
BRANCH   1   8
ATOM      8  N   UNL     1      45.158 131.134  21.831  1.00  0.00    -0.282 N 
ATOM      9  H   UNL     1      46.195 131.216  21.711  1.00  0.00     0.358 HD
ATOM     10  H   UNL     1      44.884 131.873  22.521  1.00  0.00     0.358 HD
BRANCH   8  11
ATOM     11  C   UNL     1      44.813 129.833  22.349  1.00  0.00     0.137 A 
ATOM     12  C   UNL     1      44.095 127.288  23.327  1.00  0.00    -0.015 A 
ATOM     13  C   UNL     1      43.539 128.447  23.890  1.00  0.00     0.012 A 
ATOM     14  C   UNL     1      44.997 127.406  22.258  1.00  0.00     0.132 A 
ATOM     15  C   UNL     1      43.897 129.709  23.408  1.00  0.00     0.068 A 
ATOM     16  C   UNL     1      45.355 128.670  21.775  1.00  0.00     0.107 A 
ATOM     17  C   UNL     1      43.688 125.932  23.825  1.00  0.00     0.047 C 
ATOM     18  F   UNL     1      45.530 126.300  21.680  1.00  0.00    -0.206 F 
ENDBRANCH   8  11
ENDBRANCH   1   8
BRANCH   3  19
ATOM     19  C   UNL     1      45.355 131.512  16.876  1.00  0.00     0.047 A 
ATOM     20  C   UNL     1      45.581 132.690  16.117  1.00  0.00     0.315 A 
ATOM     21  C   UNL     1      45.882 130.289  16.405  1.00  0.00     0.035 A 
ATOM     22  N   UNL     1      46.294 132.645  14.951  1.00  0.00    -0.212 N 
ATOM     23  C   UNL     1      46.598 130.303  15.215  1.00  0.00     0.109 A 
ATOM     24  C   UNL     1      46.793 131.463  14.511  1.00  0.00     0.211 A 
ATOM     25  C   UNL     1      47.245 129.248  14.478  1.00  0.00     0.258 C 
ATOM     26  C   UNL     1      47.590 131.223  13.261  1.00  0.00     0.225 C 
ATOM     27  N   UNL     1      47.845 129.781  13.303  1.00  0.00    -0.342 N 
ATOM     28  H   UNL     1      46.454 133.519  14.403  1.00  0.00     0.453 HD
ATOM     29  O   UNL     1      47.284 128.033  14.803  1.00  0.00    -0.269 OA
ATOM     30  H   UNL     1      48.378 129.235  12.590  1.00  0.00     0.164 HD
ENDBRANCH   3  19
BRANCH   5  31
ATOM     31  N   UNL     1      41.073 132.238  19.263  1.00  0.00    -0.399 N 
ATOM     32  H   UNL     1      40.601 132.742  20.047  1.00  0.00     0.156 HD
ATOM     33  H   UNL     1      40.494 131.968  18.437  1.00  0.00     0.156 HD
ENDBRANCH   5  31
TORSDOF 4
ENDMDL
MODEL 6
REMARK VINA RESULT:      -7.2      3.582      7.242
REMARK SMILES Cc1ccc([NH2+]c2cc(-c3c[nH+]c4c(c3)C(=O)NC4)cc(N)c2[O-])cc1F
REMARK SMILES IDX 7 1 8 2 9 3 20 4 21 5 23 6 24 7 6 8 5 11 2 12 3 13 26 14
REMARK SMILES IDX 4 15 25 16 1 17 27 18 10 19 11 20 15 21 12 22 14 23 13 24
REMARK SMILES IDX 16 25 19 26 18 27 17 29 22 31
REMARK H PARENT 6 9 6 10 12 28 18 30 22 32 22 33
ROOT
ATOM      1  C   UNL     1      44.445 130.680  21.792  1.00  0.00     0.129 A 
ATOM      2  C   UNL     1      45.091 129.433  21.734  1.00  0.00     0.076 A 
ATOM      3  C   UNL     1      44.605 128.333  22.458  1.00  0.00    -0.004 A 
ATOM      4  C   UNL     1      43.453 128.490  23.247  1.00  0.00     0.034 A 
ATOM      5  C   UNL     1      42.795 129.725  23.316  1.00  0.00     0.030 A 
ATOM      6  C   UNL     1      43.289 130.820  22.587  1.00  0.00    -0.021 A 
ATOM      7  O   UNL     1      42.634 132.046  22.657  1.00  0.00    -0.867 OA
ENDROOT
BRANCH   1   8
ATOM      8  N   UNL     1      44.944 131.784  21.005  1.00  0.00    -0.282 N 
ATOM      9  H   UNL     1      44.360 132.640  21.156  1.00  0.00     0.358 HD
ATOM     10  H   UNL     1      45.913 132.033  21.313  1.00  0.00     0.358 HD
BRANCH   8  11
ATOM     11  C   UNL     1      44.955 131.424  19.608  1.00  0.00     0.137 A 
ATOM     12  C   UNL     1      44.947 130.675  16.890  1.00  0.00    -0.015 A 
ATOM     13  C   UNL     1      45.937 130.187  17.757  1.00  0.00     0.012 A 
ATOM     14  C   UNL     1      43.949 131.524  17.392  1.00  0.00     0.132 A 
ATOM     15  C   UNL     1      45.943 130.561  19.103  1.00  0.00     0.068 A 
ATOM     16  C   UNL     1      43.955 131.898  18.741  1.00  0.00     0.107 A 
ATOM     17  C   UNL     1      44.924 130.250  15.450  1.00  0.00     0.047 C 
ATOM     18  F   UNL     1      42.967 131.990  16.579  1.00  0.00    -0.206 F 
ENDBRANCH   8  11
ENDBRANCH   1   8
BRANCH   3  19
ATOM     19  C   UNL     1      45.294 127.019  22.386  1.00  0.00     0.047 A 
ATOM     20  C   UNL     1      46.686 126.946  22.115  1.00  0.00     0.315 A 
ATOM     21  C   UNL     1      44.576 125.820  22.583  1.00  0.00     0.035 A 
ATOM     22  N   UNL     1      47.322 125.738  22.045  1.00  0.00    -0.212 N 
ATOM     23  C   UNL     1      45.274 124.621  22.500  1.00  0.00     0.109 A 
ATOM     24  C   UNL     1      46.619 124.593  22.236  1.00  0.00     0.211 A 
ATOM     25  C   UNL     1      44.843 123.254  22.642  1.00  0.00     0.258 C 
ATOM     26  C   UNL     1      47.144 123.187  22.193  1.00  0.00     0.225 C 
ATOM     27  N   UNL     1      45.951 122.380  22.461  1.00  0.00    -0.342 N 
ATOM     28  H   UNL     1      48.346 125.698  21.848  1.00  0.00     0.453 HD
ATOM     29  O   UNL     1      43.671 122.868  22.887  1.00  0.00    -0.269 OA
ATOM     30  H   UNL     1      45.919 121.338  22.510  1.00  0.00     0.164 HD
ENDBRANCH   3  19
BRANCH   5  31
ATOM     31  N   UNL     1      41.625 129.857  24.130  1.00  0.00    -0.399 N 
ATOM     32  H   UNL     1      41.593 130.526  24.932  1.00  0.00     0.156 HD
ATOM     33  H   UNL     1      40.773 129.284  23.937  1.00  0.00     0.156 HD
ENDBRANCH   5  31
TORSDOF 4
ENDMDL
MODEL 7
REMARK VINA RESULT:      -6.8      1.375      1.746
REMARK SMILES Cc1ccc([NH2+]c2cc(-c3c[nH+]c4c(c3)C(=O)NC4)cc(N)c2[O-])cc1F
REMARK SMILES IDX 7 1 8 2 9 3 20 4 21 5 23 6 24 7 6 8 5 11 2 12 3 13 26 14
REMARK SMILES IDX 4 15 25 16 1 17 27 18 10 19 11 20 15 21 12 22 14 23 13 24
REMARK SMILES IDX 16 25 19 26 18 27 17 29 22 31
REMARK H PARENT 6 9 6 10 12 28 18 30 22 32 22 33
ROOT
ATOM      1  C   UNL     1      44.023 131.714  20.491  1.00  0.00     0.129 A 
ATOM      2  C   UNL     1      44.914 131.223  19.521  1.00  0.00     0.076 A 
ATOM      3  C   UNL     1      44.599 131.280  18.155  1.00  0.00    -0.004 A 
ATOM      4  C   UNL     1      43.373 131.841  17.759  1.00  0.00     0.034 A 
ATOM      5  C   UNL     1      42.472 132.337  18.711  1.00  0.00     0.030 A 
ATOM      6  C   UNL     1      42.797 132.276  20.077  1.00  0.00    -0.021 A 
ATOM      7  O   UNL     1      41.901 132.769  21.021  1.00  0.00    -0.867 OA
ENDROOT
BRANCH   1   8
ATOM      8  N   UNL     1      44.390 131.680  21.888  1.00  0.00    -0.282 N 
ATOM      9  H   UNL     1      45.408 131.893  22.008  1.00  0.00     0.358 HD
ATOM     10  H   UNL     1      43.872 132.425  22.411  1.00  0.00     0.358 HD
BRANCH   8  11
ATOM     11  C   UNL     1      44.079 130.387  22.445  1.00  0.00     0.137 A 
ATOM     12  C   UNL     1      43.442 127.846  23.488  1.00  0.00    -0.015 A 
ATOM     13  C   UNL     1      42.565 128.927  23.668  1.00  0.00     0.012 A 
ATOM     14  C   UNL     1      44.631 128.037  22.766  1.00  0.00     0.132 A 
ATOM     15  C   UNL     1      42.882 130.187  23.154  1.00  0.00     0.068 A 
ATOM     16  C   UNL     1      44.948 129.298  22.252  1.00  0.00     0.107 A 
ATOM     17  C   UNL     1      43.087 126.486  24.015  1.00  0.00     0.047 C 
ATOM     18  F   UNL     1      45.483 127.002  22.558  1.00  0.00    -0.206 F 
ENDBRANCH   8  11
ENDBRANCH   1   8
BRANCH   3  19
ATOM     19  C   UNL     1      45.552 130.761  17.140  1.00  0.00     0.047 A 
ATOM     20  C   UNL     1      46.563 129.834  17.504  1.00  0.00     0.315 A 
ATOM     21  C   UNL     1      45.469 131.183  15.795  1.00  0.00     0.035 A 
ATOM     22  N   UNL     1      47.443 129.357  16.572  1.00  0.00    -0.212 N 
ATOM     23  C   UNL     1      46.388 130.666  14.892  1.00  0.00     0.109 A 
ATOM     24  C   UNL     1      47.351 129.772  15.284  1.00  0.00     0.211 A 
ATOM     25  C   UNL     1      46.573 130.894  13.482  1.00  0.00     0.258 C 
ATOM     26  C   UNL     1      48.226 129.363  14.134  1.00  0.00     0.225 C 
ATOM     27  N   UNL     1      47.670 130.121  13.009  1.00  0.00    -0.342 N 
ATOM     28  H   UNL     1      48.181 128.674  16.852  1.00  0.00     0.453 HD
ATOM     29  O   UNL     1      45.882 131.657  12.758  1.00  0.00    -0.269 OA
ATOM     30  H   UNL     1      48.021 130.098  12.027  1.00  0.00     0.164 HD
ENDBRANCH   3  19
BRANCH   5  31
ATOM     31  N   UNL     1      41.228 132.900  18.280  1.00  0.00    -0.399 N 
ATOM     32  H   UNL     1      41.191 133.633  17.537  1.00  0.00     0.156 HD
ATOM     33  H   UNL     1      40.326 132.588  18.704  1.00  0.00     0.156 HD
ENDBRANCH   5  31
TORSDOF 4
ENDMDL
MODEL 8
REMARK VINA RESULT:      -6.7      4.820      7.631
REMARK SMILES Cc1ccc([NH2+]c2cc(-c3c[nH+]c4c(c3)C(=O)NC4)cc(N)c2[O-])cc1F
REMARK SMILES IDX 7 1 8 2 9 3 20 4 21 5 23 6 24 7 6 8 5 11 2 12 3 13 26 14
REMARK SMILES IDX 4 15 25 16 1 17 27 18 10 19 11 20 15 21 12 22 14 23 13 24
REMARK SMILES IDX 16 25 19 26 18 27 17 29 22 31
REMARK H PARENT 6 9 6 10 12 28 18 30 22 32 22 33
ROOT
ATOM      1  C   UNL     1      42.851 126.905  23.752  1.00  0.00     0.129 A 
ATOM      2  C   UNL     1      44.043 126.262  23.375  1.00  0.00     0.076 A 
ATOM      3  C   UNL     1      44.022 124.994  22.774  1.00  0.00    -0.004 A 
ATOM      4  C   UNL     1      42.785 124.366  22.548  1.00  0.00     0.034 A 
ATOM      5  C   UNL     1      41.587 124.991  22.916  1.00  0.00     0.030 A 
ATOM      6  C   UNL     1      41.618 126.262  23.516  1.00  0.00    -0.021 A 
ATOM      7  O   UNL     1      40.427 126.882  23.881  1.00  0.00    -0.867 OA
ENDROOT
BRANCH   1   8
ATOM      8  N   UNL     1      42.901 128.228  24.330  1.00  0.00    -0.282 N 
ATOM      9  H   UNL     1      41.954 128.518  24.672  1.00  0.00     0.358 HD
ATOM     10  H   UNL     1      43.527 128.227  25.170  1.00  0.00     0.358 HD
BRANCH   8  11
ATOM     11  C   UNL     1      43.393 129.171  23.356  1.00  0.00     0.137 A 
ATOM     12  C   UNL     1      44.330 130.984  21.411  1.00  0.00    -0.015 A 
ATOM     13  C   UNL     1      45.064 129.828  21.714  1.00  0.00     0.012 A 
ATOM     14  C   UNL     1      43.114 131.221  22.072  1.00  0.00     0.132 A 
ATOM     15  C   UNL     1      44.602 128.930  22.680  1.00  0.00     0.068 A 
ATOM     16  C   UNL     1      42.651 130.322  23.039  1.00  0.00     0.107 A 
ATOM     17  C   UNL     1      44.812 131.933  20.353  1.00  0.00     0.047 C 
ATOM     18  F   UNL     1      42.374 132.320  21.779  1.00  0.00    -0.206 F 
ENDBRANCH   8  11
ENDBRANCH   1   8
BRANCH   3  19
ATOM     19  C   UNL     1      45.288 124.327  22.376  1.00  0.00     0.047 A 
ATOM     20  C   UNL     1      45.278 123.010  21.846  1.00  0.00     0.315 A 
ATOM     21  C   UNL     1      46.525 124.992  22.520  1.00  0.00     0.035 A 
ATOM     22  N   UNL     1      46.442 122.393  21.482  1.00  0.00    -0.212 N 
ATOM     23  C   UNL     1      47.676 124.317  22.134  1.00  0.00     0.109 A 
ATOM     24  C   UNL     1      47.624 123.045  21.627  1.00  0.00     0.211 A 
ATOM     25  C   UNL     1      49.064 124.704  22.159  1.00  0.00     0.258 C 
ATOM     26  C   UNL     1      48.992 122.528  21.288  1.00  0.00     0.225 C 
ATOM     27  N   UNL     1      49.868 123.644  21.655  1.00  0.00    -0.342 N 
ATOM     28  H   UNL     1      46.421 121.426  21.092  1.00  0.00     0.453 HD
ATOM     29  O   UNL     1      49.518 125.807  22.562  1.00  0.00    -0.269 OA
ATOM     30  H   UNL     1      50.908 123.659  21.563  1.00  0.00     0.164 HD
ENDBRANCH   3  19
BRANCH   5  31
ATOM     31  N   UNL     1      40.341 124.328  22.677  1.00  0.00    -0.399 N 
ATOM     32  H   UNL     1      40.203 123.324  22.928  1.00  0.00     0.156 HD
ATOM     33  H   UNL     1      39.539 124.838  22.243  1.00  0.00     0.156 HD
ENDBRANCH   5  31
TORSDOF 4
ENDMDL


