REMARK SMILES C=C[C@H]1CCC[C@](F)(c2ccc3c(c2)[C@H](N)CC3)[C@@H]1Cl
REMARK SMILES IDX 9 1 10 2 11 3 12 4 13 5 14 6 15 7 17 8 18 9 7 10 3 11 4 12
REMARK SMILES IDX 19 13 5 14 6 15 20 16 8 17 2 18 1 19 16 20
REMARK H PARENT 16 21 16 22
ROOT
ATOM      1  C   UNL     1      -0.252   0.320   0.620  1.00  0.00    -0.009 A 
ATOM      2  C   UNL     1      -1.407   0.659   1.369  1.00  0.00     0.007 A 
ATOM      3  C   UNL     1      -1.520   1.907   1.997  1.00  0.00     0.004 A 
ATOM      4  C   UNL     1      -0.470   2.815   1.882  1.00  0.00    -0.043 A 
ATOM      5  C   UNL     1       0.664   2.499   1.183  1.00  0.00    -0.028 A 
ATOM      6  C   UNL     1       0.804   1.263   0.548  1.00  0.00     0.012 A 
ATOM      7  C   UNL     1       1.664   3.597   1.221  1.00  0.00     0.081 C 
ATOM      8  C   UNL     1       0.929   4.742   1.962  1.00  0.00     0.028 C 
ATOM      9  C   UNL     1      -0.400   4.166   2.487  1.00  0.00     0.038 C 
ENDROOT
BRANCH   1  10
ATOM     10  C   UNL     1      -0.162  -1.074  -0.003  1.00  0.00     0.152 C 
ATOM     11  C   UNL     1       0.300  -3.566   0.493  1.00  0.00     0.033 C 
ATOM     12  C   UNL     1       1.205  -3.618  -0.759  1.00  0.00     0.009 C 
ATOM     13  C   UNL     1       0.216  -2.128   1.076  1.00  0.00     0.130 C 
ATOM     14  C   UNL     1       0.822  -2.565  -1.809  1.00  0.00     0.004 C 
ATOM     15  C   UNL     1       0.817  -1.159  -1.199  1.00  0.00     0.048 C 
ATOM     16  Cl  UNL     1       1.765  -1.718   1.887  1.00  0.00    -0.118 Cl
ATOM     17  F   UNL     1      -1.425  -1.382  -0.494  1.00  0.00    -0.237 F 
BRANCH  11  18
ATOM     18  C   UNL     1      -1.072  -4.140   0.201  1.00  0.00    -0.030 C 
ATOM     19  C   UNL     1      -1.923  -4.457   1.182  1.00  0.00     0.004 C 
ENDBRANCH  11  18
ENDBRANCH   1  10
BRANCH   7  20
ATOM     20  N   UNL     1       2.866   3.164   1.935  1.00  0.00    -0.324 NA
ATOM     21  H   UNL     1       2.624   2.951   2.931  1.00  0.00     0.119 HD
ATOM     22  H   UNL     1       3.547   3.957   1.942  1.00  0.00     0.119 HD
ENDBRANCH   7  20
TORSDOF 3


