MODEL 1
REMARK VINA RESULT:      -9.9      0.000      0.000
REMARK SMILES CC(=O)Oc1ccc([NH2+]c2ccc3cc[nH]c3c2)c(F)c1
REMARK SMILES IDX 5 1 6 2 7 3 8 4 19 5 20 6 21 7 4 8 2 9 1 10 3 11 9 12 10 15
REMARK SMILES IDX 11 16 18 17 12 18 17 19 13 20 16 21 14 22 15 23
REMARK H PARENT 9 13 9 14 16 24
ROOT
ATOM      1  C   UNL     1      44.230 131.555  20.807  1.00  0.00     0.134 A 
ATOM      2  C   UNL     1      45.261 131.343  19.885  1.00  0.00     0.053 A 
ATOM      3  C   UNL     1      45.016 131.431  18.513  1.00  0.00     0.075 A 
ATOM      4  C   UNL     1      43.732 131.754  18.036  1.00  0.00     0.170 A 
ATOM      5  C   UNL     1      42.698 131.983  18.964  1.00  0.00     0.187 A 
ATOM      6  F   UNL     1      41.451 132.308  18.541  1.00  0.00    -0.200 F 
ATOM      7  C   UNL     1      42.948 131.892  20.337  1.00  0.00     0.093 A 
ENDROOT
BRANCH   1   8
ATOM      8  O   UNL     1      44.528 131.463  22.174  1.00  0.00    -0.427 OA
BRANCH   8   9
ATOM      9  C   UNL     1      43.802 130.719  23.113  1.00  0.00     0.308 C 
ATOM     10  C   UNL     1      42.838 131.419  24.009  1.00  0.00     0.139 C 
ATOM     11  O   UNL     1      44.022 129.489  23.280  1.00  0.00    -0.252 OA
ENDBRANCH   8   9
ENDBRANCH   1   8
BRANCH   4  12
ATOM     12  N   UNL     1      43.481 131.811  16.616  1.00  0.00    -0.279 N 
ATOM     13  H   UNL     1      43.431 132.809  16.301  1.00  0.00     0.358 HD
ATOM     14  H   UNL     1      42.553 131.381  16.392  1.00  0.00     0.358 HD
BRANCH  12  15
ATOM     15  C   UNL     1      44.533 131.127  15.909  1.00  0.00     0.136 A 
ATOM     16  C   UNL     1      44.729 129.731  16.088  1.00  0.00     0.069 A 
ATOM     17  C   UNL     1      45.406 131.849  15.059  1.00  0.00     0.094 A 
ATOM     18  C   UNL     1      45.772 129.060  15.427  1.00  0.00     0.016 A 
ATOM     19  C   UNL     1      46.429 131.151  14.420  1.00  0.00     0.051 A 
ATOM     20  C   UNL     1      46.604 129.806  14.598  1.00  0.00    -0.000 A 
ATOM     21  N   UNL     1      47.353 131.646  13.581  1.00  0.00    -0.361 N 
ATOM     22  C   UNL     1      47.689 129.427  13.838  1.00  0.00     0.028 A 
ATOM     23  C   UNL     1      48.127 130.596  13.223  1.00  0.00     0.083 A 
ATOM     24  H   UNL     1      47.459 132.637  13.270  1.00  0.00     0.166 HD
ENDBRANCH  12  15
ENDBRANCH   4  12
TORSDOF 4
ENDMDL
MODEL 2
REMARK VINA RESULT:      -9.1      3.390      7.294
REMARK SMILES CC(=O)Oc1ccc([NH2+]c2ccc3cc[nH]c3c2)c(F)c1
REMARK SMILES IDX 5 1 6 2 7 3 8 4 19 5 20 6 21 7 4 8 2 9 1 10 3 11 9 12 10 15
REMARK SMILES IDX 11 16 18 17 12 18 17 19 13 20 16 21 14 22 15 23
REMARK H PARENT 9 13 9 14 16 24
ROOT
ATOM      1  C   UNL     1      46.039 129.966  15.131  1.00  0.00     0.134 A 
ATOM      2  C   UNL     1      46.201 129.926  16.519  1.00  0.00     0.053 A 
ATOM      3  C   UNL     1      45.315 130.607  17.357  1.00  0.00     0.075 A 
ATOM      4  C   UNL     1      44.234 131.329  16.819  1.00  0.00     0.170 A 
ATOM      5  C   UNL     1      44.062 131.355  15.421  1.00  0.00     0.187 A 
ATOM      6  F   UNL     1      43.023 132.030  14.867  1.00  0.00    -0.200 F 
ATOM      7  C   UNL     1      44.952 130.673  14.586  1.00  0.00     0.093 A 
ENDROOT
BRANCH   1   8
ATOM      8  O   UNL     1      46.950 129.258  14.332  1.00  0.00    -0.427 OA
BRANCH   8   9
ATOM      9  C   UNL     1      48.022 129.826  13.631  1.00  0.00     0.308 C 
ATOM     10  C   UNL     1      47.828 131.130  12.935  1.00  0.00     0.139 C 
ATOM     11  O   UNL     1      49.112 129.207  13.496  1.00  0.00    -0.252 OA
ENDBRANCH   8   9
ENDBRANCH   1   8
BRANCH   4  12
ATOM     12  N   UNL     1      43.342 132.056  17.689  1.00  0.00    -0.279 N 
ATOM     13  H   UNL     1      42.354 131.743  17.533  1.00  0.00     0.358 HD
ATOM     14  H   UNL     1      43.369 133.078  17.468  1.00  0.00     0.358 HD
BRANCH  12  15
ATOM     15  C   UNL     1      43.716 131.831  19.063  1.00  0.00     0.136 A 
ATOM     16  C   UNL     1      45.084 131.836  19.444  1.00  0.00     0.069 A 
ATOM     17  C   UNL     1      42.722 131.566  20.036  1.00  0.00     0.094 A 
ATOM     18  C   UNL     1      45.461 131.587  20.776  1.00  0.00     0.016 A 
ATOM     19  C   UNL     1      43.132 131.323  21.345  1.00  0.00     0.051 A 
ATOM     20  C   UNL     1      44.453 131.333  21.701  1.00  0.00    -0.000 A 
ATOM     21  N   UNL     1      42.354 131.054  22.407  1.00  0.00    -0.361 N 
ATOM     22  C   UNL     1      44.519 131.059  23.050  1.00  0.00     0.028 A 
ATOM     23  C   UNL     1      43.197 130.891  23.451  1.00  0.00     0.083 A 
ATOM     24  H   UNL     1      41.313 130.981  22.425  1.00  0.00     0.166 HD
ENDBRANCH  12  15
ENDBRANCH   4  12
TORSDOF 4
ENDMDL
MODEL 3
REMARK VINA RESULT:      -8.8      1.125      1.276
REMARK SMILES CC(=O)Oc1ccc([NH2+]c2ccc3cc[nH]c3c2)c(F)c1
REMARK SMILES IDX 5 1 6 2 7 3 8 4 19 5 20 6 21 7 4 8 2 9 1 10 3 11 9 12 10 15
REMARK SMILES IDX 11 16 18 17 12 18 17 19 13 20 16 21 14 22 15 23
REMARK H PARENT 9 13 9 14 16 24
ROOT
ATOM      1  C   UNL     1      44.344 130.834  21.605  1.00  0.00     0.134 A 
ATOM      2  C   UNL     1      45.531 131.078  20.906  1.00  0.00     0.053 A 
ATOM      3  C   UNL     1      45.497 131.601  19.611  1.00  0.00     0.075 A 
ATOM      4  C   UNL     1      44.270 131.908  18.996  1.00  0.00     0.170 A 
ATOM      5  C   UNL     1      43.076 131.677  19.707  1.00  0.00     0.187 A 
ATOM      6  F   UNL     1      41.874 131.973  19.150  1.00  0.00    -0.200 F 
ATOM      7  C   UNL     1      43.114 131.152  21.002  1.00  0.00     0.093 A 
ENDROOT
BRANCH   1   8
ATOM      8  O   UNL     1      44.430 130.316  22.906  1.00  0.00    -0.427 OA
BRANCH   8   9
ATOM      9  C   UNL     1      43.465 129.509  23.521  1.00  0.00     0.308 C 
ATOM     10  C   UNL     1      43.666 128.032  23.558  1.00  0.00     0.139 C 
ATOM     11  O   UNL     1      42.386 129.998  23.954  1.00  0.00    -0.252 OA
ENDBRANCH   8   9
ENDBRANCH   1   8
BRANCH   4  12
ATOM     12  N   UNL     1      44.243 132.418  17.647  1.00  0.00    -0.279 N 
ATOM     13  H   UNL     1      44.608 133.400  17.627  1.00  0.00     0.358 HD
ATOM     14  H   UNL     1      43.260 132.458  17.291  1.00  0.00     0.358 HD
BRANCH  12  15
ATOM     15  C   UNL     1      45.050 131.580  16.796  1.00  0.00     0.136 A 
ATOM     16  C   UNL     1      45.227 130.204  17.104  1.00  0.00     0.069 A 
ATOM     17  C   UNL     1      45.704 132.131  15.668  1.00  0.00     0.094 A 
ATOM     18  C   UNL     1      46.037 129.385  16.297  1.00  0.00     0.016 A 
ATOM     19  C   UNL     1      46.499 131.290  14.892  1.00  0.00     0.051 A 
ATOM     20  C   UNL     1      46.659 129.966  15.197  1.00  0.00    -0.000 A 
ATOM     21  N   UNL     1      47.197 131.615  13.791  1.00  0.00    -0.361 N 
ATOM     22  C   UNL     1      47.496 129.422  14.247  1.00  0.00     0.028 A 
ATOM     23  C   UNL     1      47.809 130.476  13.393  1.00  0.00     0.083 A 
ATOM     24  H   UNL     1      47.260 132.551  13.335  1.00  0.00     0.166 HD
ENDBRANCH  12  15
ENDBRANCH   4  12
TORSDOF 4
ENDMDL
MODEL 4
REMARK VINA RESULT:      -8.7      0.844      1.410
REMARK SMILES CC(=O)Oc1ccc([NH2+]c2ccc3cc[nH]c3c2)c(F)c1
REMARK SMILES IDX 5 1 6 2 7 3 8 4 19 5 20 6 21 7 4 8 2 9 1 10 3 11 9 12 10 15
REMARK SMILES IDX 11 16 18 17 12 18 17 19 13 20 16 21 14 22 15 23
REMARK H PARENT 9 13 9 14 16 24
ROOT
ATOM      1  C   UNL     1      44.292 131.577  21.025  1.00  0.00     0.134 A 
ATOM      2  C   UNL     1      45.260 131.208  20.085  1.00  0.00     0.053 A 
ATOM      3  C   UNL     1      44.962 131.210  18.720  1.00  0.00     0.075 A 
ATOM      4  C   UNL     1      43.688 131.601  18.268  1.00  0.00     0.170 A 
ATOM      5  C   UNL     1      42.719 131.988  19.214  1.00  0.00     0.187 A 
ATOM      6  F   UNL     1      41.484 132.384  18.813  1.00  0.00    -0.200 F 
ATOM      7  C   UNL     1      43.021 131.983  20.579  1.00  0.00     0.093 A 
ENDROOT
BRANCH   1   8
ATOM      8  O   UNL     1      44.643 131.566  22.383  1.00  0.00    -0.427 OA
BRANCH   8   9
ATOM      9  C   UNL     1      43.968 130.860  23.387  1.00  0.00     0.308 C 
ATOM     10  C   UNL     1      42.706 131.420  23.950  1.00  0.00     0.139 C 
ATOM     11  O   UNL     1      44.461 129.814  23.891  1.00  0.00    -0.252 OA
ENDBRANCH   8   9
ENDBRANCH   1   8
BRANCH   4  12
ATOM     12  N   UNL     1      43.379 131.570  16.859  1.00  0.00    -0.279 N 
ATOM     13  H   UNL     1      42.925 132.469  16.571  1.00  0.00     0.358 HD
ATOM     14  H   UNL     1      42.690 130.810  16.653  1.00  0.00     0.358 HD
BRANCH  12  15
ATOM     15  C   UNL     1      44.588 131.367  16.101  1.00  0.00     0.136 A 
ATOM     16  C   UNL     1      45.367 132.479  15.682  1.00  0.00     0.069 A 
ATOM     17  C   UNL     1      44.987 130.059  15.734  1.00  0.00     0.094 A 
ATOM     18  C   UNL     1      46.531 132.295  14.916  1.00  0.00     0.016 A 
ATOM     19  C   UNL     1      46.146 129.914  14.974  1.00  0.00     0.051 A 
ATOM     20  C   UNL     1      46.889 130.993  14.581  1.00  0.00    -0.000 A 
ATOM     21  N   UNL     1      46.691 128.770  14.529  1.00  0.00    -0.361 N 
ATOM     22  C   UNL     1      47.957 130.514  13.851  1.00  0.00     0.028 A 
ATOM     23  C   UNL     1      47.798 129.132  13.841  1.00  0.00     0.083 A 
ATOM     24  H   UNL     1      46.335 127.800  14.677  1.00  0.00     0.166 HD
ENDBRANCH  12  15
ENDBRANCH   4  12
TORSDOF 4
ENDMDL
MODEL 5
REMARK VINA RESULT:      -8.7      3.454      7.380
REMARK SMILES CC(=O)Oc1ccc([NH2+]c2ccc3cc[nH]c3c2)c(F)c1
REMARK SMILES IDX 5 1 6 2 7 3 8 4 19 5 20 6 21 7 4 8 2 9 1 10 3 11 9 12 10 15
REMARK SMILES IDX 11 16 18 17 12 18 17 19 13 20 16 21 14 22 15 23
REMARK H PARENT 9 13 9 14 16 24
ROOT
ATOM      1  C   UNL     1      46.390 129.898  15.097  1.00  0.00     0.134 A 
ATOM      2  C   UNL     1      45.229 129.224  15.493  1.00  0.00     0.053 A 
ATOM      3  C   UNL     1      44.250 129.879  16.244  1.00  0.00     0.075 A 
ATOM      4  C   UNL     1      44.407 131.232  16.598  1.00  0.00     0.170 A 
ATOM      5  C   UNL     1      45.568 131.914  16.185  1.00  0.00     0.187 A 
ATOM      6  F   UNL     1      45.747 133.222  16.497  1.00  0.00    -0.200 F 
ATOM      7  C   UNL     1      46.546 131.254  15.435  1.00  0.00     0.093 A 
ENDROOT
BRANCH   1   8
ATOM      8  O   UNL     1      47.340 129.199  14.338  1.00  0.00    -0.427 OA
BRANCH   8   9
ATOM      9  C   UNL     1      48.203 129.772  13.395  1.00  0.00     0.308 C 
ATOM     10  C   UNL     1      47.764 130.987  12.650  1.00  0.00     0.139 C 
ATOM     11  O   UNL     1      49.297 129.222  13.094  1.00  0.00    -0.252 OA
ENDBRANCH   8   9
ENDBRANCH   1   8
BRANCH   4  12
ATOM     12  N   UNL     1      43.405 131.891  17.401  1.00  0.00    -0.279 N 
ATOM     13  H   UNL     1      42.460 131.489  17.196  1.00  0.00     0.358 HD
ATOM     14  H   UNL     1      43.355 132.908  17.159  1.00  0.00     0.358 HD
BRANCH  12  15
ATOM     15  C   UNL     1      43.716 131.723  18.798  1.00  0.00     0.136 A 
ATOM     16  C   UNL     1      45.015 131.309  19.199  1.00  0.00     0.069 A 
ATOM     17  C   UNL     1      42.717 131.933  19.779  1.00  0.00     0.094 A 
ATOM     18  C   UNL     1      45.319 131.112  20.558  1.00  0.00     0.016 A 
ATOM     19  C   UNL     1      43.054 131.728  21.115  1.00  0.00     0.051 A 
ATOM     20  C   UNL     1      44.310 131.332  21.489  1.00  0.00    -0.000 A 
ATOM     21  N   UNL     1      42.260 131.872  22.188  1.00  0.00    -0.361 N 
ATOM     22  C   UNL     1      44.314 131.219  22.863  1.00  0.00     0.028 A 
ATOM     23  C   UNL     1      43.025 131.562  23.260  1.00  0.00     0.083 A 
ATOM     24  H   UNL     1      41.257 132.161  22.198  1.00  0.00     0.166 HD
ENDBRANCH  12  15
ENDBRANCH   4  12
TORSDOF 4
ENDMDL
MODEL 6
REMARK VINA RESULT:      -8.3      3.645      7.574
REMARK SMILES CC(=O)Oc1ccc([NH2+]c2ccc3cc[nH]c3c2)c(F)c1
REMARK SMILES IDX 5 1 6 2 7 3 8 4 19 5 20 6 21 7 4 8 2 9 1 10 3 11 9 12 10 15
REMARK SMILES IDX 11 16 18 17 12 18 17 19 13 20 16 21 14 22 15 23
REMARK H PARENT 9 13 9 14 16 24
ROOT
ATOM      1  C   UNL     1      44.386 131.460  18.039  1.00  0.00     0.134 A 
ATOM      2  C   UNL     1      45.515 130.856  18.600  1.00  0.00     0.053 A 
ATOM      3  C   UNL     1      45.653 130.760  19.987  1.00  0.00     0.075 A 
ATOM      4  C   UNL     1      44.649 131.251  20.841  1.00  0.00     0.170 A 
ATOM      5  C   UNL     1      43.504 131.845  20.275  1.00  0.00     0.187 A 
ATOM      6  F   UNL     1      42.510 132.319  21.067  1.00  0.00    -0.200 F 
ATOM      7  C   UNL     1      43.371 131.941  18.886  1.00  0.00     0.093 A 
ENDROOT
BRANCH   1   8
ATOM      8  O   UNL     1      44.290 131.526  16.641  1.00  0.00    -0.427 OA
BRANCH   8   9
ATOM      9  C   UNL     1      45.156 130.894  15.740  1.00  0.00     0.308 C 
ATOM     10  C   UNL     1      46.245 131.686  15.099  1.00  0.00     0.139 C 
ATOM     11  O   UNL     1      44.969 129.698  15.386  1.00  0.00    -0.252 OA
ENDBRANCH   8   9
ENDBRANCH   1   8
BRANCH   4  12
ATOM     12  N   UNL     1      44.815 131.176  22.272  1.00  0.00    -0.279 N 
ATOM     13  H   UNL     1      44.446 132.048  22.722  1.00  0.00     0.358 HD
ATOM     14  H   UNL     1      45.830 131.121  22.520  1.00  0.00     0.358 HD
BRANCH  12  15
ATOM     15  C   UNL     1      44.112 130.026  22.783  1.00  0.00     0.136 A 
ATOM     16  C   UNL     1      42.839 130.178  23.396  1.00  0.00     0.069 A 
ATOM     17  C   UNL     1      44.702 128.742  22.710  1.00  0.00     0.094 A 
ATOM     18  C   UNL     1      42.159 129.067  23.925  1.00  0.00     0.016 A 
ATOM     19  C   UNL     1      43.999 127.664  23.245  1.00  0.00     0.051 A 
ATOM     20  C   UNL     1      42.773 127.822  23.830  1.00  0.00    -0.000 A 
ATOM     21  N   UNL     1      44.381 126.376  23.276  1.00  0.00    -0.361 N 
ATOM     22  C   UNL     1      42.354 126.579  24.253  1.00  0.00     0.028 A 
ATOM     23  C   UNL     1      43.378 125.709  23.892  1.00  0.00     0.083 A 
ATOM     24  H   UNL     1      45.268 125.971  22.906  1.00  0.00     0.166 HD
ENDBRANCH  12  15
ENDBRANCH   4  12
TORSDOF 4
ENDMDL
MODEL 7
REMARK VINA RESULT:      -8.2      3.375      7.447
REMARK SMILES CC(=O)Oc1ccc([NH2+]c2ccc3cc[nH]c3c2)c(F)c1
REMARK SMILES IDX 5 1 6 2 7 3 8 4 19 5 20 6 21 7 4 8 2 9 1 10 3 11 9 12 10 15
REMARK SMILES IDX 11 16 18 17 12 18 17 19 13 20 16 21 14 22 15 23
REMARK H PARENT 9 13 9 14 16 24
ROOT
ATOM      1  C   UNL     1      45.103 130.423  16.151  1.00  0.00     0.134 A 
ATOM      2  C   UNL     1      46.051 130.313  17.174  1.00  0.00     0.053 A 
ATOM      3  C   UNL     1      45.818 130.894  18.422  1.00  0.00     0.075 A 
ATOM      4  C   UNL     1      44.618 131.582  18.677  1.00  0.00     0.170 A 
ATOM      5  C   UNL     1      43.657 131.678  17.652  1.00  0.00     0.187 A 
ATOM      6  F   UNL     1      42.483 132.324  17.866  1.00  0.00    -0.200 F 
ATOM      7  C   UNL     1      43.895 131.097  16.403  1.00  0.00     0.093 A 
ENDROOT
BRANCH   1   8
ATOM      8  O   UNL     1      45.381 129.815  14.917  1.00  0.00    -0.427 OA
BRANCH   8   9
ATOM      9  C   UNL     1      46.441 130.156  14.067  1.00  0.00     0.308 C 
ATOM     10  C   UNL     1      47.699 129.357  14.116  1.00  0.00     0.139 C 
ATOM     11  O   UNL     1      46.387 131.183  13.338  1.00  0.00    -0.252 OA
ENDBRANCH   8   9
ENDBRANCH   1   8
BRANCH   4  12
ATOM     12  N   UNL     1      44.399 132.207  19.960  1.00  0.00    -0.279 N 
ATOM     13  H   UNL     1      43.553 132.823  19.919  1.00  0.00     0.358 HD
ATOM     14  H   UNL     1      45.206 132.825  20.208  1.00  0.00     0.358 HD
BRANCH  12  15
ATOM     15  C   UNL     1      44.217 131.193  20.968  1.00  0.00     0.136 A 
ATOM     16  C   UNL     1      45.205 130.191  21.164  1.00  0.00     0.069 A 
ATOM     17  C   UNL     1      43.033 131.166  21.744  1.00  0.00     0.094 A 
ATOM     18  C   UNL     1      45.023 129.180  22.124  1.00  0.00     0.016 A 
ATOM     19  C   UNL     1      42.887 130.149  22.685  1.00  0.00     0.051 A 
ATOM     20  C   UNL     1      43.847 129.192  22.867  1.00  0.00    -0.000 A 
ATOM     21  N   UNL     1      41.849 129.948  23.514  1.00  0.00    -0.361 N 
ATOM     22  C   UNL     1      43.401 128.343  23.858  1.00  0.00     0.028 A 
ATOM     23  C   UNL     1      42.159 128.845  24.233  1.00  0.00     0.083 A 
ATOM     24  H   UNL     1      40.980 130.521  23.590  1.00  0.00     0.166 HD
ENDBRANCH  12  15
ENDBRANCH   4  12
TORSDOF 4
ENDMDL
MODEL 8
REMARK VINA RESULT:      -8.1      1.184      1.573
REMARK SMILES CC(=O)Oc1ccc([NH2+]c2ccc3cc[nH]c3c2)c(F)c1
REMARK SMILES IDX 5 1 6 2 7 3 8 4 19 5 20 6 21 7 4 8 2 9 1 10 3 11 9 12 10 15
REMARK SMILES IDX 11 16 18 17 12 18 17 19 13 20 16 21 14 22 15 23
REMARK H PARENT 9 13 9 14 16 24
ROOT
ATOM      1  C   UNL     1      43.280 131.661  20.503  1.00  0.00     0.134 A 
ATOM      2  C   UNL     1      42.104 131.577  19.750  1.00  0.00     0.053 A 
ATOM      3  C   UNL     1      42.142 131.696  18.359  1.00  0.00     0.075 A 
ATOM      4  C   UNL     1      43.365 131.884  17.691  1.00  0.00     0.170 A 
ATOM      5  C   UNL     1      44.551 131.953  18.448  1.00  0.00     0.187 A 
ATOM      6  F   UNL     1      45.750 132.122  17.836  1.00  0.00    -0.200 F 
ATOM      7  C   UNL     1      44.508 131.835  19.841  1.00  0.00     0.093 A 
ENDROOT
BRANCH   1   8
ATOM      8  O   UNL     1      43.191 131.527  21.897  1.00  0.00    -0.427 OA
BRANCH   8   9
ATOM      9  C   UNL     1      44.077 130.796  22.698  1.00  0.00     0.308 C 
ATOM     10  C   UNL     1      44.487 131.347  24.021  1.00  0.00     0.139 C 
ATOM     11  O   UNL     1      44.608 129.732  22.278  1.00  0.00    -0.252 OA
ENDBRANCH   8   9
ENDBRANCH   1   8
BRANCH   4  12
ATOM     12  N   UNL     1      43.391 132.038  16.256  1.00  0.00    -0.279 N 
ATOM     13  H   UNL     1      43.523 133.047  16.007  1.00  0.00     0.358 HD
ATOM     14  H   UNL     1      42.475 131.747  15.841  1.00  0.00     0.358 HD
BRANCH  12  15
ATOM     15  C   UNL     1      44.464 131.252  15.703  1.00  0.00     0.136 A 
ATOM     16  C   UNL     1      44.625 129.892  16.080  1.00  0.00     0.069 A 
ATOM     17  C   UNL     1      45.391 131.842  14.809  1.00  0.00     0.094 A 
ATOM     18  C   UNL     1      45.687 129.125  15.570  1.00  0.00     0.016 A 
ATOM     19  C   UNL     1      46.431 131.052  14.324  1.00  0.00     0.051 A 
ATOM     20  C   UNL     1      46.573 129.742  14.692  1.00  0.00    -0.000 A 
ATOM     21  N   UNL     1      47.405 131.418  13.475  1.00  0.00    -0.361 N 
ATOM     22  C   UNL     1      47.687 129.250  14.047  1.00  0.00     0.028 A 
ATOM     23  C   UNL     1      48.176 130.320  13.302  1.00  0.00     0.083 A 
ATOM     24  H   UNL     1      47.543 132.355  13.038  1.00  0.00     0.166 HD
ENDBRANCH  12  15
ENDBRANCH   4  12
TORSDOF 4
ENDMDL
MODEL 9
REMARK VINA RESULT:      -8.0      3.756      7.663
REMARK SMILES CC(=O)Oc1ccc([NH2+]c2ccc3cc[nH]c3c2)c(F)c1
REMARK SMILES IDX 5 1 6 2 7 3 8 4 19 5 20 6 21 7 4 8 2 9 1 10 3 11 9 12 10 15
REMARK SMILES IDX 11 16 18 17 12 18 17 19 13 20 16 21 14 22 15 23
REMARK H PARENT 9 13 9 14 16 24
ROOT
ATOM      1  C   UNL     1      44.158 131.490  18.043  1.00  0.00     0.134 A 
ATOM      2  C   UNL     1      43.088 131.880  18.855  1.00  0.00     0.053 A 
ATOM      3  C   UNL     1      43.210 131.863  20.247  1.00  0.00     0.075 A 
ATOM      4  C   UNL     1      44.417 131.471  20.853  1.00  0.00     0.170 A 
ATOM      5  C   UNL     1      45.500 131.093  20.035  1.00  0.00     0.187 A 
ATOM      6  F   UNL     1      46.682 130.720  20.585  1.00  0.00    -0.200 F 
ATOM      7  C   UNL     1      45.373 131.110  18.642  1.00  0.00     0.093 A 
ENDROOT
BRANCH   1   8
ATOM      8  O   UNL     1      43.989 131.532  16.651  1.00  0.00    -0.427 OA
BRANCH   8   9
ATOM      9  C   UNL     1      44.875 130.989  15.711  1.00  0.00     0.308 C 
ATOM     10  C   UNL     1      45.909 131.868  15.093  1.00  0.00     0.139 C 
ATOM     11  O   UNL     1      44.749 129.802  15.307  1.00  0.00    -0.252 OA
ENDBRANCH   8   9
ENDBRANCH   1   8
BRANCH   4  12
ATOM     12  N   UNL     1      44.524 131.425  22.292  1.00  0.00    -0.279 N 
ATOM     13  H   UNL     1      44.031 132.248  22.714  1.00  0.00     0.358 HD
ATOM     14  H   UNL     1      45.525 131.495  22.586  1.00  0.00     0.358 HD
BRANCH  12  15
ATOM     15  C   UNL     1      43.942 130.201  22.783  1.00  0.00     0.136 A 
ATOM     16  C   UNL     1      42.667 130.214  23.409  1.00  0.00     0.069 A 
ATOM     17  C   UNL     1      44.656 128.983  22.679  1.00  0.00     0.094 A 
ATOM     18  C   UNL     1      42.104 129.031  23.919  1.00  0.00     0.016 A 
ATOM     19  C   UNL     1      44.068 127.830  23.197  1.00  0.00     0.051 A 
ATOM     20  C   UNL     1      42.837 127.855  23.794  1.00  0.00    -0.000 A 
ATOM     21  N   UNL     1      44.575 126.587  23.198  1.00  0.00    -0.361 N 
ATOM     22  C   UNL     1      42.547 126.568  24.194  1.00  0.00     0.028 A 
ATOM     23  C   UNL     1      43.649 125.811  23.807  1.00  0.00     0.083 A 
ATOM     24  H   UNL     1      45.494 126.278  22.812  1.00  0.00     0.166 HD
ENDBRANCH  12  15
ENDBRANCH   4  12
TORSDOF 4
ENDMDL


