REMARK SMILES Cn1nnc2cc(/N=C(/O)c3cc(F)cn3/C(S)=N/[C@H]3CCCO3)ccc21
REMARK SMILES IDX 11 1 12 2 13 3 14 4 15 5 16 6 9 7 10 8 8 10 7 11 25 12 6 13
REMARK SMILES IDX 26 14 5 15 27 16 4 17 2 18 3 19 1 20 17 21 19 22 20 23 24 24
REMARK SMILES IDX 21 25 23 26 22 27 18 28
REMARK H PARENT 10 9 18 29
ROOT
ATOM      1  C   UNL     1       2.041  -1.671   1.375  1.00  0.00     0.113 A 
ATOM      2  C   UNL     1       2.498  -2.774   2.073  1.00  0.00     0.073 A 
ATOM      3  C   UNL     1       2.701  -3.756   1.129  1.00  0.00     0.142 A 
ATOM      4  F   UNL     1       3.147  -5.012   1.367  1.00  0.00    -0.205 F 
ATOM      5  C   UNL     1       2.381  -3.227  -0.101  1.00  0.00     0.133 A 
ATOM      6  N   UNL     1       1.986  -1.945   0.045  1.00  0.00    -0.289 N 
ENDROOT
BRANCH   1   7
ATOM      7  C   UNL     1       1.646  -0.398   2.025  1.00  0.00     0.236 C 
BRANCH   7   8
ATOM      8  O   UNL     1       2.543   0.218   2.892  1.00  0.00    -0.492 OA
ATOM      9  H   UNL     1       3.457  -0.181   3.076  1.00  0.00     0.295 HD
ENDBRANCH   7   8
BRANCH   7  10
ATOM     10  N   UNL     1       0.494   0.176   1.818  1.00  0.00    -0.212 NA
BRANCH  10  11
ATOM     11  C   UNL     1      -0.614  -0.334   1.058  1.00  0.00     0.069 A 
ATOM     12  C   UNL     1      -1.024  -1.696   1.157  1.00  0.00     0.031 A 
ATOM     13  C   UNL     1      -1.338   0.558   0.238  1.00  0.00     0.061 A 
ATOM     14  C   UNL     1      -2.106  -2.177   0.396  1.00  0.00     0.032 A 
ATOM     15  C   UNL     1      -2.399   0.043  -0.498  1.00  0.00     0.115 A 
ATOM     16  C   UNL     1      -2.762  -1.264  -0.425  1.00  0.00     0.089 A 
ATOM     17  N   UNL     1      -3.209   0.675  -1.367  1.00  0.00    -0.130 NA
ATOM     18  N   UNL     1      -3.803  -1.434  -1.253  1.00  0.00    -0.248 N 
ATOM     19  N   UNL     1      -4.055  -0.255  -1.812  1.00  0.00    -0.066 NA
ATOM     20  C   UNL     1      -4.533  -2.663  -1.531  1.00  0.00     0.176 C 
ENDBRANCH  10  11
ENDBRANCH   7  10
ENDBRANCH   1   7
BRANCH   6  21
ATOM     21  C   UNL     1       1.667  -1.051  -1.037  1.00  0.00     0.167 C 
BRANCH  21  22
ATOM     22  N   UNL     1       1.820   0.232  -0.878  1.00  0.00    -0.230 NA
BRANCH  22  23
ATOM     23  C   UNL     1       1.527   1.253  -1.883  1.00  0.00     0.237 C 
ATOM     24  O   UNL     1       2.454   1.153  -2.942  1.00  0.00    -0.356 OA
ATOM     25  C   UNL     1       1.638   2.631  -1.258  1.00  0.00     0.059 C 
ATOM     26  C   UNL     1       3.311   2.271  -2.874  1.00  0.00     0.163 C 
ATOM     27  C   UNL     1       3.032   3.046  -1.603  1.00  0.00     0.033 C 
ENDBRANCH  22  23
ENDBRANCH  21  22
BRANCH  21  28
ATOM     28  S   UNL     1       1.062  -1.727  -2.595  1.00  0.00    -0.105 SA
ATOM     29  H   UNL     1      -0.276  -1.650  -2.168  1.00  0.00     0.111 HD
ENDBRANCH  21  28
ENDBRANCH   6  21
TORSDOF 8


