REMARK SMILES NN(C(=O)CCc1ccco1)c1ccc2cc3ccccc3cc2c1
REMARK SMILES IDX 3 1 4 2 2 3 1 4 12 7 13 8 25 9 14 10 24 11 15 12 23 13 16 14
REMARK SMILES IDX 22 15 17 16 21 17 18 18 20 19 19 20 5 21 6 22 7 23 8 24
REMARK SMILES IDX 11 25 9 26 10 27
REMARK H PARENT 1 5 1 6
ROOT
ATOM      1  C   UNL     1      -1.304  -2.977  -1.874  1.00  0.00     0.241 C 
ATOM      2  O   UNL     1      -1.377  -4.217  -1.654  1.00  0.00    -0.273 OA
ENDROOT
BRANCH   1   3
ATOM      3  N   UNL     1      -2.517  -2.215  -2.045  1.00  0.00    -0.248 N 
BRANCH   3   4
ATOM      4  N   UNL     1      -3.671  -2.852  -2.537  1.00  0.00    -0.241 NA
ATOM      5  H   UNL     1      -3.979  -3.550  -1.822  1.00  0.00     0.144 HD
ATOM      6  H   UNL     1      -3.408  -3.374  -3.404  1.00  0.00     0.144 HD
ENDBRANCH   3   4
BRANCH   3   7
ATOM      7  C   UNL     1      -2.617  -0.837  -1.641  1.00  0.00     0.061 A 
ATOM      8  C   UNL     1      -3.354   0.069  -2.419  1.00  0.00     0.028 A 
ATOM      9  C   UNL     1      -2.016  -0.392  -0.451  1.00  0.00     0.036 A 
ATOM     10  C   UNL     1      -3.469   1.407  -2.034  1.00  0.00     0.011 A 
ATOM     11  C   UNL     1      -2.124   0.951  -0.056  1.00  0.00    -0.016 A 
ATOM     12  C   UNL     1      -2.857   1.859  -0.857  1.00  0.00    -0.018 A 
ATOM     13  C   UNL     1      -1.514   1.397   1.125  1.00  0.00     0.017 A 
ATOM     14  C   UNL     1      -2.967   3.202  -0.467  1.00  0.00     0.017 A 
ATOM     15  C   UNL     1      -1.624   2.740   1.516  1.00  0.00    -0.018 A 
ATOM     16  C   UNL     1      -2.356   3.649   0.713  1.00  0.00    -0.018 A 
ATOM     17  C   UNL     1      -1.014   3.192   2.696  1.00  0.00     0.009 A 
ATOM     18  C   UNL     1      -2.463   4.992   1.108  1.00  0.00     0.009 A 
ATOM     19  C   UNL     1      -1.129   4.532   3.078  1.00  0.00     0.001 A 
ATOM     20  C   UNL     1      -1.851   5.429   2.286  1.00  0.00     0.001 A 
ENDBRANCH   3   7
ENDBRANCH   1   3
BRANCH   1  21
ATOM     21  C   UNL     1       0.055  -2.340  -2.002  1.00  0.00     0.110 C 
BRANCH  21  22
ATOM     22  C   UNL     1       0.831  -2.945  -3.174  1.00  0.00     0.085 C 
BRANCH  22  23
ATOM     23  C   UNL     1       2.165  -2.282  -3.314  1.00  0.00     0.104 A 
ATOM     24  C   UNL     1       3.325  -2.656  -2.665  1.00  0.00     0.045 A 
ATOM     25  O   UNL     1       2.385  -1.222  -4.056  1.00  0.00    -0.469 OA
ATOM     26  C   UNL     1       4.282  -1.750  -3.070  1.00  0.00     0.042 A 
ATOM     27  C   UNL     1       3.647  -0.881  -3.933  1.00  0.00     0.195 A 
ENDBRANCH  22  23
ENDBRANCH  21  22
ENDBRANCH   1  21
TORSDOF 6


