MODEL 1
REMARK VINA RESULT:      -5.6      0.000      0.000
REMARK SMILES C[C@H]1CC[C@H](C(=O)N(c2cn3ccccc3n2)c2cc3cccc(F)c3[n-]2)S1
REMARK SMILES IDX 6 1 7 2 5 3 2 4 3 5 28 6 4 7 1 8 8 9 9 10 10 11 17 12 11 13
REMARK SMILES IDX 16 14 12 15 15 16 13 17 14 18 18 19 19 20 27 21 20 22 26 23
REMARK SMILES IDX 21 24 24 25 22 26 23 27 25 28
REMARK H PARENT
ROOT
ATOM      1  C   UNL     1      44.354 124.991  23.443  1.00  0.00     0.165 C 
ATOM      2  O   UNL     1      44.439 124.556  24.625  1.00  0.00    -0.297 OA
ENDROOT
BRANCH   1   3
ATOM      3  C   UNL     1      43.199 124.551  22.579  1.00  0.00     0.115 C 
ATOM      4  C   UNL     1      40.964 123.198  22.913  1.00  0.00     0.044 C 
ATOM      5  C   UNL     1      41.891 122.633  21.841  1.00  0.00     0.016 C 
ATOM      6  S   UNL     1      41.617 124.817  23.443  1.00  0.00    -0.148 SA
ATOM      7  C   UNL     1      43.295 123.076  22.201  1.00  0.00     0.023 C 
ATOM      8  C   UNL     1      39.530 123.339  22.412  1.00  0.00     0.019 C 
ENDBRANCH   1   3
BRANCH   1   9
ATOM      9  N   UNL     1      45.363 125.891  22.944  1.00  0.00    -0.370 N 
BRANCH   9  10
ATOM     10  C   UNL     1      46.638 125.377  22.515  1.00  0.00     0.076 A 
ATOM     11  C   UNL     1      46.832 124.369  21.582  1.00  0.00     0.117 A 
ATOM     12  N   UNL     1      47.827 125.862  22.954  1.00  0.00    -0.233 NA
ATOM     13  N   UNL     1      48.157 124.224  21.448  1.00  0.00    -0.307 N 
ATOM     14  C   UNL     1      48.724 125.121  22.273  1.00  0.00     0.136 A 
ATOM     15  C   UNL     1      48.865 123.378  20.658  1.00  0.00     0.093 A 
ATOM     16  C   UNL     1      50.110 125.231  22.364  1.00  0.00     0.048 A 
ATOM     17  C   UNL     1      50.265 123.443  20.709  1.00  0.00     0.018 A 
ATOM     18  C   UNL     1      50.886 124.373  21.566  1.00  0.00     0.005 A 
ENDBRANCH   9  10
BRANCH   9  19
ATOM     19  C   UNL     1      45.062 127.296  22.836  1.00  0.00    -0.049 A 
ATOM     20  C   UNL     1      44.484 128.072  23.840  1.00  0.00     0.008 A 
ATOM     21  N   UNL     1      45.351 128.026  21.729  1.00  0.00    -0.433 NA
ATOM     22  C   UNL     1      44.415 129.333  23.302  1.00  0.00    -0.020 A 
ATOM     23  C   UNL     1      44.941 129.271  22.038  1.00  0.00     0.002 A 
ATOM     24  C   UNL     1      43.933 130.524  23.843  1.00  0.00     0.008 A 
ATOM     25  C   UNL     1      45.018 130.402  21.226  1.00  0.00     0.127 A 
ATOM     26  C   UNL     1      43.997 131.680  23.045  1.00  0.00     0.004 A 
ATOM     27  C   UNL     1      44.537 131.620  21.741  1.00  0.00     0.039 A 
ATOM     28  F   UNL     1      45.541 130.332  19.977  1.00  0.00    -0.207 F 
ENDBRANCH   9  19
ENDBRANCH   1   9
TORSDOF 4
ENDMDL
MODEL 2
REMARK VINA RESULT:      -3.7      1.970      6.018
REMARK SMILES C[C@H]1CC[C@H](C(=O)N(c2cn3ccccc3n2)c2cc3cccc(F)c3[n-]2)S1
REMARK SMILES IDX 6 1 7 2 5 3 2 4 3 5 28 6 4 7 1 8 8 9 9 10 10 11 17 12 11 13
REMARK SMILES IDX 16 14 12 15 15 16 13 17 14 18 18 19 19 20 27 21 20 22 26 23
REMARK SMILES IDX 21 24 24 25 22 26 23 27 25 28
REMARK H PARENT
ROOT
ATOM      1  C   UNL     1      44.635 124.191  22.871  1.00  0.00     0.165 C 
ATOM      2  O   UNL     1      45.023 123.042  22.521  1.00  0.00    -0.297 OA
ENDROOT
BRANCH   1   3
ATOM      3  C   UNL     1      43.236 124.364  23.405  1.00  0.00     0.115 C 
ATOM      4  C   UNL     1      40.813 123.598  22.710  1.00  0.00     0.044 C 
ATOM      5  C   UNL     1      40.981 125.108  22.858  1.00  0.00     0.016 C 
ATOM      6  S   UNL     1      42.325 122.787  23.331  1.00  0.00    -0.148 SA
ATOM      7  C   UNL     1      42.448 125.408  22.620  1.00  0.00     0.023 C 
ATOM      8  C   UNL     1      39.586 123.084  23.458  1.00  0.00     0.019 C 
ENDBRANCH   1   3
BRANCH   1   9
ATOM      9  N   UNL     1      45.533 125.311  22.747  1.00  0.00    -0.370 N 
BRANCH   9  10
ATOM     10  C   UNL     1      45.046 126.651  22.948  1.00  0.00     0.076 A 
ATOM     11  C   UNL     1      45.201 127.710  22.065  1.00  0.00     0.117 A 
ATOM     12  N   UNL     1      44.325 127.032  24.033  1.00  0.00    -0.233 NA
ATOM     13  N   UNL     1      44.574 128.759  22.614  1.00  0.00    -0.307 N 
ATOM     14  C   UNL     1      44.064 128.330  23.781  1.00  0.00     0.136 A 
ATOM     15  C   UNL     1      44.427 130.026  22.152  1.00  0.00     0.093 A 
ATOM     16  C   UNL     1      43.337 129.189  24.602  1.00  0.00     0.048 A 
ATOM     17  C   UNL     1      43.705 130.937  22.937  1.00  0.00     0.018 A 
ATOM     18  C   UNL     1      43.161 130.514  24.166  1.00  0.00     0.005 A 
ENDBRANCH   9  10
BRANCH   9  19
ATOM     19  C   UNL     1      46.926 125.069  22.466  1.00  0.00    -0.049 A 
ATOM     20  C   UNL     1      47.992 125.541  23.231  1.00  0.00     0.008 A 
ATOM     21  N   UNL     1      47.344 124.309  21.423  1.00  0.00    -0.433 NA
ATOM     22  C   UNL     1      49.109 125.045  22.606  1.00  0.00    -0.020 A 
ATOM     23  C   UNL     1      48.686 124.313  21.528  1.00  0.00     0.002 A 
ATOM     24  C   UNL     1      50.460 125.184  22.921  1.00  0.00     0.008 A 
ATOM     25  C   UNL     1      49.592 123.669  20.686  1.00  0.00     0.127 A 
ATOM     26  C   UNL     1      51.396 124.546  22.087  1.00  0.00     0.004 A 
ATOM     27  C   UNL     1      50.964 123.792  20.973  1.00  0.00     0.039 A 
ATOM     28  F   UNL     1      49.166 122.946  19.622  1.00  0.00    -0.207 F 
ENDBRANCH   9  19
ENDBRANCH   1   9
TORSDOF 4
ENDMDL
MODEL 3
REMARK VINA RESULT:      -2.7      5.310      7.667
REMARK SMILES C[C@H]1CC[C@H](C(=O)N(c2cn3ccccc3n2)c2cc3cccc(F)c3[n-]2)S1
REMARK SMILES IDX 6 1 7 2 5 3 2 4 3 5 28 6 4 7 1 8 8 9 9 10 10 11 17 12 11 13
REMARK SMILES IDX 16 14 12 15 15 16 13 17 14 18 18 19 19 20 27 21 20 22 26 23
REMARK SMILES IDX 21 24 24 25 22 26 23 27 25 28
REMARK H PARENT
ROOT
ATOM      1  C   UNL     1      44.879 131.898  22.606  1.00  0.00     0.165 C 
ATOM      2  O   UNL     1      44.879 132.529  23.699  1.00  0.00    -0.297 OA
ENDROOT
BRANCH   1   3
ATOM      3  C   UNL     1      44.010 130.674  22.463  1.00  0.00     0.115 C 
ATOM      4  C   UNL     1      42.698 129.059  24.077  1.00  0.00     0.044 C 
ATOM      5  C   UNL     1      43.707 128.362  23.169  1.00  0.00     0.016 C 
ATOM      6  S   UNL     1      42.550 130.798  23.546  1.00  0.00    -0.148 SA
ATOM      7  C   UNL     1      44.761 129.394  22.816  1.00  0.00     0.023 C 
ATOM      8  C   UNL     1      41.335 128.373  24.047  1.00  0.00     0.019 C 
ENDBRANCH   1   3
BRANCH   1   9
ATOM      9  N   UNL     1      45.713 132.355  21.523  1.00  0.00    -0.370 N 
BRANCH   9  10
ATOM     10  C   UNL     1      46.807 133.255  21.786  1.00  0.00     0.076 A 
ATOM     11  C   UNL     1      47.771 133.090  22.770  1.00  0.00     0.117 A 
ATOM     12  N   UNL     1      47.050 134.372  21.056  1.00  0.00    -0.233 NA
ATOM     13  N   UNL     1      48.617 134.122  22.650  1.00  0.00    -0.307 N 
ATOM     14  C   UNL     1      48.166 134.868  21.627  1.00  0.00     0.136 A 
ATOM     15  C   UNL     1      49.729 134.424  23.366  1.00  0.00     0.093 A 
ATOM     16  C   UNL     1      48.837 136.025  21.237  1.00  0.00     0.048 A 
ATOM     17  C   UNL     1      50.444 135.580  23.020  1.00  0.00     0.018 A 
ATOM     18  C   UNL     1      49.994 136.380  21.951  1.00  0.00     0.005 A 
ENDBRANCH   9  10
BRANCH   9  19
ATOM     19  C   UNL     1      45.468 131.865  20.191  1.00  0.00    -0.049 A 
ATOM     20  C   UNL     1      46.264 130.938  19.518  1.00  0.00     0.008 A 
ATOM     21  N   UNL     1      44.391 132.241  19.455  1.00  0.00    -0.433 NA
ATOM     22  C   UNL     1      45.634 130.758  18.311  1.00  0.00    -0.020 A 
ATOM     23  C   UNL     1      44.518 131.552  18.306  1.00  0.00     0.002 A 
ATOM     24  C   UNL     1      45.968 129.945  17.229  1.00  0.00     0.008 A 
ATOM     25  C   UNL     1      43.657 131.588  17.210  1.00  0.00     0.127 A 
ATOM     26  C   UNL     1      45.116 129.963  16.109  1.00  0.00     0.004 A 
ATOM     27  C   UNL     1      43.965 130.782  16.099  1.00  0.00     0.039 A 
ATOM     28  F   UNL     1      42.553 132.376  17.213  1.00  0.00    -0.207 F 
ENDBRANCH   9  19
ENDBRANCH   1   9
TORSDOF 4
ENDMDL


