MODEL 1
REMARK VINA RESULT:      -9.0      0.000      0.000
REMARK SMILES NC(=O)c1ccc(C2CC2)c(F)c1CCC(=O)c1ccccc1
REMARK SMILES IDX 14 1 13 2 4 3 5 4 6 5 11 6 7 7 12 8 2 9 1 10 3 13 8 14 9 15
REMARK SMILES IDX 10 16 15 17 16 18 17 19 18 20 19 21 23 22 20 23 22 24 21 25
REMARK H PARENT 1 11 1 12
ROOT
ATOM      1  C   UNL     1      45.103 131.739  19.097  1.00  0.00     0.047 C 
ENDROOT
BRANCH   1   2
ATOM      2  C   UNL     1      44.319 131.181  20.272  1.00  0.00     0.001 A 
ATOM      3  C   UNL     1      43.013 131.636  20.609  1.00  0.00     0.045 A 
ATOM      4  C   UNL     1      42.411 131.181  21.791  1.00  0.00     0.014 A 
ATOM      5  C   UNL     1      43.070 130.287  22.632  1.00  0.00     0.008 A 
ATOM      6  C   UNL     1      44.964 130.259  21.125  1.00  0.00     0.130 A 
ATOM      7  C   UNL     1      44.355 129.837  22.318  1.00  0.00    -0.009 A 
ATOM      8  F   UNL     1      46.204 129.799  20.811  1.00  0.00    -0.206 F 
BRANCH   3   9
ATOM      9  C   UNL     1      42.238 132.565  19.755  1.00  0.00     0.249 C 
ATOM     10  N   UNL     1      41.663 133.748  20.310  1.00  0.00    -0.366 N 
ATOM     11  H   UNL     1      41.099 134.389  19.709  1.00  0.00     0.159 HD
ATOM     12  H   UNL     1      41.808 133.996  21.313  1.00  0.00     0.159 HD
ATOM     13  O   UNL     1      42.026 132.286  18.545  1.00  0.00    -0.270 OA
ENDBRANCH   3   9
BRANCH   7  14
ATOM     14  C   UNL     1      45.047 128.847  23.219  1.00  0.00     0.022 C 
ATOM     15  C   UNL     1      44.503 127.424  23.164  1.00  0.00     0.009 C 
ATOM     16  C   UNL     1      44.192 128.305  24.358  1.00  0.00     0.009 C 
ENDBRANCH   7  14
ENDBRANCH   1   2
BRANCH   1  17
ATOM     17  C   UNL     1      45.545 130.641  18.117  1.00  0.00     0.086 C 
BRANCH  17  18
ATOM     18  C   UNL     1      45.218 130.993  16.686  1.00  0.00     0.163 C 
ATOM     19  O   UNL     1      44.146 131.623  16.471  1.00  0.00    -0.294 OA
BRANCH  18  20
ATOM     20  C   UNL     1      46.125 130.694  15.538  1.00  0.00     0.017 A 
ATOM     21  C   UNL     1      46.669 129.410  15.323  1.00  0.00     0.012 A 
ATOM     22  C   UNL     1      46.472 131.725  14.642  1.00  0.00     0.012 A 
ATOM     23  C   UNL     1      47.550 129.177  14.264  1.00  0.00     0.001 A 
ATOM     24  C   UNL     1      47.352 131.485  13.583  1.00  0.00     0.001 A 
ATOM     25  C   UNL     1      47.895 130.214  13.398  1.00  0.00     0.000 A 
ENDBRANCH  18  20
ENDBRANCH  17  18
ENDBRANCH   1  17
TORSDOF 6
ENDMDL
MODEL 2
REMARK VINA RESULT:      -8.2      1.058      1.059
REMARK SMILES NC(=O)c1ccc(C2CC2)c(F)c1CCC(=O)c1ccccc1
REMARK SMILES IDX 14 1 13 2 4 3 5 4 6 5 11 6 7 7 12 8 2 9 1 10 3 13 8 14 9 15
REMARK SMILES IDX 10 16 15 17 16 18 17 19 18 20 19 21 23 22 20 23 22 24 21 25
REMARK H PARENT 1 11 1 12
ROOT
ATOM      1  C   UNL     1      45.027 132.058  19.135  1.00  0.00     0.047 C 
ENDROOT
BRANCH   1   2
ATOM      2  C   UNL     1      44.253 131.411  20.270  1.00  0.00     0.001 A 
ATOM      3  C   UNL     1      42.935 131.813  20.627  1.00  0.00     0.045 A 
ATOM      4  C   UNL     1      42.340 131.273  21.777  1.00  0.00     0.014 A 
ATOM      5  C   UNL     1      43.018 130.345  22.565  1.00  0.00     0.008 A 
ATOM      6  C   UNL     1      44.917 130.455  21.069  1.00  0.00     0.130 A 
ATOM      7  C   UNL     1      44.315 129.946  22.230  1.00  0.00    -0.009 A 
ATOM      8  F   UNL     1      46.169 130.045  20.734  1.00  0.00    -0.206 F 
BRANCH   3   9
ATOM      9  C   UNL     1      42.141 132.772  19.827  1.00  0.00     0.249 C 
ATOM     10  N   UNL     1      41.703 132.428  18.511  1.00  0.00    -0.366 N 
ATOM     11  H   UNL     1      41.161 133.115  17.942  1.00  0.00     0.159 HD
ATOM     12  H   UNL     1      41.904 131.486  18.108  1.00  0.00     0.159 HD
ATOM     13  O   UNL     1      41.899 133.924  20.274  1.00  0.00    -0.270 OA
ENDBRANCH   3   9
BRANCH   7  14
ATOM     14  C   UNL     1      45.027 128.921  23.074  1.00  0.00     0.022 C 
ATOM     15  C   UNL     1      44.744 127.467  22.711  1.00  0.00     0.009 C 
ATOM     16  C   UNL     1      44.122 128.070  23.956  1.00  0.00     0.009 C 
ENDBRANCH   7  14
ENDBRANCH   1   2
BRANCH   1  17
ATOM     17  C   UNL     1      44.638 131.485  17.762  1.00  0.00     0.086 C 
BRANCH  17  18
ATOM     18  C   UNL     1      45.645 130.478  17.262  1.00  0.00     0.163 C 
ATOM     19  O   UNL     1      45.925 129.508  18.019  1.00  0.00    -0.294 OA
BRANCH  18  20
ATOM     20  C   UNL     1      46.264 130.541  15.905  1.00  0.00     0.017 A 
ATOM     21  C   UNL     1      46.885 129.422  15.309  1.00  0.00     0.012 A 
ATOM     22  C   UNL     1      46.251 131.756  15.191  1.00  0.00     0.012 A 
ATOM     23  C   UNL     1      47.495 129.529  14.056  1.00  0.00     0.001 A 
ATOM     24  C   UNL     1      46.860 131.855  13.937  1.00  0.00     0.001 A 
ATOM     25  C   UNL     1      47.487 130.744  13.373  1.00  0.00     0.000 A 
ENDBRANCH  18  20
ENDBRANCH  17  18
ENDBRANCH   1  17
TORSDOF 6
ENDMDL
MODEL 3
REMARK VINA RESULT:      -7.7      1.477      1.711
REMARK SMILES NC(=O)c1ccc(C2CC2)c(F)c1CCC(=O)c1ccccc1
REMARK SMILES IDX 14 1 13 2 4 3 5 4 6 5 11 6 7 7 12 8 2 9 1 10 3 13 8 14 9 15
REMARK SMILES IDX 10 16 15 17 16 18 17 19 18 20 19 21 23 22 20 23 22 24 21 25
REMARK H PARENT 1 11 1 12
ROOT
ATOM      1  C   UNL     1      45.599 131.345  18.124  1.00  0.00     0.047 C 
ENDROOT
BRANCH   1   2
ATOM      2  C   UNL     1      44.619 131.274  19.282  1.00  0.00     0.001 A 
ATOM      3  C   UNL     1      43.265 131.697  19.169  1.00  0.00     0.045 A 
ATOM      4  C   UNL     1      42.460 131.739  20.317  1.00  0.00     0.014 A 
ATOM      5  C   UNL     1      42.966 131.366  21.560  1.00  0.00     0.008 A 
ATOM      6  C   UNL     1      45.109 130.880  20.546  1.00  0.00     0.130 A 
ATOM      7  C   UNL     1      44.296 130.955  21.688  1.00  0.00    -0.009 A 
ATOM      8  F   UNL     1      46.395 130.456  20.672  1.00  0.00    -0.206 F 
BRANCH   3   9
ATOM      9  C   UNL     1      42.646 132.083  17.880  1.00  0.00     0.249 C 
ATOM     10  N   UNL     1      43.305 131.792  16.646  1.00  0.00    -0.366 N 
ATOM     11  H   UNL     1      42.877 132.084  15.741  1.00  0.00     0.159 HD
ATOM     12  H   UNL     1      44.211 131.273  16.631  1.00  0.00     0.159 HD
ATOM     13  O   UNL     1      41.565 132.727  17.863  1.00  0.00    -0.270 OA
ENDBRANCH   3   9
BRANCH   7  14
ATOM     14  C   UNL     1      44.824 130.526  23.032  1.00  0.00     0.022 C 
ATOM     15  C   UNL     1      43.922 129.579  23.816  1.00  0.00     0.009 C 
ATOM     16  C   UNL     1      44.030 131.034  24.229  1.00  0.00     0.009 C 
ENDBRANCH   7  14
ENDBRANCH   1   2
BRANCH   1  17
ATOM     17  C   UNL     1      46.100 129.956  17.698  1.00  0.00     0.086 C 
BRANCH  17  18
ATOM     18  C   UNL     1      45.704 129.621  16.281  1.00  0.00     0.163 C 
ATOM     19  O   UNL     1      44.582 129.072  16.103  1.00  0.00    -0.294 OA
BRANCH  18  20
ATOM     20  C   UNL     1      46.537 129.967  15.091  1.00  0.00     0.017 A 
ATOM     21  C   UNL     1      47.505 129.083  14.567  1.00  0.00     0.012 A 
ATOM     22  C   UNL     1      46.375 131.223  14.471  1.00  0.00     0.012 A 
ATOM     23  C   UNL     1      48.299 129.459  13.480  1.00  0.00     0.001 A 
ATOM     24  C   UNL     1      47.169 131.591  13.382  1.00  0.00     0.001 A 
ATOM     25  C   UNL     1      48.135 130.712  12.891  1.00  0.00     0.000 A 
ENDBRANCH  18  20
ENDBRANCH  17  18
ENDBRANCH   1  17
TORSDOF 6
ENDMDL
MODEL 4
REMARK VINA RESULT:      -7.5      0.963      1.424
REMARK SMILES NC(=O)c1ccc(C2CC2)c(F)c1CCC(=O)c1ccccc1
REMARK SMILES IDX 14 1 13 2 4 3 5 4 6 5 11 6 7 7 12 8 2 9 1 10 3 13 8 14 9 15
REMARK SMILES IDX 10 16 15 17 16 18 17 19 18 20 19 21 23 22 20 23 22 24 21 25
REMARK H PARENT 1 11 1 12
ROOT
ATOM      1  C   UNL     1      44.734 132.005  19.489  1.00  0.00     0.047 C 
ENDROOT
BRANCH   1   2
ATOM      2  C   UNL     1      44.000 131.443  20.693  1.00  0.00     0.001 A 
ATOM      3  C   UNL     1      42.716 131.908  21.095  1.00  0.00     0.045 A 
ATOM      4  C   UNL     1      42.165 131.447  22.300  1.00  0.00     0.014 A 
ATOM      5  C   UNL     1      42.853 130.538  23.101  1.00  0.00     0.008 A 
ATOM      6  C   UNL     1      44.675 130.508  21.507  1.00  0.00     0.130 A 
ATOM      7  C   UNL     1      44.119 130.079  22.723  1.00  0.00    -0.009 A 
ATOM      8  F   UNL     1      45.895 130.040  21.132  1.00  0.00    -0.206 F 
BRANCH   3   9
ATOM      9  C   UNL     1      41.911 132.851  20.286  1.00  0.00     0.249 C 
ATOM     10  N   UNL     1      40.916 133.668  20.906  1.00  0.00    -0.366 N 
ATOM     11  H   UNL     1      40.335 134.316  20.329  1.00  0.00     0.159 HD
ATOM     12  H   UNL     1      40.765 133.640  21.939  1.00  0.00     0.159 HD
ATOM     13  O   UNL     1      42.053 132.895  19.036  1.00  0.00    -0.270 OA
ENDBRANCH   3   9
BRANCH   7  14
ATOM     14  C   UNL     1      44.842 129.075  23.582  1.00  0.00     0.022 C 
ATOM     15  C   UNL     1      44.569 127.613  23.246  1.00  0.00     0.009 C 
ATOM     16  C   UNL     1      43.946 128.232  24.482  1.00  0.00     0.009 C 
ENDBRANCH   7  14
ENDBRANCH   1   2
BRANCH   1  17
ATOM     17  C   UNL     1      44.396 131.248  18.195  1.00  0.00     0.086 C 
BRANCH  17  18
ATOM     18  C   UNL     1      45.583 130.482  17.660  1.00  0.00     0.163 C 
ATOM     19  O   UNL     1      46.112 129.624  18.419  1.00  0.00    -0.294 OA
BRANCH  18  20
ATOM     20  C   UNL     1      46.107 130.644  16.272  1.00  0.00     0.017 A 
ATOM     21  C   UNL     1      46.121 131.892  15.613  1.00  0.00     0.012 A 
ATOM     22  C   UNL     1      46.592 129.517  15.577  1.00  0.00     0.012 A 
ATOM     23  C   UNL     1      46.577 131.998  14.297  1.00  0.00     0.001 A 
ATOM     24  C   UNL     1      47.050 129.631  14.262  1.00  0.00     0.001 A 
ATOM     25  C   UNL     1      47.037 130.869  13.620  1.00  0.00     0.000 A 
ENDBRANCH  18  20
ENDBRANCH  17  18
ENDBRANCH   1  17
TORSDOF 6
ENDMDL
MODEL 5
REMARK VINA RESULT:      -7.1      1.041      1.083
REMARK SMILES NC(=O)c1ccc(C2CC2)c(F)c1CCC(=O)c1ccccc1
REMARK SMILES IDX 14 1 13 2 4 3 5 4 6 5 11 6 7 7 12 8 2 9 1 10 3 13 8 14 9 15
REMARK SMILES IDX 10 16 15 17 16 18 17 19 18 20 19 21 23 22 20 23 22 24 21 25
REMARK H PARENT 1 11 1 12
ROOT
ATOM      1  C   UNL     1      44.160 131.713  18.236  1.00  0.00     0.047 C 
ENDROOT
BRANCH   1   2
ATOM      2  C   UNL     1      43.928 131.214  19.651  1.00  0.00     0.001 A 
ATOM      3  C   UNL     1      42.944 131.776  20.512  1.00  0.00     0.045 A 
ATOM      4  C   UNL     1      42.887 131.363  21.852  1.00  0.00     0.014 A 
ATOM      5  C   UNL     1      43.773 130.408  22.345  1.00  0.00     0.008 A 
ATOM      6  C   UNL     1      44.805 130.233  20.163  1.00  0.00     0.130 A 
ATOM      7  C   UNL     1      44.749 129.853  21.513  1.00  0.00    -0.009 A 
ATOM      8  F   UNL     1      45.740 129.672  19.352  1.00  0.00    -0.206 F 
BRANCH   3   9
ATOM      9  C   UNL     1      41.950 132.774  20.056  1.00  0.00     0.249 C 
ATOM     10  N   UNL     1      41.765 133.026  18.663  1.00  0.00    -0.366 N 
ATOM     11  H   UNL     1      41.079 133.746  18.345  1.00  0.00     0.159 HD
ATOM     12  H   UNL     1      42.298 132.487  17.944  1.00  0.00     0.159 HD
ATOM     13  O   UNL     1      41.305 133.456  20.896  1.00  0.00    -0.270 OA
ENDBRANCH   3   9
BRANCH   7  14
ATOM     14  C   UNL     1      45.684 128.800  22.050  1.00  0.00     0.022 C 
ATOM     15  C   UNL     1      45.139 127.376  22.036  1.00  0.00     0.009 C 
ATOM     16  C   UNL     1      45.232 128.136  23.345  1.00  0.00     0.009 C 
ENDBRANCH   7  14
ENDBRANCH   1   2
BRANCH   1  17
ATOM     17  C   UNL     1      45.200 130.869  17.483  1.00  0.00     0.086 C 
BRANCH  17  18
ATOM     18  C   UNL     1      45.106 131.057  15.988  1.00  0.00     0.163 C 
ATOM     19  O   UNL     1      44.079 131.633  15.536  1.00  0.00    -0.294 OA
BRANCH  18  20
ATOM     20  C   UNL     1      46.189 130.658  15.041  1.00  0.00     0.017 A 
ATOM     21  C   UNL     1      46.826 129.401  15.112  1.00  0.00     0.012 A 
ATOM     22  C   UNL     1      46.612 131.565  14.048  1.00  0.00     0.012 A 
ATOM     23  C   UNL     1      47.868 129.079  14.237  1.00  0.00     0.001 A 
ATOM     24  C   UNL     1      47.652 131.236  13.175  1.00  0.00     0.001 A 
ATOM     25  C   UNL     1      48.283 129.996  13.273  1.00  0.00     0.000 A 
ENDBRANCH  18  20
ENDBRANCH  17  18
ENDBRANCH   1  17
TORSDOF 6
ENDMDL
MODEL 6
REMARK VINA RESULT:      -6.8      1.892      6.983
REMARK SMILES NC(=O)c1ccc(C2CC2)c(F)c1CCC(=O)c1ccccc1
REMARK SMILES IDX 14 1 13 2 4 3 5 4 6 5 11 6 7 7 12 8 2 9 1 10 3 13 8 14 9 15
REMARK SMILES IDX 10 16 15 17 16 18 17 19 18 20 19 21 23 22 20 23 22 24 21 25
REMARK H PARENT 1 11 1 12
ROOT
ATOM      1  C   UNL     1      45.335 130.119  19.087  1.00  0.00     0.047 C 
ENDROOT
BRANCH   1   2
ATOM      2  C   UNL     1      45.044 130.645  17.693  1.00  0.00     0.001 A 
ATOM      3  C   UNL     1      43.907 131.450  17.397  1.00  0.00     0.045 A 
ATOM      4  C   UNL     1      43.625 131.776  16.062  1.00  0.00     0.014 A 
ATOM      5  C   UNL     1      44.444 131.330  15.028  1.00  0.00     0.008 A 
ATOM      6  C   UNL     1      45.874 130.219  16.634  1.00  0.00     0.130 A 
ATOM      7  C   UNL     1      45.560 130.532  15.302  1.00  0.00    -0.009 A 
ATOM      8  F   UNL     1      46.974 129.464  16.898  1.00  0.00    -0.206 F 
BRANCH   3   9
ATOM      9  C   UNL     1      43.005 131.985  18.442  1.00  0.00     0.249 C 
ATOM     10  N   UNL     1      41.615 131.655  18.435  1.00  0.00    -0.366 N 
ATOM     11  H   UNL     1      40.978 132.051  19.161  1.00  0.00     0.159 HD
ATOM     12  H   UNL     1      41.221 131.006  17.718  1.00  0.00     0.159 HD
ATOM     13  O   UNL     1      43.444 132.786  19.309  1.00  0.00    -0.270 OA
ENDBRANCH   3   9
BRANCH   7  14
ATOM     14  C   UNL     1      46.455 130.080  14.178  1.00  0.00     0.022 C 
ATOM     15  C   UNL     1      47.747 130.872  14.013  1.00  0.00     0.009 C 
ATOM     16  C   UNL     1      46.607 131.074  13.034  1.00  0.00     0.009 C 
ENDBRANCH   7  14
ENDBRANCH   1   2
BRANCH   1  17
ATOM     17  C   UNL     1      46.333 131.005  19.848  1.00  0.00     0.086 C 
BRANCH  17  18
ATOM     18  C   UNL     1      45.731 131.591  21.102  1.00  0.00     0.163 C 
ATOM     19  O   UNL     1      46.086 132.756  21.431  1.00  0.00    -0.294 OA
BRANCH  18  20
ATOM     20  C   UNL     1      44.697 130.891  21.922  1.00  0.00     0.017 A 
ATOM     21  C   UNL     1      43.546 131.550  22.404  1.00  0.00     0.012 A 
ATOM     22  C   UNL     1      44.874 129.531  22.247  1.00  0.00     0.012 A 
ATOM     23  C   UNL     1      42.623 130.874  23.207  1.00  0.00     0.001 A 
ATOM     24  C   UNL     1      43.945 128.860  23.047  1.00  0.00     0.001 A 
ATOM     25  C   UNL     1      42.823 129.533  23.531  1.00  0.00     0.000 A 
ENDBRANCH  18  20
ENDBRANCH  17  18
ENDBRANCH   1  17
TORSDOF 6
ENDMDL
MODEL 7
REMARK VINA RESULT:      -6.6      1.668      6.945
REMARK SMILES NC(=O)c1ccc(C2CC2)c(F)c1CCC(=O)c1ccccc1
REMARK SMILES IDX 14 1 13 2 4 3 5 4 6 5 11 6 7 7 12 8 2 9 1 10 3 13 8 14 9 15
REMARK SMILES IDX 10 16 15 17 16 18 17 19 18 20 19 21 23 22 20 23 22 24 21 25
REMARK H PARENT 1 11 1 12
ROOT
ATOM      1  C   UNL     1      44.763 130.441  19.876  1.00  0.00     0.047 C 
ENDROOT
BRANCH   1   2
ATOM      2  C   UNL     1      44.640 130.926  18.442  1.00  0.00     0.001 A 
ATOM      3  C   UNL     1      43.470 131.569  17.947  1.00  0.00     0.045 A 
ATOM      4  C   UNL     1      43.371 131.857  16.578  1.00  0.00     0.014 A 
ATOM      5  C   UNL     1      44.403 131.530  15.702  1.00  0.00     0.008 A 
ATOM      6  C   UNL     1      45.684 130.620  17.543  1.00  0.00     0.130 A 
ATOM      7  C   UNL     1      45.555 130.892  16.172  1.00  0.00    -0.009 A 
ATOM      8  F   UNL     1      46.816 130.022  17.999  1.00  0.00    -0.206 F 
BRANCH   3   9
ATOM      9  C   UNL     1      42.343 131.973  18.819  1.00  0.00     0.249 C 
ATOM     10  N   UNL     1      42.355 133.241  19.476  1.00  0.00    -0.366 N 
ATOM     11  H   UNL     1      41.569 133.513  20.106  1.00  0.00     0.159 HD
ATOM     12  H   UNL     1      43.138 133.916  19.326  1.00  0.00     0.159 HD
ATOM     13  O   UNL     1      41.394 131.175  19.038  1.00  0.00    -0.270 OA
ENDBRANCH   3   9
BRANCH   7  14
ATOM     14  C   UNL     1      46.677 130.568  15.220  1.00  0.00     0.022 C 
ATOM     15  C   UNL     1      47.046 131.681  14.244  1.00  0.00     0.009 C 
ATOM     16  C   UNL     1      46.272 130.473  13.754  1.00  0.00     0.009 C 
ENDBRANCH   7  14
ENDBRANCH   1   2
BRANCH   1  17
ATOM     17  C   UNL     1      45.042 131.590  20.858  1.00  0.00     0.086 C 
BRANCH  17  18
ATOM     18  C   UNL     1      44.412 131.346  22.208  1.00  0.00     0.163 C 
ATOM     19  O   UNL     1      44.217 132.349  22.949  1.00  0.00    -0.294 OA
BRANCH  18  20
ATOM     20  C   UNL     1      43.956 130.002  22.671  1.00  0.00     0.017 A 
ATOM     21  C   UNL     1      42.655 129.781  23.173  1.00  0.00     0.012 A 
ATOM     22  C   UNL     1      44.849 128.913  22.628  1.00  0.00     0.012 A 
ATOM     23  C   UNL     1      42.276 128.520  23.640  1.00  0.00     0.001 A 
ATOM     24  C   UNL     1      44.463 127.653  23.094  1.00  0.00     0.001 A 
ATOM     25  C   UNL     1      43.179 127.458  23.605  1.00  0.00     0.000 A 
ENDBRANCH  18  20
ENDBRANCH  17  18
ENDBRANCH   1  17
TORSDOF 6
ENDMDL
MODEL 8
REMARK VINA RESULT:      -6.5      1.153      1.585
REMARK SMILES NC(=O)c1ccc(C2CC2)c(F)c1CCC(=O)c1ccccc1
REMARK SMILES IDX 14 1 13 2 4 3 5 4 6 5 11 6 7 7 12 8 2 9 1 10 3 13 8 14 9 15
REMARK SMILES IDX 10 16 15 17 16 18 17 19 18 20 19 21 23 22 20 23 22 24 21 25
REMARK H PARENT 1 11 1 12
ROOT
ATOM      1  C   UNL     1      45.476 131.981  18.574  1.00  0.00     0.047 C 
ENDROOT
BRANCH   1   2
ATOM      2  C   UNL     1      44.516 131.507  19.652  1.00  0.00     0.001 A 
ATOM      3  C   UNL     1      43.107 131.680  19.555  1.00  0.00     0.045 A 
ATOM      4  C   UNL     1      42.298 131.351  20.652  1.00  0.00     0.014 A 
ATOM      5  C   UNL     1      42.854 130.852  21.828  1.00  0.00     0.008 A 
ATOM      6  C   UNL     1      45.061 130.982  20.844  1.00  0.00     0.130 A 
ATOM      7  C   UNL     1      44.237 130.684  21.941  1.00  0.00    -0.009 A 
ATOM      8  F   UNL     1      46.403 130.793  20.949  1.00  0.00    -0.206 F 
BRANCH   3   9
ATOM      9  C   UNL     1      42.439 132.179  18.332  1.00  0.00     0.249 C 
ATOM     10  N   UNL     1      41.448 133.204  18.416  1.00  0.00    -0.366 N 
ATOM     11  H   UNL     1      40.963 133.538  17.554  1.00  0.00     0.159 HD
ATOM     12  H   UNL     1      41.204 133.642  19.332  1.00  0.00     0.159 HD
ATOM     13  O   UNL     1      42.693 131.658  17.213  1.00  0.00    -0.270 OA
ENDBRANCH   3   9
BRANCH   7  14
ATOM     14  C   UNL     1      44.825 130.116  23.206  1.00  0.00     0.022 C 
ATOM     15  C   UNL     1      44.480 128.658  23.489  1.00  0.00     0.009 C 
ATOM     16  C   UNL     1      43.810 129.761  24.286  1.00  0.00     0.009 C 
ENDBRANCH   7  14
ENDBRANCH   1   2
BRANCH   1  17
ATOM     17  C   UNL     1      45.047 131.524  17.171  1.00  0.00     0.086 C 
BRANCH  17  18
ATOM     18  C   UNL     1      45.886 130.374  16.668  1.00  0.00     0.163 C 
ATOM     19  O   UNL     1      45.896 129.316  17.356  1.00  0.00    -0.294 OA
BRANCH  18  20
ATOM     20  C   UNL     1      46.638 130.407  15.379  1.00  0.00     0.017 A 
ATOM     21  C   UNL     1      46.578 131.511  14.501  1.00  0.00     0.012 A 
ATOM     22  C   UNL     1      47.425 129.299  15.006  1.00  0.00     0.012 A 
ATOM     23  C   UNL     1      47.259 131.488  13.281  1.00  0.00     0.001 A 
ATOM     24  C   UNL     1      48.106 129.284  13.785  1.00  0.00     0.001 A 
ATOM     25  C   UNL     1      48.018 130.376  12.921  1.00  0.00     0.000 A 
ENDBRANCH  18  20
ENDBRANCH  17  18
ENDBRANCH   1  17
TORSDOF 6
ENDMDL
MODEL 9
REMARK VINA RESULT:      -6.5      1.915      3.045
REMARK SMILES NC(=O)c1ccc(C2CC2)c(F)c1CCC(=O)c1ccccc1
REMARK SMILES IDX 14 1 13 2 4 3 5 4 6 5 11 6 7 7 12 8 2 9 1 10 3 13 8 14 9 15
REMARK SMILES IDX 10 16 15 17 16 18 17 19 18 20 19 21 23 22 20 23 22 24 21 25
REMARK H PARENT 1 11 1 12
ROOT
ATOM      1  C   UNL     1      44.911 130.941  21.376  1.00  0.00     0.047 C 
ENDROOT
BRANCH   1   2
ATOM      2  C   UNL     1      44.434 129.948  22.422  1.00  0.00     0.001 A 
ATOM      3  C   UNL     1      43.603 130.325  23.515  1.00  0.00     0.045 A 
ATOM      4  C   UNL     1      43.324 129.387  24.520  1.00  0.00     0.014 A 
ATOM      5  C   UNL     1      43.842 128.096  24.459  1.00  0.00     0.008 A 
ATOM      6  C   UNL     1      44.935 128.630  22.366  1.00  0.00     0.130 A 
ATOM      7  C   UNL     1      44.666 127.714  23.396  1.00  0.00    -0.009 A 
ATOM      8  F   UNL     1      45.717 128.246  21.322  1.00  0.00    -0.206 F 
BRANCH   3   9
ATOM      9  C   UNL     1      42.993 131.668  23.637  1.00  0.00     0.249 C 
ATOM     10  N   UNL     1      42.018 132.109  22.690  1.00  0.00    -0.366 N 
ATOM     11  H   UNL     1      41.606 133.065  22.767  1.00  0.00     0.159 HD
ATOM     12  H   UNL     1      41.696 131.482  21.920  1.00  0.00     0.159 HD
ATOM     13  O   UNL     1      43.374 132.458  24.541  1.00  0.00    -0.270 OA
ENDBRANCH   3   9
BRANCH   7  14
ATOM     14  C   UNL     1      45.198 126.306  23.325  1.00  0.00     0.022 C 
ATOM     15  C   UNL     1      44.175 125.241  22.947  1.00  0.00     0.009 C 
ATOM     16  C   UNL     1      44.650 125.356  24.382  1.00  0.00     0.009 C 
ENDBRANCH   7  14
ENDBRANCH   1   2
BRANCH   1  17
ATOM     17  C   UNL     1      44.405 130.591  19.968  1.00  0.00     0.086 C 
BRANCH  17  18
ATOM     18  C   UNL     1      44.849 131.603  18.939  1.00  0.00     0.163 C 
ATOM     19  O   UNL     1      44.860 132.817  19.283  1.00  0.00    -0.294 OA
BRANCH  18  20
ATOM     20  C   UNL     1      45.332 131.232  17.576  1.00  0.00     0.017 A 
ATOM     21  C   UNL     1      45.612 132.200  16.588  1.00  0.00     0.012 A 
ATOM     22  C   UNL     1      45.501 129.872  17.246  1.00  0.00     0.012 A 
ATOM     23  C   UNL     1      46.019 131.814  15.308  1.00  0.00     0.001 A 
ATOM     24  C   UNL     1      45.912 129.493  15.966  1.00  0.00     0.001 A 
ATOM     25  C   UNL     1      46.165 130.463  14.995  1.00  0.00     0.000 A 
ENDBRANCH  18  20
ENDBRANCH  17  18
ENDBRANCH   1  17
TORSDOF 6
ENDMDL


