MODEL 1
REMARK VINA RESULT:      -9.4      0.000      0.000
REMARK SMILES Nc1cc(F)c(CCC(=O)c2ccccc2)c(F)c1C1CC1
REMARK SMILES IDX 7 1 6 2 2 3 3 4 19 5 4 6 17 7 5 8 18 9 1 10 20 13 21 14
REMARK SMILES IDX 22 15 8 16 9 17 10 18 11 19 12 20 16 21 13 22 15 23 14 24
REMARK H PARENT 1 11 1 12
ROOT
ATOM      1  C   UNL     1      45.056 130.855  17.862  1.00  0.00     0.050 C 
ENDROOT
BRANCH   1   2
ATOM      2  C   UNL     1      44.215 131.209  19.068  1.00  0.00     0.024 A 
ATOM      3  C   UNL     1      42.703 131.966  21.324  1.00  0.00     0.041 A 
ATOM      4  C   UNL     1      42.285 132.319  20.035  1.00  0.00     0.065 A 
ATOM      5  C   UNL     1      43.921 131.267  21.496  1.00  0.00     0.014 A 
ATOM      6  C   UNL     1      43.034 131.955  18.917  1.00  0.00     0.131 A 
ATOM      7  C   UNL     1      44.645 130.855  20.359  1.00  0.00     0.134 A 
ATOM      8  F   UNL     1      42.605 132.337  17.687  1.00  0.00    -0.207 F 
ATOM      9  F   UNL     1      45.776 130.116  20.508  1.00  0.00    -0.206 F 
BRANCH   3  10
ATOM     10  N   UNL     1      41.868 132.308  22.440  1.00  0.00    -0.398 N 
ATOM     11  H   UNL     1      41.808 131.708  23.292  1.00  0.00     0.156 HD
ATOM     12  H   UNL     1      41.238 133.139  22.395  1.00  0.00     0.156 HD
ENDBRANCH   3  10
BRANCH   5  13
ATOM     13  C   UNL     1      44.427 130.897  22.872  1.00  0.00     0.024 C 
ATOM     14  C   UNL     1      43.418 130.189  23.773  1.00  0.00     0.009 C 
ATOM     15  C   UNL     1      44.545 129.400  23.141  1.00  0.00     0.009 C 
ENDBRANCH   5  13
ENDBRANCH   1   2
BRANCH   1  16
ATOM     16  C   UNL     1      45.158 132.018  16.863  1.00  0.00     0.086 C 
BRANCH  16  17
ATOM     17  C   UNL     1      45.018 131.547  15.434  1.00  0.00     0.163 C 
ATOM     18  O   UNL     1      43.945 131.811  14.825  1.00  0.00    -0.294 OA
BRANCH  17  19
ATOM     19  C   UNL     1      46.125 130.881  14.697  1.00  0.00     0.017 A 
ATOM     20  C   UNL     1      46.625 129.621  15.083  1.00  0.00     0.012 A 
ATOM     21  C   UNL     1      46.718 131.534  13.598  1.00  0.00     0.012 A 
ATOM     22  C   UNL     1      47.704 129.047  14.403  1.00  0.00     0.001 A 
ATOM     23  C   UNL     1      47.796 130.956  12.924  1.00  0.00     0.001 A 
ATOM     24  C   UNL     1      48.293 129.715  13.329  1.00  0.00     0.000 A 
ENDBRANCH  17  19
ENDBRANCH  16  17
ENDBRANCH   1  16
TORSDOF 6
ENDMDL
MODEL 2
REMARK VINA RESULT:      -9.2      0.669      1.264
REMARK SMILES Nc1cc(F)c(CCC(=O)c2ccccc2)c(F)c1C1CC1
REMARK SMILES IDX 7 1 6 2 2 3 3 4 19 5 4 6 17 7 5 8 18 9 1 10 20 13 21 14
REMARK SMILES IDX 22 15 8 16 9 17 10 18 11 19 12 20 16 21 13 22 15 23 14 24
REMARK H PARENT 1 11 1 12
ROOT
ATOM      1  C   UNL     1      44.668 131.851  17.738  1.00  0.00     0.050 C 
ENDROOT
BRANCH   1   2
ATOM      2  C   UNL     1      44.009 131.727  19.094  1.00  0.00     0.024 A 
ATOM      3  C   UNL     1      42.830 131.595  21.651  1.00  0.00     0.041 A 
ATOM      4  C   UNL     1      42.184 132.262  20.603  1.00  0.00     0.065 A 
ATOM      5  C   UNL     1      44.108 131.027  21.435  1.00  0.00     0.014 A 
ATOM      6  C   UNL     1      42.768 132.338  19.339  1.00  0.00     0.131 A 
ATOM      7  C   UNL     1      44.666 131.060  20.142  1.00  0.00     0.134 A 
ATOM      8  F   UNL     1      42.119 133.014  18.356  1.00  0.00    -0.207 F 
ATOM      9  F   UNL     1      45.858 130.451  19.903  1.00  0.00    -0.206 F 
BRANCH   3  10
ATOM     10  N   UNL     1      42.163 131.487  22.917  1.00  0.00    -0.398 N 
ATOM     11  H   UNL     1      41.518 130.698  23.139  1.00  0.00     0.156 HD
ATOM     12  H   UNL     1      42.253 132.246  23.629  1.00  0.00     0.156 HD
ENDBRANCH   3  10
BRANCH   5  13
ATOM     13  C   UNL     1      44.854 130.328  22.549  1.00  0.00     0.024 C 
ATOM     14  C   UNL     1      44.039 129.319  23.354  1.00  0.00     0.009 C 
ATOM     15  C   UNL     1      45.063 128.829  22.352  1.00  0.00     0.009 C 
ENDBRANCH   5  13
ENDBRANCH   1   2
BRANCH   1  16
ATOM     16  C   UNL     1      44.349 130.657  16.825  1.00  0.00     0.086 C 
BRANCH  16  17
ATOM     17  C   UNL     1      44.604 130.975  15.371  1.00  0.00     0.163 C 
ATOM     18  O   UNL     1      43.730 131.638  14.748  1.00  0.00    -0.294 OA
BRANCH  17  19
ATOM     19  C   UNL     1      45.877 130.627  14.684  1.00  0.00     0.017 A 
ATOM     20  C   UNL     1      46.435 131.452  13.686  1.00  0.00     0.012 A 
ATOM     21  C   UNL     1      46.535 129.426  15.012  1.00  0.00     0.012 A 
ATOM     22  C   UNL     1      47.603 131.069  13.021  1.00  0.00     0.001 A 
ATOM     23  C   UNL     1      47.701 129.047  14.342  1.00  0.00     0.001 A 
ATOM     24  C   UNL     1      48.233 129.866  13.343  1.00  0.00     0.000 A 
ENDBRANCH  17  19
ENDBRANCH  16  17
ENDBRANCH   1  16
TORSDOF 6
ENDMDL
MODEL 3
REMARK VINA RESULT:      -9.1      1.254      1.859
REMARK SMILES Nc1cc(F)c(CCC(=O)c2ccccc2)c(F)c1C1CC1
REMARK SMILES IDX 7 1 6 2 2 3 3 4 19 5 4 6 17 7 5 8 18 9 1 10 20 13 21 14
REMARK SMILES IDX 22 15 8 16 9 17 10 18 11 19 12 20 16 21 13 22 15 23 14 24
REMARK H PARENT 1 11 1 12
ROOT
ATOM      1  C   UNL     1      45.873 130.783  19.055  1.00  0.00     0.050 C 
ENDROOT
BRANCH   1   2
ATOM      2  C   UNL     1      44.896 130.758  20.210  1.00  0.00     0.024 A 
ATOM      3  C   UNL     1      43.141 130.785  22.416  1.00  0.00     0.041 A 
ATOM      4  C   UNL     1      42.984 131.702  21.370  1.00  0.00     0.065 A 
ATOM      5  C   UNL     1      44.221 129.871  22.387  1.00  0.00     0.014 A 
ATOM      6  C   UNL     1      43.855 131.698  20.281  1.00  0.00     0.131 A 
ATOM      7  C   UNL     1      45.064 129.837  21.258  1.00  0.00     0.134 A 
ATOM      8  F   UNL     1      43.681 132.619  19.298  1.00  0.00    -0.207 F 
ATOM      9  F   UNL     1      46.058 128.913  21.184  1.00  0.00    -0.206 F 
BRANCH   3  10
ATOM     10  N   UNL     1      42.184 130.784  23.485  1.00  0.00    -0.398 N 
ATOM     11  H   UNL     1      42.100 129.988  24.154  1.00  0.00     0.156 HD
ATOM     12  H   UNL     1      41.491 131.559  23.575  1.00  0.00     0.156 HD
ENDBRANCH   3  10
BRANCH   5  13
ATOM     13  C   UNL     1      44.448 128.887  23.513  1.00  0.00     0.024 C 
ATOM     14  C   UNL     1      43.443 127.741  23.595  1.00  0.00     0.009 C 
ATOM     15  C   UNL     1      44.841 127.479  23.077  1.00  0.00     0.009 C 
ENDBRANCH   5  13
ENDBRANCH   1   2
BRANCH   1  16
ATOM     16  C   UNL     1      45.223 130.345  17.734  1.00  0.00     0.086 C 
BRANCH  16  17
ATOM     17  C   UNL     1      45.577 131.274  16.596  1.00  0.00     0.163 C 
ATOM     18  O   UNL     1      45.202 132.476  16.674  1.00  0.00    -0.294 OA
BRANCH  17  19
ATOM     19  C   UNL     1      46.427 130.852  15.450  1.00  0.00     0.017 A 
ATOM     20  C   UNL     1      46.742 131.730  14.393  1.00  0.00     0.012 A 
ATOM     21  C   UNL     1      46.911 129.530  15.397  1.00  0.00     0.012 A 
ATOM     22  C   UNL     1      47.497 131.286  13.304  1.00  0.00     0.001 A 
ATOM     23  C   UNL     1      47.663 129.092  14.304  1.00  0.00     0.001 A 
ATOM     24  C   UNL     1      47.953 129.967  13.256  1.00  0.00     0.000 A 
ENDBRANCH  17  19
ENDBRANCH  16  17
ENDBRANCH   1  16
TORSDOF 6
ENDMDL
MODEL 4
REMARK VINA RESULT:      -9.0      1.029      1.188
REMARK SMILES Nc1cc(F)c(CCC(=O)c2ccccc2)c(F)c1C1CC1
REMARK SMILES IDX 7 1 6 2 2 3 3 4 19 5 4 6 17 7 5 8 18 9 1 10 20 13 21 14
REMARK SMILES IDX 22 15 8 16 9 17 10 18 11 19 12 20 16 21 13 22 15 23 14 24
REMARK H PARENT 1 11 1 12
ROOT
ATOM      1  C   UNL     1      45.756 130.764  18.715  1.00  0.00     0.050 C 
ENDROOT
BRANCH   1   2
ATOM      2  C   UNL     1      44.802 130.882  19.882  1.00  0.00     0.024 A 
ATOM      3  C   UNL     1      43.085 131.185  22.098  1.00  0.00     0.041 A 
ATOM      4  C   UNL     1      42.872 131.922  20.926  1.00  0.00     0.065 A 
ATOM      5  C   UNL     1      44.201 130.319  22.186  1.00  0.00     0.014 A 
ATOM      6  C   UNL     1      43.725 131.782  19.831  1.00  0.00     0.131 A 
ATOM      7  C   UNL     1      45.025 130.142  21.056  1.00  0.00     0.134 A 
ATOM      8  F   UNL     1      43.497 132.532  18.722  1.00  0.00    -0.207 F 
ATOM      9  F   UNL     1      46.054 129.256  21.102  1.00  0.00    -0.206 F 
BRANCH   3  10
ATOM     10  N   UNL     1      42.147 131.314  23.176  1.00  0.00    -0.398 N 
ATOM     11  H   UNL     1      41.143 131.049  23.073  1.00  0.00     0.156 HD
ATOM     12  H   UNL     1      42.436 131.751  24.080  1.00  0.00     0.156 HD
ENDBRANCH   3  10
BRANCH   5  13
ATOM     13  C   UNL     1      44.487 129.531  23.445  1.00  0.00     0.024 C 
ATOM     14  C   UNL     1      43.457 128.460  23.796  1.00  0.00     0.009 C 
ATOM     15  C   UNL     1      44.802 128.054  23.230  1.00  0.00     0.009 C 
ENDBRANCH   5  13
ENDBRANCH   1   2
BRANCH   1  16
ATOM     16  C   UNL     1      45.021 130.652  17.371  1.00  0.00     0.086 C 
BRANCH  16  17
ATOM     17  C   UNL     1      45.683 131.481  16.295  1.00  0.00     0.163 C 
ATOM     18  O   UNL     1      45.610 132.737  16.385  1.00  0.00    -0.294 OA
BRANCH  17  19
ATOM     19  C   UNL     1      46.495 130.878  15.204  1.00  0.00     0.017 A 
ATOM     20  C   UNL     1      46.989 129.560  15.284  1.00  0.00     0.012 A 
ATOM     21  C   UNL     1      46.808 131.648  14.067  1.00  0.00     0.012 A 
ATOM     22  C   UNL     1      47.796 129.042  14.266  1.00  0.00     0.001 A 
ATOM     23  C   UNL     1      47.616 131.125  13.054  1.00  0.00     0.001 A 
ATOM     24  C   UNL     1      48.114 129.824  13.155  1.00  0.00     0.000 A 
ENDBRANCH  17  19
ENDBRANCH  16  17
ENDBRANCH   1  16
TORSDOF 6
ENDMDL
MODEL 5
REMARK VINA RESULT:      -8.7      1.419      2.469
REMARK SMILES Nc1cc(F)c(CCC(=O)c2ccccc2)c(F)c1C1CC1
REMARK SMILES IDX 7 1 6 2 2 3 3 4 19 5 4 6 17 7 5 8 18 9 1 10 20 13 21 14
REMARK SMILES IDX 22 15 8 16 9 17 10 18 11 19 12 20 16 21 13 22 15 23 14 24
REMARK H PARENT 1 11 1 12
ROOT
ATOM      1  C   UNL     1      44.588 132.105  17.568  1.00  0.00     0.050 C 
ENDROOT
BRANCH   1   2
ATOM      2  C   UNL     1      44.671 131.555  18.974  1.00  0.00     0.024 A 
ATOM      3  C   UNL     1      44.762 130.443  21.563  1.00  0.00     0.041 A 
ATOM      4  C   UNL     1      45.697 130.064  20.592  1.00  0.00     0.065 A 
ATOM      5  C   UNL     1      43.734 131.355  21.225  1.00  0.00     0.014 A 
ATOM      6  C   UNL     1      45.650 130.604  19.307  1.00  0.00     0.131 A 
ATOM      7  C   UNL     1      43.726 131.937  19.941  1.00  0.00     0.134 A 
ATOM      8  F   UNL     1      46.561 130.192  18.389  1.00  0.00    -0.207 F 
ATOM      9  F   UNL     1      42.790 132.872  19.628  1.00  0.00    -0.206 F 
BRANCH   3  10
ATOM     10  N   UNL     1      44.886 129.909  22.889  1.00  0.00    -0.398 N 
ATOM     11  H   UNL     1      44.785 130.506  23.739  1.00  0.00     0.156 HD
ATOM     12  H   UNL     1      45.156 128.911  23.035  1.00  0.00     0.156 HD
ENDBRANCH   3  10
BRANCH   5  13
ATOM     13  C   UNL     1      42.684 131.764  22.233  1.00  0.00     0.024 C 
ATOM     14  C   UNL     1      42.409 130.753  23.342  1.00  0.00     0.009 C 
ATOM     15  C   UNL     1      43.200 132.007  23.647  1.00  0.00     0.009 C 
ENDBRANCH   5  13
ENDBRANCH   1   2
BRANCH   1  16
ATOM     16  C   UNL     1      43.743 131.215  16.644  1.00  0.00     0.086 C 
BRANCH  16  17
ATOM     17  C   UNL     1      44.185 131.319  15.203  1.00  0.00     0.163 C 
ATOM     18  O   UNL     1      43.452 131.964  14.404  1.00  0.00    -0.294 OA
BRANCH  17  19
ATOM     19  C   UNL     1      45.486 130.783  14.721  1.00  0.00     0.017 A 
ATOM     20  C   UNL     1      46.259 131.459  13.755  1.00  0.00     0.012 A 
ATOM     21  C   UNL     1      45.954 129.550  15.217  1.00  0.00     0.012 A 
ATOM     22  C   UNL     1      47.450 130.901  13.283  1.00  0.00     0.001 A 
ATOM     23  C   UNL     1      47.144 128.997  14.740  1.00  0.00     0.001 A 
ATOM     24  C   UNL     1      47.890 129.669  13.770  1.00  0.00     0.000 A 
ENDBRANCH  17  19
ENDBRANCH  16  17
ENDBRANCH   1  16
TORSDOF 6
ENDMDL
MODEL 6
REMARK VINA RESULT:      -8.7      1.074      1.207
REMARK SMILES Nc1cc(F)c(CCC(=O)c2ccccc2)c(F)c1C1CC1
REMARK SMILES IDX 7 1 6 2 2 3 3 4 19 5 4 6 17 7 5 8 18 9 1 10 20 13 21 14
REMARK SMILES IDX 22 15 8 16 9 17 10 18 11 19 12 20 16 21 13 22 15 23 14 24
REMARK H PARENT 1 11 1 12
ROOT
ATOM      1  C   UNL     1      43.947 131.587  17.071  1.00  0.00     0.050 C 
ENDROOT
BRANCH   1   2
ATOM      2  C   UNL     1      43.524 131.672  18.520  1.00  0.00     0.024 A 
ATOM      3  C   UNL     1      42.789 131.927  21.230  1.00  0.00     0.041 A 
ATOM      4  C   UNL     1      41.996 132.488  20.222  1.00  0.00     0.065 A 
ATOM      5  C   UNL     1      43.995 131.270  20.887  1.00  0.00     0.014 A 
ATOM      6  C   UNL     1      42.361 132.373  18.880  1.00  0.00     0.131 A 
ATOM      7  C   UNL     1      44.328 131.110  19.527  1.00  0.00     0.134 A 
ATOM      8  F   UNL     1      41.576 132.951  17.935  1.00  0.00    -0.207 F 
ATOM      9  F   UNL     1      45.443 130.414  19.181  1.00  0.00    -0.206 F 
BRANCH   3  10
ATOM     10  N   UNL     1      42.343 132.016  22.591  1.00  0.00    -0.398 N 
ATOM     11  H   UNL     1      41.769 132.817  22.935  1.00  0.00     0.156 HD
ATOM     12  H   UNL     1      42.648 131.309  23.296  1.00  0.00     0.156 HD
ENDBRANCH   3  10
BRANCH   5  13
ATOM     13  C   UNL     1      44.897 130.680  21.947  1.00  0.00     0.024 C 
ATOM     14  C   UNL     1      44.207 129.786  22.973  1.00  0.00     0.009 C 
ATOM     15  C   UNL     1      45.063 129.165  21.890  1.00  0.00     0.009 C 
ENDBRANCH   5  13
ENDBRANCH   1   2
BRANCH   1  16
ATOM     16  C   UNL     1      45.404 131.125  16.916  1.00  0.00     0.086 C 
BRANCH  16  17
ATOM     17  C   UNL     1      45.540 130.019  15.896  1.00  0.00     0.163 C 
ATOM     18  O   UNL     1      44.750 129.039  15.975  1.00  0.00    -0.294 OA
BRANCH  17  19
ATOM     19  C   UNL     1      46.492 130.093  14.755  1.00  0.00     0.017 A 
ATOM     20  C   UNL     1      47.574 129.198  14.628  1.00  0.00     0.012 A 
ATOM     21  C   UNL     1      46.334 131.102  13.785  1.00  0.00     0.012 A 
ATOM     22  C   UNL     1      48.483 129.329  13.575  1.00  0.00     0.001 A 
ATOM     23  C   UNL     1      47.248 131.229  12.735  1.00  0.00     0.001 A 
ATOM     24  C   UNL     1      48.324 130.346  12.632  1.00  0.00     0.000 A 
ENDBRANCH  17  19
ENDBRANCH  16  17
ENDBRANCH   1  16
TORSDOF 6
ENDMDL
MODEL 7
REMARK VINA RESULT:      -8.4      1.418      1.941
REMARK SMILES Nc1cc(F)c(CCC(=O)c2ccccc2)c(F)c1C1CC1
REMARK SMILES IDX 7 1 6 2 2 3 3 4 19 5 4 6 17 7 5 8 18 9 1 10 20 13 21 14
REMARK SMILES IDX 22 15 8 16 9 17 10 18 11 19 12 20 16 21 13 22 15 23 14 24
REMARK H PARENT 1 11 1 12
ROOT
ATOM      1  C   UNL     1      45.140 131.916  18.947  1.00  0.00     0.050 C 
ENDROOT
BRANCH   1   2
ATOM      2  C   UNL     1      44.342 131.548  20.178  1.00  0.00     0.024 A 
ATOM      3  C   UNL     1      42.906 130.946  22.528  1.00  0.00     0.041 A 
ATOM      4  C   UNL     1      42.414 131.886  21.614  1.00  0.00     0.065 A 
ATOM      5  C   UNL     1      44.158 130.331  22.292  1.00  0.00     0.014 A 
ATOM      6  C   UNL     1      43.126 132.194  20.455  1.00  0.00     0.131 A 
ATOM      7  C   UNL     1      44.845 130.607  21.092  1.00  0.00     0.134 A 
ATOM      8  F   UNL     1      42.625 133.129  19.606  1.00  0.00    -0.207 F 
ATOM      9  F   UNL     1      46.011 129.966  20.818  1.00  0.00    -0.206 F 
BRANCH   3  10
ATOM     10  N   UNL     1      42.110 130.615  23.675  1.00  0.00    -0.398 N 
ATOM     11  H   UNL     1      41.070 130.542  23.626  1.00  0.00     0.156 HD
ATOM     12  H   UNL     1      42.553 130.508  24.614  1.00  0.00     0.156 HD
ENDBRANCH   3  10
BRANCH   5  13
ATOM     13  C   UNL     1      44.742 129.337  23.270  1.00  0.00     0.024 C 
ATOM     14  C   UNL     1      43.731 128.419  23.953  1.00  0.00     0.009 C 
ATOM     15  C   UNL     1      44.622 127.873  22.858  1.00  0.00     0.009 C 
ENDBRANCH   5  13
ENDBRANCH   1   2
BRANCH   1  16
ATOM     16  C   UNL     1      44.604 131.232  17.680  1.00  0.00     0.086 C 
BRANCH  16  17
ATOM     17  C   UNL     1      45.603 130.258  17.100  1.00  0.00     0.163 C 
ATOM     18  O   UNL     1      45.777 129.161  17.698  1.00  0.00    -0.294 OA
BRANCH  17  19
ATOM     19  C   UNL     1      46.304 130.500  15.810  1.00  0.00     0.017 A 
ATOM     20  C   UNL     1      46.227 131.739  15.142  1.00  0.00     0.012 A 
ATOM     21  C   UNL     1      47.043 129.458  15.217  1.00  0.00     0.012 A 
ATOM     22  C   UNL     1      46.852 131.917  13.904  1.00  0.00     0.001 A 
ATOM     23  C   UNL     1      47.662 129.641  13.978  1.00  0.00     0.001 A 
ATOM     24  C   UNL     1      47.564 130.869  13.320  1.00  0.00     0.000 A 
ENDBRANCH  17  19
ENDBRANCH  16  17
ENDBRANCH   1  16
TORSDOF 6
ENDMDL
MODEL 8
REMARK VINA RESULT:      -8.3      1.487      2.315
REMARK SMILES Nc1cc(F)c(CCC(=O)c2ccccc2)c(F)c1C1CC1
REMARK SMILES IDX 7 1 6 2 2 3 3 4 19 5 4 6 17 7 5 8 18 9 1 10 20 13 21 14
REMARK SMILES IDX 22 15 8 16 9 17 10 18 11 19 12 20 16 21 13 22 15 23 14 24
REMARK H PARENT 1 11 1 12
ROOT
ATOM      1  C   UNL     1      43.910 131.862  18.227  1.00  0.00     0.050 C 
ENDROOT
BRANCH   1   2
ATOM      2  C   UNL     1      44.201 131.267  19.587  1.00  0.00     0.024 A 
ATOM      3  C   UNL     1      44.688 130.065  22.091  1.00  0.00     0.041 A 
ATOM      4  C   UNL     1      45.574 129.872  21.024  1.00  0.00     0.065 A 
ATOM      5  C   UNL     1      43.513 130.829  21.893  1.00  0.00     0.014 A 
ATOM      6  C   UNL     1      45.332 130.457  19.781  1.00  0.00     0.131 A 
ATOM      7  C   UNL     1      43.304 131.462  20.651  1.00  0.00     0.134 A 
ATOM      8  F   UNL     1      46.204 130.226  18.766  1.00  0.00    -0.207 F 
ATOM      9  F   UNL     1      42.218 132.260  20.474  1.00  0.00    -0.206 F 
BRANCH   3  10
ATOM     10  N   UNL     1      45.009 129.496  23.368  1.00  0.00    -0.398 N 
ATOM     11  H   UNL     1      44.436 129.685  24.219  1.00  0.00     0.156 HD
ATOM     12  H   UNL     1      45.877 128.929  23.492  1.00  0.00     0.156 HD
ENDBRANCH   3  10
BRANCH   5  13
ATOM     13  C   UNL     1      42.513 131.033  23.009  1.00  0.00     0.024 C 
ATOM     14  C   UNL     1      43.042 131.767  24.238  1.00  0.00     0.009 C 
ATOM     15  C   UNL     1      42.121 132.484  23.274  1.00  0.00     0.009 C 
ENDBRANCH   5  13
ENDBRANCH   1   2
BRANCH   1  16
ATOM     16  C   UNL     1      45.167 131.946  17.348  1.00  0.00     0.086 C 
BRANCH  16  17
ATOM     17  C   UNL     1      44.899 131.477  15.937  1.00  0.00     0.163 C 
ATOM     18  O   UNL     1      43.747 131.663  15.458  1.00  0.00    -0.294 OA
BRANCH  17  19
ATOM     19  C   UNL     1      45.962 130.903  15.067  1.00  0.00     0.017 A 
ATOM     20  C   UNL     1      46.476 129.607  15.276  1.00  0.00     0.012 A 
ATOM     21  C   UNL     1      46.497 131.681  14.022  1.00  0.00     0.012 A 
ATOM     22  C   UNL     1      47.513 129.118  14.477  1.00  0.00     0.001 A 
ATOM     23  C   UNL     1      47.534 131.187  13.227  1.00  0.00     0.001 A 
ATOM     24  C   UNL     1      48.046 129.909  13.457  1.00  0.00     0.000 A 
ENDBRANCH  17  19
ENDBRANCH  16  17
ENDBRANCH   1  16
TORSDOF 6
ENDMDL
MODEL 9
REMARK VINA RESULT:      -8.2      1.053      1.631
REMARK SMILES Nc1cc(F)c(CCC(=O)c2ccccc2)c(F)c1C1CC1
REMARK SMILES IDX 7 1 6 2 2 3 3 4 19 5 4 6 17 7 5 8 18 9 1 10 20 13 21 14
REMARK SMILES IDX 22 15 8 16 9 17 10 18 11 19 12 20 16 21 13 22 15 23 14 24
REMARK H PARENT 1 11 1 12
ROOT
ATOM      1  C   UNL     1      45.863 131.101  17.926  1.00  0.00     0.050 C 
ENDROOT
BRANCH   1   2
ATOM      2  C   UNL     1      44.799 131.330  18.976  1.00  0.00     0.024 A 
ATOM      3  C   UNL     1      42.852 131.864  20.944  1.00  0.00     0.041 A 
ATOM      4  C   UNL     1      42.582 132.106  19.591  1.00  0.00     0.065 A 
ATOM      5  C   UNL     1      44.130 131.395  21.328  1.00  0.00     0.014 A 
ATOM      6  C   UNL     1      43.546 131.853  18.615  1.00  0.00     0.131 A 
ATOM      7  C   UNL     1      45.079 131.089  20.332  1.00  0.00     0.134 A 
ATOM      8  F   UNL     1      43.252 132.123  17.317  1.00  0.00    -0.207 F 
ATOM      9  F   UNL     1      46.284 130.566  20.683  1.00  0.00    -0.206 F 
BRANCH   3  10
ATOM     10  N   UNL     1      41.809 132.080  21.906  1.00  0.00    -0.398 N 
ATOM     11  H   UNL     1      41.935 131.859  22.918  1.00  0.00     0.156 HD
ATOM     12  H   UNL     1      40.864 132.400  21.599  1.00  0.00     0.156 HD
ENDBRANCH   3  10
BRANCH   5  13
ATOM     13  C   UNL     1      44.474 131.153  22.780  1.00  0.00     0.024 C 
ATOM     14  C   UNL     1      44.900 132.389  23.568  1.00  0.00     0.009 C 
ATOM     15  C   UNL     1      43.526 131.794  23.789  1.00  0.00     0.009 C 
ENDBRANCH   5  13
ENDBRANCH   1   2
BRANCH   1  16
ATOM     16  C   UNL     1      45.829 129.671  17.365  1.00  0.00     0.086 C 
BRANCH  16  17
ATOM     17  C   UNL     1      45.461 129.649  15.899  1.00  0.00     0.163 C 
ATOM     18  O   UNL     1      44.258 129.425  15.593  1.00  0.00    -0.294 OA
BRANCH  17  19
ATOM     19  C   UNL     1      46.434 129.979  14.823  1.00  0.00     0.017 A 
ATOM     20  C   UNL     1      46.259 131.092  13.976  1.00  0.00     0.012 A 
ATOM     21  C   UNL     1      47.550 129.144  14.619  1.00  0.00     0.012 A 
ATOM     22  C   UNL     1      47.162 131.342  12.938  1.00  0.00     0.001 A 
ATOM     23  C   UNL     1      48.448 129.399  13.579  1.00  0.00     0.001 A 
ATOM     24  C   UNL     1      48.252 130.494  12.736  1.00  0.00     0.000 A 
ENDBRANCH  17  19
ENDBRANCH  16  17
ENDBRANCH   1  16
TORSDOF 6
ENDMDL


