REMARK SMILES C=Cc1cccc(-c2ccc3c(c2)[C@H](N)CC3)c1
REMARK SMILES IDX 8 1 9 2 10 3 11 4 12 5 13 6 14 7 16 8 17 9 7 10 3 11 4 12
REMARK SMILES IDX 18 13 5 14 6 15 2 16 1 17 15 18
REMARK H PARENT 15 19 15 20
ROOT
ATOM      1  C   UNL     1       0.823   0.540   0.147  1.00  0.00    -0.018 A 
ATOM      2  C   UNL     1       1.828   0.408  -0.840  1.00  0.00     0.009 A 
ATOM      3  C   UNL     1       2.303  -0.859  -1.209  1.00  0.00     0.005 A 
ATOM      4  C   UNL     1       1.769  -1.987  -0.587  1.00  0.00    -0.043 A 
ATOM      5  C   UNL     1       0.801  -1.873   0.378  1.00  0.00    -0.027 A 
ATOM      6  C   UNL     1       0.306  -0.623   0.760  1.00  0.00     0.014 A 
ATOM      7  C   UNL     1       0.381  -3.197   0.907  1.00  0.00     0.081 C 
ATOM      8  C   UNL     1       1.150  -4.203   0.017  1.00  0.00     0.028 C 
ATOM      9  C   UNL     1       2.139  -3.396  -0.845  1.00  0.00     0.038 C 
ENDROOT
BRANCH   1  10
ATOM     10  C   UNL     1       0.319   1.882   0.535  1.00  0.00    -0.018 A 
ATOM     11  C   UNL     1      -0.383   4.147  -0.080  1.00  0.00    -0.026 A 
ATOM     12  C   UNL     1      -0.650   4.414   1.272  1.00  0.00     0.008 A 
ATOM     13  C   UNL     1       0.091   2.870  -0.442  1.00  0.00     0.016 A 
ATOM     14  C   UNL     1      -0.428   3.439   2.245  1.00  0.00     0.001 A 
ATOM     15  C   UNL     1       0.057   2.182   1.883  1.00  0.00     0.009 A 
BRANCH  11  16
ATOM     16  C   UNL     1      -0.646   5.214  -1.077  1.00  0.00     0.000 C 
ATOM     17  C   UNL     1      -0.125   5.236  -2.305  1.00  0.00     0.009 C 
ENDBRANCH  11  16
ENDBRANCH   1  10
BRANCH   7  18
ATOM     18  N   UNL     1       0.776  -3.334   2.309  1.00  0.00    -0.324 NA
ATOM     19  H   UNL     1       0.471  -4.278   2.639  1.00  0.00     0.119 HD
ATOM     20  H   UNL     1       0.228  -2.644   2.873  1.00  0.00     0.119 HD
ENDBRANCH   7  18
TORSDOF 3


