REMARK SMILES O=C=Nc1cc([O-])c(F)cc1Nc1ccc2cc[nH]c2c1
REMARK SMILES IDX 5 1 6 2 7 3 8 4 9 5 10 6 11 7 4 8 3 9 2 10 1 11 12 12 13 14
REMARK SMILES IDX 14 15 21 16 15 17 20 18 16 19 19 20 17 21 18 22
REMARK H PARENT 12 13 19 23
ROOT
ATOM      1  C   UNL     1       1.879  -0.118   3.852  1.00  0.00     0.026 A 
ATOM      2  C   UNL     1       2.823   0.750   3.301  1.00  0.00    -0.070 A 
ATOM      3  O   UNL     1       3.845   1.258   4.095  1.00  0.00    -0.870 OA
ATOM      4  C   UNL     1       2.741   1.109   1.954  1.00  0.00     0.117 A 
ATOM      5  F   UNL     1       3.660   1.947   1.414  1.00  0.00    -0.208 F 
ATOM      6  C   UNL     1       1.721   0.589   1.155  1.00  0.00     0.067 A 
ATOM      7  C   UNL     1       0.760  -0.283   1.696  1.00  0.00     0.068 A 
ATOM      8  C   UNL     1       0.833  -0.632   3.072  1.00  0.00     0.099 A 
ENDROOT
BRANCH   8   9
ATOM      9  N   UNL     1      -0.128  -1.478   3.730  1.00  0.00    -0.166 NA
BRANCH   9  10
ATOM     10  C   UNL     1      -1.301  -1.722   3.301  1.00  0.00     0.240 C 
ATOM     11  O   UNL     1      -2.443  -1.958   2.885  1.00  0.00    -0.211 OA
ENDBRANCH   9  10
ENDBRANCH   8   9
BRANCH   7  12
ATOM     12  N   UNL     1      -0.209  -0.883   0.822  1.00  0.00    -0.354 N 
ATOM     13  H   UNL     1      -0.285  -1.925   0.825  1.00  0.00     0.167 HD
BRANCH  12  14
ATOM     14  C   UNL     1      -1.014  -0.139  -0.109  1.00  0.00     0.041 A 
ATOM     15  C   UNL     1      -1.253   1.252   0.069  1.00  0.00     0.027 A 
ATOM     16  C   UNL     1      -1.614  -0.814  -1.194  1.00  0.00     0.052 A 
ATOM     17  C   UNL     1      -2.058   1.965  -0.838  1.00  0.00     0.012 A 
ATOM     18  C   UNL     1      -2.406  -0.077  -2.073  1.00  0.00     0.047 A 
ATOM     19  C   UNL     1      -2.618   1.263  -1.901  1.00  0.00    -0.001 A 
ATOM     20  N   UNL     1      -3.054  -0.526  -3.160  1.00  0.00    -0.361 N 
ATOM     21  C   UNL     1      -3.437   1.687  -2.924  1.00  0.00     0.028 A 
ATOM     22  C   UNL     1      -3.686   0.549  -3.685  1.00  0.00     0.083 A 
ATOM     23  H   UNL     1      -3.070  -1.504  -3.528  1.00  0.00     0.166 HD
ENDBRANCH  12  14
ENDBRANCH   7  12
TORSDOF 4


