REMARK SMILES C=Cc1ccc(-c2c(N)c(Nc3ccc(F)cc3)cc(F)c2F)nc1
REMARK SMILES IDX 7 1 8 2 10 3 19 4 20 5 21 6 22 7 23 8 6 9 3 10 4 11 25 12
REMARK SMILES IDX 5 13 24 14 2 15 1 16 9 17 11 20 12 22 13 23 18 24 14 25
REMARK SMILES IDX 17 26 15 27 16 28
REMARK H PARENT 9 18 9 19 11 21
ROOT
ATOM      1  C   UNL     1       1.390   0.778  -0.119  1.00  0.00     0.064 A 
ATOM      2  C   UNL     1       0.952  -0.457   0.424  1.00  0.00     0.068 A 
ATOM      3  C   UNL     1       1.871  -1.526   0.544  1.00  0.00     0.066 A 
ATOM      4  C   UNL     1       3.205  -1.347   0.160  1.00  0.00     0.070 A 
ATOM      5  C   UNL     1       3.626  -0.138  -0.389  1.00  0.00     0.161 A 
ATOM      6  F   UNL     1       4.918   0.013  -0.775  1.00  0.00    -0.204 F 
ATOM      7  C   UNL     1       2.725   0.917  -0.539  1.00  0.00     0.170 A 
ATOM      8  F   UNL     1       3.166   2.092  -1.058  1.00  0.00    -0.203 F 
ENDROOT
BRANCH   1   9
ATOM      9  C   UNL     1       0.488   1.945  -0.231  1.00  0.00     0.075 A 
ATOM     10  C   UNL     1      -1.160   4.185  -0.497  1.00  0.00    -0.008 A 
ATOM     11  C   UNL     1      -0.971   3.593   0.766  1.00  0.00     0.012 A 
ATOM     12  C   UNL     1      -0.481   3.636  -1.595  1.00  0.00     0.119 A 
ATOM     13  C   UNL     1      -0.146   2.475   0.900  1.00  0.00     0.030 A 
ATOM     14  N   UNL     1       0.316   2.546  -1.439  1.00  0.00    -0.255 NA
BRANCH  10  15
ATOM     15  C   UNL     1      -2.015   5.380  -0.709  1.00  0.00     0.002 C 
ATOM     16  C   UNL     1      -2.921   5.819   0.165  1.00  0.00     0.009 C 
ENDBRANCH  10  15
ENDBRANCH   1   9
BRANCH   2  17
ATOM     17  N   UNL     1      -0.412  -0.632   0.842  1.00  0.00    -0.396 N 
ATOM     18  H   UNL     1      -1.169   0.009   0.522  1.00  0.00     0.156 HD
ATOM     19  H   UNL     1      -0.692  -1.423   1.462  1.00  0.00     0.156 HD
ENDBRANCH   2  17
BRANCH   3  20
ATOM     20  N   UNL     1       1.471  -2.806   1.055  1.00  0.00    -0.354 N 
ATOM     21  H   UNL     1       2.024  -3.201   1.850  1.00  0.00     0.167 HD
BRANCH  20  22
ATOM     22  C   UNL     1       0.484  -3.646   0.426  1.00  0.00     0.039 A 
ATOM     23  C   UNL     1       0.003  -3.376  -0.871  1.00  0.00     0.029 A 
ATOM     24  C   UNL     1       0.006  -4.775   1.109  1.00  0.00     0.029 A 
ATOM     25  C   UNL     1      -0.951  -4.213  -1.457  1.00  0.00     0.041 A 
ATOM     26  C   UNL     1      -0.949  -5.609   0.519  1.00  0.00     0.041 A 
ATOM     27  C   UNL     1      -1.428  -5.328  -0.762  1.00  0.00     0.123 A 
ATOM     28  F   UNL     1      -2.353  -6.138  -1.334  1.00  0.00    -0.207 F 
ENDBRANCH  20  22
ENDBRANCH   3  20
TORSDOF 5


