REMARK SMILES Cc1ccc(CCC([O-])=C2CCC2)c(C)c1
REMARK SMILES IDX 6 1 5 2 2 3 3 4 16 5 4 6 14 7 1 8 15 9 7 10 8 11 9 12 10 13
REMARK SMILES IDX 11 14 13 15 12 16
REMARK H PARENT
ROOT
ATOM      1  C   UNL     1      -1.267   0.893   1.956  1.00  0.00     0.039 C 
ENDROOT
BRANCH   1   2
ATOM      2  C   UNL     1      -1.482  -0.237   0.970  1.00  0.00    -0.045 A 
ATOM      3  C   UNL     1      -1.712  -2.353  -0.881  1.00  0.00    -0.051 A 
ATOM      4  C   UNL     1      -0.864  -2.471   0.225  1.00  0.00     0.004 A 
ATOM      5  C   UNL     1      -2.471  -1.187  -1.047  1.00  0.00     0.007 A 
ATOM      6  C   UNL     1      -0.748  -1.424   1.138  1.00  0.00     0.004 A 
ATOM      7  C   UNL     1      -2.357  -0.117  -0.141  1.00  0.00    -0.048 A 
ATOM      8  C   UNL     1      -1.863  -3.496  -1.841  1.00  0.00     0.044 C 
ATOM      9  C   UNL     1      -3.203   1.112  -0.355  1.00  0.00     0.044 C 
ENDBRANCH   1   2
BRANCH   1  10
ATOM     10  C   UNL     1      -0.161   1.856   1.499  1.00  0.00     0.023 C 
BRANCH  10  11
ATOM     11  C   UNL     1       1.189   1.194   1.497  1.00  0.00    -0.133 C 
ATOM     12  O   UNL     1       1.869   1.027   2.697  1.00  0.00    -0.875 OA
BRANCH  11  13
ATOM     13  C   UNL     1       1.730   0.735   0.371  1.00  0.00    -0.082 C 
ATOM     14  C   UNL     1       1.378   0.675  -1.105  1.00  0.00     0.030 C 
ATOM     15  C   UNL     1       2.995   0.004  -0.032  1.00  0.00     0.030 C 
ATOM     16  C   UNL     1       2.630  -0.049  -1.480  1.00  0.00     0.009 C 
ENDBRANCH  11  13
ENDBRANCH  10  11
ENDBRANCH   1  10
TORSDOF 4


