MODEL 1
REMARK VINA RESULT:      -8.0      0.000      0.000
REMARK SMILES C=Cc1cc(C2=CC=C[C@@]3(F)N=CO[C@@]23O)cc([O-])c1F
REMARK SMILES IDX 6 1 7 2 8 3 9 4 10 5 11 6 12 7 13 8 14 9 15 10 5 11 3 12
REMARK SMILES IDX 4 13 20 14 18 15 17 16 21 17 19 18 2 19 1 20 16 21
REMARK H PARENT 16 22
ROOT
ATOM      1  C   UNL     1      45.294 130.760  17.223  1.00  0.00     0.036 C 
ATOM      2  C   UNL     1      46.009 129.625  17.201  1.00  0.00     0.011 C 
ATOM      3  C   UNL     1      46.824 129.233  16.049  1.00  0.00     0.002 C 
ATOM      4  C   UNL     1      46.932 130.002  14.970  1.00  0.00     0.045 C 
ATOM      5  C   UNL     1      46.203 131.308  14.820  1.00  0.00     0.291 C 
ATOM      6  F   UNL     1      47.134 132.308  14.590  1.00  0.00    -0.205 F 
ATOM      7  N   UNL     1      45.320 131.210  13.666  1.00  0.00    -0.208 NA
ATOM      8  C   UNL     1      44.100 131.356  14.044  1.00  0.00     0.304 C 
ATOM      9  O   UNL     1      43.966 131.588  15.395  1.00  0.00    -0.442 OA
ATOM     10  C   UNL     1      45.243 131.680  16.006  1.00  0.00     0.295 C 
ENDROOT
BRANCH   1  11
ATOM     11  C   UNL     1      44.577 131.142  18.471  1.00  0.00    -0.015 A 
ATOM     12  C   UNL     1      44.378 131.111  20.913  1.00  0.00     0.010 A 
ATOM     13  C   UNL     1      45.072 130.769  19.734  1.00  0.00     0.019 A 
ATOM     14  C   UNL     1      43.190 131.858  20.813  1.00  0.00     0.122 A 
ATOM     15  C   UNL     1      42.693 132.228  19.561  1.00  0.00    -0.071 A 
ATOM     16  C   UNL     1      43.377 131.871  18.398  1.00  0.00     0.003 A 
ATOM     17  F   UNL     1      42.503 132.212  21.930  1.00  0.00    -0.207 F 
ATOM     18  O   UNL     1      41.511 132.954  19.469  1.00  0.00    -0.870 OA
BRANCH  12  19
ATOM     19  C   UNL     1      44.887 130.741  22.258  1.00  0.00     0.003 C 
ATOM     20  C   UNL     1      44.404 129.731  22.983  1.00  0.00     0.009 C 
ENDBRANCH  12  19
ENDBRANCH   1  11
BRANCH  10  21
ATOM     21  O   UNL     1      45.447 133.014  16.405  1.00  0.00    -0.348 OA
ATOM     22  H   UNL     1      45.843 132.993  17.316  1.00  0.00     0.215 HD
ENDBRANCH  10  21
TORSDOF 3
ENDMDL
MODEL 2
REMARK VINA RESULT:      -7.1      1.293      2.195
REMARK SMILES C=Cc1cc(C2=CC=C[C@@]3(F)N=CO[C@@]23O)cc([O-])c1F
REMARK SMILES IDX 6 1 7 2 8 3 9 4 10 5 11 6 12 7 13 8 14 9 15 10 5 11 3 12
REMARK SMILES IDX 4 13 20 14 18 15 17 16 21 17 19 18 2 19 1 20 16 21
REMARK H PARENT 16 22
ROOT
ATOM      1  C   UNL     1      45.403 130.707  17.141  1.00  0.00     0.036 C 
ATOM      2  C   UNL     1      46.106 129.568  17.049  1.00  0.00     0.011 C 
ATOM      3  C   UNL     1      46.856 129.204  15.845  1.00  0.00     0.002 C 
ATOM      4  C   UNL     1      46.912 130.001  14.783  1.00  0.00     0.045 C 
ATOM      5  C   UNL     1      46.187 131.316  14.709  1.00  0.00     0.291 C 
ATOM      6  F   UNL     1      47.112 132.316  14.458  1.00  0.00    -0.205 F 
ATOM      7  N   UNL     1      45.243 131.256  13.601  1.00  0.00    -0.208 NA
ATOM      8  C   UNL     1      44.046 131.399  14.048  1.00  0.00     0.304 C 
ATOM      9  O   UNL     1      43.986 131.594  15.410  1.00  0.00    -0.442 OA
ATOM     10  C   UNL     1      45.294 131.661  15.954  1.00  0.00     0.295 C 
ENDROOT
BRANCH   1  11
ATOM     11  C   UNL     1      44.756 131.058  18.436  1.00  0.00    -0.015 A 
ATOM     12  C   UNL     1      42.956 132.140  19.698  1.00  0.00     0.010 A 
ATOM     13  C   UNL     1      43.554 131.787  18.470  1.00  0.00     0.019 A 
ATOM     14  C   UNL     1      43.568 131.730  20.896  1.00  0.00     0.122 A 
ATOM     15  C   UNL     1      44.764 131.009  20.868  1.00  0.00    -0.071 A 
ATOM     16  C   UNL     1      45.357 130.678  19.649  1.00  0.00     0.003 A 
ATOM     17  F   UNL     1      43.012 132.045  22.095  1.00  0.00    -0.207 F 
ATOM     18  O   UNL     1      45.370 130.620  22.057  1.00  0.00    -0.870 OA
BRANCH  12  19
ATOM     19  C   UNL     1      41.679 132.896  19.760  1.00  0.00     0.003 C 
ATOM     20  C   UNL     1      41.172 133.404  20.884  1.00  0.00     0.009 C 
ENDBRANCH  12  19
ENDBRANCH   1  11
BRANCH  10  21
ATOM     21  O   UNL     1      45.529 132.982  16.378  1.00  0.00    -0.348 OA
ATOM     22  H   UNL     1      46.407 132.991  16.844  1.00  0.00     0.215 HD
ENDBRANCH  10  21
TORSDOF 3
ENDMDL
MODEL 3
REMARK VINA RESULT:      -6.8      2.636      6.148
REMARK SMILES C=Cc1cc(C2=CC=C[C@@]3(F)N=CO[C@@]23O)cc([O-])c1F
REMARK SMILES IDX 6 1 7 2 8 3 9 4 10 5 11 6 12 7 13 8 14 9 15 10 5 11 3 12
REMARK SMILES IDX 4 13 20 14 18 15 17 16 21 17 19 18 2 19 1 20 16 21
REMARK H PARENT 16 22
ROOT
ATOM      1  C   UNL     1      44.237 131.331  18.837  1.00  0.00     0.036 C 
ATOM      2  C   UNL     1      43.031 131.829  19.147  1.00  0.00     0.011 C 
ATOM      3  C   UNL     1      42.629 132.113  20.526  1.00  0.00     0.002 C 
ATOM      4  C   UNL     1      43.454 131.926  21.551  1.00  0.00     0.045 C 
ATOM      5  C   UNL     1      44.844 131.376  21.393  1.00  0.00     0.291 C 
ATOM      6  F   UNL     1      45.742 132.287  21.925  1.00  0.00    -0.205 F 
ATOM      7  N   UNL     1      44.933 130.131  22.144  1.00  0.00    -0.208 NA
ATOM      8  C   UNL     1      45.193 129.162  21.340  1.00  0.00     0.304 C 
ATOM      9  O   UNL     1      45.343 129.558  20.029  1.00  0.00    -0.442 OA
ATOM     10  C   UNL     1      45.241 130.969  19.929  1.00  0.00     0.295 C 
ENDROOT
BRANCH   1  11
ATOM     11  C   UNL     1      44.611 131.172  17.404  1.00  0.00    -0.015 A 
ATOM     12  C   UNL     1      46.192 130.446  15.679  1.00  0.00     0.010 A 
ATOM     13  C   UNL     1      45.830 130.574  17.036  1.00  0.00     0.019 A 
ATOM     14  C   UNL     1      45.303 130.904  14.690  1.00  0.00     0.122 A 
ATOM     15  C   UNL     1      44.093 131.502  15.050  1.00  0.00    -0.071 A 
ATOM     16  C   UNL     1      43.750 131.639  16.396  1.00  0.00     0.003 A 
ATOM     17  F   UNL     1      45.618 130.787  13.374  1.00  0.00    -0.207 F 
ATOM     18  O   UNL     1      43.226 131.965  14.067  1.00  0.00    -0.870 OA
BRANCH  12  19
ATOM     19  C   UNL     1      47.467 129.806  15.265  1.00  0.00     0.003 C 
ATOM     20  C   UNL     1      47.783 129.534  13.998  1.00  0.00     0.009 C 
ENDBRANCH  12  19
ENDBRANCH   1  11
BRANCH  10  21
ATOM     21  O   UNL     1      46.510 131.481  19.602  1.00  0.00    -0.348 OA
ATOM     22  H   UNL     1      47.186 130.842  19.954  1.00  0.00     0.215 HD
ENDBRANCH  10  21
TORSDOF 3
ENDMDL
MODEL 4
REMARK VINA RESULT:      -6.6      2.345      6.095
REMARK SMILES C=Cc1cc(C2=CC=C[C@@]3(F)N=CO[C@@]23O)cc([O-])c1F
REMARK SMILES IDX 6 1 7 2 8 3 9 4 10 5 11 6 12 7 13 8 14 9 15 10 5 11 3 12
REMARK SMILES IDX 4 13 20 14 18 15 17 16 21 17 19 18 2 19 1 20 16 21
REMARK H PARENT 16 22
ROOT
ATOM      1  C   UNL     1      44.473 131.478  18.792  1.00  0.00     0.036 C 
ATOM      2  C   UNL     1      45.537 131.533  19.606  1.00  0.00     0.011 C 
ATOM      3  C   UNL     1      45.408 131.604  21.063  1.00  0.00     0.002 C 
ATOM      4  C   UNL     1      44.224 131.581  21.666  1.00  0.00     0.045 C 
ATOM      5  C   UNL     1      42.924 131.521  20.913  1.00  0.00     0.291 C 
ATOM      6  F   UNL     1      42.219 130.407  21.339  1.00  0.00    -0.205 F 
ATOM      7  N   UNL     1      42.155 132.717  21.231  1.00  0.00    -0.208 NA
ATOM      8  C   UNL     1      41.957 133.399  20.159  1.00  0.00     0.304 C 
ATOM      9  O   UNL     1      42.486 132.814  19.030  1.00  0.00    -0.442 OA
ATOM     10  C   UNL     1      43.053 131.554  19.349  1.00  0.00     0.295 C 
ENDROOT
BRANCH   1  11
ATOM     11  C   UNL     1      44.686 131.297  17.329  1.00  0.00    -0.015 A 
ATOM     12  C   UNL     1      46.065 130.541  15.450  1.00  0.00     0.010 A 
ATOM     13  C   UNL     1      45.855 130.689  16.836  1.00  0.00     0.019 A 
ATOM     14  C   UNL     1      45.074 130.990  14.559  1.00  0.00     0.122 A 
ATOM     15  C   UNL     1      43.912 131.598  15.042  1.00  0.00    -0.071 A 
ATOM     16  C   UNL     1      43.720 131.755  16.415  1.00  0.00     0.003 A 
ATOM     17  F   UNL     1      45.241 130.853  13.217  1.00  0.00    -0.207 F 
ATOM     18  O   UNL     1      42.944 132.052  14.154  1.00  0.00    -0.870 OA
BRANCH  12  19
ATOM     19  C   UNL     1      47.284 129.889  14.906  1.00  0.00     0.003 C 
ATOM     20  C   UNL     1      47.804 130.168  13.711  1.00  0.00     0.009 C 
ENDBRANCH  12  19
ENDBRANCH   1  11
BRANCH  10  21
ATOM     21  O   UNL     1      42.255 130.551  18.767  1.00  0.00    -0.348 OA
ATOM     22  H   UNL     1      41.318 130.882  18.768  1.00  0.00     0.215 HD
ENDBRANCH  10  21
TORSDOF 3
ENDMDL
MODEL 5
REMARK VINA RESULT:      -5.8      2.924      6.576
REMARK SMILES C=Cc1cc(C2=CC=C[C@@]3(F)N=CO[C@@]23O)cc([O-])c1F
REMARK SMILES IDX 6 1 7 2 8 3 9 4 10 5 11 6 12 7 13 8 14 9 15 10 5 11 3 12
REMARK SMILES IDX 4 13 20 14 18 15 17 16 21 17 19 18 2 19 1 20 16 21
REMARK H PARENT 16 22
ROOT
ATOM      1  C   UNL     1      44.064 131.353  19.655  1.00  0.00     0.036 C 
ATOM      2  C   UNL     1      42.837 131.860  19.847  1.00  0.00     0.011 C 
ATOM      3  C   UNL     1      42.315 132.168  21.180  1.00  0.00     0.002 C 
ATOM      4  C   UNL     1      43.044 131.995  22.278  1.00  0.00     0.045 C 
ATOM      5  C   UNL     1      44.440 131.438  22.254  1.00  0.00     0.291 C 
ATOM      6  F   UNL     1      45.291 132.355  22.849  1.00  0.00    -0.205 F 
ATOM      7  N   UNL     1      44.454 130.205  23.030  1.00  0.00    -0.208 NA
ATOM      8  C   UNL     1      44.781 129.222  22.269  1.00  0.00     0.304 C 
ATOM      9  O   UNL     1      45.049 129.596  20.971  1.00  0.00    -0.442 OA
ATOM     10  C   UNL     1      44.964 131.005  20.839  1.00  0.00     0.295 C 
ENDROOT
BRANCH   1  11
ATOM     11  C   UNL     1      44.564 131.168  18.265  1.00  0.00    -0.015 A 
ATOM     12  C   UNL     1      44.328 131.505  15.850  1.00  0.00     0.010 A 
ATOM     13  C   UNL     1      43.865 131.702  17.166  1.00  0.00     0.019 A 
ATOM     14  C   UNL     1      45.519 130.785  15.646  1.00  0.00     0.122 A 
ATOM     15  C   UNL     1      46.215 130.250  16.732  1.00  0.00    -0.071 A 
ATOM     16  C   UNL     1      45.741 130.436  18.032  1.00  0.00     0.003 A 
ATOM     17  F   UNL     1      45.997 130.586  14.390  1.00  0.00    -0.207 F 
ATOM     18  O   UNL     1      47.384 129.527  16.521  1.00  0.00    -0.870 OA
BRANCH  12  19
ATOM     19  C   UNL     1      43.616 132.070  14.675  1.00  0.00     0.003 C 
ATOM     20  C   UNL     1      43.036 131.328  13.731  1.00  0.00     0.009 C 
ENDBRANCH  12  19
ENDBRANCH   1  11
BRANCH  10  21
ATOM     21  O   UNL     1      46.260 131.507  20.618  1.00  0.00    -0.348 OA
ATOM     22  H   UNL     1      46.679 130.944  19.915  1.00  0.00     0.215 HD
ENDBRANCH  10  21
TORSDOF 3
ENDMDL
MODEL 6
REMARK VINA RESULT:      -5.2      1.431      2.212
REMARK SMILES C=Cc1cc(C2=CC=C[C@@]3(F)N=CO[C@@]23O)cc([O-])c1F
REMARK SMILES IDX 6 1 7 2 8 3 9 4 10 5 11 6 12 7 13 8 14 9 15 10 5 11 3 12
REMARK SMILES IDX 4 13 20 14 18 15 17 16 21 17 19 18 2 19 1 20 16 21
REMARK H PARENT 16 22
ROOT
ATOM      1  C   UNL     1      43.898 131.505  16.576  1.00  0.00     0.036 C 
ATOM      2  C   UNL     1      42.933 131.841  15.708  1.00  0.00     0.011 C 
ATOM      3  C   UNL     1      43.059 131.612  14.267  1.00  0.00     0.002 C 
ATOM      4  C   UNL     1      44.127 131.021  13.740  1.00  0.00     0.045 C 
ATOM      5  C   UNL     1      45.304 130.576  14.561  1.00  0.00     0.291 C 
ATOM      6  F   UNL     1      45.498 129.220  14.356  1.00  0.00    -0.205 F 
ATOM      7  N   UNL     1      46.483 131.297  14.100  1.00  0.00    -0.208 NA
ATOM      8  C   UNL     1      46.952 132.012  15.060  1.00  0.00     0.304 C 
ATOM      9  O   UNL     1      46.250 131.883  16.238  1.00  0.00    -0.442 OA
ATOM     10  C   UNL     1      45.221 130.918  16.092  1.00  0.00     0.295 C 
ENDROOT
BRANCH   1  11
ATOM     11  C   UNL     1      43.651 131.670  18.036  1.00  0.00    -0.015 A 
ATOM     12  C   UNL     1      44.279 131.254  20.367  1.00  0.00     0.010 A 
ATOM     13  C   UNL     1      44.528 131.116  18.986  1.00  0.00     0.019 A 
ATOM     14  C   UNL     1      43.149 131.978  20.787  1.00  0.00     0.122 A 
ATOM     15  C   UNL     1      42.273 132.528  19.848  1.00  0.00    -0.071 A 
ATOM     16  C   UNL     1      42.518 132.373  18.483  1.00  0.00     0.003 A 
ATOM     17  F   UNL     1      42.886 132.137  22.111  1.00  0.00    -0.207 F 
ATOM     18  O   UNL     1      41.150 133.230  20.271  1.00  0.00    -0.870 OA
BRANCH  12  19
ATOM     19  C   UNL     1      45.197 130.690  21.390  1.00  0.00     0.003 C 
ATOM     20  C   UNL     1      45.112 129.445  21.858  1.00  0.00     0.009 C 
ENDBRANCH  12  19
ENDBRANCH   1  11
BRANCH  10  21
ATOM     21  O   UNL     1      45.559 129.793  16.867  1.00  0.00    -0.348 OA
ATOM     22  H   UNL     1      44.777 129.179  16.852  1.00  0.00     0.215 HD
ENDBRANCH  10  21
TORSDOF 3
ENDMDL
MODEL 7
REMARK VINA RESULT:      -5.1      2.372      6.081
REMARK SMILES C=Cc1cc(C2=CC=C[C@@]3(F)N=CO[C@@]23O)cc([O-])c1F
REMARK SMILES IDX 6 1 7 2 8 3 9 4 10 5 11 6 12 7 13 8 14 9 15 10 5 11 3 12
REMARK SMILES IDX 4 13 20 14 18 15 17 16 21 17 19 18 2 19 1 20 16 21
REMARK H PARENT 16 22
ROOT
ATOM      1  C   UNL     1      45.302 130.482  18.831  1.00  0.00     0.036 C 
ATOM      2  C   UNL     1      45.854 129.417  19.431  1.00  0.00     0.011 C 
ATOM      3  C   UNL     1      45.744 129.181  20.872  1.00  0.00     0.002 C 
ATOM      4  C   UNL     1      45.055 129.995  21.666  1.00  0.00     0.045 C 
ATOM      5  C   UNL     1      44.370 131.237  21.169  1.00  0.00     0.291 C 
ATOM      6  F   UNL     1      43.024 131.157  21.490  1.00  0.00    -0.205 F 
ATOM      7  N   UNL     1      44.951 132.385  21.850  1.00  0.00    -0.208 NA
ATOM      8  C   UNL     1      45.499 133.166  20.987  1.00  0.00     0.304 C 
ATOM      9  O   UNL     1      45.365 132.730  19.688  1.00  0.00    -0.442 OA
ATOM     10  C   UNL     1      44.577 131.552  19.644  1.00  0.00     0.295 C 
ENDROOT
BRANCH   1  11
ATOM     11  C   UNL     1      45.366 130.595  17.348  1.00  0.00    -0.015 A 
ATOM     12  C   UNL     1      46.521 130.193  15.225  1.00  0.00     0.010 A 
ATOM     13  C   UNL     1      46.451 130.064  16.627  1.00  0.00     0.019 A 
ATOM     14  C   UNL     1      45.473 130.842  14.547  1.00  0.00     0.122 A 
ATOM     15  C   UNL     1      44.394 131.374  15.258  1.00  0.00    -0.071 A 
ATOM     16  C   UNL     1      44.342 131.256  16.648  1.00  0.00     0.003 A 
ATOM     17  F   UNL     1      45.505 130.975  13.195  1.00  0.00    -0.207 F 
ATOM     18  O   UNL     1      43.369 132.026  14.582  1.00  0.00    -0.870 OA
BRANCH  12  19
ATOM     19  C   UNL     1      47.649 129.629  14.439  1.00  0.00     0.003 C 
ATOM     20  C   UNL     1      48.092 130.153  13.297  1.00  0.00     0.009 C 
ENDBRANCH  12  19
ENDBRANCH   1  11
BRANCH  10  21
ATOM     21  O   UNL     1      43.347 131.865  19.034  1.00  0.00    -0.348 OA
ATOM     22  H   UNL     1      43.545 132.451  18.256  1.00  0.00     0.215 HD
ENDBRANCH  10  21
TORSDOF 3
ENDMDL
MODEL 8
REMARK VINA RESULT:      -5.0      3.394      6.737
REMARK SMILES C=Cc1cc(C2=CC=C[C@@]3(F)N=CO[C@@]23O)cc([O-])c1F
REMARK SMILES IDX 6 1 7 2 8 3 9 4 10 5 11 6 12 7 13 8 14 9 15 10 5 11 3 12
REMARK SMILES IDX 4 13 20 14 18 15 17 16 21 17 19 18 2 19 1 20 16 21
REMARK H PARENT 16 22
ROOT
ATOM      1  C   UNL     1      43.286 131.548  21.655  1.00  0.00     0.036 C 
ATOM      2  C   UNL     1      42.152 131.996  22.212  1.00  0.00     0.011 C 
ATOM      3  C   UNL     1      41.974 132.091  23.663  1.00  0.00     0.002 C 
ATOM      4  C   UNL     1      42.945 131.772  24.513  1.00  0.00     0.045 C 
ATOM      5  C   UNL     1      44.284 131.252  24.067  1.00  0.00     0.291 C 
ATOM      6  F   UNL     1      45.269 132.087  24.569  1.00  0.00    -0.205 F 
ATOM      7  N   UNL     1      44.465 129.919  24.624  1.00  0.00    -0.208 NA
ATOM      8  C   UNL     1      44.581 129.066  23.668  1.00  0.00     0.304 C 
ATOM      9  O   UNL     1      44.532 129.635  22.414  1.00  0.00    -0.442 OA
ATOM     10  C   UNL     1      44.441 131.046  22.519  1.00  0.00     0.295 C 
ENDROOT
BRANCH   1  11
ATOM     11  C   UNL     1      43.430 131.583  20.173  1.00  0.00    -0.015 A 
ATOM     12  C   UNL     1      44.760 131.212  18.149  1.00  0.00     0.010 A 
ATOM     13  C   UNL     1      44.617 131.156  19.550  1.00  0.00     0.019 A 
ATOM     14  C   UNL     1      43.685 131.681  17.372  1.00  0.00     0.122 A 
ATOM     15  C   UNL     1      42.505 132.109  17.986  1.00  0.00    -0.071 A 
ATOM     16  C   UNL     1      42.378 132.065  19.375  1.00  0.00     0.003 A 
ATOM     17  F   UNL     1      43.787 131.738  16.019  1.00  0.00    -0.207 F 
ATOM     18  O   UNL     1      41.452 132.584  17.212  1.00  0.00    -0.870 OA
BRANCH  12  19
ATOM     19  C   UNL     1      45.998 130.754  17.467  1.00  0.00     0.003 C 
ATOM     20  C   UNL     1      46.023 129.797  16.540  1.00  0.00     0.009 C 
ENDBRANCH  12  19
ENDBRANCH   1  11
BRANCH  10  21
ATOM     21  O   UNL     1      45.653 131.601  22.068  1.00  0.00    -0.348 OA
ATOM     22  H   UNL     1      45.981 131.029  21.325  1.00  0.00     0.215 HD
ENDBRANCH  10  21
TORSDOF 3
ENDMDL


