REMARK SMILES CC(=O)[N-]c1cc(C)cc(-n2[nH+]c3ccccc3[nH+]2)c1[O-]
REMARK SMILES IDX 5 1 6 2 7 3 8 4 9 5 10 6 20 7 21 8 4 9 2 10 1 11 3 12 11 13
REMARK SMILES IDX 12 14 19 15 13 16 18 17 14 18 17 19 15 20 16 21
REMARK H PARENT 12 22 19 23
ROOT
ATOM      1  C   UNL     1      -0.803  -3.041   1.437  1.00  0.00    -0.140 A 
ATOM      2  C   UNL     1      -2.125  -2.881   1.863  1.00  0.00    -0.013 A 
ATOM      3  C   UNL     1      -2.928  -1.863   1.332  1.00  0.00    -0.050 A 
ATOM      4  C   UNL     1      -4.326  -1.662   1.838  1.00  0.00     0.044 C 
ATOM      5  C   UNL     1      -2.390  -0.985   0.381  1.00  0.00     0.041 A 
ATOM      6  C   UNL     1      -1.073  -1.146  -0.077  1.00  0.00     0.159 A 
ATOM      7  C   UNL     1      -0.289  -2.201   0.430  1.00  0.00    -0.087 A 
ATOM      8  O   UNL     1       0.973  -2.447  -0.100  1.00  0.00    -0.872 OA
ENDROOT
BRANCH   1   9
ATOM      9  N   UNL     1      -0.025  -4.109   1.990  1.00  0.00    -0.628 NA
BRANCH   9  10
ATOM     10  C   UNL     1       1.327  -4.003   2.457  1.00  0.00     0.051 C 
ATOM     11  C   UNL     1       1.946  -2.683   2.801  1.00  0.00     0.065 C 
ATOM     12  O   UNL     1       2.005  -5.054   2.607  1.00  0.00    -0.321 OA
ENDBRANCH   9  10
ENDBRANCH   1   9
BRANCH   6  13
ATOM     13  N   UNL     1      -0.547  -0.245  -1.068  1.00  0.00     0.079 N 
ATOM     14  N   UNL     1       0.694   0.242  -1.062  1.00  0.00    -0.062 N 
ATOM     15  N   UNL     1      -1.254   0.240  -2.088  1.00  0.00    -0.062 N 
ATOM     16  C   UNL     1       0.778   1.061  -2.122  1.00  0.00     0.306 A 
ATOM     17  C   UNL     1      -0.428   1.059  -2.758  1.00  0.00     0.306 A 
ATOM     18  C   UNL     1       1.850   1.829  -2.565  1.00  0.00     0.089 A 
ATOM     19  C   UNL     1      -0.668   1.820  -3.898  1.00  0.00     0.089 A 
ATOM     20  C   UNL     1       1.647   2.614  -3.718  1.00  0.00     0.007 A 
ATOM     21  C   UNL     1       0.395   2.609  -4.381  1.00  0.00     0.007 A 
ATOM     22  H   UNL     1       1.431   0.051  -0.347  1.00  0.00     0.495 HD
ATOM     23  H   UNL     1      -2.248   0.012  -2.315  1.00  0.00     0.495 HD
ENDBRANCH   6  13
TORSDOF 3


