REMARK SMILES CSc1ccc([NH2+]C(=S)Oc2ccc(-c3ccc(C)c4n[n-]cc34)cc2)cc1
REMARK SMILES IDX 8 1 9 2 7 3 6 6 3 7 4 8 28 9 5 10 27 11 2 12 1 13 10 14
REMARK SMILES IDX 11 15 12 16 26 17 13 18 25 19 14 20 15 21 16 22 24 23 17 24
REMARK SMILES IDX 23 25 20 26 18 27 22 28 21 29 19 30
REMARK H PARENT 7 4 7 5
ROOT
ATOM      1  C   UNL     1      -0.943  -3.891   0.134  1.00  0.00     0.370 C 
ATOM      2  S   UNL     1      -1.321  -5.455   0.442  1.00  0.00     0.028 S 
ENDROOT
BRANCH   1   3
ATOM      3  N   UNL     1      -1.395  -3.268  -1.089  1.00  0.00    -0.239 N 
ATOM      4  H   UNL     1      -0.569  -3.012  -1.673  1.00  0.00     0.362 HD
ATOM      5  H   UNL     1      -1.970  -3.939  -1.650  1.00  0.00     0.362 HD
BRANCH   3   6
ATOM      6  C   UNL     1      -2.210  -2.113  -0.796  1.00  0.00     0.137 A 
ATOM      7  C   UNL     1      -3.790   0.136  -0.199  1.00  0.00     0.007 A 
ATOM      8  C   UNL     1      -2.561   0.295  -0.848  1.00  0.00     0.021 A 
ATOM      9  C   UNL     1      -4.235  -1.145   0.146  1.00  0.00     0.021 A 
ATOM     10  C   UNL     1      -1.779  -0.822  -1.154  1.00  0.00     0.069 A 
ATOM     11  C   UNL     1      -3.454  -2.264  -0.154  1.00  0.00     0.069 A 
BRANCH   7  12
ATOM     12  S   UNL     1      -4.788   1.572   0.200  1.00  0.00    -0.130 SA
ATOM     13  C   UNL     1      -5.690   1.535  -1.380  1.00  0.00     0.091 C 
ENDBRANCH   7  12
ENDBRANCH   3   6
ENDBRANCH   1   3
BRANCH   1  14
ATOM     14  O   UNL     1      -0.235  -3.179   1.114  1.00  0.00    -0.404 OA
BRANCH  14  15
ATOM     15  C   UNL     1       0.479  -2.001   0.878  1.00  0.00     0.134 A 
ATOM     16  C   UNL     1       1.408  -1.909  -0.169  1.00  0.00     0.048 A 
ATOM     17  C   UNL     1       0.277  -0.903   1.719  1.00  0.00     0.048 A 
ATOM     18  C   UNL     1       2.089  -0.711  -0.401  1.00  0.00     0.012 A 
ATOM     19  C   UNL     1       0.955   0.297   1.488  1.00  0.00     0.012 A 
ATOM     20  C   UNL     1       1.867   0.404   0.425  1.00  0.00    -0.018 A 
BRANCH  20  21
ATOM     21  C   UNL     1       2.568   1.680   0.158  1.00  0.00    -0.011 A 
ATOM     22  C   UNL     1       2.613   2.221  -1.147  1.00  0.00     0.010 A 
ATOM     23  C   UNL     1       3.216   2.406   1.166  1.00  0.00    -0.014 A 
ATOM     24  C   UNL     1       3.272   3.444  -1.402  1.00  0.00     0.006 A 
ATOM     25  C   UNL     1       3.427   2.163   2.506  1.00  0.00    -0.113 A 
ATOM     26  C   UNL     1       3.856   3.589   0.919  1.00  0.00     0.050 A 
ATOM     27  C   UNL     1       3.897   4.157  -0.357  1.00  0.00    -0.027 A 
ATOM     28  N   UNL     1       4.158   3.182   3.013  1.00  0.00    -0.581 NA
ATOM     29  N   UNL     1       4.423   4.055   2.046  1.00  0.00    -0.367 NA
ATOM     30  C   UNL     1       4.640   5.432  -0.622  1.00  0.00     0.046 C 
ENDBRANCH  20  21
ENDBRANCH  14  15
ENDBRANCH   1  14
TORSDOF 6


