MODEL 1
REMARK VINA RESULT:     -10.4      0.000      0.000
REMARK SMILES N[NH2+]c1ccccc1-c1[nH]c2ccccc2[nH+]1
REMARK SMILES IDX 3 1 4 2 5 3 6 4 7 5 8 6 2 7 1 10 9 13 10 14 17 15 11 16
REMARK SMILES IDX 16 17 12 18 15 19 13 20 14 21
REMARK H PARENT 2 8 2 9 1 11 1 12 10 22 17 23
ROOT
ATOM      1  C   UNL     1      43.567 131.681  19.010  1.00  0.00     0.164 A 
ATOM      2  C   UNL     1      43.056 131.815  20.315  1.00  0.00     0.071 A 
ATOM      3  C   UNL     1      43.836 131.484  21.425  1.00  0.00     0.006 A 
ATOM      4  C   UNL     1      45.137 131.018  21.250  1.00  0.00     0.001 A 
ATOM      5  C   UNL     1      45.659 130.866  19.965  1.00  0.00     0.023 A 
ATOM      6  C   UNL     1      44.883 131.173  18.834  1.00  0.00     0.126 A 
ENDROOT
BRANCH   1   7
ATOM      7  N   UNL     1      42.741 132.081  17.895  1.00  0.00    -0.239 N 
ATOM      8  H   UNL     1      43.274 132.716  17.255  1.00  0.00     0.376 HD
ATOM      9  H   UNL     1      42.432 131.255  17.334  1.00  0.00     0.376 HD
BRANCH   7  10
ATOM     10  N   UNL     1      41.609 132.760  18.390  1.00  0.00    -0.178 NA
ATOM     11  H   UNL     1      41.610 132.696  19.435  1.00  0.00     0.183 HD
ATOM     12  H   UNL     1      41.716 133.775  18.158  1.00  0.00     0.183 HD
ENDBRANCH   7  10
ENDBRANCH   1   7
BRANCH   6  13
ATOM     13  C   UNL     1      45.487 130.969  17.500  1.00  0.00     0.291 A 
ATOM     14  N   UNL     1      46.088 129.816  17.104  1.00  0.00    -0.236 N 
ATOM     15  N   UNL     1      45.562 131.947  16.561  1.00  0.00    -0.236 N 
ATOM     16  C   UNL     1      46.534 130.088  15.868  1.00  0.00     0.172 A 
ATOM     17  C   UNL     1      46.216 131.372  15.540  1.00  0.00     0.172 A 
ATOM     18  C   UNL     1      47.238 129.255  15.000  1.00  0.00     0.056 A 
ATOM     19  C   UNL     1      46.571 131.932  14.314  1.00  0.00     0.056 A 
ATOM     20  C   UNL     1      47.611 129.785  13.750  1.00  0.00     0.005 A 
ATOM     21  C   UNL     1      47.278 131.117  13.408  1.00  0.00     0.005 A 
ATOM     22  H   UNL     1      46.218 128.935  17.646  1.00  0.00     0.312 HD
ATOM     23  H   UNL     1      45.195 132.924  16.617  1.00  0.00     0.312 HD
ENDBRANCH   6  13
TORSDOF 3
ENDMDL
MODEL 2
REMARK VINA RESULT:     -10.3      0.141      1.424
REMARK SMILES N[NH2+]c1ccccc1-c1[nH]c2ccccc2[nH+]1
REMARK SMILES IDX 3 1 4 2 5 3 6 4 7 5 8 6 2 7 1 10 9 13 10 14 17 15 11 16
REMARK SMILES IDX 16 17 12 18 15 19 13 20 14 21
REMARK H PARENT 2 8 2 9 1 11 1 12 10 22 17 23
ROOT
ATOM      1  C   UNL     1      43.525 131.683  19.109  1.00  0.00     0.164 A 
ATOM      2  C   UNL     1      42.974 131.785  20.400  1.00  0.00     0.071 A 
ATOM      3  C   UNL     1      43.727 131.452  21.527  1.00  0.00     0.006 A 
ATOM      4  C   UNL     1      45.042 131.015  21.384  1.00  0.00     0.001 A 
ATOM      5  C   UNL     1      45.606 130.896  20.112  1.00  0.00     0.023 A 
ATOM      6  C   UNL     1      44.857 131.206  18.964  1.00  0.00     0.126 A 
ENDROOT
BRANCH   1   7
ATOM      7  N   UNL     1      42.724 132.085  17.976  1.00  0.00    -0.239 N 
ATOM      8  H   UNL     1      43.279 132.703  17.337  1.00  0.00     0.376 HD
ATOM      9  H   UNL     1      42.409 131.258  17.420  1.00  0.00     0.376 HD
BRANCH   7  10
ATOM     10  N   UNL     1      41.597 132.791  18.445  1.00  0.00    -0.178 NA
ATOM     11  H   UNL     1      41.413 132.507  19.436  1.00  0.00     0.183 HD
ATOM     12  H   UNL     1      41.843 133.808  18.472  1.00  0.00     0.183 HD
ENDBRANCH   7  10
ENDBRANCH   1   7
BRANCH   6  13
ATOM     13  C   UNL     1      45.504 131.037  17.645  1.00  0.00     0.291 A 
ATOM     14  N   UNL     1      45.528 131.995  16.681  1.00  0.00    -0.236 N 
ATOM     15  N   UNL     1      46.081 129.876  17.243  1.00  0.00    -0.236 N 
ATOM     16  C   UNL     1      46.158 131.408  15.652  1.00  0.00     0.172 A 
ATOM     17  C   UNL     1      46.492 130.130  15.991  1.00  0.00     0.172 A 
ATOM     18  C   UNL     1      46.444 131.940  14.396  1.00  0.00     0.056 A 
ATOM     19  C   UNL     1      47.145 129.277  15.104  1.00  0.00     0.056 A 
ATOM     20  C   UNL     1      47.108 131.107  13.474  1.00  0.00     0.005 A 
ATOM     21  C   UNL     1      47.458 129.782  13.827  1.00  0.00     0.005 A 
ATOM     22  H   UNL     1      45.114 132.952  16.708  1.00  0.00     0.312 HD
ATOM     23  H   UNL     1      46.182 128.987  17.781  1.00  0.00     0.312 HD
ENDBRANCH   6  13
TORSDOF 3
ENDMDL
MODEL 3
REMARK VINA RESULT:      -9.9      1.591      2.645
REMARK SMILES N[NH2+]c1ccccc1-c1[nH]c2ccccc2[nH+]1
REMARK SMILES IDX 3 1 4 2 5 3 6 4 7 5 8 6 2 7 1 10 9 13 10 14 17 15 11 16
REMARK SMILES IDX 16 17 12 18 15 19 13 20 14 21
REMARK H PARENT 2 8 2 9 1 11 1 12 10 22 17 23
ROOT
ATOM      1  C   UNL     1      44.762 131.456  19.459  1.00  0.00     0.164 A 
ATOM      2  C   UNL     1      43.850 131.793  20.477  1.00  0.00     0.071 A 
ATOM      3  C   UNL     1      42.532 132.136  20.171  1.00  0.00     0.006 A 
ATOM      4  C   UNL     1      42.103 132.146  18.845  1.00  0.00     0.001 A 
ATOM      5  C   UNL     1      42.994 131.826  17.819  1.00  0.00     0.023 A 
ATOM      6  C   UNL     1      44.330 131.499  18.104  1.00  0.00     0.126 A 
ENDROOT
BRANCH   1   7
ATOM      7  N   UNL     1      46.101 131.060  19.827  1.00  0.00    -0.239 N 
ATOM      8  H   UNL     1      46.149 130.023  19.972  1.00  0.00     0.376 HD
ATOM      9  H   UNL     1      46.790 131.306  19.080  1.00  0.00     0.376 HD
BRANCH   7  10
ATOM     10  N   UNL     1      46.455 131.716  21.024  1.00  0.00    -0.178 NA
ATOM     11  H   UNL     1      47.111 132.499  20.794  1.00  0.00     0.183 HD
ATOM     12  H   UNL     1      45.592 132.160  21.415  1.00  0.00     0.183 HD
ENDBRANCH   7  10
ENDBRANCH   1   7
BRANCH   6  13
ATOM     13  C   UNL     1      45.228 131.191  16.971  1.00  0.00     0.291 A 
ATOM     14  N   UNL     1      45.589 132.092  16.020  1.00  0.00    -0.236 N 
ATOM     15  N   UNL     1      45.725 129.950  16.732  1.00  0.00    -0.236 N 
ATOM     16  C   UNL     1      46.352 131.384  15.172  1.00  0.00     0.172 A 
ATOM     17  C   UNL     1      46.435 130.093  15.602  1.00  0.00     0.172 A 
ATOM     18  C   UNL     1      46.978 131.817  14.005  1.00  0.00     0.056 A 
ATOM     19  C   UNL     1      47.155 129.126  14.904  1.00  0.00     0.056 A 
ATOM     20  C   UNL     1      47.718 130.868  13.274  1.00  0.00     0.005 A 
ATOM     21  C   UNL     1      47.807 129.528  13.722  1.00  0.00     0.005 A 
ATOM     22  H   UNL     1      45.306 133.092  15.934  1.00  0.00     0.312 HD
ATOM     23  H   UNL     1      45.589 129.082  17.297  1.00  0.00     0.312 HD
ENDBRANCH   6  13
TORSDOF 3
ENDMDL
MODEL 4
REMARK VINA RESULT:      -9.8      1.558      2.241
REMARK SMILES N[NH2+]c1ccccc1-c1[nH]c2ccccc2[nH+]1
REMARK SMILES IDX 3 1 4 2 5 3 6 4 7 5 8 6 2 7 1 10 9 13 10 14 17 15 11 16
REMARK SMILES IDX 16 17 12 18 15 19 13 20 14 21
REMARK H PARENT 2 8 2 9 1 11 1 12 10 22 17 23
ROOT
ATOM      1  C   UNL     1      44.749 131.403  19.457  1.00  0.00     0.164 A 
ATOM      2  C   UNL     1      43.894 131.766  20.514  1.00  0.00     0.071 A 
ATOM      3  C   UNL     1      42.580 132.167  20.266  1.00  0.00     0.006 A 
ATOM      4  C   UNL     1      42.099 132.210  18.959  1.00  0.00     0.001 A 
ATOM      5  C   UNL     1      42.933 131.865  17.894  1.00  0.00     0.023 A 
ATOM      6  C   UNL     1      44.264 131.479  18.121  1.00  0.00     0.126 A 
ENDROOT
BRANCH   1   7
ATOM      7  N   UNL     1      46.084 130.948  19.766  1.00  0.00    -0.239 N 
ATOM      8  H   UNL     1      46.089 129.914  19.933  1.00  0.00     0.376 HD
ATOM      9  H   UNL     1      46.745 131.143  18.979  1.00  0.00     0.376 HD
BRANCH   7  10
ATOM     10  N   UNL     1      46.532 131.610  20.927  1.00  0.00    -0.178 NA
ATOM     11  H   UNL     1      45.764 131.592  21.639  1.00  0.00     0.183 HD
ATOM     12  H   UNL     1      47.320 131.053  21.332  1.00  0.00     0.183 HD
ENDBRANCH   7  10
ENDBRANCH   1   7
BRANCH   6  13
ATOM     13  C   UNL     1      45.102 131.147  16.949  1.00  0.00     0.291 A 
ATOM     14  N   UNL     1      45.620 129.914  16.709  1.00  0.00    -0.236 N 
ATOM     15  N   UNL     1      45.494 132.067  16.031  1.00  0.00    -0.236 N 
ATOM     16  C   UNL     1      46.346 130.076  15.591  1.00  0.00     0.172 A 
ATOM     17  C   UNL     1      46.268 131.374  15.182  1.00  0.00     0.172 A 
ATOM     18  C   UNL     1      47.103 129.128  14.907  1.00  0.00     0.056 A 
ATOM     19  C   UNL     1      46.939 131.834  14.050  1.00  0.00     0.056 A 
ATOM     20  C   UNL     1      47.792 129.555  13.755  1.00  0.00     0.005 A 
ATOM     21  C   UNL     1      47.710 130.902  13.328  1.00  0.00     0.005 A 
ATOM     22  H   UNL     1      45.523 129.047  17.281  1.00  0.00     0.312 HD
ATOM     23  H   UNL     1      45.251 133.083  15.992  1.00  0.00     0.312 HD
ENDBRANCH   6  13
TORSDOF 3
ENDMDL
MODEL 5
REMARK VINA RESULT:      -9.1      1.212      5.747
REMARK SMILES N[NH2+]c1ccccc1-c1[nH]c2ccccc2[nH+]1
REMARK SMILES IDX 3 1 4 2 5 3 6 4 7 5 8 6 2 7 1 10 9 13 10 14 17 15 11 16
REMARK SMILES IDX 16 17 12 18 15 19 13 20 14 21
REMARK H PARENT 2 8 2 9 1 11 1 12 10 22 17 23
ROOT
ATOM      1  C   UNL     1      45.784 131.354  14.653  1.00  0.00     0.164 A 
ATOM      2  C   UNL     1      46.430 131.145  13.420  1.00  0.00     0.071 A 
ATOM      3  C   UNL     1      47.459 130.210  13.302  1.00  0.00     0.006 A 
ATOM      4  C   UNL     1      47.858 129.468  14.412  1.00  0.00     0.001 A 
ATOM      5  C   UNL     1      47.240 129.667  15.647  1.00  0.00     0.023 A 
ATOM      6  C   UNL     1      46.216 130.619  15.791  1.00  0.00     0.126 A 
ENDROOT
BRANCH   1   7
ATOM      7  N   UNL     1      44.691 132.297  14.716  1.00  0.00    -0.239 N 
ATOM      8  H   UNL     1      44.577 132.660  15.693  1.00  0.00     0.376 HD
ATOM      9  H   UNL     1      44.860 133.119  14.092  1.00  0.00     0.376 HD
BRANCH   7  10
ATOM     10  N   UNL     1      43.506 131.645  14.319  1.00  0.00    -0.178 NA
ATOM     11  H   UNL     1      43.723 130.635  14.142  1.00  0.00     0.183 HD
ATOM     12  H   UNL     1      42.842 131.664  15.128  1.00  0.00     0.183 HD
ENDBRANCH   7  10
ENDBRANCH   1   7
BRANCH   6  13
ATOM     13  C   UNL     1      45.616 130.798  17.131  1.00  0.00     0.291 A 
ATOM     14  N   UNL     1      44.452 131.459  17.361  1.00  0.00    -0.236 N 
ATOM     15  N   UNL     1      46.212 130.374  18.275  1.00  0.00    -0.236 N 
ATOM     16  C   UNL     1      44.316 131.428  18.696  1.00  0.00     0.172 A 
ATOM     17  C   UNL     1      45.377 130.773  19.247  1.00  0.00     0.172 A 
ATOM     18  C   UNL     1      43.297 131.973  19.475  1.00  0.00     0.056 A 
ATOM     19  C   UNL     1      45.508 130.602  20.624  1.00  0.00     0.056 A 
ATOM     20  C   UNL     1      43.393 131.817  20.871  1.00  0.00     0.005 A 
ATOM     21  C   UNL     1      44.493 131.134  21.443  1.00  0.00     0.005 A 
ATOM     22  H   UNL     1      43.825 131.928  16.671  1.00  0.00     0.312 HD
ATOM     23  H   UNL     1      47.114 129.857  18.378  1.00  0.00     0.312 HD
ENDBRANCH   6  13
TORSDOF 3
ENDMDL
MODEL 6
REMARK VINA RESULT:      -9.0      1.212      5.616
REMARK SMILES N[NH2+]c1ccccc1-c1[nH]c2ccccc2[nH+]1
REMARK SMILES IDX 3 1 4 2 5 3 6 4 7 5 8 6 2 7 1 10 9 13 10 14 17 15 11 16
REMARK SMILES IDX 16 17 12 18 15 19 13 20 14 21
REMARK H PARENT 2 8 2 9 1 11 1 12 10 22 17 23
ROOT
ATOM      1  C   UNL     1      45.737 131.365  14.701  1.00  0.00     0.164 A 
ATOM      2  C   UNL     1      46.356 131.108  13.463  1.00  0.00     0.071 A 
ATOM      3  C   UNL     1      47.376 130.160  13.357  1.00  0.00     0.006 A 
ATOM      4  C   UNL     1      47.791 129.454  14.484  1.00  0.00     0.001 A 
ATOM      5  C   UNL     1      47.199 129.701  15.724  1.00  0.00     0.023 A 
ATOM      6  C   UNL     1      46.186 130.665  15.855  1.00  0.00     0.126 A 
ENDROOT
BRANCH   1   7
ATOM      7  N   UNL     1      44.653 132.318  14.753  1.00  0.00    -0.239 N 
ATOM      8  H   UNL     1      44.531 132.681  15.728  1.00  0.00     0.376 HD
ATOM      9  H   UNL     1      44.837 133.139  14.131  1.00  0.00     0.376 HD
BRANCH   7  10
ATOM     10  N   UNL     1      43.466 131.678  14.342  1.00  0.00    -0.178 NA
ATOM     11  H   UNL     1      42.649 132.203  14.735  1.00  0.00     0.183 HD
ATOM     12  H   UNL     1      43.397 131.765  13.301  1.00  0.00     0.183 HD
ENDBRANCH   7  10
ENDBRANCH   1   7
BRANCH   6  13
ATOM     13  C   UNL     1      45.615 130.895  17.199  1.00  0.00     0.291 A 
ATOM     14  N   UNL     1      46.179 130.450  18.352  1.00  0.00    -0.236 N 
ATOM     15  N   UNL     1      44.426 131.519  17.405  1.00  0.00    -0.236 N 
ATOM     16  C   UNL     1      45.314 130.827  19.307  1.00  0.00     0.172 A 
ATOM     17  C   UNL     1      44.258 131.473  18.736  1.00  0.00     0.172 A 
ATOM     18  C   UNL     1      45.396 130.614  20.681  1.00  0.00     0.056 A 
ATOM     19  C   UNL     1      43.195 131.965  19.491  1.00  0.00     0.056 A 
ATOM     20  C   UNL     1      44.342 131.100  21.478  1.00  0.00     0.005 A 
ATOM     21  C   UNL     1      43.247 131.774  20.886  1.00  0.00     0.005 A 
ATOM     22  H   UNL     1      47.056 129.899  18.474  1.00  0.00     0.312 HD
ATOM     23  H   UNL     1      43.787 131.939  16.693  1.00  0.00     0.312 HD
ENDBRANCH   6  13
TORSDOF 3
ENDMDL
MODEL 7
REMARK VINA RESULT:      -9.0      1.042      1.765
REMARK SMILES N[NH2+]c1ccccc1-c1[nH]c2ccccc2[nH+]1
REMARK SMILES IDX 3 1 4 2 5 3 6 4 7 5 8 6 2 7 1 10 9 13 10 14 17 15 11 16
REMARK SMILES IDX 16 17 12 18 15 19 13 20 14 21
REMARK H PARENT 2 8 2 9 1 11 1 12 10 22 17 23
ROOT
ATOM      1  C   UNL     1      43.145 132.072  19.978  1.00  0.00     0.164 A 
ATOM      2  C   UNL     1      42.711 132.150  21.314  1.00  0.00     0.071 A 
ATOM      3  C   UNL     1      43.465 131.587  22.345  1.00  0.00     0.006 A 
ATOM      4  C   UNL     1      44.666 130.940  22.058  1.00  0.00     0.001 A 
ATOM      5  C   UNL     1      45.110 130.841  20.738  1.00  0.00     0.023 A 
ATOM      6  C   UNL     1      44.354 131.382  19.685  1.00  0.00     0.126 A 
ENDROOT
BRANCH   1   7
ATOM      7  N   UNL     1      42.357 132.712  18.950  1.00  0.00    -0.239 N 
ATOM      8  H   UNL     1      41.869 133.555  19.336  1.00  0.00     0.376 HD
ATOM      9  H   UNL     1      42.954 133.030  18.154  1.00  0.00     0.376 HD
BRANCH   7  10
ATOM     10  N   UNL     1      41.397 131.794  18.478  1.00  0.00    -0.178 NA
ATOM     11  H   UNL     1      41.408 130.949  19.098  1.00  0.00     0.183 HD
ATOM     12  H   UNL     1      40.452 132.228  18.591  1.00  0.00     0.183 HD
ENDBRANCH   7  10
ENDBRANCH   1   7
BRANCH   6  13
ATOM     13  C   UNL     1      44.869 131.225  18.308  1.00  0.00     0.291 A 
ATOM     14  N   UNL     1      44.353 131.863  17.225  1.00  0.00    -0.236 N 
ATOM     15  N   UNL     1      45.869 130.367  17.981  1.00  0.00    -0.236 N 
ATOM     16  C   UNL     1      45.073 131.394  16.194  1.00  0.00     0.172 A 
ATOM     17  C   UNL     1      45.988 130.492  16.650  1.00  0.00     0.172 A 
ATOM     18  C   UNL     1      44.955 131.708  14.842  1.00  0.00     0.056 A 
ATOM     19  C   UNL     1      46.866 129.831  15.794  1.00  0.00     0.056 A 
ATOM     20  C   UNL     1      45.828 131.063  13.946  1.00  0.00     0.005 A 
ATOM     21  C   UNL     1      46.780 130.129  14.419  1.00  0.00     0.005 A 
ATOM     22  H   UNL     1      43.551 132.530  17.186  1.00  0.00     0.312 HD
ATOM     23  H   UNL     1      46.421 129.748  18.618  1.00  0.00     0.312 HD
ENDBRANCH   6  13
TORSDOF 3
ENDMDL
MODEL 8
REMARK VINA RESULT:      -8.7      1.422      5.895
REMARK SMILES N[NH2+]c1ccccc1-c1[nH]c2ccccc2[nH+]1
REMARK SMILES IDX 3 1 4 2 5 3 6 4 7 5 8 6 2 7 1 10 9 13 10 14 17 15 11 16
REMARK SMILES IDX 16 17 12 18 15 19 13 20 14 21
REMARK H PARENT 2 8 2 9 1 11 1 12 10 22 17 23
ROOT
ATOM      1  C   UNL     1      46.438 129.591  14.934  1.00  0.00     0.164 A 
ATOM      2  C   UNL     1      47.277 129.357  13.829  1.00  0.00     0.071 A 
ATOM      3  C   UNL     1      47.858 130.420  13.134  1.00  0.00     0.006 A 
ATOM      4  C   UNL     1      47.611 131.732  13.533  1.00  0.00     0.001 A 
ATOM      5  C   UNL     1      46.772 131.987  14.619  1.00  0.00     0.023 A 
ATOM      6  C   UNL     1      46.162 130.932  15.318  1.00  0.00     0.126 A 
ENDROOT
BRANCH   1   7
ATOM      7  N   UNL     1      45.899 128.459  15.651  1.00  0.00    -0.239 N 
ATOM      8  H   UNL     1      46.361 127.573  15.336  1.00  0.00     0.376 HD
ATOM      9  H   UNL     1      46.059 128.549  16.681  1.00  0.00     0.376 HD
BRANCH   7  10
ATOM     10  N   UNL     1      44.515 128.378  15.398  1.00  0.00    -0.178 NA
ATOM     11  H   UNL     1      44.007 128.913  16.142  1.00  0.00     0.183 HD
ATOM     12  H   UNL     1      44.323 128.874  14.497  1.00  0.00     0.183 HD
ENDBRANCH   7  10
ENDBRANCH   1   7
BRANCH   6  13
ATOM     13  C   UNL     1      45.267 131.270  16.445  1.00  0.00     0.291 A 
ATOM     14  N   UNL     1      45.661 131.305  17.746  1.00  0.00    -0.236 N 
ATOM     15  N   UNL     1      43.939 131.513  16.294  1.00  0.00    -0.236 N 
ATOM     16  C   UNL     1      44.537 131.596  18.420  1.00  0.00     0.172 A 
ATOM     17  C   UNL     1      43.500 131.722  17.545  1.00  0.00     0.172 A 
ATOM     18  C   UNL     1      44.367 131.741  19.795  1.00  0.00     0.056 A 
ATOM     19  C   UNL     1      42.204 132.009  17.970  1.00  0.00     0.056 A 
ATOM     20  C   UNL     1      43.072 132.036  20.262  1.00  0.00     0.005 A 
ATOM     21  C   UNL     1      41.995 132.170  19.354  1.00  0.00     0.005 A 
ATOM     22  H   UNL     1      46.605 131.106  18.143  1.00  0.00     0.312 HD
ATOM     23  H   UNL     1      43.385 131.531  15.409  1.00  0.00     0.312 HD
ENDBRANCH   6  13
TORSDOF 3
ENDMDL
MODEL 9
REMARK VINA RESULT:      -8.7      1.383      5.969
REMARK SMILES N[NH2+]c1ccccc1-c1[nH]c2ccccc2[nH+]1
REMARK SMILES IDX 3 1 4 2 5 3 6 4 7 5 8 6 2 7 1 10 9 13 10 14 17 15 11 16
REMARK SMILES IDX 16 17 12 18 15 19 13 20 14 21
REMARK H PARENT 2 8 2 9 1 11 1 12 10 22 17 23
ROOT
ATOM      1  C   UNL     1      46.392 129.601  14.950  1.00  0.00     0.164 A 
ATOM      2  C   UNL     1      47.239 129.435  13.838  1.00  0.00     0.071 A 
ATOM      3  C   UNL     1      47.802 130.540  13.197  1.00  0.00     0.006 A 
ATOM      4  C   UNL     1      47.531 131.827  13.657  1.00  0.00     0.001 A 
ATOM      5  C   UNL     1      46.684 132.015  14.751  1.00  0.00     0.023 A 
ATOM      6  C   UNL     1      46.090 130.917  15.396  1.00  0.00     0.126 A 
ENDROOT
BRANCH   1   7
ATOM      7  N   UNL     1      45.872 128.426  15.610  1.00  0.00    -0.239 N 
ATOM      8  H   UNL     1      46.339 127.563  15.243  1.00  0.00     0.376 HD
ATOM      9  H   UNL     1      46.042 128.463  16.641  1.00  0.00     0.376 HD
BRANCH   7  10
ATOM     10  N   UNL     1      44.486 128.346  15.367  1.00  0.00    -0.178 NA
ATOM     11  H   UNL     1      43.989 128.262  16.286  1.00  0.00     0.183 HD
ATOM     12  H   UNL     1      44.178 129.255  14.949  1.00  0.00     0.183 HD
ENDBRANCH   7  10
ENDBRANCH   1   7
BRANCH   6  13
ATOM     13  C   UNL     1      45.186 131.185  16.535  1.00  0.00     0.291 A 
ATOM     14  N   UNL     1      43.870 131.497  16.404  1.00  0.00    -0.236 N 
ATOM     15  N   UNL     1      45.605 131.213  17.826  1.00  0.00    -0.236 N 
ATOM     16  C   UNL     1      43.457 131.709  17.664  1.00  0.00     0.172 A 
ATOM     17  C   UNL     1      44.503 131.536  18.522  1.00  0.00     0.172 A 
ATOM     18  C   UNL     1      42.188 132.072  18.109  1.00  0.00     0.056 A 
ATOM     19  C   UNL     1      44.368 131.708  19.898  1.00  0.00     0.056 A 
ATOM     20  C   UNL     1      42.011 132.251  19.494  1.00  0.00     0.005 A 
ATOM     21  C   UNL     1      43.096 132.069  20.385  1.00  0.00     0.005 A 
ATOM     22  H   UNL     1      43.312 131.598  15.529  1.00  0.00     0.312 HD
ATOM     23  H   UNL     1      46.564 131.026  18.197  1.00  0.00     0.312 HD
ENDBRANCH   6  13
TORSDOF 3
ENDMDL


