REMARK SMILES Cc1ccc(-c2cc(N)c([NH2+]c3ccc(C)[nH+]c3F)cc2F)cc1
REMARK SMILES IDX 6 1 7 2 8 3 10 4 20 5 21 6 22 7 5 8 2 9 3 10 24 11 4 12
REMARK SMILES IDX 23 13 1 14 9 15 11 18 12 21 13 22 18 23 14 24 17 25 15 26
REMARK SMILES IDX 19 27 16 29
REMARK H PARENT 9 16 9 17 11 19 11 20 17 28
ROOT
ATOM      1  C   UNL     1       1.687   0.045  -0.598  1.00  0.00     0.020 A 
ATOM      2  C   UNL     1       0.989   1.127  -0.041  1.00  0.00     0.043 A 
ATOM      3  C   UNL     1      -0.307   1.454  -0.469  1.00  0.00     0.095 A 
ATOM      4  C   UNL     1      -0.938   0.661  -1.463  1.00  0.00     0.161 A 
ATOM      5  C   UNL     1      -0.224  -0.415  -2.023  1.00  0.00     0.110 A 
ATOM      6  C   UNL     1       1.069  -0.724  -1.597  1.00  0.00     0.137 A 
ATOM      7  F   UNL     1       1.697  -1.801  -2.134  1.00  0.00    -0.206 F 
ENDROOT
BRANCH   1   8
ATOM      8  C   UNL     1       3.059  -0.270  -0.131  1.00  0.00    -0.015 A 
ATOM      9  C   UNL     1       5.670  -0.838   0.765  1.00  0.00    -0.051 A 
ATOM     10  C   UNL     1       4.638  -0.616   1.688  1.00  0.00     0.004 A 
ATOM     11  C   UNL     1       5.387  -0.796  -0.607  1.00  0.00     0.004 A 
ATOM     12  C   UNL     1       3.345  -0.325   1.244  1.00  0.00     0.009 A 
ATOM     13  C   UNL     1       4.094  -0.506  -1.053  1.00  0.00     0.009 A 
ATOM     14  C   UNL     1       7.049  -1.188   1.242  1.00  0.00     0.044 C 
ENDBRANCH   1   8
BRANCH   3  15
ATOM     15  N   UNL     1      -0.947   2.601   0.106  1.00  0.00    -0.394 N 
ATOM     16  H   UNL     1      -1.814   3.015  -0.291  1.00  0.00     0.156 HD
ATOM     17  H   UNL     1      -0.500   3.112   0.900  1.00  0.00     0.156 HD
ENDBRANCH   3  15
BRANCH   4  18
ATOM     18  N   UNL     1      -2.297   0.912  -1.899  1.00  0.00    -0.272 N 
ATOM     19  H   UNL     1      -2.507   0.382  -2.777  1.00  0.00     0.358 HD
ATOM     20  H   UNL     1      -2.402   1.923  -2.146  1.00  0.00     0.358 HD
BRANCH  18  21
ATOM     21  C   UNL     1      -3.255   0.507  -0.893  1.00  0.00     0.239 A 
ATOM     22  C   UNL     1      -4.112   1.449  -0.301  1.00  0.00     0.085 A 
ATOM     23  C   UNL     1      -3.398  -0.846  -0.523  1.00  0.00     0.420 A 
ATOM     24  C   UNL     1      -5.042   1.052   0.658  1.00  0.00     0.080 A 
ATOM     25  N   UNL     1      -4.314  -1.210   0.417  1.00  0.00    -0.179 N 
ATOM     26  C   UNL     1      -5.140  -0.299   1.007  1.00  0.00     0.179 A 
ATOM     27  F   UNL     1      -2.636  -1.804  -1.106  1.00  0.00    -0.131 F 
ATOM     28  H   UNL     1      -4.382  -2.219   0.682  1.00  0.00     0.456 HD
ATOM     29  C   UNL     1      -6.110  -0.734   2.065  1.00  0.00     0.124 C 
ENDBRANCH  18  21
ENDBRANCH   4  18
TORSDOF 4


