MODEL 1
REMARK VINA RESULT:      -2.0      0.000      0.000
REMARK SMILES CC[C@@H](/N=C(/S)N(c1ccc2cc[nH]c2c1)c1cccc2c[nH+]oc12)c1ccccc1
REMARK SMILES IDX 5 1 6 2 4 4 3 5 26 6 27 7 31 8 28 9 30 10 29 11 2 12 1 13
REMARK SMILES IDX 7 14 8 15 9 16 16 17 10 18 15 19 11 20 14 21 12 22 13 23
REMARK SMILES IDX 17 25 18 26 25 27 19 28 24 29 21 30 20 31 23 32 22 33
REMARK H PARENT 6 3 14 24 23 34
ROOT
ATOM      1  C   UNL     1      43.675 131.980  20.761  1.00  0.00     0.165 C 
ENDROOT
BRANCH   1   2
ATOM      2  S   UNL     1      42.045 132.695  20.593  1.00  0.00    -0.105 SA
ATOM      3  H   UNL     1      41.420 131.453  20.812  1.00  0.00     0.111 HD
ENDBRANCH   1   2
BRANCH   1   4
ATOM      4  N   UNL     1      44.425 131.872  19.704  1.00  0.00    -0.254 NA
BRANCH   4   5
ATOM      5  C   UNL     1      44.854 130.613  19.085  1.00  0.00     0.138 C 
BRANCH   5   6
ATOM      6  C   UNL     1      45.337 130.844  17.669  1.00  0.00    -0.023 A 
ATOM      7  C   UNL     1      45.211 132.104  17.054  1.00  0.00     0.006 A 
ATOM      8  C   UNL     1      45.972 129.803  16.968  1.00  0.00     0.006 A 
ATOM      9  C   UNL     1      45.664 132.300  15.746  1.00  0.00     0.000 A 
ATOM     10  C   UNL     1      46.425 130.004  15.661  1.00  0.00     0.000 A 
ATOM     11  C   UNL     1      46.266 131.249  15.048  1.00  0.00     0.000 A 
ENDBRANCH   5   6
BRANCH   5  12
ATOM     12  C   UNL     1      45.983 129.988  19.920  1.00  0.00     0.029 C 
ATOM     13  C   UNL     1      47.148 130.959  20.118  1.00  0.00     0.006 C 
ENDBRANCH   5  12
ENDBRANCH   4   5
ENDBRANCH   1   4
BRANCH   1  14
ATOM     14  N   UNL     1      44.149 131.606  22.065  1.00  0.00    -0.286 N 
BRANCH  14  15
ATOM     15  C   UNL     1      45.200 132.385  22.674  1.00  0.00     0.050 A 
ATOM     16  C   UNL     1      45.086 132.819  24.022  1.00  0.00     0.027 A 
ATOM     17  C   UNL     1      46.349 132.736  21.926  1.00  0.00     0.053 A 
ATOM     18  C   UNL     1      46.104 133.579  24.624  1.00  0.00     0.012 A 
ATOM     19  C   UNL     1      47.338 133.489  22.553  1.00  0.00     0.047 A 
ATOM     20  C   UNL     1      47.220 133.894  23.854  1.00  0.00    -0.000 A 
ATOM     21  N   UNL     1      48.496 133.917  22.024  1.00  0.00    -0.361 N 
ATOM     22  C   UNL     1      48.353 134.612  24.169  1.00  0.00     0.028 A 
ATOM     23  C   UNL     1      49.121 134.603  23.008  1.00  0.00     0.083 A 
ATOM     24  H   UNL     1      48.846 133.754  21.054  1.00  0.00     0.166 HD
ENDBRANCH  14  15
BRANCH  14  25
ATOM     25  C   UNL     1      43.503 130.533  22.780  1.00  0.00     0.099 A 
ATOM     26  C   UNL     1      42.272 130.727  23.453  1.00  0.00     0.031 A 
ATOM     27  C   UNL     1      44.037 129.241  22.800  1.00  0.00     0.240 A 
ATOM     28  C   UNL     1      41.633 129.653  24.115  1.00  0.00     0.003 A 
ATOM     29  O   UNL     1      45.129 128.791  22.229  1.00  0.00    -0.236 OA
ATOM     30  C   UNL     1      43.414 128.207  23.444  1.00  0.00     0.095 A 
ATOM     31  C   UNL     1      42.207 128.369  24.114  1.00  0.00     0.019 A 
ATOM     32  N   UNL     1      45.254 127.514  22.472  1.00  0.00    -0.035 N 
ATOM     33  C   UNL     1      44.208 127.105  23.225  1.00  0.00     0.369 A 
ATOM     34  H   UNL     1      46.038 126.918  22.128  1.00  0.00     0.516 HD
ENDBRANCH  14  25
ENDBRANCH   1  14
TORSDOF 8
ENDMDL
MODEL 2
REMARK VINA RESULT:      -1.5      1.734      5.996
REMARK SMILES CC[C@@H](/N=C(/S)N(c1ccc2cc[nH]c2c1)c1cccc2c[nH+]oc12)c1ccccc1
REMARK SMILES IDX 5 1 6 2 4 4 3 5 26 6 27 7 31 8 28 9 30 10 29 11 2 12 1 13
REMARK SMILES IDX 7 14 8 15 9 16 16 17 10 18 15 19 11 20 14 21 12 22 13 23
REMARK SMILES IDX 17 25 18 26 25 27 19 28 24 29 21 30 20 31 23 32 22 33
REMARK H PARENT 6 3 14 24 23 34
ROOT
ATOM      1  C   UNL     1      44.911 132.547  20.522  1.00  0.00     0.165 C 
ENDROOT
BRANCH   1   2
ATOM      2  S   UNL     1      43.340 133.334  20.850  1.00  0.00    -0.105 SA
ATOM      3  H   UNL     1      43.196 132.659  22.077  1.00  0.00     0.111 HD
ENDBRANCH   1   2
BRANCH   1   4
ATOM      4  N   UNL     1      46.006 133.180  20.823  1.00  0.00    -0.254 NA
BRANCH   4   5
ATOM      5  C   UNL     1      46.719 133.094  22.101  1.00  0.00     0.138 C 
BRANCH   5   6
ATOM      6  C   UNL     1      47.882 134.063  22.137  1.00  0.00    -0.023 A 
ATOM      7  C   UNL     1      47.909 135.199  21.306  1.00  0.00     0.006 A 
ATOM      8  C   UNL     1      48.933 133.861  23.050  1.00  0.00     0.006 A 
ATOM      9  C   UNL     1      48.990 136.084  21.354  1.00  0.00     0.000 A 
ATOM     10  C   UNL     1      50.011 134.749  23.095  1.00  0.00     0.000 A 
ATOM     11  C   UNL     1      50.043 135.856  22.244  1.00  0.00     0.000 A 
ENDBRANCH   5   6
BRANCH   5  12
ATOM     12  C   UNL     1      45.751 133.410  23.252  1.00  0.00     0.029 C 
ATOM     13  C   UNL     1      46.485 133.941  24.484  1.00  0.00     0.006 C 
ENDBRANCH   5  12
ENDBRANCH   4   5
ENDBRANCH   1   4
BRANCH   1  14
ATOM     14  N   UNL     1      44.931 131.207  20.001  1.00  0.00    -0.286 N 
BRANCH  14  15
ATOM     15  C   UNL     1      45.049 131.017  18.576  1.00  0.00     0.050 A 
ATOM     16  C   UNL     1      44.046 131.510  17.697  1.00  0.00     0.027 A 
ATOM     17  C   UNL     1      46.160 130.321  18.040  1.00  0.00     0.053 A 
ATOM     18  C   UNL     1      44.152 131.329  16.307  1.00  0.00     0.012 A 
ATOM     19  C   UNL     1      46.233 130.159  16.660  1.00  0.00     0.047 A 
ATOM     20  C   UNL     1      45.265 130.647  15.824  1.00  0.00    -0.000 A 
ATOM     21  N   UNL     1      47.199 129.541  15.960  1.00  0.00    -0.361 N 
ATOM     22  C   UNL     1      45.630 130.324  14.536  1.00  0.00     0.028 A 
ATOM     23  C   UNL     1      46.836 129.640  14.662  1.00  0.00     0.083 A 
ATOM     24  H   UNL     1      48.055 129.079  16.339  1.00  0.00     0.166 HD
ENDBRANCH  14  15
BRANCH  14  25
ATOM     25  C   UNL     1      44.940 130.087  20.908  1.00  0.00     0.099 A 
ATOM     26  C   UNL     1      45.893 129.045  20.792  1.00  0.00     0.031 A 
ATOM     27  C   UNL     1      44.039 130.003  21.975  1.00  0.00     0.240 A 
ATOM     28  C   UNL     1      45.910 127.976  21.716  1.00  0.00     0.003 A 
ATOM     29  O   UNL     1      43.097 130.844  22.327  1.00  0.00    -0.236 OA
ATOM     30  C   UNL     1      44.062 128.963  22.864  1.00  0.00     0.095 A 
ATOM     31  C   UNL     1      44.984 127.927  22.773  1.00  0.00     0.019 A 
ATOM     32  N   UNL     1      42.497 130.404  23.400  1.00  0.00    -0.035 N 
ATOM     33  C   UNL     1      43.065 129.235  23.774  1.00  0.00     0.369 A 
ATOM     34  H   UNL     1      41.712 130.891  23.884  1.00  0.00     0.516 HD
ENDBRANCH  14  25
ENDBRANCH   1  14
TORSDOF 8
ENDMDL
MODEL 3
REMARK VINA RESULT:      -1.2      1.042      1.504
REMARK SMILES CC[C@@H](/N=C(/S)N(c1ccc2cc[nH]c2c1)c1cccc2c[nH+]oc12)c1ccccc1
REMARK SMILES IDX 5 1 6 2 4 4 3 5 26 6 27 7 31 8 28 9 30 10 29 11 2 12 1 13
REMARK SMILES IDX 7 14 8 15 9 16 16 17 10 18 15 19 11 20 14 21 12 22 13 23
REMARK SMILES IDX 17 25 18 26 25 27 19 28 24 29 21 30 20 31 23 32 22 33
REMARK H PARENT 6 3 14 24 23 34
ROOT
ATOM      1  C   UNL     1      43.813 131.903  20.170  1.00  0.00     0.165 C 
ENDROOT
BRANCH   1   2
ATOM      2  S   UNL     1      42.089 132.289  19.897  1.00  0.00    -0.105 SA
ATOM      3  H   UNL     1      42.226 132.162  18.502  1.00  0.00     0.111 HD
ENDBRANCH   1   2
BRANCH   1   4
ATOM      4  N   UNL     1      44.605 131.807  19.143  1.00  0.00    -0.254 NA
BRANCH   4   5
ATOM      5  C   UNL     1      44.920 130.571  18.419  1.00  0.00     0.138 C 
BRANCH   5   6
ATOM      6  C   UNL     1      45.009 130.826  16.930  1.00  0.00    -0.023 A 
ATOM      7  C   UNL     1      43.951 131.440  16.232  1.00  0.00     0.006 A 
ATOM      8  C   UNL     1      46.184 130.495  16.232  1.00  0.00     0.006 A 
ATOM      9  C   UNL     1      44.051 131.669  14.857  1.00  0.00     0.000 A 
ATOM     10  C   UNL     1      46.280 130.728  14.857  1.00  0.00     0.000 A 
ATOM     11  C   UNL     1      45.213 131.308  14.168  1.00  0.00     0.000 A 
ENDBRANCH   5   6
BRANCH   5  12
ATOM     12  C   UNL     1      46.256 130.004  18.926  1.00  0.00     0.029 C 
ATOM     13  C   UNL     1      46.075 129.172  20.196  1.00  0.00     0.006 C 
ENDBRANCH   5  12
ENDBRANCH   4   5
ENDBRANCH   1   4
BRANCH   1  14
ATOM     14  N   UNL     1      44.301 131.776  21.516  1.00  0.00    -0.286 N 
BRANCH  14  15
ATOM     15  C   UNL     1      45.503 132.481  21.890  1.00  0.00     0.050 A 
ATOM     16  C   UNL     1      46.605 132.552  20.995  1.00  0.00     0.027 A 
ATOM     17  C   UNL     1      45.600 133.097  23.161  1.00  0.00     0.053 A 
ATOM     18  C   UNL     1      47.781 133.236  21.351  1.00  0.00     0.012 A 
ATOM     19  C   UNL     1      46.778 133.766  23.481  1.00  0.00     0.047 A 
ATOM     20  C   UNL     1      47.829 133.834  22.607  1.00  0.00    -0.000 A 
ATOM     21  N   UNL     1      47.064 134.414  24.622  1.00  0.00    -0.361 N 
ATOM     22  C   UNL     1      48.829 134.557  23.219  1.00  0.00     0.028 A 
ATOM     23  C   UNL     1      48.317 134.900  24.466  1.00  0.00     0.083 A 
ATOM     24  H   UNL     1      46.449 134.523  25.458  1.00  0.00     0.166 HD
ENDBRANCH  14  15
BRANCH  14  25
ATOM     25  C   UNL     1      43.533 131.039  22.489  1.00  0.00     0.099 A 
ATOM     26  C   UNL     1      42.367 131.584  23.080  1.00  0.00     0.031 A 
ATOM     27  C   UNL     1      43.878 129.734  22.856  1.00  0.00     0.240 A 
ATOM     28  C   UNL     1      41.605 130.830  24.002  1.00  0.00     0.003 A 
ATOM     29  O   UNL     1      44.873 128.993  22.432  1.00  0.00    -0.236 OA
ATOM     30  C   UNL     1      43.136 129.012  23.750  1.00  0.00     0.095 A 
ATOM     31  C   UNL     1      41.988 129.522  24.347  1.00  0.00     0.019 A 
ATOM     32  N   UNL     1      44.822 127.822  23.008  1.00  0.00    -0.035 N 
ATOM     33  C   UNL     1      43.755 127.786  23.838  1.00  0.00     0.369 A 
ATOM     34  H   UNL     1      45.500 127.048  22.839  1.00  0.00     0.516 HD
ENDBRANCH  14  25
ENDBRANCH   1  14
TORSDOF 8
ENDMDL
MODEL 4
REMARK VINA RESULT:      -1.0      1.694      5.711
REMARK SMILES CC[C@@H](/N=C(/S)N(c1ccc2cc[nH]c2c1)c1cccc2c[nH+]oc12)c1ccccc1
REMARK SMILES IDX 5 1 6 2 4 4 3 5 26 6 27 7 31 8 28 9 30 10 29 11 2 12 1 13
REMARK SMILES IDX 7 14 8 15 9 16 16 17 10 18 15 19 11 20 14 21 12 22 13 23
REMARK SMILES IDX 17 25 18 26 25 27 19 28 24 29 21 30 20 31 23 32 22 33
REMARK H PARENT 6 3 14 24 23 34
ROOT
ATOM      1  C   UNL     1      45.657 132.732  22.969  1.00  0.00     0.165 C 
ENDROOT
BRANCH   1   2
ATOM      2  S   UNL     1      45.179 133.335  24.582  1.00  0.00    -0.105 SA
ATOM      3  H   UNL     1      44.116 134.087  24.046  1.00  0.00     0.111 HD
ENDBRANCH   1   2
BRANCH   1   4
ATOM      4  N   UNL     1      46.774 133.147  22.448  1.00  0.00    -0.254 NA
BRANCH   4   5
ATOM      5  C   UNL     1      47.480 134.379  22.811  1.00  0.00     0.138 C 
BRANCH   5   6
ATOM      6  C   UNL     1      48.863 134.073  23.343  1.00  0.00    -0.023 A 
ATOM      7  C   UNL     1      49.101 132.939  24.143  1.00  0.00     0.006 A 
ATOM      8  C   UNL     1      49.946 134.899  22.993  1.00  0.00     0.006 A 
ATOM      9  C   UNL     1      50.386 132.671  24.624  1.00  0.00     0.000 A 
ATOM     10  C   UNL     1      51.229 134.626  23.476  1.00  0.00     0.000 A 
ATOM     11  C   UNL     1      51.448 133.516  24.295  1.00  0.00     0.000 A 
ENDBRANCH   5   6
BRANCH   5  12
ATOM     12  C   UNL     1      47.592 135.290  21.578  1.00  0.00     0.029 C 
ATOM     13  C   UNL     1      47.151 134.574  20.300  1.00  0.00     0.006 C 
ENDBRANCH   5  12
ENDBRANCH   4   5
ENDBRANCH   1   4
BRANCH   1  14
ATOM     14  N   UNL     1      44.836 131.751  22.312  1.00  0.00    -0.286 N 
BRANCH  14  15
ATOM     15  C   UNL     1      44.995 131.547  20.893  1.00  0.00     0.050 A 
ATOM     16  C   UNL     1      46.207 131.020  20.372  1.00  0.00     0.027 A 
ATOM     17  C   UNL     1      43.946 131.886  20.005  1.00  0.00     0.053 A 
ATOM     18  C   UNL     1      46.371 130.818  18.990  1.00  0.00     0.012 A 
ATOM     19  C   UNL     1      44.141 131.673  18.643  1.00  0.00     0.047 A 
ATOM     20  C   UNL     1      45.311 131.157  18.154  1.00  0.00    -0.000 A 
ATOM     21  N   UNL     1      43.276 131.921  17.646  1.00  0.00    -0.361 N 
ATOM     22  C   UNL     1      45.185 131.072  16.785  1.00  0.00     0.028 A 
ATOM     23  C   UNL     1      43.909 131.554  16.508  1.00  0.00     0.083 A 
ATOM     24  H   UNL     1      42.313 132.314  17.728  1.00  0.00     0.166 HD
ENDBRANCH  14  15
BRANCH  14  25
ATOM     25  C   UNL     1      43.951 130.922  23.093  1.00  0.00     0.099 A 
ATOM     26  C   UNL     1      42.826 131.462  23.762  1.00  0.00     0.031 A 
ATOM     27  C   UNL     1      44.136 129.538  23.184  1.00  0.00     0.240 A 
ATOM     28  C   UNL     1      41.947 130.627  24.489  1.00  0.00     0.003 A 
ATOM     29  O   UNL     1      45.063 128.792  22.633  1.00  0.00    -0.236 OA
ATOM     30  C   UNL     1      43.282 128.737  23.891  1.00  0.00     0.095 A 
ATOM     31  C   UNL     1      42.172 129.240  24.559  1.00  0.00     0.019 A 
ATOM     32  N   UNL     1      44.861 127.541  22.949  1.00  0.00    -0.035 N 
ATOM     33  C   UNL     1      43.761 127.457  23.731  1.00  0.00     0.369 A 
ATOM     34  H   UNL     1      45.458 126.746  22.634  1.00  0.00     0.516 HD
ENDBRANCH  14  25
ENDBRANCH   1  14
TORSDOF 8
ENDMDL
MODEL 5
REMARK VINA RESULT:      -0.8      2.048      6.360
REMARK SMILES CC[C@@H](/N=C(/S)N(c1ccc2cc[nH]c2c1)c1cccc2c[nH+]oc12)c1ccccc1
REMARK SMILES IDX 5 1 6 2 4 4 3 5 26 6 27 7 31 8 28 9 30 10 29 11 2 12 1 13
REMARK SMILES IDX 7 14 8 15 9 16 16 17 10 18 15 19 11 20 14 21 12 22 13 23
REMARK SMILES IDX 17 25 18 26 25 27 19 28 24 29 21 30 20 31 23 32 22 33
REMARK H PARENT 6 3 14 24 23 34
ROOT
ATOM      1  C   UNL     1      45.719 132.547  22.291  1.00  0.00     0.165 C 
ENDROOT
BRANCH   1   2
ATOM      2  S   UNL     1      45.278 132.993  23.965  1.00  0.00    -0.105 SA
ATOM      3  H   UNL     1      43.910 133.068  23.642  1.00  0.00     0.111 HD
ENDBRANCH   1   2
BRANCH   1   4
ATOM      4  N   UNL     1      46.756 133.108  21.743  1.00  0.00    -0.254 NA
BRANCH   4   5
ATOM      5  C   UNL     1      47.960 133.554  22.451  1.00  0.00     0.138 C 
BRANCH   5   6
ATOM      6  C   UNL     1      48.525 134.809  21.821  1.00  0.00    -0.023 A 
ATOM      7  C   UNL     1      49.859 135.199  22.045  1.00  0.00     0.006 A 
ATOM      8  C   UNL     1      47.727 135.575  20.952  1.00  0.00     0.006 A 
ATOM      9  C   UNL     1      50.364 136.360  21.453  1.00  0.00     0.000 A 
ATOM     10  C   UNL     1      48.238 136.734  20.361  1.00  0.00     0.000 A 
ATOM     11  C   UNL     1      49.553 137.130  20.615  1.00  0.00     0.000 A 
ENDBRANCH   5   6
BRANCH   5  12
ATOM     12  C   UNL     1      47.619 133.826  23.925  1.00  0.00     0.029 C 
ATOM     13  C   UNL     1      47.430 135.319  24.199  1.00  0.00     0.006 C 
ENDBRANCH   5  12
ENDBRANCH   4   5
ENDBRANCH   1   4
BRANCH   1  14
ATOM     14  N   UNL     1      44.964 131.529  21.612  1.00  0.00    -0.286 N 
BRANCH  14  15
ATOM     15  C   UNL     1      44.173 130.610  22.393  1.00  0.00     0.050 A 
ATOM     16  C   UNL     1      42.935 131.023  22.956  1.00  0.00     0.027 A 
ATOM     17  C   UNL     1      44.633 129.290  22.618  1.00  0.00     0.053 A 
ATOM     18  C   UNL     1      42.158 130.134  23.719  1.00  0.00     0.012 A 
ATOM     19  C   UNL     1      43.838 128.437  23.378  1.00  0.00     0.047 A 
ATOM     20  C   UNL     1      42.644 128.844  23.908  1.00  0.00    -0.000 A 
ATOM     21  N   UNL     1      44.089 127.157  23.699  1.00  0.00    -0.361 N 
ATOM     22  C   UNL     1      42.112 127.776  24.597  1.00  0.00     0.028 A 
ATOM     23  C   UNL     1      43.037 126.748  24.443  1.00  0.00     0.083 A 
ATOM     24  H   UNL     1      44.924 126.590  23.429  1.00  0.00     0.166 HD
ENDBRANCH  14  15
BRANCH  14  25
ATOM     25  C   UNL     1      44.927 131.509  20.170  1.00  0.00     0.099 A 
ATOM     26  C   UNL     1      46.061 131.145  19.404  1.00  0.00     0.031 A 
ATOM     27  C   UNL     1      43.755 131.802  19.465  1.00  0.00     0.240 A 
ATOM     28  C   UNL     1      45.993 131.093  17.993  1.00  0.00     0.003 A 
ATOM     29  O   UNL     1      42.572 132.123  19.929  1.00  0.00    -0.236 OA
ATOM     30  C   UNL     1      43.698 131.751  18.099  1.00  0.00     0.095 A 
ATOM     31  C   UNL     1      44.796 131.399  17.322  1.00  0.00     0.019 A 
ATOM     32  N   UNL     1      41.743 132.290  18.933  1.00  0.00    -0.035 N 
ATOM     33  C   UNL     1      42.400 132.067  17.772  1.00  0.00     0.369 A 
ATOM     34  H   UNL     1      40.737 132.548  19.035  1.00  0.00     0.516 HD
ENDBRANCH  14  25
ENDBRANCH   1  14
TORSDOF 8
ENDMDL
MODEL 6
REMARK VINA RESULT:      -0.6      2.341      3.142
REMARK SMILES CC[C@@H](/N=C(/S)N(c1ccc2cc[nH]c2c1)c1cccc2c[nH+]oc12)c1ccccc1
REMARK SMILES IDX 5 1 6 2 4 4 3 5 26 6 27 7 31 8 28 9 30 10 29 11 2 12 1 13
REMARK SMILES IDX 7 14 8 15 9 16 16 17 10 18 15 19 11 20 14 21 12 22 13 23
REMARK SMILES IDX 17 25 18 26 25 27 19 28 24 29 21 30 20 31 23 32 22 33
REMARK H PARENT 6 3 14 24 23 34
ROOT
ATOM      1  C   UNL     1      45.732 131.249  19.629  1.00  0.00     0.165 C 
ENDROOT
BRANCH   1   2
ATOM      2  S   UNL     1      45.333 129.529  19.914  1.00  0.00    -0.105 SA
ATOM      3  H   UNL     1      45.134 129.748  21.290  1.00  0.00     0.111 HD
ENDBRANCH   1   2
BRANCH   1   4
ATOM      4  N   UNL     1      46.223 131.597  18.476  1.00  0.00    -0.254 NA
BRANCH   4   5
ATOM      5  C   UNL     1      45.443 131.935  17.281  1.00  0.00     0.138 C 
BRANCH   5   6
ATOM      6  C   UNL     1      46.007 131.247  16.056  1.00  0.00    -0.023 A 
ATOM      7  C   UNL     1      46.378 131.984  14.915  1.00  0.00     0.006 A 
ATOM      8  C   UNL     1      46.216 129.857  16.068  1.00  0.00     0.006 A 
ATOM      9  C   UNL     1      46.899 131.333  13.793  1.00  0.00     0.000 A 
ATOM     10  C   UNL     1      46.739 129.211  14.944  1.00  0.00     0.000 A 
ATOM     11  C   UNL     1      47.075 129.946  13.805  1.00  0.00     0.000 A 
ENDBRANCH   5   6
BRANCH   5  12
ATOM     12  C   UNL     1      43.980 131.508  17.485  1.00  0.00     0.029 C 
ATOM     13  C   UNL     1      43.210 131.472  16.164  1.00  0.00     0.006 C 
ENDBRANCH   5  12
ENDBRANCH   4   5
ENDBRANCH   1   4
BRANCH   1  14
ATOM     14  N   UNL     1      45.437 132.218  20.648  1.00  0.00    -0.286 N 
BRANCH  14  15
ATOM     15  C   UNL     1      46.457 133.167  21.022  1.00  0.00     0.050 A 
ATOM     16  C   UNL     1      46.421 134.498  20.525  1.00  0.00     0.027 A 
ATOM     17  C   UNL     1      47.515 132.774  21.878  1.00  0.00     0.053 A 
ATOM     18  C   UNL     1      47.411 135.430  20.884  1.00  0.00     0.012 A 
ATOM     19  C   UNL     1      48.478 133.722  22.213  1.00  0.00     0.047 A 
ATOM     20  C   UNL     1      48.427 135.002  21.734  1.00  0.00    -0.000 A 
ATOM     21  N   UNL     1      49.547 133.553  23.008  1.00  0.00    -0.361 N 
ATOM     22  C   UNL     1      49.512 135.679  22.246  1.00  0.00     0.028 A 
ATOM     23  C   UNL     1      50.182 134.746  23.032  1.00  0.00     0.083 A 
ATOM     24  H   UNL     1      49.832 132.681  23.506  1.00  0.00     0.166 HD
ENDBRANCH  14  15
BRANCH  14  25
ATOM     25  C   UNL     1      44.107 132.293  21.200  1.00  0.00     0.099 A 
ATOM     26  C   UNL     1      42.982 132.579  20.389  1.00  0.00     0.031 A 
ATOM     27  C   UNL     1      43.862 132.039  22.554  1.00  0.00     0.240 A 
ATOM     28  C   UNL     1      41.681 132.608  20.943  1.00  0.00     0.003 A 
ATOM     29  O   UNL     1      44.711 131.715  23.499  1.00  0.00    -0.236 OA
ATOM     30  C   UNL     1      42.600 132.071  23.082  1.00  0.00     0.095 A 
ATOM     31  C   UNL     1      41.479 132.351  22.310  1.00  0.00     0.019 A 
ATOM     32  N   UNL     1      44.068 131.538  24.622  1.00  0.00    -0.035 N 
ATOM     33  C   UNL     1      42.749 131.748  24.411  1.00  0.00     0.369 A 
ATOM     34  H   UNL     1      44.515 131.271  25.527  1.00  0.00     0.516 HD
ENDBRANCH  14  25
ENDBRANCH   1  14
TORSDOF 8
ENDMDL
MODEL 7
REMARK VINA RESULT:      -0.4      1.529      5.824
REMARK SMILES CC[C@@H](/N=C(/S)N(c1ccc2cc[nH]c2c1)c1cccc2c[nH+]oc12)c1ccccc1
REMARK SMILES IDX 5 1 6 2 4 4 3 5 26 6 27 7 31 8 28 9 30 10 29 11 2 12 1 13
REMARK SMILES IDX 7 14 8 15 9 16 16 17 10 18 15 19 11 20 14 21 12 22 13 23
REMARK SMILES IDX 17 25 18 26 25 27 19 28 24 29 21 30 20 31 23 32 22 33
REMARK H PARENT 6 3 14 24 23 34
ROOT
ATOM      1  C   UNL     1      43.706 132.148  21.365  1.00  0.00     0.165 C 
ENDROOT
BRANCH   1   2
ATOM      2  S   UNL     1      41.974 132.561  21.213  1.00  0.00    -0.105 SA
ATOM      3  H   UNL     1      42.257 133.694  20.428  1.00  0.00     0.111 HD
ENDBRANCH   1   2
BRANCH   1   4
ATOM      4  N   UNL     1      44.485 132.940  22.041  1.00  0.00    -0.254 NA
BRANCH   4   5
ATOM      5  C   UNL     1      45.248 132.572  23.237  1.00  0.00     0.138 C 
BRANCH   5   6
ATOM      6  C   UNL     1      46.599 133.256  23.248  1.00  0.00    -0.023 A 
ATOM      7  C   UNL     1      47.300 133.501  22.052  1.00  0.00     0.006 A 
ATOM      8  C   UNL     1      47.146 133.705  24.463  1.00  0.00     0.006 A 
ATOM      9  C   UNL     1      48.545 134.135  22.081  1.00  0.00     0.000 A 
ATOM     10  C   UNL     1      48.391 134.340  24.487  1.00  0.00     0.000 A 
ATOM     11  C   UNL     1      49.093 134.550  23.298  1.00  0.00     0.000 A 
ENDBRANCH   5   6
BRANCH   5  12
ATOM     12  C   UNL     1      44.459 132.971  24.494  1.00  0.00     0.029 C 
ATOM     13  C   UNL     1      43.157 132.177  24.624  1.00  0.00     0.006 C 
ENDBRANCH   5  12
ENDBRANCH   4   5
ENDBRANCH   1   4
BRANCH   1  14
ATOM     14  N   UNL     1      44.189 130.918  20.799  1.00  0.00    -0.286 N 
BRANCH  14  15
ATOM     15  C   UNL     1      44.612 130.905  19.419  1.00  0.00     0.050 A 
ATOM     16  C   UNL     1      45.845 130.302  19.049  1.00  0.00     0.027 A 
ATOM     17  C   UNL     1      43.806 131.507  18.423  1.00  0.00     0.053 A 
ATOM     18  C   UNL     1      46.265 130.285  17.708  1.00  0.00     0.012 A 
ATOM     19  C   UNL     1      44.253 131.472  17.105  1.00  0.00     0.047 A 
ATOM     20  C   UNL     1      45.438 130.882  16.761  1.00  0.00    -0.000 A 
ATOM     21  N   UNL     1      43.639 131.977  16.022  1.00  0.00    -0.361 N 
ATOM     22  C   UNL     1      45.586 131.016  15.397  1.00  0.00     0.028 A 
ATOM     23  C   UNL     1      44.450 131.700  14.976  1.00  0.00     0.083 A 
ATOM     24  H   UNL     1      42.725 132.479  15.991  1.00  0.00     0.166 HD
ENDBRANCH  14  15
BRANCH  14  25
ATOM     25  C   UNL     1      44.339 129.755  21.638  1.00  0.00     0.099 A 
ATOM     26  C   UNL     1      45.514 128.965  21.608  1.00  0.00     0.031 A 
ATOM     27  C   UNL     1      43.351 129.383  22.556  1.00  0.00     0.240 A 
ATOM     28  C   UNL     1      45.659 127.852  22.468  1.00  0.00     0.003 A 
ATOM     29  O   UNL     1      42.201 129.960  22.810  1.00  0.00    -0.236 OA
ATOM     30  C   UNL     1      43.498 128.304  23.384  1.00  0.00     0.095 A 
ATOM     31  C   UNL     1      44.640 127.510  23.374  1.00  0.00     0.019 A 
ATOM     32  N   UNL     1      41.585 129.309  23.759  1.00  0.00    -0.035 N 
ATOM     33  C   UNL     1      42.356 128.269  24.150  1.00  0.00     0.369 A 
ATOM     34  H   UNL     1      40.652 129.567  24.147  1.00  0.00     0.516 HD
ENDBRANCH  14  25
ENDBRANCH   1  14
TORSDOF 8
ENDMDL
MODEL 8
REMARK VINA RESULT:       0.1      2.309      6.503
REMARK SMILES CC[C@@H](/N=C(/S)N(c1ccc2cc[nH]c2c1)c1cccc2c[nH+]oc12)c1ccccc1
REMARK SMILES IDX 5 1 6 2 4 4 3 5 26 6 27 7 31 8 28 9 30 10 29 11 2 12 1 13
REMARK SMILES IDX 7 14 8 15 9 16 16 17 10 18 15 19 11 20 14 21 12 22 13 23
REMARK SMILES IDX 17 25 18 26 25 27 19 28 24 29 21 30 20 31 23 32 22 33
REMARK H PARENT 6 3 14 24 23 34
ROOT
ATOM      1  C   UNL     1      45.184 129.332  21.607  1.00  0.00     0.165 C 
ENDROOT
BRANCH   1   2
ATOM      2  S   UNL     1      45.716 128.285  20.259  1.00  0.00    -0.105 SA
ATOM      3  H   UNL     1      44.850 128.924  19.351  1.00  0.00     0.111 HD
ENDBRANCH   1   2
BRANCH   1   4
ATOM      4  N   UNL     1      45.217 128.862  22.819  1.00  0.00    -0.254 NA
BRANCH   4   5
ATOM      5  C   UNL     1      44.666 127.573  23.251  1.00  0.00     0.138 C 
BRANCH   5   6
ATOM      6  C   UNL     1      45.754 126.525  23.346  1.00  0.00    -0.023 A 
ATOM      7  C   UNL     1      46.041 125.674  22.261  1.00  0.00     0.006 A 
ATOM      8  C   UNL     1      46.531 126.427  24.513  1.00  0.00     0.006 A 
ATOM      9  C   UNL     1      47.050 124.713  22.366  1.00  0.00     0.000 A 
ATOM     10  C   UNL     1      47.541 125.465  24.613  1.00  0.00     0.000 A 
ATOM     11  C   UNL     1      47.797 124.605  23.543  1.00  0.00     0.000 A 
ENDBRANCH   5   6
BRANCH   5  12
ATOM     12  C   UNL     1      43.987 127.737  24.620  1.00  0.00     0.029 C 
ATOM     13  C   UNL     1      42.504 128.084  24.481  1.00  0.00     0.006 C 
ENDBRANCH   5  12
ENDBRANCH   4   5
ENDBRANCH   1   4
BRANCH   1  14
ATOM     14  N   UNL     1      44.799 130.690  21.334  1.00  0.00    -0.286 N 
BRANCH  14  15
ATOM     15  C   UNL     1      44.450 131.057  19.983  1.00  0.00     0.050 A 
ATOM     16  C   UNL     1      43.130 131.481  19.670  1.00  0.00     0.027 A 
ATOM     17  C   UNL     1      45.419 130.983  18.953  1.00  0.00     0.053 A 
ATOM     18  C   UNL     1      42.781 131.841  18.357  1.00  0.00     0.012 A 
ATOM     19  C   UNL     1      45.038 131.345  17.664  1.00  0.00     0.047 A 
ATOM     20  C   UNL     1      43.767 131.760  17.378  1.00  0.00    -0.000 A 
ATOM     21  N   UNL     1      45.802 131.350  16.559  1.00  0.00    -0.361 N 
ATOM     22  C   UNL     1      43.717 132.042  16.030  1.00  0.00     0.028 A 
ATOM     23  C   UNL     1      44.999 131.776  15.558  1.00  0.00     0.083 A 
ATOM     24  H   UNL     1      46.808 131.083  16.486  1.00  0.00     0.166 HD
ENDBRANCH  14  15
BRANCH  14  25
ATOM     25  C   UNL     1      44.669 131.628  22.422  1.00  0.00     0.099 A 
ATOM     26  C   UNL     1      43.594 131.554  23.341  1.00  0.00     0.031 A 
ATOM     27  C   UNL     1      45.626 132.624  22.647  1.00  0.00     0.240 A 
ATOM     28  C   UNL     1      43.506 132.458  24.424  1.00  0.00     0.003 A 
ATOM     29  O   UNL     1      46.724 132.880  21.977  1.00  0.00    -0.236 OA
ATOM     30  C   UNL     1      45.532 133.496  23.697  1.00  0.00     0.095 A 
ATOM     31  C   UNL     1      44.487 133.448  24.612  1.00  0.00     0.019 A 
ATOM     32  N   UNL     1      47.352 133.880  22.534  1.00  0.00    -0.035 N 
ATOM     33  C   UNL     1      46.647 134.297  23.610  1.00  0.00     0.369 A 
ATOM     34  H   UNL     1      48.254 134.278  22.194  1.00  0.00     0.516 HD
ENDBRANCH  14  25
ENDBRANCH   1  14
TORSDOF 8
ENDMDL
MODEL 9
REMARK VINA RESULT:       0.6      1.609      5.966
REMARK SMILES CC[C@@H](/N=C(/S)N(c1ccc2cc[nH]c2c1)c1cccc2c[nH+]oc12)c1ccccc1
REMARK SMILES IDX 5 1 6 2 4 4 3 5 26 6 27 7 31 8 28 9 30 10 29 11 2 12 1 13
REMARK SMILES IDX 7 14 8 15 9 16 16 17 10 18 15 19 11 20 14 21 12 22 13 23
REMARK SMILES IDX 17 25 18 26 25 27 19 28 24 29 21 30 20 31 23 32 22 33
REMARK H PARENT 6 3 14 24 23 34
ROOT
ATOM      1  C   UNL     1      45.881 133.050  20.844  1.00  0.00     0.165 C 
ENDROOT
BRANCH   1   2
ATOM      2  S   UNL     1      45.410 134.729  20.453  1.00  0.00    -0.105 SA
ATOM      3  H   UNL     1      44.473 134.301  19.495  1.00  0.00     0.111 HD
ENDBRANCH   1   2
BRANCH   1   4
ATOM      4  N   UNL     1      47.007 132.839  21.459  1.00  0.00    -0.254 NA
BRANCH   4   5
ATOM      5  C   UNL     1      47.269 133.105  22.877  1.00  0.00     0.138 C 
BRANCH   5   6
ATOM      6  C   UNL     1      48.561 133.874  23.053  1.00  0.00    -0.023 A 
ATOM      7  C   UNL     1      48.941 134.877  22.140  1.00  0.00     0.006 A 
ATOM      8  C   UNL     1      49.374 133.628  24.173  1.00  0.00     0.006 A 
ATOM      9  C   UNL     1      50.136 135.579  22.320  1.00  0.00     0.000 A 
ATOM     10  C   UNL     1      50.568 134.334  24.349  1.00  0.00     0.000 A 
ATOM     11  C   UNL     1      50.952 135.304  23.421  1.00  0.00     0.000 A 
ENDBRANCH   5   6
BRANCH   5  12
ATOM     12  C   UNL     1      46.104 133.910  23.473  1.00  0.00     0.029 C 
ATOM     13  C   UNL     1      45.426 133.164  24.624  1.00  0.00     0.006 C 
ENDBRANCH   5  12
ENDBRANCH   4   5
ENDBRANCH   1   4
BRANCH   1  14
ATOM     14  N   UNL     1      44.977 131.976  20.535  1.00  0.00    -0.286 N 
BRANCH  14  15
ATOM     15  C   UNL     1      44.900 131.500  19.175  1.00  0.00     0.050 A 
ATOM     16  C   UNL     1      43.760 131.784  18.375  1.00  0.00     0.027 A 
ATOM     17  C   UNL     1      45.956 130.730  18.630  1.00  0.00     0.053 A 
ATOM     18  C   UNL     1      43.676 131.325  17.049  1.00  0.00     0.012 A 
ATOM     19  C   UNL     1      45.840 130.291  17.315  1.00  0.00     0.047 A 
ATOM     20  C   UNL     1      44.741 130.579  16.552  1.00  0.00    -0.000 A 
ATOM     21  N   UNL     1      46.725 129.560  16.617  1.00  0.00    -0.361 N 
ATOM     22  C   UNL     1      44.934 130.006  15.314  1.00  0.00     0.028 A 
ATOM     23  C   UNL     1      46.177 129.385  15.394  1.00  0.00     0.083 A 
ATOM     24  H   UNL     1      47.648 129.202  16.948  1.00  0.00     0.166 HD
ENDBRANCH  14  15
BRANCH  14  25
ATOM     25  C   UNL     1      44.247 131.328  21.597  1.00  0.00     0.099 A 
ATOM     26  C   UNL     1      43.214 131.993  22.300  1.00  0.00     0.031 A 
ATOM     27  C   UNL     1      44.494 129.996  21.947  1.00  0.00     0.240 A 
ATOM     28  C   UNL     1      42.483 131.327  23.311  1.00  0.00     0.003 A 
ATOM     29  O   UNL     1      45.357 129.154  21.431  1.00  0.00    -0.236 OA
ATOM     30  C   UNL     1      43.784 129.360  22.928  1.00  0.00     0.095 A 
ATOM     31  C   UNL     1      42.766 129.989  23.635  1.00  0.00     0.019 A 
ATOM     32  N   UNL     1      45.250 127.998  22.030  1.00  0.00    -0.035 N 
ATOM     33  C   UNL     1      44.281 128.077  22.969  1.00  0.00     0.369 A 
ATOM     34  H   UNL     1      45.823 127.157  21.802  1.00  0.00     0.516 HD
ENDBRANCH  14  25
ENDBRANCH   1  14
TORSDOF 8
ENDMDL


