REMARK SMILES Cc1ccc(-c2cc(C=O)c(/N=C(\O)[N-][C@@H](c3ccc(F)cc3)C(C)C)cc2F)cc1
REMARK SMILES IDX 13 1 14 2 12 4 11 5 27 6 8 7 28 8 7 9 6 10 29 11 9 12 10 13
REMARK SMILES IDX 5 14 4 15 30 16 3 17 31 18 2 19 1 20 15 21 16 22 17 23 18 24
REMARK SMILES IDX 23 25 19 26 22 27 20 28 21 29 24 30 25 31 26 32
REMARK H PARENT 14 3
ROOT
ATOM      1  C   UNL     1      -1.990   1.430   0.861  1.00  0.00     0.094 C 
ENDROOT
BRANCH   1   2
ATOM      2  O   UNL     1      -1.586   2.356   1.824  1.00  0.00    -0.516 OA
ATOM      3  H   UNL     1      -0.646   2.727   1.875  1.00  0.00     0.292 HD
ENDBRANCH   1   2
BRANCH   1   4
ATOM      4  N   UNL     1      -1.139   0.847   0.064  1.00  0.00    -0.405 NA
BRANCH   4   5
ATOM      5  C   UNL     1       0.293   0.930   0.121  1.00  0.00    -0.026 A 
ATOM      6  C   UNL     1       0.966   0.727   1.337  1.00  0.00     0.044 A 
ATOM      7  C   UNL     1       1.038   1.091  -1.065  1.00  0.00     0.018 A 
ATOM      8  C   UNL     1       2.360   0.748   1.393  1.00  0.00     0.131 A 
ATOM      9  C   UNL     1       2.443   1.111  -1.001  1.00  0.00     0.023 A 
ATOM     10  C   UNL     1       3.113   0.950   0.224  1.00  0.00     0.018 A 
ATOM     11  F   UNL     1       2.973   0.523   2.584  1.00  0.00    -0.206 F 
BRANCH   7  12
ATOM     12  C   UNL     1       0.352   1.252  -2.368  1.00  0.00     0.260 C 
ATOM     13  O   UNL     1       1.008   1.393  -3.434  1.00  0.00    -0.298 OA
ENDBRANCH   7  12
BRANCH  10  14
ATOM     14  C   UNL     1       4.595   0.980   0.268  1.00  0.00    -0.015 A 
ATOM     15  C   UNL     1       5.266   1.756   1.228  1.00  0.00     0.009 A 
ATOM     16  C   UNL     1       5.349   0.247  -0.665  1.00  0.00     0.009 A 
ATOM     17  C   UNL     1       6.664   1.788   1.263  1.00  0.00     0.004 A 
ATOM     18  C   UNL     1       6.747   0.279  -0.629  1.00  0.00     0.004 A 
ATOM     19  C   UNL     1       7.412   1.036   0.345  1.00  0.00    -0.051 A 
ATOM     20  C   UNL     1       8.911   1.103   0.358  1.00  0.00     0.044 C 
ENDBRANCH  10  14
ENDBRANCH   4   5
ENDBRANCH   1   4
BRANCH   1  21
ATOM     21  N   UNL     1      -3.388   1.149   0.734  1.00  0.00    -0.427 NA
BRANCH  21  22
ATOM     22  C   UNL     1      -3.948   0.217  -0.248  1.00  0.00     0.026 C 
BRANCH  22  23
ATOM     23  C   UNL     1      -3.464  -1.201   0.011  1.00  0.00    -0.045 A 
ATOM     24  C   UNL     1      -3.333  -1.703   1.321  1.00  0.00     0.007 A 
ATOM     25  C   UNL     1      -3.138  -2.037  -1.073  1.00  0.00     0.007 A 
ATOM     26  C   UNL     1      -2.884  -3.009   1.537  1.00  0.00     0.039 A 
ATOM     27  C   UNL     1      -2.689  -3.342  -0.852  1.00  0.00     0.039 A 
ATOM     28  C   UNL     1      -2.561  -3.828   0.452  1.00  0.00     0.123 A 
ATOM     29  F   UNL     1      -2.125  -5.094   0.664  1.00  0.00    -0.207 F 
ENDBRANCH  22  23
BRANCH  22  30
ATOM     30  C   UNL     1      -5.495   0.341  -0.268  1.00  0.00    -0.011 C 
ATOM     31  C   UNL     1      -6.154  -0.051   1.064  1.00  0.00     0.008 C 
ATOM     32  C   UNL     1      -6.116  -0.455  -1.425  1.00  0.00     0.008 C 
ENDBRANCH  22  30
ENDBRANCH  21  22
ENDBRANCH   1  21
TORSDOF 9


