MODEL 1
REMARK VINA RESULT:      -2.6      0.000      0.000
REMARK SMILES N#CC1(C(=O)NCCCS[C@H](C(=O)c2ccc(F)cc2)[C@H](O)c2ccc(Cl)c(F)c2)CC1
REMARK SMILES IDX 8 1 7 2 6 3 4 4 5 5 3 7 31 8 32 9 2 10 1 11 9 12 10 13 11 14
REMARK SMILES IDX 12 15 13 16 14 17 15 18 20 19 16 20 19 21 17 22 18 23 21 24
REMARK SMILES IDX 22 25 23 27 24 28 30 29 25 30 28 31 26 32 29 33 27 34
REMARK H PARENT 6 6 22 26
ROOT
ATOM      1  C   UNL     1      45.770 132.845  22.096  1.00  0.00     0.032 C 
ENDROOT
BRANCH   1   2
ATOM      2  C   UNL     1      47.278 132.861  22.373  1.00  0.00     0.116 C 
BRANCH   2   3
ATOM      3  N   UNL     1      47.897 134.101  21.906  1.00  0.00    -0.355 N 
ATOM      4  C   UNL     1      49.161 134.572  22.391  1.00  0.00     0.240 C 
ATOM      5  O   UNL     1      49.804 133.909  23.249  1.00  0.00    -0.273 OA
ATOM      6  H   UNL     1      47.364 134.699  21.236  1.00  0.00     0.163 HD
BRANCH   4   7
ATOM      7  C   UNL     1      49.695 135.891  21.921  1.00  0.00     0.136 C 
ATOM      8  C   UNL     1      48.792 136.684  20.989  1.00  0.00     0.034 C 
ATOM      9  C   UNL     1      50.050 136.015  20.448  1.00  0.00     0.034 C 
BRANCH   7  10
ATOM     10  C   UNL     1      50.507 136.689  22.848  1.00  0.00     0.079 C 
ATOM     11  N   UNL     1      51.147 137.318  23.579  1.00  0.00    -0.197 NA
ENDBRANCH   7  10
ENDBRANCH   4   7
ENDBRANCH   2   3
ENDBRANCH   1   2
BRANCH   1  12
ATOM     12  C   UNL     1      45.419 131.967  20.891  1.00  0.00     0.072 C 
BRANCH  12  13
ATOM     13  S   UNL     1      45.257 132.994  19.380  1.00  0.00    -0.147 SA
BRANCH  13  14
ATOM     14  C   UNL     1      44.190 131.900  18.349  1.00  0.00     0.151 C 
BRANCH  14  15
ATOM     15  C   UNL     1      42.846 131.654  19.009  1.00  0.00     0.178 C 
ATOM     16  O   UNL     1      41.814 131.610  18.286  1.00  0.00    -0.293 OA
BRANCH  15  17
ATOM     17  C   UNL     1      42.704 131.428  20.474  1.00  0.00     0.019 A 
ATOM     18  C   UNL     1      42.101 132.415  21.277  1.00  0.00     0.015 A 
ATOM     19  C   UNL     1      43.143 130.235  21.088  1.00  0.00     0.015 A 
ATOM     20  C   UNL     1      41.948 132.220  22.653  1.00  0.00     0.040 A 
ATOM     21  C   UNL     1      42.985 130.046  22.464  1.00  0.00     0.040 A 
ATOM     22  C   UNL     1      42.390 131.036  23.246  1.00  0.00     0.123 A 
ATOM     23  F   UNL     1      42.238 130.847  24.581  1.00  0.00    -0.207 F 
ENDBRANCH  15  17
ENDBRANCH  14  15
BRANCH  14  24
ATOM     24  C   UNL     1      44.937 130.594  17.952  1.00  0.00     0.165 C 
BRANCH  24  25
ATOM     25  O   UNL     1      45.931 130.268  18.892  1.00  0.00    -0.387 OA
ATOM     26  H   UNL     1      46.638 130.964  18.849  1.00  0.00     0.211 HD
ENDBRANCH  24  25
BRANCH  24  27
ATOM     27  C   UNL     1      45.540 130.678  16.559  1.00  0.00    -0.015 A 
ATOM     28  C   UNL     1      45.269 131.787  15.739  1.00  0.00     0.008 A 
ATOM     29  C   UNL     1      46.389 129.665  16.074  1.00  0.00     0.047 A 
ATOM     30  C   UNL     1      45.835 131.883  14.464  1.00  0.00     0.024 A 
ATOM     31  C   UNL     1      46.952 129.762  14.798  1.00  0.00     0.142 A 
ATOM     32  C   UNL     1      46.677 130.872  13.992  1.00  0.00     0.076 A 
ATOM     33  F   UNL     1      47.768 128.774  14.348  1.00  0.00    -0.205 F 
ATOM     34  Cl  UNL     1      47.384 131.003  12.390  1.00  0.00    -0.081 Cl
ENDBRANCH  24  27
ENDBRANCH  14  24
ENDBRANCH  13  14
ENDBRANCH  12  13
ENDBRANCH   1  12
TORSDOF 12
ENDMDL
MODEL 2
REMARK VINA RESULT:      -2.1      2.380      3.008
REMARK SMILES N#CC1(C(=O)NCCCS[C@H](C(=O)c2ccc(F)cc2)[C@H](O)c2ccc(Cl)c(F)c2)CC1
REMARK SMILES IDX 8 1 7 2 6 3 4 4 5 5 3 7 31 8 32 9 2 10 1 11 9 12 10 13 11 14
REMARK SMILES IDX 12 15 13 16 14 17 15 18 20 19 16 20 19 21 17 22 18 23 21 24
REMARK SMILES IDX 22 25 23 27 24 28 30 29 25 30 28 31 26 32 29 33 27 34
REMARK H PARENT 6 6 22 26
ROOT
ATOM      1  C   UNL     1      46.943 134.787  21.891  1.00  0.00     0.032 C 
ENDROOT
BRANCH   1   2
ATOM      2  C   UNL     1      48.395 134.701  21.405  1.00  0.00     0.116 C 
BRANCH   2   3
ATOM      3  N   UNL     1      48.755 135.856  20.583  1.00  0.00    -0.355 N 
ATOM      4  C   UNL     1      49.439 137.002  21.107  1.00  0.00     0.240 C 
ATOM      5  O   UNL     1      49.773 137.048  22.322  1.00  0.00    -0.273 OA
ATOM      6  H   UNL     1      48.444 135.871  19.586  1.00  0.00     0.163 HD
BRANCH   4   7
ATOM      7  C   UNL     1      49.707 138.180  20.221  1.00  0.00     0.136 C 
ATOM      8  C   UNL     1      50.598 139.266  20.804  1.00  0.00     0.034 C 
ATOM      9  C   UNL     1      49.103 139.514  20.632  1.00  0.00     0.034 C 
BRANCH   7  10
ATOM     10  C   UNL     1      49.845 137.954  18.777  1.00  0.00     0.079 C 
ATOM     11  N   UNL     1      49.954 137.777  17.639  1.00  0.00    -0.197 NA
ENDBRANCH   7  10
ENDBRANCH   4   7
ENDBRANCH   2   3
ENDBRANCH   1   2
BRANCH   1  12
ATOM     12  C   UNL     1      46.479 133.481  22.545  1.00  0.00     0.072 C 
BRANCH  12  13
ATOM     13  S   UNL     1      46.960 132.046  21.509  1.00  0.00    -0.147 SA
BRANCH  13  14
ATOM     14  C   UNL     1      45.378 131.738  20.615  1.00  0.00     0.151 C 
BRANCH  14  15
ATOM     15  C   UNL     1      44.207 131.644  21.576  1.00  0.00     0.178 C 
ATOM     16  O   UNL     1      43.425 132.628  21.677  1.00  0.00    -0.293 OA
BRANCH  15  17
ATOM     17  C   UNL     1      43.927 130.420  22.378  1.00  0.00     0.019 A 
ATOM     18  C   UNL     1      42.752 130.347  23.151  1.00  0.00     0.015 A 
ATOM     19  C   UNL     1      44.801 129.313  22.374  1.00  0.00     0.015 A 
ATOM     20  C   UNL     1      42.463 129.205  23.903  1.00  0.00     0.040 A 
ATOM     21  C   UNL     1      44.505 128.173  23.127  1.00  0.00     0.040 A 
ATOM     22  C   UNL     1      43.339 128.118  23.891  1.00  0.00     0.123 A 
ATOM     23  F   UNL     1      43.056 127.009  24.620  1.00  0.00    -0.207 F 
ENDBRANCH  15  17
ENDBRANCH  14  15
BRANCH  14  24
ATOM     24  C   UNL     1      45.499 130.515  19.660  1.00  0.00     0.165 C 
BRANCH  24  25
ATOM     25  O   UNL     1      46.800 129.981  19.676  1.00  0.00    -0.387 OA
ATOM     26  H   UNL     1      46.911 129.412  18.870  1.00  0.00     0.211 HD
ENDBRANCH  24  25
BRANCH  24  27
ATOM     27  C   UNL     1      45.090 130.856  18.236  1.00  0.00    -0.015 A 
ATOM     28  C   UNL     1      43.879 131.528  17.992  1.00  0.00     0.008 A 
ATOM     29  C   UNL     1      45.915 130.524  17.146  1.00  0.00     0.047 A 
ATOM     30  C   UNL     1      43.504 131.864  16.688  1.00  0.00     0.024 A 
ATOM     31  C   UNL     1      45.536 130.858  15.841  1.00  0.00     0.142 A 
ATOM     32  C   UNL     1      44.331 131.529  15.611  1.00  0.00     0.076 A 
ATOM     33  F   UNL     1      46.346 130.528  14.802  1.00  0.00    -0.205 F 
ATOM     34  Cl  UNL     1      43.850 131.957  13.978  1.00  0.00    -0.081 Cl
ENDBRANCH  24  27
ENDBRANCH  14  24
ENDBRANCH  13  14
ENDBRANCH  12  13
ENDBRANCH   1  12
TORSDOF 12
ENDMDL
MODEL 3
REMARK VINA RESULT:      -1.6      4.531      8.656
REMARK SMILES N#CC1(C(=O)NCCCS[C@H](C(=O)c2ccc(F)cc2)[C@H](O)c2ccc(Cl)c(F)c2)CC1
REMARK SMILES IDX 8 1 7 2 6 3 4 4 5 5 3 7 31 8 32 9 2 10 1 11 9 12 10 13 11 14
REMARK SMILES IDX 12 15 13 16 14 17 15 18 20 19 16 20 19 21 17 22 18 23 21 24
REMARK SMILES IDX 22 25 23 27 24 28 30 29 25 30 28 31 26 32 29 33 27 34
REMARK H PARENT 6 6 22 26
ROOT
ATOM      1  C   UNL     1      46.091 128.636  20.376  1.00  0.00     0.032 C 
ENDROOT
BRANCH   1   2
ATOM      2  C   UNL     1      45.802 128.572  21.880  1.00  0.00     0.116 C 
BRANCH   2   3
ATOM      3  N   UNL     1      45.175 127.303  22.252  1.00  0.00    -0.355 N 
ATOM      4  C   UNL     1      45.929 126.141  22.623  1.00  0.00     0.240 C 
ATOM      5  O   UNL     1      47.189 126.179  22.655  1.00  0.00    -0.273 OA
ATOM      6  H   UNL     1      44.136 127.225  22.184  1.00  0.00     0.163 HD
BRANCH   4   7
ATOM      7  C   UNL     1      45.219 124.855  22.918  1.00  0.00     0.136 C 
ATOM      8  C   UNL     1      45.549 124.200  24.250  1.00  0.00     0.034 C 
ATOM      9  C   UNL     1      46.058 123.587  22.951  1.00  0.00     0.034 C 
BRANCH   7  10
ATOM     10  C   UNL     1      43.833 124.698  22.460  1.00  0.00     0.079 C 
ATOM     11  N   UNL     1      42.741 124.575  22.099  1.00  0.00    -0.197 NA
ENDBRANCH   7  10
ENDBRANCH   4   7
ENDBRANCH   2   3
ENDBRANCH   1   2
BRANCH   1  12
ATOM     12  C   UNL     1      45.179 129.637  19.660  1.00  0.00     0.072 C 
BRANCH  12  13
ATOM     13  S   UNL     1      45.847 130.031  17.998  1.00  0.00    -0.147 SA
BRANCH  13  14
ATOM     14  C   UNL     1      44.410 130.923  17.266  1.00  0.00     0.151 C 
BRANCH  14  15
ATOM     15  C   UNL     1      44.528 131.020  15.755  1.00  0.00     0.178 C 
ATOM     16  O   UNL     1      43.556 131.484  15.100  1.00  0.00    -0.293 OA
BRANCH  15  17
ATOM     17  C   UNL     1      45.761 130.619  15.023  1.00  0.00     0.019 A 
ATOM     18  C   UNL     1      46.311 129.339  15.229  1.00  0.00     0.015 A 
ATOM     19  C   UNL     1      46.393 131.483  14.104  1.00  0.00     0.015 A 
ATOM     20  C   UNL     1      47.461 128.938  14.545  1.00  0.00     0.040 A 
ATOM     21  C   UNL     1      47.543 131.075  13.421  1.00  0.00     0.040 A 
ATOM     22  C   UNL     1      48.077 129.805  13.641  1.00  0.00     0.123 A 
ATOM     23  F   UNL     1      49.193 129.413  12.976  1.00  0.00    -0.207 F 
ENDBRANCH  15  17
ENDBRANCH  14  15
BRANCH  14  24
ATOM     24  C   UNL     1      44.184 132.296  17.961  1.00  0.00     0.165 C 
BRANCH  24  25
ATOM     25  O   UNL     1      45.181 133.221  17.602  1.00  0.00    -0.387 OA
ATOM     26  H   UNL     1      44.736 134.044  17.270  1.00  0.00     0.211 HD
ENDBRANCH  24  25
BRANCH  24  27
ATOM     27  C   UNL     1      44.108 132.169  19.474  1.00  0.00    -0.015 A 
ATOM     28  C   UNL     1      42.907 131.775  20.089  1.00  0.00     0.008 A 
ATOM     29  C   UNL     1      45.233 132.422  20.280  1.00  0.00     0.047 A 
ATOM     30  C   UNL     1      42.832 131.635  21.478  1.00  0.00     0.024 A 
ATOM     31  C   UNL     1      45.156 132.285  21.670  1.00  0.00     0.142 A 
ATOM     32  C   UNL     1      43.956 131.890  22.270  1.00  0.00     0.076 A 
ATOM     33  F   UNL     1      46.253 132.535  22.431  1.00  0.00    -0.205 F 
ATOM     34  Cl  UNL     1      43.852 131.710  24.013  1.00  0.00    -0.081 Cl
ENDBRANCH  24  27
ENDBRANCH  14  24
ENDBRANCH  13  14
ENDBRANCH  12  13
ENDBRANCH   1  12
TORSDOF 12
ENDMDL
MODEL 4
REMARK VINA RESULT:      -1.3      4.555      7.767
REMARK SMILES N#CC1(C(=O)NCCCS[C@H](C(=O)c2ccc(F)cc2)[C@H](O)c2ccc(Cl)c(F)c2)CC1
REMARK SMILES IDX 8 1 7 2 6 3 4 4 5 5 3 7 31 8 32 9 2 10 1 11 9 12 10 13 11 14
REMARK SMILES IDX 12 15 13 16 14 17 15 18 20 19 16 20 19 21 17 22 18 23 21 24
REMARK SMILES IDX 22 25 23 27 24 28 30 29 25 30 28 31 26 32 29 33 27 34
REMARK H PARENT 6 6 22 26
ROOT
ATOM      1  C   UNL     1      42.452 128.458  23.453  1.00  0.00     0.032 C 
ENDROOT
BRANCH   1   2
ATOM      2  C   UNL     1      42.943 127.578  24.609  1.00  0.00     0.116 C 
BRANCH   2   3
ATOM      3  N   UNL     1      43.737 126.449  24.124  1.00  0.00    -0.355 N 
ATOM      4  C   UNL     1      43.261 125.096  24.143  1.00  0.00     0.240 C 
ATOM      5  O   UNL     1      42.109 124.830  24.578  1.00  0.00    -0.273 OA
ATOM      6  H   UNL     1      44.715 126.631  23.808  1.00  0.00     0.163 HD
BRANCH   4   7
ATOM      7  C   UNL     1      44.162 123.984  23.700  1.00  0.00     0.136 C 
ATOM      8  C   UNL     1      43.471 122.738  23.165  1.00  0.00     0.034 C 
ATOM      9  C   UNL     1      44.153 122.708  24.528  1.00  0.00     0.034 C 
BRANCH   7  10
ATOM     10  C   UNL     1      45.437 124.326  23.058  1.00  0.00     0.079 C 
ATOM     11  N   UNL     1      46.441 124.596  22.552  1.00  0.00    -0.197 NA
ENDBRANCH   7  10
ENDBRANCH   4   7
ENDBRANCH   2   3
ENDBRANCH   1   2
BRANCH   1  12
ATOM     12  C   UNL     1      43.577 129.320  22.872  1.00  0.00     0.072 C 
BRANCH  12  13
ATOM     13  S   UNL     1      42.880 130.651  21.821  1.00  0.00    -0.147 SA
BRANCH  13  14
ATOM     14  C   UNL     1      44.426 131.516  21.313  1.00  0.00     0.151 C 
BRANCH  14  15
ATOM     15  C   UNL     1      45.088 132.208  22.491  1.00  0.00     0.178 C 
ATOM     16  O   UNL     1      44.634 132.001  23.649  1.00  0.00    -0.293 OA
BRANCH  15  17
ATOM     17  C   UNL     1      46.274 133.095  22.334  1.00  0.00     0.019 A 
ATOM     18  C   UNL     1      47.449 132.590  21.743  1.00  0.00     0.015 A 
ATOM     19  C   UNL     1      46.252 134.445  22.744  1.00  0.00     0.015 A 
ATOM     20  C   UNL     1      48.571 133.407  21.576  1.00  0.00     0.040 A 
ATOM     21  C   UNL     1      47.377 135.257  22.573  1.00  0.00     0.040 A 
ATOM     22  C   UNL     1      48.536 134.740  21.991  1.00  0.00     0.123 A 
ATOM     23  F   UNL     1      49.624 135.532  21.825  1.00  0.00    -0.207 F 
ENDBRANCH  15  17
ENDBRANCH  14  15
BRANCH  14  24
ATOM     24  C   UNL     1      44.174 132.458  20.100  1.00  0.00     0.165 C 
BRANCH  24  25
ATOM     25  O   UNL     1      42.875 132.997  20.134  1.00  0.00    -0.387 OA
ATOM     26  H   UNL     1      42.885 133.792  20.727  1.00  0.00     0.211 HD
ENDBRANCH  24  25
BRANCH  24  27
ATOM     27  C   UNL     1      44.417 131.761  18.771  1.00  0.00    -0.015 A 
ATOM     28  C   UNL     1      43.581 132.028  17.672  1.00  0.00     0.008 A 
ATOM     29  C   UNL     1      45.484 130.858  18.610  1.00  0.00     0.047 A 
ATOM     30  C   UNL     1      43.809 131.408  16.440  1.00  0.00     0.024 A 
ATOM     31  C   UNL     1      45.709 130.237  17.377  1.00  0.00     0.142 A 
ATOM     32  C   UNL     1      44.873 130.512  16.290  1.00  0.00     0.076 A 
ATOM     33  F   UNL     1      46.744 129.368  17.243  1.00  0.00    -0.205 F 
ATOM     34  Cl  UNL     1      45.150 129.740  14.738  1.00  0.00    -0.081 Cl
ENDBRANCH  24  27
ENDBRANCH  14  24
ENDBRANCH  13  14
ENDBRANCH  12  13
ENDBRANCH   1  12
TORSDOF 12
ENDMDL
MODEL 5
REMARK VINA RESULT:      -0.9      4.303      7.579
REMARK SMILES N#CC1(C(=O)NCCCS[C@H](C(=O)c2ccc(F)cc2)[C@H](O)c2ccc(Cl)c(F)c2)CC1
REMARK SMILES IDX 8 1 7 2 6 3 4 4 5 5 3 7 31 8 32 9 2 10 1 11 9 12 10 13 11 14
REMARK SMILES IDX 12 15 13 16 14 17 15 18 20 19 16 20 19 21 17 22 18 23 21 24
REMARK SMILES IDX 22 25 23 27 24 28 30 29 25 30 28 31 26 32 29 33 27 34
REMARK H PARENT 6 6 22 26
ROOT
ATOM      1  C   UNL     1      41.675 132.212  19.219  1.00  0.00     0.032 C 
ENDROOT
BRANCH   1   2
ATOM      2  C   UNL     1      41.574 133.271  20.322  1.00  0.00     0.116 C 
BRANCH   2   3
ATOM      3  N   UNL     1      41.986 132.735  21.620  1.00  0.00    -0.355 N 
ATOM      4  C   UNL     1      42.452 131.391  21.795  1.00  0.00     0.240 C 
ATOM      5  O   UNL     1      42.537 130.610  20.809  1.00  0.00    -0.273 OA
ATOM      6  H   UNL     1      41.875 133.340  22.464  1.00  0.00     0.163 HD
BRANCH   4   7
ATOM      7  C   UNL     1      42.783 130.889  23.167  1.00  0.00     0.136 C 
ATOM      8  C   UNL     1      42.246 131.714  24.327  1.00  0.00     0.034 C 
ATOM      9  C   UNL     1      43.736 131.727  24.005  1.00  0.00     0.034 C 
BRANCH   7  10
ATOM     10  C   UNL     1      42.836 129.439  23.391  1.00  0.00     0.079 C 
ATOM     11  N   UNL     1      42.877 128.297  23.567  1.00  0.00    -0.197 NA
ENDBRANCH   7  10
ENDBRANCH   4   7
ENDBRANCH   2   3
ENDBRANCH   1   2
BRANCH   1  12
ATOM     12  C   UNL     1      43.027 132.260  18.500  1.00  0.00     0.072 C 
BRANCH  12  13
ATOM     13  S   UNL     1      43.014 131.144  17.045  1.00  0.00    -0.147 SA
BRANCH  13  14
ATOM     14  C   UNL     1      44.271 131.973  15.981  1.00  0.00     0.151 C 
BRANCH  14  15
ATOM     15  C   UNL     1      44.460 131.236  14.668  1.00  0.00     0.178 C 
ATOM     16  O   UNL     1      43.474 131.119  13.891  1.00  0.00    -0.293 OA
BRANCH  15  17
ATOM     17  C   UNL     1      45.774 130.675  14.248  1.00  0.00     0.019 A 
ATOM     18  C   UNL     1      46.212 129.447  14.783  1.00  0.00     0.015 A 
ATOM     19  C   UNL     1      46.595 131.330  13.306  1.00  0.00     0.015 A 
ATOM     20  C   UNL     1      47.437 128.896  14.395  1.00  0.00     0.040 A 
ATOM     21  C   UNL     1      47.818 130.773  12.921  1.00  0.00     0.040 A 
ATOM     22  C   UNL     1      48.240 129.559  13.465  1.00  0.00     0.123 A 
ATOM     23  F   UNL     1      49.427 129.022  13.087  1.00  0.00    -0.207 F 
ENDBRANCH  15  17
ENDBRANCH  14  15
BRANCH  14  24
ATOM     24  C   UNL     1      45.599 132.211  16.757  1.00  0.00     0.165 C 
BRANCH  24  25
ATOM     25  O   UNL     1      46.718 131.902  15.962  1.00  0.00    -0.387 OA
ATOM     26  H   UNL     1      47.105 131.049  16.290  1.00  0.00     0.211 HD
ENDBRANCH  24  25
BRANCH  24  27
ATOM     27  C   UNL     1      45.650 131.429  18.061  1.00  0.00    -0.015 A 
ATOM     28  C   UNL     1      45.682 130.024  18.038  1.00  0.00     0.008 A 
ATOM     29  C   UNL     1      45.685 132.091  19.302  1.00  0.00     0.047 A 
ATOM     30  C   UNL     1      45.750 129.296  19.230  1.00  0.00     0.024 A 
ATOM     31  C   UNL     1      45.750 131.361  20.493  1.00  0.00     0.142 A 
ATOM     32  C   UNL     1      45.784 129.963  20.459  1.00  0.00     0.076 A 
ATOM     33  F   UNL     1      45.782 132.019  21.681  1.00  0.00    -0.205 F 
ATOM     34  Cl  UNL     1      45.871 129.040  21.949  1.00  0.00    -0.081 Cl
ENDBRANCH  24  27
ENDBRANCH  14  24
ENDBRANCH  13  14
ENDBRANCH  12  13
ENDBRANCH   1  12
TORSDOF 12
ENDMDL
MODEL 6
REMARK VINA RESULT:       0.1      4.314      7.292
REMARK SMILES N#CC1(C(=O)NCCCS[C@H](C(=O)c2ccc(F)cc2)[C@H](O)c2ccc(Cl)c(F)c2)CC1
REMARK SMILES IDX 8 1 7 2 6 3 4 4 5 5 3 7 31 8 32 9 2 10 1 11 9 12 10 13 11 14
REMARK SMILES IDX 12 15 13 16 14 17 15 18 20 19 16 20 19 21 17 22 18 23 21 24
REMARK SMILES IDX 22 25 23 27 24 28 30 29 25 30 28 31 26 32 29 33 27 34
REMARK H PARENT 6 6 22 26
ROOT
ATOM      1  C   UNL     1      43.467 129.163  23.575  1.00  0.00     0.032 C 
ENDROOT
BRANCH   1   2
ATOM      2  C   UNL     1      44.649 128.399  22.967  1.00  0.00     0.116 C 
BRANCH   2   3
ATOM      3  N   UNL     1      44.332 126.983  22.779  1.00  0.00    -0.355 N 
ATOM      4  C   UNL     1      45.326 125.950  22.822  1.00  0.00     0.240 C 
ATOM      5  O   UNL     1      46.535 126.234  23.042  1.00  0.00    -0.273 OA
ATOM      6  H   UNL     1      43.350 126.722  22.542  1.00  0.00     0.163 HD
BRANCH   4   7
ATOM      7  C   UNL     1      44.938 124.530  22.545  1.00  0.00     0.136 C 
ATOM      8  C   UNL     1      45.557 123.479  23.454  1.00  0.00     0.034 C 
ATOM      9  C   UNL     1      46.016 123.604  22.005  1.00  0.00     0.034 C 
BRANCH   7  10
ATOM     10  C   UNL     1      43.567 124.252  22.097  1.00  0.00     0.079 C 
ATOM     11  N   UNL     1      42.488 124.033  21.743  1.00  0.00    -0.197 NA
ENDBRANCH   7  10
ENDBRANCH   4   7
ENDBRANCH   2   3
ENDBRANCH   1   2
BRANCH   1  12
ATOM     12  C   UNL     1      43.232 130.505  22.876  1.00  0.00     0.072 C 
BRANCH  12  13
ATOM     13  S   UNL     1      43.707 130.393  21.108  1.00  0.00    -0.147 SA
BRANCH  13  14
ATOM     14  C   UNL     1      45.399 131.123  21.174  1.00  0.00     0.151 C 
BRANCH  14  15
ATOM     15  C   UNL     1      45.350 132.640  21.164  1.00  0.00     0.178 C 
ATOM     16  O   UNL     1      44.278 133.210  20.824  1.00  0.00    -0.293 OA
BRANCH  15  17
ATOM     17  C   UNL     1      46.510 133.480  21.574  1.00  0.00     0.019 A 
ATOM     18  C   UNL     1      47.221 133.163  22.747  1.00  0.00     0.015 A 
ATOM     19  C   UNL     1      46.936 134.584  20.805  1.00  0.00     0.015 A 
ATOM     20  C   UNL     1      48.319 133.930  23.146  1.00  0.00     0.040 A 
ATOM     21  C   UNL     1      48.037 135.347  21.208  1.00  0.00     0.040 A 
ATOM     22  C   UNL     1      48.727 135.022  22.377  1.00  0.00     0.123 A 
ATOM     23  F   UNL     1      49.794 135.765  22.763  1.00  0.00    -0.207 F 
ENDBRANCH  15  17
ENDBRANCH  14  15
BRANCH  14  24
ATOM     24  C   UNL     1      46.316 130.523  20.069  1.00  0.00     0.165 C 
BRANCH  24  25
ATOM     25  O   UNL     1      47.591 131.116  20.085  1.00  0.00    -0.387 OA
ATOM     26  H   UNL     1      48.264 130.408  19.912  1.00  0.00     0.211 HD
ENDBRANCH  24  25
BRANCH  24  27
ATOM     27  C   UNL     1      45.700 130.644  18.684  1.00  0.00    -0.015 A 
ATOM     28  C   UNL     1      45.123 131.858  18.273  1.00  0.00     0.008 A 
ATOM     29  C   UNL     1      45.712 129.558  17.788  1.00  0.00     0.047 A 
ATOM     30  C   UNL     1      44.572 131.985  16.994  1.00  0.00     0.024 A 
ATOM     31  C   UNL     1      45.157 129.687  16.510  1.00  0.00     0.142 A 
ATOM     32  C   UNL     1      44.588 130.900  16.111  1.00  0.00     0.076 A 
ATOM     33  F   UNL     1      45.178 128.627  15.661  1.00  0.00    -0.205 F 
ATOM     34  Cl  UNL     1      43.895 131.072  14.508  1.00  0.00    -0.081 Cl
ENDBRANCH  24  27
ENDBRANCH  14  24
ENDBRANCH  13  14
ENDBRANCH  12  13
ENDBRANCH   1  12
TORSDOF 12
ENDMDL


