REMARK SMILES C=Cc1ccc(-c2ccc([O-])cc2)c2cn[nH]c12
REMARK SMILES IDX 3 1 4 2 5 3 6 4 14 5 15 6 16 7 17 8 18 9 2 11 1 12 7 13 8 14
REMARK SMILES IDX 13 15 9 16 12 17 10 18 11 19
REMARK H PARENT 17 10
ROOT
ATOM      1  C   UNL     1      -0.967   1.203   2.538  1.00  0.00    -0.000 A 
ATOM      2  C   UNL     1      -1.141   1.698   1.222  1.00  0.00     0.011 A 
ATOM      3  C   UNL     1      -0.740   0.939   0.101  1.00  0.00     0.010 A 
ATOM      4  C   UNL     1      -0.142  -0.329   0.260  1.00  0.00    -0.007 A 
ATOM      5  C   UNL     1       0.023  -0.792   1.572  1.00  0.00     0.028 A 
ATOM      6  C   UNL     1       0.506  -1.980   2.086  1.00  0.00     0.144 A 
ATOM      7  N   UNL     1       0.404  -1.936   3.434  1.00  0.00    -0.183 NA
ATOM      8  N   UNL     1      -0.125  -0.768   3.779  1.00  0.00    -0.277 N 
ATOM      9  C   UNL     1      -0.367  -0.059   2.661  1.00  0.00     0.073 A 
ATOM     10  H   UNL     1      -0.327  -0.489   4.764  1.00  0.00     0.190 HD
ENDROOT
BRANCH   1  11
ATOM     11  C   UNL     1      -1.359   1.979   3.739  1.00  0.00     0.002 C 
ATOM     12  C   UNL     1      -2.285   2.939   3.727  1.00  0.00     0.009 C 
ENDBRANCH   1  11
BRANCH   4  13
ATOM     13  C   UNL     1       0.286  -1.118  -0.919  1.00  0.00    -0.018 A 
ATOM     14  C   UNL     1       1.572  -1.683  -0.974  1.00  0.00     0.008 A 
ATOM     15  C   UNL     1      -0.583  -1.286  -2.012  1.00  0.00     0.008 A 
ATOM     16  C   UNL     1       1.974  -2.418  -2.094  1.00  0.00    -0.008 A 
ATOM     17  C   UNL     1      -0.177  -2.021  -3.130  1.00  0.00    -0.008 A 
ATOM     18  C   UNL     1       1.100  -2.588  -3.171  1.00  0.00    -0.109 A 
ATOM     19  O   UNL     1       1.500  -3.319  -4.283  1.00  0.00    -0.872 OA
ENDBRANCH   4  13
TORSDOF 2


