REMARK SMILES Cn1cnc2cc(-c3ccc4cc[nH]c4c3)cnc21
REMARK SMILES IDX 1 1 2 2 3 3 4 4 5 5 6 6 7 7 17 8 18 9 19 10 8 11 9 12 16 13
REMARK SMILES IDX 10 14 15 15 11 16 14 17 12 18 13 19
REMARK H PARENT 14 20
ROOT
ATOM      1  C   UNL     1      -5.121  -0.027   0.719  1.00  0.00     0.153 C 
ATOM      2  N   UNL     1      -3.937  -0.277   1.531  1.00  0.00    -0.318 N 
ATOM      3  C   UNL     1      -3.887  -0.576   2.853  1.00  0.00     0.201 A 
ATOM      4  N   UNL     1      -2.618  -0.646   3.341  1.00  0.00    -0.235 NA
ATOM      5  C   UNL     1      -1.864  -0.364   2.261  1.00  0.00     0.108 A 
ATOM      6  C   UNL     1      -0.481  -0.268   2.173  1.00  0.00     0.042 A 
ATOM      7  C   UNL     1       0.074   0.081   0.918  1.00  0.00     0.002 A 
ATOM      8  C   UNL     1      -0.803   0.317  -0.179  1.00  0.00     0.122 A 
ATOM      9  N   UNL     1      -2.158   0.207  -0.030  1.00  0.00    -0.236 NA
ATOM     10  C   UNL     1      -2.653  -0.134   1.184  1.00  0.00     0.159 A 
ENDROOT
BRANCH   7  11
ATOM     11  C   UNL     1       1.544   0.203   0.752  1.00  0.00    -0.015 A 
ATOM     12  C   UNL     1       2.419  -0.715   1.395  1.00  0.00     0.009 A 
ATOM     13  C   UNL     1       2.089   1.236  -0.049  1.00  0.00     0.035 A 
ATOM     14  C   UNL     1       3.813  -0.608   1.246  1.00  0.00     0.011 A 
ATOM     15  C   UNL     1       3.475   1.312  -0.174  1.00  0.00     0.046 A 
ATOM     16  C   UNL     1       4.305   0.422   0.451  1.00  0.00    -0.001 A 
ATOM     17  N   UNL     1       4.183   2.211  -0.877  1.00  0.00    -0.361 N 
ATOM     18  C   UNL     1       5.599   0.769   0.130  1.00  0.00     0.028 A 
ATOM     19  C   UNL     1       5.482   1.883  -0.695  1.00  0.00     0.083 A 
ATOM     20  H   UNL     1       3.810   3.002  -1.448  1.00  0.00     0.166 HD
ENDBRANCH   7  11
TORSDOF 1


