MODEL 1
REMARK VINA RESULT:      -6.7      0.000      0.000
REMARK SMILES C=Cc1cc(-c2ccc3[nH]ccc3c2)c(C=C)c(F)c1Cl
REMARK SMILES IDX 3 1 4 2 5 3 15 4 18 5 19 6 20 7 21 8 2 9 1 10 6 11 7 12
REMARK SMILES IDX 14 13 8 14 13 15 9 16 12 17 10 18 11 19 16 21 17 22
REMARK H PARENT 10 20
ROOT
ATOM      1  C   UNL     1      45.000 129.509  21.547  1.00  0.00    -0.004 A 
ATOM      2  C   UNL     1      45.348 129.720  20.200  1.00  0.00     0.019 A 
ATOM      3  C   UNL     1      44.747 130.738  19.443  1.00  0.00    -0.007 A 
ATOM      4  C   UNL     1      43.751 131.553  20.037  1.00  0.00     0.019 A 
ATOM      5  C   UNL     1      43.437 131.372  21.394  1.00  0.00     0.150 A 
ATOM      6  F   UNL     1      42.500 132.160  21.983  1.00  0.00    -0.205 F 
ATOM      7  C   UNL     1      44.053 130.362  22.146  1.00  0.00     0.084 A 
ATOM      8  Cl  UNL     1      43.573 130.167  23.832  1.00  0.00    -0.080 Cl
ENDROOT
BRANCH   1   9
ATOM      9  C   UNL     1      45.661 128.443  22.343  1.00  0.00     0.002 C 
ATOM     10  C   UNL     1      45.143 127.226  22.510  1.00  0.00     0.009 C 
ENDBRANCH   1   9
BRANCH   3  11
ATOM     11  C   UNL     1      45.238 130.965  18.061  1.00  0.00    -0.017 A 
ATOM     12  C   UNL     1      45.135 132.250  17.467  1.00  0.00     0.011 A 
ATOM     13  C   UNL     1      45.836 129.906  17.342  1.00  0.00     0.019 A 
ATOM     14  C   UNL     1      45.604 132.476  16.161  1.00  0.00     0.027 A 
ATOM     15  C   UNL     1      46.290 130.167  16.051  1.00  0.00    -0.000 A 
ATOM     16  C   UNL     1      46.177 131.405  15.480  1.00  0.00     0.045 A 
ATOM     17  C   UNL     1      46.895 129.341  15.130  1.00  0.00     0.028 A 
ATOM     18  N   UNL     1      46.685 131.406  14.237  1.00  0.00    -0.361 N 
ATOM     19  C   UNL     1      47.125 130.145  14.017  1.00  0.00     0.083 A 
ATOM     20  H   UNL     1      46.731 132.210  13.573  1.00  0.00     0.166 HD
ENDBRANCH   3  11
BRANCH   4  21
ATOM     21  C   UNL     1      43.011 132.595  19.286  1.00  0.00     0.004 C 
ATOM     22  C   UNL     1      41.796 132.392  18.779  1.00  0.00     0.009 C 
ENDBRANCH   4  21
TORSDOF 3
ENDMDL
MODEL 2
REMARK VINA RESULT:      -6.3      1.956      3.222
REMARK SMILES C=Cc1cc(-c2ccc3[nH]ccc3c2)c(C=C)c(F)c1Cl
REMARK SMILES IDX 3 1 4 2 5 3 15 4 18 5 19 6 20 7 21 8 2 9 1 10 6 11 7 12
REMARK SMILES IDX 14 13 8 14 13 15 9 16 12 17 10 18 11 19 16 21 17 22
REMARK H PARENT 10 20
ROOT
ATOM      1  C   UNL     1      44.563 131.488  19.647  1.00  0.00    -0.004 A 
ATOM      2  C   UNL     1      45.331 130.978  18.584  1.00  0.00     0.019 A 
ATOM      3  C   UNL     1      44.859 131.011  17.263  1.00  0.00    -0.007 A 
ATOM      4  C   UNL     1      43.573 131.543  16.996  1.00  0.00     0.019 A 
ATOM      5  C   UNL     1      42.826 132.094  18.051  1.00  0.00     0.150 A 
ATOM      6  F   UNL     1      41.600 132.628  17.806  1.00  0.00    -0.205 F 
ATOM      7  C   UNL     1      43.312 132.070  19.365  1.00  0.00     0.084 A 
ATOM      8  Cl  UNL     1      42.296 132.739  20.643  1.00  0.00    -0.080 Cl
ENDROOT
BRANCH   1   9
ATOM      9  C   UNL     1      45.086 131.468  21.038  1.00  0.00     0.002 C 
ATOM     10  C   UNL     1      44.764 130.530  21.928  1.00  0.00     0.009 C 
ENDBRANCH   1   9
BRANCH   3  11
ATOM     11  C   UNL     1      45.766 130.549  16.184  1.00  0.00    -0.017 A 
ATOM     12  C   UNL     1      46.080 129.170  16.054  1.00  0.00     0.011 A 
ATOM     13  C   UNL     1      46.300 131.479  15.264  1.00  0.00     0.019 A 
ATOM     14  C   UNL     1      46.933 128.722  15.030  1.00  0.00     0.027 A 
ATOM     15  C   UNL     1      47.140 130.998  14.262  1.00  0.00    -0.000 A 
ATOM     16  C   UNL     1      47.447 129.670  14.149  1.00  0.00     0.045 A 
ATOM     17  C   UNL     1      47.799 131.662  13.251  1.00  0.00     0.028 A 
ATOM     18  N   UNL     1      48.271 129.457  13.110  1.00  0.00    -0.361 N 
ATOM     19  C   UNL     1      48.490 130.672  12.557  1.00  0.00     0.083 A 
ATOM     20  H   UNL     1      48.665 128.545  12.792  1.00  0.00     0.166 HD
ENDBRANCH   3  11
BRANCH   4  21
ATOM     21  C   UNL     1      42.967 131.543  15.643  1.00  0.00     0.004 C 
ATOM     22  C   UNL     1      43.657 131.846  14.544  1.00  0.00     0.009 C 
ENDBRANCH   4  21
TORSDOF 3
ENDMDL
MODEL 3
REMARK VINA RESULT:      -6.1      1.533      2.138
REMARK SMILES C=Cc1cc(-c2ccc3[nH]ccc3c2)c(C=C)c(F)c1Cl
REMARK SMILES IDX 3 1 4 2 5 3 15 4 18 5 19 6 20 7 21 8 2 9 1 10 6 11 7 12
REMARK SMILES IDX 14 13 8 14 13 15 9 16 12 17 10 18 11 19 16 21 17 22
REMARK H PARENT 10 20
ROOT
ATOM      1  C   UNL     1      44.662 130.888  20.222  1.00  0.00    -0.004 A 
ATOM      2  C   UNL     1      45.354 130.774  19.002  1.00  0.00     0.019 A 
ATOM      3  C   UNL     1      44.780 131.204  17.796  1.00  0.00    -0.007 A 
ATOM      4  C   UNL     1      43.467 131.739  17.800  1.00  0.00     0.019 A 
ATOM      5  C   UNL     1      42.794 131.895  19.024  1.00  0.00     0.150 A 
ATOM      6  F   UNL     1      41.544 132.425  19.046  1.00  0.00    -0.205 F 
ATOM      7  C   UNL     1      43.381 131.476  20.225  1.00  0.00     0.084 A 
ATOM      8  Cl  UNL     1      42.456 131.662  21.715  1.00  0.00    -0.080 Cl
ENDROOT
BRANCH   1   9
ATOM      9  C   UNL     1      45.291 130.451  21.495  1.00  0.00     0.002 C 
ATOM     10  C   UNL     1      45.004 129.296  22.095  1.00  0.00     0.009 C 
ENDBRANCH   1   9
BRANCH   3  11
ATOM     11  C   UNL     1      45.609 131.147  16.567  1.00  0.00    -0.017 A 
ATOM     12  C   UNL     1      45.824 132.317  15.792  1.00  0.00     0.011 A 
ATOM     13  C   UNL     1      46.211 129.929  16.178  1.00  0.00     0.019 A 
ATOM     14  C   UNL     1      46.614 132.273  14.630  1.00  0.00     0.027 A 
ATOM     15  C   UNL     1      46.988 129.923  15.022  1.00  0.00    -0.000 A 
ATOM     16  C   UNL     1      47.181 131.052  14.274  1.00  0.00     0.045 A 
ATOM     17  C   UNL     1      47.675 128.899  14.409  1.00  0.00     0.028 A 
ATOM     18  N   UNL     1      47.963 130.793  13.213  1.00  0.00    -0.361 N 
ATOM     19  C   UNL     1      48.267 129.477  13.290  1.00  0.00     0.083 A 
ATOM     20  H   UNL     1      48.273 131.465  12.477  1.00  0.00     0.166 HD
ENDBRANCH   3  11
BRANCH   4  21
ATOM     21  C   UNL     1      42.758 132.141  16.562  1.00  0.00     0.004 C 
ATOM     22  C   UNL     1      43.085 131.671  15.359  1.00  0.00     0.009 C 
ENDBRANCH   4  21
TORSDOF 3
ENDMDL
MODEL 4
REMARK VINA RESULT:      -5.6      3.551      6.224
REMARK SMILES C=Cc1cc(-c2ccc3[nH]ccc3c2)c(C=C)c(F)c1Cl
REMARK SMILES IDX 3 1 4 2 5 3 15 4 18 5 19 6 20 7 21 8 2 9 1 10 6 11 7 12
REMARK SMILES IDX 14 13 8 14 13 15 9 16 12 17 10 18 11 19 16 21 17 22
REMARK H PARENT 10 20
ROOT
ATOM      1  C   UNL     1      45.907 130.443  16.736  1.00  0.00    -0.004 A 
ATOM      2  C   UNL     1      45.824 130.421  18.140  1.00  0.00     0.019 A 
ATOM      3  C   UNL     1      44.735 130.992  18.815  1.00  0.00    -0.007 A 
ATOM      4  C   UNL     1      43.709 131.628  18.071  1.00  0.00     0.019 A 
ATOM      5  C   UNL     1      43.769 131.610  16.668  1.00  0.00     0.150 A 
ATOM      6  F   UNL     1      42.782 132.196  15.940  1.00  0.00    -0.205 F 
ATOM      7  C   UNL     1      44.854 131.024  16.002  1.00  0.00     0.084 A 
ATOM      8  Cl  UNL     1      44.880 131.081  14.239  1.00  0.00    -0.080 Cl
ENDROOT
BRANCH   1   9
ATOM      9  C   UNL     1      47.055 129.814  16.033  1.00  0.00     0.002 C 
ATOM     10  C   UNL     1      47.297 129.977  14.733  1.00  0.00     0.009 C 
ENDBRANCH   1   9
BRANCH   3  11
ATOM     11  C   UNL     1      44.667 130.840  20.290  1.00  0.00    -0.017 A 
ATOM     12  C   UNL     1      44.408 131.966  21.114  1.00  0.00     0.011 A 
ATOM     13  C   UNL     1      44.834 129.566  20.876  1.00  0.00     0.019 A 
ATOM     14  C   UNL     1      44.335 131.830  22.512  1.00  0.00     0.027 A 
ATOM     15  C   UNL     1      44.754 129.469  22.263  1.00  0.00    -0.000 A 
ATOM     16  C   UNL     1      44.516 130.560  23.053  1.00  0.00     0.045 A 
ATOM     17  C   UNL     1      44.883 128.378  23.095  1.00  0.00     0.028 A 
ATOM     18  N   UNL     1      44.484 130.213  24.350  1.00  0.00    -0.361 N 
ATOM     19  C   UNL     1      44.709 128.879  24.381  1.00  0.00     0.083 A 
ATOM     20  H   UNL     1      44.322 130.840  25.169  1.00  0.00     0.166 HD
ENDBRANCH   3  11
BRANCH   4  21
ATOM     21  C   UNL     1      42.566 132.325  18.708  1.00  0.00     0.004 C 
ATOM     22  C   UNL     1      41.408 131.720  18.968  1.00  0.00     0.009 C 
ENDBRANCH   4  21
TORSDOF 3
ENDMDL
MODEL 5
REMARK VINA RESULT:      -5.5      1.259      1.832
REMARK SMILES C=Cc1cc(-c2ccc3[nH]ccc3c2)c(C=C)c(F)c1Cl
REMARK SMILES IDX 3 1 4 2 5 3 15 4 18 5 19 6 20 7 21 8 2 9 1 10 6 11 7 12
REMARK SMILES IDX 14 13 8 14 13 15 9 16 12 17 10 18 11 19 16 21 17 22
REMARK H PARENT 10 20
ROOT
ATOM      1  C   UNL     1      44.173 130.670  22.362  1.00  0.00    -0.004 A 
ATOM      2  C   UNL     1      44.741 130.447  21.094  1.00  0.00     0.019 A 
ATOM      3  C   UNL     1      44.257 131.103  19.953  1.00  0.00    -0.007 A 
ATOM      4  C   UNL     1      43.156 131.988  20.072  1.00  0.00     0.019 A 
ATOM      5  C   UNL     1      42.619 132.246  21.345  1.00  0.00     0.150 A 
ATOM      6  F   UNL     1      41.578 133.109  21.478  1.00  0.00    -0.205 F 
ATOM      7  C   UNL     1      43.119 131.597  22.481  1.00  0.00     0.084 A 
ATOM      8  Cl  UNL     1      42.362 131.937  24.038  1.00  0.00    -0.080 Cl
ENDROOT
BRANCH   1   9
ATOM      9  C   UNL     1      44.712 129.985  23.566  1.00  0.00     0.002 C 
ATOM     10  C   UNL     1      44.300 128.784  23.971  1.00  0.00     0.009 C 
ENDBRANCH   1   9
BRANCH   3  11
ATOM     11  C   UNL     1      44.972 130.895  18.669  1.00  0.00    -0.017 A 
ATOM     12  C   UNL     1      45.670 129.683  18.427  1.00  0.00     0.011 A 
ATOM     13  C   UNL     1      44.936 131.895  17.671  1.00  0.00     0.019 A 
ATOM     14  C   UNL     1      46.344 129.474  17.210  1.00  0.00     0.027 A 
ATOM     15  C   UNL     1      45.614 131.653  16.479  1.00  0.00    -0.000 A 
ATOM     16  C   UNL     1      46.295 130.487  16.256  1.00  0.00     0.045 A 
ATOM     17  C   UNL     1      45.756 132.435  15.354  1.00  0.00     0.028 A 
ATOM     18  N   UNL     1      46.863 130.491  15.039  1.00  0.00    -0.361 N 
ATOM     19  C   UNL     1      46.537 131.681  14.484  1.00  0.00     0.083 A 
ATOM     20  H   UNL     1      47.438 129.735  14.608  1.00  0.00     0.166 HD
ENDBRANCH   3  11
BRANCH   4  21
ATOM     21  C   UNL     1      42.533 132.660  18.907  1.00  0.00     0.004 C 
ATOM     22  C   UNL     1      41.489 132.149  18.255  1.00  0.00     0.009 C 
ENDBRANCH   4  21
TORSDOF 3
ENDMDL
MODEL 6
REMARK VINA RESULT:      -5.4      3.671      6.307
REMARK SMILES C=Cc1cc(-c2ccc3[nH]ccc3c2)c(C=C)c(F)c1Cl
REMARK SMILES IDX 3 1 4 2 5 3 15 4 18 5 19 6 20 7 21 8 2 9 1 10 6 11 7 12
REMARK SMILES IDX 14 13 8 14 13 15 9 16 12 17 10 18 11 19 16 21 17 22
REMARK H PARENT 10 20
ROOT
ATOM      1  C   UNL     1      45.801 130.471  16.593  1.00  0.00    -0.004 A 
ATOM      2  C   UNL     1      45.784 130.642  17.990  1.00  0.00     0.019 A 
ATOM      3  C   UNL     1      44.717 131.287  18.633  1.00  0.00    -0.007 A 
ATOM      4  C   UNL     1      43.647 131.802  17.859  1.00  0.00     0.019 A 
ATOM      5  C   UNL     1      43.641 131.592  16.470  1.00  0.00     0.150 A 
ATOM      6  F   UNL     1      42.611 132.061  15.718  1.00  0.00    -0.205 F 
ATOM      7  C   UNL     1      44.704 130.933  15.839  1.00  0.00     0.084 A 
ATOM      8  Cl  UNL     1      44.648 130.747  14.085  1.00  0.00    -0.080 Cl
ENDROOT
BRANCH   1   9
ATOM      9  C   UNL     1      46.926 129.764  15.929  1.00  0.00     0.002 C 
ATOM     10  C   UNL     1      47.299 130.000  14.671  1.00  0.00     0.009 C 
ENDBRANCH   1   9
BRANCH   3  11
ATOM     11  C   UNL     1      44.721 131.339  20.115  1.00  0.00    -0.017 A 
ATOM     12  C   UNL     1      45.650 132.165  20.800  1.00  0.00     0.011 A 
ATOM     13  C   UNL     1      43.778 130.586  20.850  1.00  0.00     0.019 A 
ATOM     14  C   UNL     1      45.657 132.226  22.206  1.00  0.00     0.027 A 
ATOM     15  C   UNL     1      43.813 130.672  22.240  1.00  0.00    -0.000 A 
ATOM     16  C   UNL     1      44.719 131.460  22.894  1.00  0.00     0.045 A 
ATOM     17  C   UNL     1      43.037 130.055  23.196  1.00  0.00     0.028 A 
ATOM     18  N   UNL     1      44.554 131.375  24.225  1.00  0.00    -0.361 N 
ATOM     19  C   UNL     1      43.526 130.516  24.414  1.00  0.00     0.083 A 
ATOM     20  H   UNL     1      45.103 131.867  24.963  1.00  0.00     0.166 HD
ENDBRANCH   3  11
BRANCH   4  21
ATOM     21  C   UNL     1      42.522 132.567  18.449  1.00  0.00     0.004 C 
ATOM     22  C   UNL     1      41.413 131.983  18.901  1.00  0.00     0.009 C 
ENDBRANCH   4  21
TORSDOF 3
ENDMDL
MODEL 7
REMARK VINA RESULT:      -5.3      3.563      6.417
REMARK SMILES C=Cc1cc(-c2ccc3[nH]ccc3c2)c(C=C)c(F)c1Cl
REMARK SMILES IDX 3 1 4 2 5 3 15 4 18 5 19 6 20 7 21 8 2 9 1 10 6 11 7 12
REMARK SMILES IDX 14 13 8 14 13 15 9 16 12 17 10 18 11 19 16 21 17 22
REMARK H PARENT 10 20
ROOT
ATOM      1  C   UNL     1      45.641 130.985  16.565  1.00  0.00    -0.004 A 
ATOM      2  C   UNL     1      45.621 130.801  17.960  1.00  0.00     0.019 A 
ATOM      3  C   UNL     1      44.471 131.076  18.715  1.00  0.00    -0.007 A 
ATOM      4  C   UNL     1      43.314 131.575  18.066  1.00  0.00     0.019 A 
ATOM      5  C   UNL     1      43.318 131.715  16.668  1.00  0.00     0.150 A 
ATOM      6  F   UNL     1      42.209 132.171  16.029  1.00  0.00    -0.205 F 
ATOM      7  C   UNL     1      44.468 131.424  15.921  1.00  0.00     0.084 A 
ATOM      8  Cl  UNL     1      44.411 131.668  14.174  1.00  0.00    -0.080 Cl
ENDROOT
BRANCH   1   9
ATOM      9  C   UNL     1      46.859 130.668  15.776  1.00  0.00     0.002 C 
ATOM     10  C   UNL     1      46.978 129.576  15.019  1.00  0.00     0.009 C 
ENDBRANCH   1   9
BRANCH   3  11
ATOM     11  C   UNL     1      44.493 130.762  20.165  1.00  0.00    -0.017 A 
ATOM     12  C   UNL     1      45.187 129.617  20.639  1.00  0.00     0.011 A 
ATOM     13  C   UNL     1      43.846 131.618  21.083  1.00  0.00     0.019 A 
ATOM     14  C   UNL     1      45.219 129.315  22.012  1.00  0.00     0.027 A 
ATOM     15  C   UNL     1      43.901 131.289  22.435  1.00  0.00    -0.000 A 
ATOM     16  C   UNL     1      44.560 130.177  22.884  1.00  0.00     0.045 A 
ATOM     17  C   UNL     1      43.364 131.922  23.535  1.00  0.00     0.028 A 
ATOM     18  N   UNL     1      44.470 130.076  24.220  1.00  0.00    -0.361 N 
ATOM     19  C   UNL     1      43.739 131.140  24.623  1.00  0.00     0.083 A 
ATOM     20  H   UNL     1      44.877 129.330  24.826  1.00  0.00     0.166 HD
ENDBRANCH   3  11
BRANCH   4  21
ATOM     21  C   UNL     1      42.085 131.966  18.798  1.00  0.00     0.004 C 
ATOM     22  C   UNL     1      41.960 133.137  19.421  1.00  0.00     0.009 C 
ENDBRANCH   4  21
TORSDOF 3
ENDMDL
MODEL 8
REMARK VINA RESULT:      -5.2      1.195      1.661
REMARK SMILES C=Cc1cc(-c2ccc3[nH]ccc3c2)c(C=C)c(F)c1Cl
REMARK SMILES IDX 3 1 4 2 5 3 15 4 18 5 19 6 20 7 21 8 2 9 1 10 6 11 7 12
REMARK SMILES IDX 14 13 8 14 13 15 9 16 12 17 10 18 11 19 16 21 17 22
REMARK H PARENT 10 20
ROOT
ATOM      1  C   UNL     1      44.565 129.663  22.360  1.00  0.00    -0.004 A 
ATOM      2  C   UNL     1      44.870 129.706  20.988  1.00  0.00     0.019 A 
ATOM      3  C   UNL     1      44.350 130.710  20.157  1.00  0.00    -0.007 A 
ATOM      4  C   UNL     1      43.479 131.685  20.704  1.00  0.00     0.019 A 
ATOM      5  C   UNL     1      43.210 131.669  22.082  1.00  0.00     0.150 A 
ATOM      6  F   UNL     1      42.394 132.610  22.625  1.00  0.00    -0.205 F 
ATOM      7  C   UNL     1      43.746 130.670  22.907  1.00  0.00     0.084 A 
ATOM      8  Cl  UNL     1      43.326 130.689  24.620  1.00  0.00    -0.080 Cl
ENDROOT
BRANCH   1   9
ATOM      9  C   UNL     1      45.141 128.607  23.233  1.00  0.00     0.002 C 
ATOM     10  C   UNL     1      44.939 127.304  23.038  1.00  0.00     0.009 C 
ENDBRANCH   1   9
BRANCH   3  11
ATOM     11  C   UNL     1      44.798 130.750  18.743  1.00  0.00    -0.017 A 
ATOM     12  C   UNL     1      46.075 130.244  18.381  1.00  0.00     0.011 A 
ATOM     13  C   UNL     1      43.942 131.268  17.746  1.00  0.00     0.019 A 
ATOM     14  C   UNL     1      46.504 130.272  17.042  1.00  0.00     0.027 A 
ATOM     15  C   UNL     1      44.400 131.277  16.430  1.00  0.00    -0.000 A 
ATOM     16  C   UNL     1      45.636 130.800  16.091  1.00  0.00     0.045 A 
ATOM     17  C   UNL     1      43.797 131.722  15.274  1.00  0.00     0.028 A 
ATOM     18  N   UNL     1      45.846 130.917  14.769  1.00  0.00    -0.361 N 
ATOM     19  C   UNL     1      44.725 131.481  14.265  1.00  0.00     0.083 A 
ATOM     20  H   UNL     1      46.698 130.635  14.237  1.00  0.00     0.166 HD
ENDBRANCH   3  11
BRANCH   4  21
ATOM     21  C   UNL     1      42.823 132.730  19.881  1.00  0.00     0.004 C 
ATOM     22  C   UNL     1      41.509 132.944  19.902  1.00  0.00     0.009 C 
ENDBRANCH   4  21
TORSDOF 3
ENDMDL
MODEL 9
REMARK VINA RESULT:      -5.2      3.903      6.876
REMARK SMILES C=Cc1cc(-c2ccc3[nH]ccc3c2)c(C=C)c(F)c1Cl
REMARK SMILES IDX 3 1 4 2 5 3 15 4 18 5 19 6 20 7 21 8 2 9 1 10 6 11 7 12
REMARK SMILES IDX 14 13 8 14 13 15 9 16 12 17 10 18 11 19 16 21 17 22
REMARK H PARENT 10 20
ROOT
ATOM      1  C   UNL     1      44.085 131.556  15.731  1.00  0.00    -0.004 A 
ATOM      2  C   UNL     1      43.452 131.768  16.969  1.00  0.00     0.019 A 
ATOM      3  C   UNL     1      44.054 131.370  18.173  1.00  0.00    -0.007 A 
ATOM      4  C   UNL     1      45.312 130.716  18.140  1.00  0.00     0.019 A 
ATOM      5  C   UNL     1      45.964 130.546  16.908  1.00  0.00     0.150 A 
ATOM      6  F   UNL     1      47.180 129.941  16.863  1.00  0.00    -0.205 F 
ATOM      7  C   UNL     1      45.362 130.961  15.712  1.00  0.00     0.084 A 
ATOM      8  Cl  UNL     1      46.222 130.671  14.200  1.00  0.00    -0.080 Cl
ENDROOT
BRANCH   1   9
ATOM      9  C   UNL     1      43.446 132.004  14.466  1.00  0.00     0.002 C 
ATOM     10  C   UNL     1      42.991 131.164  13.537  1.00  0.00     0.009 C 
ENDBRANCH   1   9
BRANCH   3  11
ATOM     11  C   UNL     1      43.374 131.718  19.444  1.00  0.00    -0.017 A 
ATOM     12  C   UNL     1      42.303 132.650  19.452  1.00  0.00     0.011 A 
ATOM     13  C   UNL     1      43.774 131.101  20.651  1.00  0.00     0.019 A 
ATOM     14  C   UNL     1      41.647 132.980  20.652  1.00  0.00     0.027 A 
ATOM     15  C   UNL     1      43.101 131.451  21.819  1.00  0.00    -0.000 A 
ATOM     16  C   UNL     1      42.078 132.359  21.821  1.00  0.00     0.045 A 
ATOM     17  C   UNL     1      43.278 131.025  23.117  1.00  0.00     0.028 A 
ATOM     18  N   UNL     1      41.592 132.528  23.062  1.00  0.00    -0.361 N 
ATOM     19  C   UNL     1      42.324 131.716  23.859  1.00  0.00     0.083 A 
ATOM     20  H   UNL     1      40.813 133.157  23.356  1.00  0.00     0.166 HD
ENDBRANCH   3  11
BRANCH   4  21
ATOM     21  C   UNL     1      45.978 130.193  19.356  1.00  0.00     0.004 C 
ATOM     22  C   UNL     1      46.583 130.982  20.243  1.00  0.00     0.009 C 
ENDBRANCH   4  21
TORSDOF 3
ENDMDL


