REMARK SMILES Oc1c(-n2nc3ccccc3[nH+]2)cc2cnoc2c1[NH2+]c1ccc2cc[nH]c2c1
REMARK SMILES IDX 2 1 3 2 13 3 14 4 15 5 16 6 17 7 18 8 19 9 1 10 4 12 5 13
REMARK SMILES IDX 12 14 6 15 11 16 7 17 10 18 8 19 9 20 20 22 21 25 22 26
REMARK SMILES IDX 29 27 23 28 28 29 24 30 27 31 25 32 26 33
REMARK H PARENT 1 11 12 21 20 23 20 24 27 34
ROOT
ATOM      1  C   UNL     1       1.247  -0.491   0.243  1.00  0.00     0.214 A 
ATOM      2  C   UNL     1       1.159   0.620   1.141  1.00  0.00     0.177 A 
ATOM      3  C   UNL     1       1.360   1.931   0.658  1.00  0.00     0.052 A 
ATOM      4  C   UNL     1       1.604   2.097  -0.698  1.00  0.00     0.051 A 
ATOM      5  C   UNL     1       1.815   3.215  -1.468  1.00  0.00     0.167 A 
ATOM      6  N   UNL     1       1.987   2.809  -2.748  1.00  0.00    -0.087 NA
ATOM      7  O   UNL     1       1.886   1.506  -2.769  1.00  0.00    -0.350 OA
ATOM      8  C   UNL     1       1.656   1.049  -1.562  1.00  0.00     0.231 A 
ATOM      9  C   UNL     1       1.482  -0.273  -1.142  1.00  0.00     0.225 A 
ENDROOT
BRANCH   1  10
ATOM     10  O   UNL     1       1.139  -1.805   0.704  1.00  0.00    -0.501 OA
ATOM     11  H   UNL     1       1.117  -2.047   1.686  1.00  0.00     0.293 HD
ENDBRANCH   1  10
BRANCH   2  12
ATOM     12  N   UNL     1       0.831   0.435   2.527  1.00  0.00    -0.009 N 
ATOM     13  N   UNL     1      -0.160  -0.346   2.955  1.00  0.00     0.054 NA
ATOM     14  N   UNL     1       1.420   1.092   3.524  1.00  0.00    -0.161 N 
ATOM     15  C   UNL     1      -0.177  -0.185   4.290  1.00  0.00     0.249 A 
ATOM     16  C   UNL     1       0.795   0.702   4.642  1.00  0.00     0.198 A 
ATOM     17  C   UNL     1      -1.016  -0.773   5.231  1.00  0.00     0.064 A 
ATOM     18  C   UNL     1       1.018   1.081   5.961  1.00  0.00     0.058 A 
ATOM     19  C   UNL     1      -0.823  -0.417   6.582  1.00  0.00     0.005 A 
ATOM     20  C   UNL     1       0.189   0.505   6.945  1.00  0.00     0.005 A 
ATOM     21  H   UNL     1       2.211   1.769   3.436  1.00  0.00     0.340 HD
ENDBRANCH   2  12
BRANCH   9  22
ATOM     22  N   UNL     1       1.518  -1.363  -2.088  1.00  0.00    -0.275 N 
ATOM     23  H   UNL     1       1.948  -2.210  -1.649  1.00  0.00     0.358 HD
ATOM     24  H   UNL     1       2.123  -1.113  -2.905  1.00  0.00     0.358 HD
BRANCH  22  25
ATOM     25  C   UNL     1       0.182  -1.654  -2.546  1.00  0.00     0.136 A 
ATOM     26  C   UNL     1      -0.586  -2.674  -1.921  1.00  0.00     0.069 A 
ATOM     27  C   UNL     1      -0.388  -0.901  -3.601  1.00  0.00     0.094 A 
ATOM     28  C   UNL     1      -1.901  -2.943  -2.340  1.00  0.00     0.016 A 
ATOM     29  C   UNL     1      -1.693  -1.195  -3.989  1.00  0.00     0.051 A 
ATOM     30  C   UNL     1      -2.421  -2.180  -3.380  1.00  0.00    -0.000 A 
ATOM     31  N   UNL     1      -2.409  -0.601  -4.958  1.00  0.00    -0.361 N 
ATOM     32  C   UNL     1      -3.657  -2.215  -3.989  1.00  0.00     0.028 A 
ATOM     33  C   UNL     1      -3.611  -1.222  -4.962  1.00  0.00     0.083 A 
ATOM     34  H   UNL     1      -2.105   0.179  -5.582  1.00  0.00     0.166 HD
ENDBRANCH  22  25
ENDBRANCH   9  22
TORSDOF 4


