REMARK SMILES N#Cc1[nH+]c2cnc(/N=C3/[CH]C=CC3)cc2cc1-c1ccc([O-])cc1
REMARK SMILES IDX 8 1 7 2 6 3 5 4 16 5 15 6 17 7 18 8 3 9 4 10 9 12 10 13
REMARK SMILES IDX 11 14 12 15 13 16 14 17 19 18 20 19 25 20 21 21 24 22 22 23
REMARK SMILES IDX 23 24 2 25 1 26
REMARK H PARENT 4 11
ROOT
ATOM      1  C   UNL     1      -1.151  -2.328   0.717  1.00  0.00     0.152 A 
ATOM      2  N   UNL     1      -1.317  -1.858   1.985  1.00  0.00    -0.230 NA
ATOM      3  C   UNL     1      -0.691  -0.738   2.432  1.00  0.00     0.193 A 
ATOM      4  C   UNL     1       0.160  -0.022   1.579  1.00  0.00     0.230 A 
ATOM      5  C   UNL     1       0.349  -0.484   0.263  1.00  0.00     0.052 A 
ATOM      6  C   UNL     1      -0.310  -1.643  -0.167  1.00  0.00     0.064 A 
ATOM      7  C   UNL     1       1.197   0.226  -0.591  1.00  0.00     0.031 A 
ATOM      8  C   UNL     1       1.854   1.380  -0.138  1.00  0.00     0.066 A 
ATOM      9  C   UNL     1       1.626   1.815   1.189  1.00  0.00     0.290 A 
ATOM     10  N   UNL     1       0.794   1.107   2.006  1.00  0.00    -0.194 N 
ATOM     11  H   UNL     1       0.635   1.445   2.984  1.00  0.00     0.455 HD
ENDROOT
BRANCH   1  12
ATOM     12  N   UNL     1      -1.820  -3.515   0.260  1.00  0.00    -0.237 NA
BRANCH  12  13
ATOM     13  C   UNL     1      -2.635  -4.280   0.927  1.00  0.00     0.032 C 
ATOM     14  C   UNL     1      -3.259  -5.484   0.315  1.00  0.00     0.069 C 
ATOM     15  C   UNL     1      -4.083  -6.002   1.443  1.00  0.00    -0.020 C 
ATOM     16  C   UNL     1      -3.983  -5.250   2.535  1.00  0.00    -0.025 C 
ATOM     17  C   UNL     1      -3.071  -4.088   2.343  1.00  0.00     0.079 C 
ENDBRANCH  12  13
ENDBRANCH   1  12
BRANCH   8  18
ATOM     18  C   UNL     1       2.759   2.105  -1.064  1.00  0.00    -0.011 A 
ATOM     19  C   UNL     1       2.296   2.518  -2.325  1.00  0.00     0.008 A 
ATOM     20  C   UNL     1       4.095   2.357  -0.707  1.00  0.00     0.008 A 
ATOM     21  C   UNL     1       3.150   3.189  -3.205  1.00  0.00    -0.008 A 
ATOM     22  C   UNL     1       4.946   3.029  -1.591  1.00  0.00    -0.008 A 
ATOM     23  C   UNL     1       4.474   3.446  -2.839  1.00  0.00    -0.109 A 
ATOM     24  O   UNL     1       5.321   4.113  -3.715  1.00  0.00    -0.872 OA
ENDBRANCH   8  18
BRANCH   9  25
ATOM     25  C   UNL     1       2.224   3.031   1.690  1.00  0.00     0.170 C 
ATOM     26  N   UNL     1       2.703   4.005   2.091  1.00  0.00    -0.186 NA
ENDBRANCH   9  25
TORSDOF 4


