REMARK SMILES Cc1ccc([NH2+]c2cc(F)c(CN3CC[C@H]4CCC[C@H]43)cc2N)c(F)n1
REMARK SMILES IDX 7 1 8 2 9 3 10 4 11 5 21 6 22 7 6 8 5 11 2 12 3 13 26 14
REMARK SMILES IDX 4 15 24 16 1 17 25 18 23 19 12 22 13 23 14 24 20 25 15 26
REMARK SMILES IDX 19 27 16 28 18 29 17 30
REMARK H PARENT 6 9 6 10 23 20 23 21
ROOT
ATOM      1  C   UNL     1       0.821  -2.731   1.493  1.00  0.00     0.160 A 
ATOM      2  C   UNL     1       1.847  -1.767   1.531  1.00  0.00     0.110 A 
ATOM      3  C   UNL     1       2.216  -1.058   0.388  1.00  0.00     0.133 A 
ATOM      4  F   UNL     1       3.190  -0.117   0.483  1.00  0.00    -0.206 F 
ATOM      5  C   UNL     1       1.565  -1.296  -0.829  1.00  0.00     0.004 A 
ATOM      6  C   UNL     1       0.558  -2.268  -0.889  1.00  0.00     0.040 A 
ATOM      7  C   UNL     1       0.182  -2.998   0.250  1.00  0.00     0.094 A 
ENDROOT
BRANCH   1   8
ATOM      8  N   UNL     1       0.396  -3.342   2.734  1.00  0.00    -0.276 N 
ATOM      9  H   UNL     1       1.217  -3.443   3.376  1.00  0.00     0.358 HD
ATOM     10  H   UNL     1       0.046  -4.314   2.594  1.00  0.00     0.358 HD
BRANCH   8  11
ATOM     11  C   UNL     1      -0.617  -2.525   3.362  1.00  0.00     0.190 A 
ATOM     12  C   UNL     1      -2.552  -0.881   4.525  1.00  0.00     0.041 A 
ATOM     13  C   UNL     1      -2.943  -1.873   3.620  1.00  0.00     0.030 A 
ATOM     14  N   UNL     1      -1.234  -0.721   4.821  1.00  0.00    -0.220 NA
ATOM     15  C   UNL     1      -1.975  -2.696   3.045  1.00  0.00     0.075 A 
ATOM     16  C   UNL     1      -0.270  -1.508   4.274  1.00  0.00     0.274 A 
ATOM     17  C   UNL     1      -3.567   0.036   5.130  1.00  0.00     0.067 C 
ATOM     18  F   UNL     1       1.023  -1.302   4.625  1.00  0.00    -0.178 F 
ENDBRANCH   8  11
ENDBRANCH   1   8
BRANCH   7  19
ATOM     19  N   UNL     1      -0.840  -3.995   0.105  1.00  0.00    -0.394 N 
ATOM     20  H   UNL     1      -1.036  -4.723   0.823  1.00  0.00     0.156 HD
ATOM     21  H   UNL     1      -1.367  -4.080  -0.793  1.00  0.00     0.156 HD
ENDBRANCH   7  19
BRANCH   5  22
ATOM     22  C   UNL     1       1.875  -0.475  -2.055  1.00  0.00     0.123 C 
BRANCH  22  23
ATOM     23  N   UNL     1       0.745   0.422  -2.368  1.00  0.00    -0.296 NA
ATOM     24  C   UNL     1       0.921   1.068  -3.672  1.00  0.00     0.085 C 
ATOM     25  C   UNL     1       0.591   1.516  -1.392  1.00  0.00     0.060 C 
ATOM     26  C   UNL     1       0.120   2.354  -3.624  1.00  0.00     0.021 C 
ATOM     27  C   UNL     1      -0.537   1.218  -0.405  1.00  0.00     0.019 C 
ATOM     28  C   UNL     1       0.175   2.770  -2.158  1.00  0.00     0.007 C 
ATOM     29  C   UNL     1      -1.288   2.525  -0.235  1.00  0.00     0.002 C 
ATOM     30  C   UNL     1      -1.164   3.233  -1.572  1.00  0.00     0.005 C 
ENDBRANCH  22  23
ENDBRANCH   5  22
TORSDOF 5


