REMARK SMILES N[NH2+]c1ccc2cc3ccccc3cc2c1
REMARK SMILES IDX 1 1 2 4 3 7 4 8 16 9 5 10 15 11 6 12 14 13 7 14 13 15 8 16
REMARK SMILES IDX 12 17 9 18 11 19 10 20
REMARK H PARENT 1 2 1 3 2 5 2 6
ROOT
ATOM      1  N   UNL     1       4.507  -1.118   1.566  1.00  0.00    -0.178 NA
ATOM      2  H   UNL     1       4.035  -0.464   2.235  1.00  0.00     0.183 HD
ATOM      3  H   UNL     1       4.806  -0.569   0.725  1.00  0.00     0.183 HD
ENDROOT
BRANCH   1   4
ATOM      4  N   UNL     1       3.591  -2.115   1.167  1.00  0.00    -0.239 N 
ATOM      5  H   UNL     1       3.304  -2.661   2.013  1.00  0.00     0.376 HD
ATOM      6  H   UNL     1       4.075  -2.767   0.507  1.00  0.00     0.376 HD
BRANCH   4   7
ATOM      7  C   UNL     1       2.441  -1.512   0.536  1.00  0.00     0.149 A 
ATOM      8  C   UNL     1       2.436  -1.274  -0.848  1.00  0.00     0.070 A 
ATOM      9  C   UNL     1       1.337  -1.111   1.308  1.00  0.00     0.078 A 
ATOM     10  C   UNL     1       1.337  -0.664  -1.460  1.00  0.00     0.015 A 
ATOM     11  C   UNL     1       0.229  -0.497   0.703  1.00  0.00    -0.012 A 
ATOM     12  C   UNL     1       0.229  -0.274  -0.695  1.00  0.00    -0.017 A 
ATOM     13  C   UNL     1      -0.875  -0.103   1.473  1.00  0.00     0.017 A 
ATOM     14  C   UNL     1      -0.876   0.339  -1.304  1.00  0.00     0.017 A 
ATOM     15  C   UNL     1      -1.980   0.509   0.865  1.00  0.00    -0.018 A 
ATOM     16  C   UNL     1      -1.981   0.732  -0.534  1.00  0.00    -0.018 A 
ATOM     17  C   UNL     1      -3.088   0.905   1.631  1.00  0.00     0.009 A 
ATOM     18  C   UNL     1      -3.090   1.346  -1.138  1.00  0.00     0.009 A 
ATOM     19  C   UNL     1      -4.185   1.515   1.016  1.00  0.00     0.001 A 
ATOM     20  C   UNL     1      -4.186   1.735  -0.364  1.00  0.00     0.001 A 
ENDBRANCH   4   7
ENDBRANCH   1   4
TORSDOF 2


