REMARK SMILES O=C(N(c1ccc2cc[nH]c2c1)c1ccc([O-])cc1F)C1(CF)CNC1
REMARK SMILES IDX 1 1 2 2 3 3 4 4 5 5 12 6 6 7 11 8 7 9 10 10 8 11 9 12 13 14
REMARK SMILES IDX 14 15 19 16 15 17 18 18 16 19 20 20 17 21 21 22 24 23 26 24
REMARK SMILES IDX 25 25 22 27 23 28
REMARK H PARENT 10 13 25 26
ROOT
ATOM      1  O   UNL     1      -1.373   1.954  -0.388  1.00  0.00    -0.273 OA
ATOM      2  C   UNL     1      -0.765   1.025  -0.985  1.00  0.00     0.243 C 
ENDROOT
BRANCH   2   3
ATOM      3  N   UNL     1      -1.209  -0.334  -0.806  1.00  0.00    -0.277 N 
BRANCH   3   4
ATOM      4  C   UNL     1      -0.261  -1.370  -0.498  1.00  0.00     0.051 A 
ATOM      5  C   UNL     1       0.618  -1.229   0.606  1.00  0.00     0.027 A 
ATOM      6  C   UNL     1      -0.238  -2.555  -1.267  1.00  0.00     0.053 A 
ATOM      7  C   UNL     1       1.534  -2.246   0.927  1.00  0.00     0.012 A 
ATOM      8  C   UNL     1       0.682  -3.542  -0.921  1.00  0.00     0.047 A 
ATOM      9  C   UNL     1       1.538  -3.391   0.136  1.00  0.00    -0.000 A 
ATOM     10  N   UNL     1       0.872  -4.728  -1.523  1.00  0.00    -0.361 N 
ATOM     11  C   UNL     1       2.307  -4.532   0.211  1.00  0.00     0.028 A 
ATOM     12  C   UNL     1       1.864  -5.337  -0.834  1.00  0.00     0.083 A 
ATOM     13  H   UNL     1       0.360  -5.106  -2.351  1.00  0.00     0.166 HD
ENDBRANCH   3   4
BRANCH   3  14
ATOM     14  C   UNL     1      -2.619  -0.640  -0.839  1.00  0.00     0.085 A 
ATOM     15  C   UNL     1      -3.177  -1.513   0.113  1.00  0.00     0.029 A 
ATOM     16  C   UNL     1      -3.457  -0.081  -1.826  1.00  0.00     0.146 A 
ATOM     17  C   UNL     1      -4.541  -1.816   0.085  1.00  0.00    -0.006 A 
ATOM     18  C   UNL     1      -4.822  -0.389  -1.848  1.00  0.00     0.033 A 
ATOM     19  C   UNL     1      -5.364  -1.253  -0.894  1.00  0.00    -0.106 A 
ATOM     20  F   UNL     1      -2.951   0.733  -2.786  1.00  0.00    -0.205 F 
ATOM     21  O   UNL     1      -6.720  -1.555  -0.920  1.00  0.00    -0.872 OA
ENDBRANCH   3  14
ENDBRANCH   2   3
BRANCH   2  22
ATOM     22  C   UNL     1       0.415   1.369  -1.875  1.00  0.00     0.103 C 
ATOM     23  C   UNL     1       0.556   0.498  -3.125  1.00  0.00     0.102 C 
ATOM     24  C   UNL     1       0.108   2.486  -2.875  1.00  0.00     0.102 C 
ATOM     25  N   UNL     1       0.269   1.608  -4.035  1.00  0.00    -0.314 NA
ATOM     26  H   UNL     1      -0.673   1.450  -4.465  1.00  0.00     0.122 HD
BRANCH  22  27
ATOM     27  C   UNL     1       1.735   1.583  -1.115  1.00  0.00     0.234 C 
ATOM     28  F   UNL     1       1.571   2.539  -0.128  1.00  0.00    -0.250 F 
ENDBRANCH  22  27
ENDBRANCH   2  22
TORSDOF 5


