REMARK SMILES C=Cc1cc(-c2cnc3ccnn3c2)ccc1CC[NH3+]
REMARK SMILES IDX 18 1 17 2 3 3 4 4 5 5 16 6 15 7 2 8 1 9 6 10 7 11 14 12 8 13
REMARK SMILES IDX 13 14 9 15 12 16 10 17 11 18 19 19 20 20
REMARK H PARENT 20 21 20 22 20 23
ROOT
ATOM      1  C   UNL     1       3.471   1.169  -0.123  1.00  0.00     0.097 C 
ENDROOT
BRANCH   1   2
ATOM      2  C   UNL     1       2.283   0.244   0.026  1.00  0.00    -0.035 A 
ATOM      3  C   UNL     1       1.117   0.610   0.748  1.00  0.00    -0.022 A 
ATOM      4  C   UNL     1       0.059  -0.315   0.853  1.00  0.00     0.017 A 
ATOM      5  C   UNL     1       0.137  -1.582   0.251  1.00  0.00    -0.015 A 
ATOM      6  C   UNL     1       2.357  -1.030  -0.559  1.00  0.00     0.005 A 
ATOM      7  C   UNL     1       1.297  -1.929  -0.454  1.00  0.00     0.009 A 
BRANCH   3   8
ATOM      8  C   UNL     1       1.018   1.929   1.429  1.00  0.00     0.000 C 
ATOM      9  C   UNL     1      -0.131   2.590   1.570  1.00  0.00     0.009 C 
ENDBRANCH   3   8
BRANCH   5  10
ATOM     10  C   UNL     1      -0.989  -2.543   0.370  1.00  0.00     0.019 A 
ATOM     11  C   UNL     1      -0.754  -3.929   0.563  1.00  0.00     0.124 A 
ATOM     12  C   UNL     1      -2.328  -2.106   0.293  1.00  0.00     0.125 A 
ATOM     13  N   UNL     1      -1.794  -4.805   0.671  1.00  0.00    -0.236 NA
ATOM     14  N   UNL     1      -3.309  -3.031   0.406  1.00  0.00    -0.222 N 
ATOM     15  C   UNL     1      -3.058  -4.329   0.588  1.00  0.00     0.154 A 
ATOM     16  N   UNL     1      -4.613  -2.822   0.356  1.00  0.00    -0.175 NA
ATOM     17  C   UNL     1      -4.238  -5.028   0.666  1.00  0.00     0.071 A 
ATOM     18  C   UNL     1      -5.202  -4.033   0.514  1.00  0.00     0.138 A 
ENDBRANCH   5  10
ENDBRANCH   1   2
BRANCH   1  19
ATOM     19  C   UNL     1       4.473   0.956   1.019  1.00  0.00     0.263 C 
BRANCH  19  20
ATOM     20  N   UNL     1       5.606   1.873   0.897  1.00  0.00    -0.357 N 
ATOM     21  H   UNL     1       6.103   1.712  -0.009  1.00  0.00     0.344 HD
ATOM     22  H   UNL     1       6.273   1.698   1.684  1.00  0.00     0.344 HD
ATOM     23  H   UNL     1       5.274   2.863   0.949  1.00  0.00     0.344 HD
ENDBRANCH  19  20
ENDBRANCH   1  19
TORSDOF 5


