REMARK SMILES Cn1nnc2cc(NC(=O)c3cc(F)c[nH]3)c(C=O)cc21
REMARK SMILES IDX 1 1 2 2 3 3 4 4 5 5 6 6 7 7 17 8 20 9 21 10 18 11 19 12 8 13
REMARK SMILES IDX 9 14 10 16 11 17 12 18 16 19 13 20 15 21 14 23
REMARK H PARENT 8 15 16 22
ROOT
ATOM      1  C   UNL     1       2.400  -2.579  -3.784  1.00  0.00     0.176 C 
ATOM      2  N   UNL     1       1.337  -2.672  -2.792  1.00  0.00    -0.248 N 
ATOM      3  N   UNL     1       0.354  -3.567  -2.813  1.00  0.00    -0.066 NA
ATOM      4  N   UNL     1      -0.453  -3.410  -1.764  1.00  0.00    -0.130 NA
ATOM      5  C   UNL     1       0.053  -2.375  -1.067  1.00  0.00     0.115 A 
ATOM      6  C   UNL     1      -0.404  -1.818   0.119  1.00  0.00     0.059 A 
ATOM      7  C   UNL     1       0.320  -0.731   0.667  1.00  0.00     0.054 A 
ATOM      8  C   UNL     1       1.489  -0.240  -0.009  1.00  0.00     0.040 A 
ATOM      9  C   UNL     1       1.917  -0.858  -1.208  1.00  0.00     0.044 A 
ATOM     10  C   UNL     1       1.163  -1.919  -1.697  1.00  0.00     0.089 A 
ENDROOT
BRANCH   8  11
ATOM     11  C   UNL     1       2.264   0.926   0.471  1.00  0.00     0.262 C 
ATOM     12  O   UNL     1       1.804   1.721   1.333  1.00  0.00    -0.298 OA
ENDBRANCH   8  11
BRANCH   7  13
ATOM     13  N   UNL     1      -0.080  -0.197   1.939  1.00  0.00    -0.320 N 
ATOM     14  C   UNL     1      -1.444   0.136   2.246  1.00  0.00     0.272 C 
ATOM     15  H   UNL     1       0.659  -0.034   2.656  1.00  0.00     0.170 HD
ATOM     16  O   UNL     1      -2.305   0.171   1.325  1.00  0.00    -0.267 OA
BRANCH  14  17
ATOM     17  C   UNL     1      -1.858   0.467   3.624  1.00  0.00     0.107 A 
ATOM     18  C   UNL     1      -1.066   0.396   4.760  1.00  0.00     0.072 A 
ATOM     19  N   UNL     1      -3.102   0.877   3.950  1.00  0.00    -0.355 N 
ATOM     20  C   UNL     1      -1.879   0.785   5.803  1.00  0.00     0.141 A 
ATOM     21  C   UNL     1      -3.120   1.075   5.280  1.00  0.00     0.122 A 
ATOM     22  H   UNL     1      -3.906   1.018   3.299  1.00  0.00     0.166 HD
ATOM     23  F   UNL     1      -1.524   0.862   7.108  1.00  0.00    -0.205 F 
ENDBRANCH  14  17
ENDBRANCH   7  13
TORSDOF 3


