REMARK SMILES c1cc(-c2ccc([C@@H]3CO3)cn2)c2occc2c1
REMARK SMILES IDX 4 1 5 2 6 3 7 4 11 5 12 6 3 7 1 8 2 9 18 10 17 11 13 12
REMARK SMILES IDX 16 13 14 14 15 15 8 16 9 17 10 18
REMARK H PARENT
ROOT
ATOM      1  C   UNL     1      -0.745  -0.569  -0.321  1.00  0.00     0.074 A 
ATOM      2  C   UNL     1      -1.986  -0.016  -0.679  1.00  0.00     0.029 A 
ATOM      3  C   UNL     1      -3.152  -0.763  -0.498  1.00  0.00     0.010 A 
ATOM      4  C   UNL     1      -3.080  -2.056   0.032  1.00  0.00     0.001 A 
ATOM      5  C   UNL     1      -1.831  -2.563   0.406  1.00  0.00     0.118 A 
ATOM      6  N   UNL     1      -0.709  -1.819   0.222  1.00  0.00    -0.256 NA
ENDROOT
BRANCH   1   7
ATOM      7  C   UNL     1       0.520   0.186  -0.485  1.00  0.00     0.043 A 
ATOM      8  C   UNL     1       2.798   0.714   0.276  1.00  0.00     0.002 A 
ATOM      9  C   UNL     1       1.587   0.004   0.427  1.00  0.00     0.014 A 
ATOM     10  C   UNL     1       2.972   1.609  -0.793  1.00  0.00     0.012 A 
ATOM     11  C   UNL     1       1.917   1.762  -1.686  1.00  0.00     0.021 A 
ATOM     12  C   UNL     1       0.738   1.078  -1.547  1.00  0.00     0.143 A 
ATOM     13  C   UNL     1       1.810   2.531  -2.821  1.00  0.00     0.050 A 
ATOM     14  O   UNL     1      -0.073   1.380  -2.534  1.00  0.00    -0.464 OA
ATOM     15  C   UNL     1       0.541   2.251  -3.313  1.00  0.00     0.196 A 
ENDBRANCH   1   7
BRANCH   4  16
ATOM     16  C   UNL     1      -4.326  -2.858   0.266  1.00  0.00     0.176 C 
ATOM     17  C   UNL     1      -4.451  -4.111  -0.513  1.00  0.00     0.198 C 
ATOM     18  O   UNL     1      -5.124  -2.933  -0.893  1.00  0.00    -0.368 OA
ENDBRANCH   4  16
TORSDOF 2


