MODEL 1
REMARK VINA RESULT:     -10.5      0.000      0.000
REMARK SMILES Cc1ccc(-c2cc(F)c3ncccc3c2)c(F)[nH+]1
REMARK SMILES IDX 6 1 7 2 8 3 9 4 10 5 11 6 12 7 13 8 14 9 15 10 16 11 5 12
REMARK SMILES IDX 2 13 3 14 19 15 4 16 17 17 1 18 18 20
REMARK H PARENT 19 19
ROOT
ATOM      1  C   UNL     1      44.771 131.301  17.586  1.00  0.00    -0.005 A 
ATOM      2  C   UNL     1      43.438 131.740  17.487  1.00  0.00     0.050 A 
ATOM      3  C   UNL     1      42.672 131.959  18.636  1.00  0.00     0.150 A 
ATOM      4  F   UNL     1      41.388 132.379  18.517  1.00  0.00    -0.205 F 
ATOM      5  C   UNL     1      43.229 131.740  19.901  1.00  0.00     0.106 A 
ATOM      6  N   UNL     1      42.487 131.954  21.022  1.00  0.00    -0.253 NA
ATOM      7  C   UNL     1      42.998 131.751  22.266  1.00  0.00     0.112 A 
ATOM      8  C   UNL     1      44.315 131.311  22.422  1.00  0.00     0.021 A 
ATOM      9  C   UNL     1      45.102 131.083  21.291  1.00  0.00     0.012 A 
ATOM     10  C   UNL     1      44.565 131.296  20.014  1.00  0.00     0.004 A 
ATOM     11  C   UNL     1      45.327 131.077  18.859  1.00  0.00     0.019 A 
ENDROOT
BRANCH   1  12
ATOM     12  C   UNL     1      45.577 131.061  16.365  1.00  0.00     0.086 A 
ATOM     13  C   UNL     1      47.111 130.605  14.077  1.00  0.00     0.179 A 
ATOM     14  C   UNL     1      46.825 131.918  14.469  1.00  0.00     0.075 A 
ATOM     15  N   UNL     1      46.614 129.560  14.801  1.00  0.00    -0.183 N 
ATOM     16  C   UNL     1      46.061 132.143  15.614  1.00  0.00     0.025 A 
ATOM     17  C   UNL     1      45.868 129.756  15.924  1.00  0.00     0.366 A 
ATOM     18  C   UNL     1      47.898 130.349  12.826  1.00  0.00     0.123 C 
ATOM     19  H   UNL     1      46.800 128.581  14.491  1.00  0.00     0.456 HD
ATOM     20  F   UNL     1      45.375 128.679  16.586  1.00  0.00    -0.136 F 
ENDBRANCH   1  12
TORSDOF 1
ENDMDL
MODEL 2
REMARK VINA RESULT:     -10.5      1.235      1.545
REMARK SMILES Cc1ccc(-c2cc(F)c3ncccc3c2)c(F)[nH+]1
REMARK SMILES IDX 6 1 7 2 8 3 9 4 10 5 11 6 12 7 13 8 14 9 15 10 16 11 5 12
REMARK SMILES IDX 2 13 3 14 19 15 4 16 17 17 1 18 18 20
REMARK H PARENT 19 19
ROOT
ATOM      1  C   UNL     1      44.807 131.223  17.614  1.00  0.00    -0.005 A 
ATOM      2  C   UNL     1      43.490 131.704  17.508  1.00  0.00     0.050 A 
ATOM      3  C   UNL     1      42.725 131.948  18.653  1.00  0.00     0.150 A 
ATOM      4  F   UNL     1      41.455 132.409  18.527  1.00  0.00    -0.205 F 
ATOM      5  C   UNL     1      43.268 131.712  19.921  1.00  0.00     0.106 A 
ATOM      6  N   UNL     1      42.527 131.949  21.038  1.00  0.00    -0.253 NA
ATOM      7  C   UNL     1      43.024 131.730  22.285  1.00  0.00     0.112 A 
ATOM      8  C   UNL     1      44.327 131.249  22.447  1.00  0.00     0.021 A 
ATOM      9  C   UNL     1      45.111 130.996  21.320  1.00  0.00     0.012 A 
ATOM     10  C   UNL     1      44.588 131.226  20.041  1.00  0.00     0.004 A 
ATOM     11  C   UNL     1      45.349 130.982  18.890  1.00  0.00     0.019 A 
ENDROOT
BRANCH   1  12
ATOM     12  C   UNL     1      45.611 130.958  16.397  1.00  0.00     0.086 A 
ATOM     13  C   UNL     1      47.110 130.462  14.093  1.00  0.00     0.179 A 
ATOM     14  C   UNL     1      46.650 129.389  14.866  1.00  0.00     0.075 A 
ATOM     15  N   UNL     1      46.845 131.741  14.490  1.00  0.00    -0.183 N 
ATOM     16  C   UNL     1      45.899 129.640  16.014  1.00  0.00     0.025 A 
ATOM     17  C   UNL     1      46.112 132.009  15.606  1.00  0.00     0.366 A 
ATOM     18  C   UNL     1      47.952 130.208  12.878  1.00  0.00     0.123 C 
ATOM     19  H   UNL     1      47.215 132.543  13.931  1.00  0.00     0.456 HD
ATOM     20  F   UNL     1      45.906 133.302  15.966  1.00  0.00    -0.136 F 
ENDBRANCH   1  12
TORSDOF 1
ENDMDL
MODEL 3
REMARK VINA RESULT:      -9.2      1.895      2.654
REMARK SMILES Cc1ccc(-c2cc(F)c3ncccc3c2)c(F)[nH+]1
REMARK SMILES IDX 6 1 7 2 8 3 9 4 10 5 11 6 12 7 13 8 14 9 15 10 16 11 5 12
REMARK SMILES IDX 2 13 3 14 19 15 4 16 17 17 1 18 18 20
REMARK H PARENT 19 19
ROOT
ATOM      1  C   UNL     1      45.217 131.063  17.778  1.00  0.00    -0.005 A 
ATOM      2  C   UNL     1      45.823 130.505  18.918  1.00  0.00     0.050 A 
ATOM      3  C   UNL     1      45.237 130.648  20.180  1.00  0.00     0.150 A 
ATOM      4  F   UNL     1      45.841 130.104  21.266  1.00  0.00    -0.205 F 
ATOM      5  C   UNL     1      44.038 131.354  20.319  1.00  0.00     0.106 A 
ATOM      6  N   UNL     1      43.463 131.495  21.545  1.00  0.00    -0.253 NA
ATOM      7  C   UNL     1      42.298 132.175  21.714  1.00  0.00     0.112 A 
ATOM      8  C   UNL     1      41.656 132.753  20.616  1.00  0.00     0.021 A 
ATOM      9  C   UNL     1      42.219 132.626  19.345  1.00  0.00     0.012 A 
ATOM     10  C   UNL     1      43.420 131.922  19.182  1.00  0.00     0.004 A 
ATOM     11  C   UNL     1      44.013 131.777  17.921  1.00  0.00     0.019 A 
ENDROOT
BRANCH   1  12
ATOM     12  C   UNL     1      45.846 130.916  16.443  1.00  0.00     0.086 A 
ATOM     13  C   UNL     1      47.012 130.644  13.921  1.00  0.00     0.179 A 
ATOM     14  C   UNL     1      46.749 129.503  14.690  1.00  0.00     0.075 A 
ATOM     15  N   UNL     1      46.721 131.879  14.423  1.00  0.00    -0.183 N 
ATOM     16  C   UNL     1      46.164 129.643  15.948  1.00  0.00     0.025 A 
ATOM     17  C   UNL     1      46.147 132.038  15.648  1.00  0.00     0.366 A 
ATOM     18  C   UNL     1      47.677 130.511  12.583  1.00  0.00     0.123 C 
ATOM     19  H   UNL     1      46.945 132.731  13.863  1.00  0.00     0.456 HD
ATOM     20  F   UNL     1      45.908 133.293  16.108  1.00  0.00    -0.136 F 
ENDBRANCH   1  12
TORSDOF 1
ENDMDL
MODEL 4
REMARK VINA RESULT:      -9.2      1.454      6.369
REMARK SMILES Cc1ccc(-c2cc(F)c3ncccc3c2)c(F)[nH+]1
REMARK SMILES IDX 6 1 7 2 8 3 9 4 10 5 11 6 12 7 13 8 14 9 15 10 16 11 5 12
REMARK SMILES IDX 2 13 3 14 19 15 4 16 17 17 1 18 18 20
REMARK H PARENT 19 19
ROOT
ATOM      1  C   UNL     1      44.523 131.244  17.767  1.00  0.00    -0.005 A 
ATOM      2  C   UNL     1      43.691 131.749  16.752  1.00  0.00     0.050 A 
ATOM      3  C   UNL     1      44.055 131.634  15.407  1.00  0.00     0.150 A 
ATOM      4  F   UNL     1      43.238 132.131  14.445  1.00  0.00    -0.205 F 
ATOM      5  C   UNL     1      45.259 131.013  15.059  1.00  0.00     0.106 A 
ATOM      6  N   UNL     1      45.618 130.898  13.750  1.00  0.00    -0.253 NA
ATOM      7  C   UNL     1      46.781 130.300  13.378  1.00  0.00     0.112 A 
ATOM      8  C   UNL     1      47.647 129.784  14.346  1.00  0.00     0.021 A 
ATOM      9  C   UNL     1      47.308 129.887  15.696  1.00  0.00     0.012 A 
ATOM     10  C   UNL     1      46.106 130.505  16.068  1.00  0.00     0.004 A 
ATOM     11  C   UNL     1      45.736 130.624  17.415  1.00  0.00     0.019 A 
ENDROOT
BRANCH   1  12
ATOM     12  C   UNL     1      44.137 131.376  19.192  1.00  0.00     0.086 A 
ATOM     13  C   UNL     1      43.411 131.645  21.875  1.00  0.00     0.179 A 
ATOM     14  C   UNL     1      44.708 131.233  21.546  1.00  0.00     0.075 A 
ATOM     15  N   UNL     1      42.506 131.884  20.882  1.00  0.00    -0.183 N 
ATOM     16  C   UNL     1      45.068 131.103  20.205  1.00  0.00     0.025 A 
ATOM     17  C   UNL     1      42.837 131.765  19.566  1.00  0.00     0.366 A 
ATOM     18  C   UNL     1      42.999 131.751  23.313  1.00  0.00     0.123 C 
ATOM     19  H   UNL     1      41.529 132.161  21.127  1.00  0.00     0.456 HD
ATOM     20  F   UNL     1      41.886 131.987  18.623  1.00  0.00    -0.136 F 
ENDBRANCH   1  12
TORSDOF 1
ENDMDL
MODEL 5
REMARK VINA RESULT:      -9.1      1.794      6.282
REMARK SMILES Cc1ccc(-c2cc(F)c3ncccc3c2)c(F)[nH+]1
REMARK SMILES IDX 6 1 7 2 8 3 9 4 10 5 11 6 12 7 13 8 14 9 15 10 16 11 5 12
REMARK SMILES IDX 2 13 3 14 19 15 4 16 17 17 1 18 18 20
REMARK H PARENT 19 19
ROOT
ATOM      1  C   UNL     1      44.614 131.224  18.000  1.00  0.00    -0.005 A 
ATOM      2  C   UNL     1      43.714 131.712  17.036  1.00  0.00     0.050 A 
ATOM      3  C   UNL     1      44.003 131.607  15.672  1.00  0.00     0.150 A 
ATOM      4  F   UNL     1      43.121 132.087  14.759  1.00  0.00    -0.205 F 
ATOM      5  C   UNL     1      45.199 131.015  15.253  1.00  0.00     0.106 A 
ATOM      6  N   UNL     1      45.485 130.910  13.926  1.00  0.00    -0.253 NA
ATOM      7  C   UNL     1      46.638 130.340  13.486  1.00  0.00     0.112 A 
ATOM      8  C   UNL     1      47.570 129.843  14.402  1.00  0.00     0.021 A 
ATOM      9  C   UNL     1      47.306 129.936  15.770  1.00  0.00     0.012 A 
ATOM     10  C   UNL     1      46.114 130.525  16.211  1.00  0.00     0.004 A 
ATOM     11  C   UNL     1      45.819 130.634  17.577  1.00  0.00     0.019 A 
ENDROOT
BRANCH   1  12
ATOM     12  C   UNL     1      44.307 131.345  19.445  1.00  0.00     0.086 A 
ATOM     13  C   UNL     1      43.728 131.552  22.169  1.00  0.00     0.179 A 
ATOM     14  C   UNL     1      42.767 131.933  21.225  1.00  0.00     0.075 A 
ATOM     15  N   UNL     1      44.949 131.110  21.749  1.00  0.00    -0.183 N 
ATOM     16  C   UNL     1      43.058 131.825  19.865  1.00  0.00     0.025 A 
ATOM     17  C   UNL     1      45.254 130.995  20.427  1.00  0.00     0.366 A 
ATOM     18  C   UNL     1      43.442 131.699  23.634  1.00  0.00     0.123 C 
ATOM     19  H   UNL     1      45.677 130.856  22.453  1.00  0.00     0.456 HD
ATOM     20  F   UNL     1      46.496 130.577  20.069  1.00  0.00    -0.136 F 
ENDBRANCH   1  12
TORSDOF 1
ENDMDL
MODEL 6
REMARK VINA RESULT:      -8.8      1.523      2.154
REMARK SMILES Cc1ccc(-c2cc(F)c3ncccc3c2)c(F)[nH+]1
REMARK SMILES IDX 6 1 7 2 8 3 9 4 10 5 11 6 12 7 13 8 14 9 15 10 16 11 5 12
REMARK SMILES IDX 2 13 3 14 19 15 4 16 17 17 1 18 18 20
REMARK H PARENT 19 19
ROOT
ATOM      1  C   UNL     1      45.091 131.159  17.866  1.00  0.00    -0.005 A 
ATOM      2  C   UNL     1      45.719 130.555  18.970  1.00  0.00     0.050 A 
ATOM      3  C   UNL     1      45.166 130.662  20.250  1.00  0.00     0.150 A 
ATOM      4  F   UNL     1      45.790 130.073  21.302  1.00  0.00    -0.205 F 
ATOM      5  C   UNL     1      43.978 131.375  20.443  1.00  0.00     0.106 A 
ATOM      6  N   UNL     1      43.436 131.480  21.687  1.00  0.00    -0.253 NA
ATOM      7  C   UNL     1      42.283 132.167  21.909  1.00  0.00     0.112 A 
ATOM      8  C   UNL     1      41.621 132.789  20.847  1.00  0.00     0.021 A 
ATOM      9  C   UNL     1      42.152 132.700  19.559  1.00  0.00     0.012 A 
ATOM     10  C   UNL     1      43.340 131.990  19.343  1.00  0.00     0.004 A 
ATOM     11  C   UNL     1      43.900 131.881  18.062  1.00  0.00     0.019 A 
ENDROOT
BRANCH   1  12
ATOM     12  C   UNL     1      45.685 131.051  16.511  1.00  0.00     0.086 A 
ATOM     13  C   UNL     1      46.822 130.842  13.969  1.00  0.00     0.179 A 
ATOM     14  C   UNL     1      46.642 132.105  14.546  1.00  0.00     0.075 A 
ATOM     15  N   UNL     1      46.414 129.727  14.643  1.00  0.00    -0.183 N 
ATOM     16  C   UNL     1      46.077 132.206  15.817  1.00  0.00     0.025 A 
ATOM     17  C   UNL     1      45.862 129.802  15.886  1.00  0.00     0.366 A 
ATOM     18  C   UNL     1      47.392 130.722  12.587  1.00  0.00     0.123 C 
ATOM     19  H   UNL     1      46.519 128.788  14.200  1.00  0.00     0.456 HD
ATOM     20  F   UNL     1      45.449 128.662  16.495  1.00  0.00    -0.136 F 
ENDBRANCH   1  12
TORSDOF 1
ENDMDL
MODEL 7
REMARK VINA RESULT:      -8.6      1.434      1.590
REMARK SMILES Cc1ccc(-c2cc(F)c3ncccc3c2)c(F)[nH+]1
REMARK SMILES IDX 6 1 7 2 8 3 9 4 10 5 11 6 12 7 13 8 14 9 15 10 16 11 5 12
REMARK SMILES IDX 2 13 3 14 19 15 4 16 17 17 1 18 18 20
REMARK H PARENT 19 19
ROOT
ATOM      1  C   UNL     1      44.269 131.412  18.264  1.00  0.00    -0.005 A 
ATOM      2  C   UNL     1      42.985 131.984  18.278  1.00  0.00     0.050 A 
ATOM      3  C   UNL     1      42.323 132.224  19.486  1.00  0.00     0.150 A 
ATOM      4  F   UNL     1      41.083 132.775  19.475  1.00  0.00    -0.205 F 
ATOM      5  C   UNL     1      42.938 131.893  20.698  1.00  0.00     0.106 A 
ATOM      6  N   UNL     1      42.298 132.126  21.877  1.00  0.00    -0.253 NA
ATOM      7  C   UNL     1      42.868 131.815  23.073  1.00  0.00     0.112 A 
ATOM      8  C   UNL     1      44.141 131.241  23.116  1.00  0.00     0.021 A 
ATOM      9  C   UNL     1      44.823 130.990  21.924  1.00  0.00     0.012 A 
ATOM     10  C   UNL     1      44.227 131.314  20.698  1.00  0.00     0.004 A 
ATOM     11  C   UNL     1      44.884 131.075  19.484  1.00  0.00     0.019 A 
ENDROOT
BRANCH   1  12
ATOM     12  C   UNL     1      44.963 131.152  16.980  1.00  0.00     0.086 A 
ATOM     13  C   UNL     1      46.257 130.645  14.558  1.00  0.00     0.179 A 
ATOM     14  C   UNL     1      46.876 130.289  15.763  1.00  0.00     0.075 A 
ATOM     15  N   UNL     1      45.040 131.261  14.581  1.00  0.00    -0.183 N 
ATOM     16  C   UNL     1      46.226 130.541  16.970  1.00  0.00     0.025 A 
ATOM     17  C   UNL     1      44.386 131.514  15.748  1.00  0.00     0.366 A 
ATOM     18  C   UNL     1      46.963 130.415  13.254  1.00  0.00     0.123 C 
ATOM     19  H   UNL     1      44.592 131.555  13.684  1.00  0.00     0.456 HD
ATOM     20  F   UNL     1      43.191 132.157  15.710  1.00  0.00    -0.136 F 
ENDBRANCH   1  12
TORSDOF 1
ENDMDL


