REMARK SMILES Cc1cc[nH+]c(F)c1-c1cc2c(C)c(F)cc([NH2+]c3cccc(N)c3[O-])c2[nH]1
REMARK SMILES IDX 18 1 17 4 9 5 10 6 28 7 11 8 27 9 12 10 14 11 16 12 13 14
REMARK SMILES IDX 15 15 8 16 2 17 3 18 4 19 6 20 5 21 1 22 7 23 19 25 20 26
REMARK SMILES IDX 25 27 21 28 23 29 22 30 26 31 24 32
REMARK H PARENT 18 2 18 3 28 13 5 24 24 33 24 34
ROOT
ATOM      1  N   UNL     1       0.366  -2.608  -1.108  1.00  0.00    -0.280 N 
ATOM      2  H   UNL     1       0.402  -3.169  -1.991  1.00  0.00     0.358 HD
ATOM      3  H   UNL     1      -0.619  -2.274  -1.020  1.00  0.00     0.358 HD
ENDROOT
BRANCH   1   4
ATOM      4  C   UNL     1       1.302  -1.513  -1.219  1.00  0.00     0.161 A 
ATOM      5  C   UNL     1      -0.086   1.631  -0.378  1.00  0.00     0.056 A 
ATOM      6  C   UNL     1       1.221   2.008  -0.660  1.00  0.00     0.038 A 
ATOM      7  N   UNL     1      -0.248   0.296  -0.533  1.00  0.00    -0.349 N 
ATOM      8  C   UNL     1       1.868   0.840  -1.010  1.00  0.00     0.012 A 
ATOM      9  C   UNL     1       0.952  -0.182  -0.919  1.00  0.00     0.109 A 
ATOM     10  C   UNL     1       3.194   0.623  -1.405  1.00  0.00    -0.005 A 
ATOM     11  C   UNL     1       3.563  -0.698  -1.740  1.00  0.00     0.132 A 
ATOM     12  C   UNL     1       2.629  -1.749  -1.645  1.00  0.00     0.110 A 
ATOM     13  H   UNL     1      -1.127  -0.238  -0.365  1.00  0.00     0.167 HD
ATOM     14  C   UNL     1       4.164   1.764  -1.520  1.00  0.00     0.048 C 
ATOM     15  F   UNL     1       4.823  -0.976  -2.161  1.00  0.00    -0.206 F 
BRANCH   5  16
ATOM     16  C   UNL     1      -1.162   2.550   0.056  1.00  0.00     0.105 A 
ATOM     17  C   UNL     1      -2.433   2.564  -0.567  1.00  0.00    -0.026 A 
ATOM     18  C   UNL     1      -3.424   3.427  -0.076  1.00  0.00     0.075 A 
ATOM     19  C   UNL     1      -3.136   4.281   0.987  1.00  0.00     0.309 A 
ATOM     20  C   UNL     1      -0.921   3.441   1.119  1.00  0.00     0.367 A 
ATOM     21  N   UNL     1      -1.902   4.277   1.554  1.00  0.00    -0.186 N 
ATOM     22  C   UNL     1      -2.765   1.675  -1.738  1.00  0.00     0.045 C 
ATOM     23  F   UNL     1       0.284   3.455   1.746  1.00  0.00    -0.135 F 
ATOM     24  H   UNL     1      -1.707   4.925   2.349  1.00  0.00     0.456 HD
ENDBRANCH   5  16
ENDBRANCH   1   4
BRANCH   1  25
ATOM     25  C   UNL     1       0.704  -3.438   0.026  1.00  0.00     0.128 A 
ATOM     26  C   UNL     1       1.462  -4.608  -0.161  1.00  0.00     0.067 A 
ATOM     27  C   UNL     1       0.310  -3.078   1.334  1.00  0.00    -0.021 A 
ATOM     28  C   UNL     1       1.817  -5.405   0.928  1.00  0.00     0.008 A 
ATOM     29  C   UNL     1       0.671  -3.883   2.430  1.00  0.00     0.029 A 
ATOM     30  C   UNL     1       1.425  -5.045   2.218  1.00  0.00     0.025 A 
ATOM     31  O   UNL     1      -0.438  -1.924   1.543  1.00  0.00    -0.867 OA
BRANCH  29  32
ATOM     32  N   UNL     1       0.277  -3.527   3.760  1.00  0.00    -0.399 N 
ATOM     33  H   UNL     1      -0.283  -2.667   3.950  1.00  0.00     0.156 HD
ATOM     34  H   UNL     1       0.546  -4.126   4.573  1.00  0.00     0.156 HD
ENDBRANCH  29  32
ENDBRANCH   1  25
TORSDOF 4


