REMARK SMILES [NH-]C(=O)c1ccc(-c2cc(F)cc(F)c2OC(O)=C2CSC2)cc1
REMARK SMILES IDX 8 1 9 2 10 3 11 4 12 5 13 6 14 7 15 8 7 9 4 10 5 11 24 12
REMARK SMILES IDX 6 13 23 14 2 15 3 16 1 17 16 19 17 20 18 21 19 23 20 24
REMARK SMILES IDX 22 25 21 26
REMARK H PARENT 1 18 18 22
ROOT
ATOM      1  C   UNL     1      -0.967   0.917  -0.529  1.00  0.00     0.031 A 
ATOM      2  C   UNL     1      -2.180   1.550  -0.204  1.00  0.00     0.052 A 
ATOM      3  C   UNL     1      -2.268   2.944  -0.179  1.00  0.00     0.127 A 
ATOM      4  F   UNL     1      -3.445   3.543   0.126  1.00  0.00    -0.207 F 
ATOM      5  C   UNL     1      -1.150   3.720  -0.487  1.00  0.00     0.082 A 
ATOM      6  C   UNL     1       0.065   3.108  -0.803  1.00  0.00     0.169 A 
ATOM      7  F   UNL     1       1.120   3.886  -1.156  1.00  0.00    -0.203 F 
ATOM      8  C   UNL     1       0.174   1.704  -0.802  1.00  0.00     0.174 A 
ENDROOT
BRANCH   1   9
ATOM      9  C   UNL     1      -0.899  -0.564  -0.557  1.00  0.00    -0.014 A 
ATOM     10  C   UNL     1      -0.773  -3.386  -0.602  1.00  0.00    -0.001 A 
ATOM     11  C   UNL     1      -0.278  -2.631  -1.680  1.00  0.00     0.011 A 
ATOM     12  C   UNL     1      -1.337  -2.713   0.497  1.00  0.00     0.011 A 
ATOM     13  C   UNL     1      -0.344  -1.235  -1.659  1.00  0.00     0.009 A 
ATOM     14  C   UNL     1      -1.401  -1.317   0.517  1.00  0.00     0.009 A 
BRANCH  10  15
ATOM     15  C   UNL     1      -0.701  -4.866  -0.625  1.00  0.00     0.080 C 
ATOM     16  O   UNL     1      -0.194  -5.463  -1.613  1.00  0.00    -0.315 OA
BRANCH  15  17
ATOM     17  N   UNL     1      -1.204  -5.634   0.467  1.00  0.00    -0.664 NA
ATOM     18  H   UNL     1      -1.157  -6.677   0.457  1.00  0.00    -0.121 HD
ENDBRANCH  15  17
ENDBRANCH  10  15
ENDBRANCH   1   9
BRANCH   8  19
ATOM     19  O   UNL     1       1.390   1.069  -1.091  1.00  0.00    -0.423 OA
BRANCH  19  20
ATOM     20  C   UNL     1       2.629   1.463  -0.577  1.00  0.00     0.283 C 
BRANCH  20  21
ATOM     21  O   UNL     1       2.706   2.384   0.469  1.00  0.00    -0.481 OA
ATOM     22  H   UNL     1       3.594   2.674   0.862  1.00  0.00     0.297 HD
ENDBRANCH  20  21
BRANCH  20  23
ATOM     23  C   UNL     1       3.733   0.917  -1.077  1.00  0.00     0.030 C 
ATOM     24  C   UNL     1       4.047  -0.094  -2.152  1.00  0.00     0.109 C 
ATOM     25  C   UNL     1       5.218   1.023  -0.827  1.00  0.00     0.109 C 
ATOM     26  S   UNL     1       5.837  -0.143  -2.043  1.00  0.00    -0.152 SA
ENDBRANCH  20  23
ENDBRANCH  19  20
ENDBRANCH   8  19
TORSDOF 7


