MODEL 1
REMARK VINA RESULT:      -7.4      0.000      0.000
REMARK SMILES Cc1ccoc1[N-]C(=O)N1CCC[C@H](c2ccc3ccc(C)c(F)c3[nH+]2)[C@@H]1F
REMARK SMILES IDX 8 1 9 2 7 3 6 4 2 5 3 6 4 7 5 8 1 9 10 10 11 11 27 12 12 13
REMARK SMILES IDX 14 14 13 15 28 16 15 17 16 18 26 19 17 20 25 21 18 22 23 23
REMARK SMILES IDX 19 24 21 25 20 26 24 28 22 29
REMARK H PARENT 26 27
ROOT
ATOM      1  C   UNL     1      43.172 129.395  23.223  1.00  0.00     0.163 C 
ATOM      2  O   UNL     1      41.930 129.417  23.446  1.00  0.00    -0.298 OA
ENDROOT
BRANCH   1   3
ATOM      3  N   UNL     1      43.964 128.310  23.723  1.00  0.00    -0.369 NA
BRANCH   3   4
ATOM      4  C   UNL     1      43.502 126.963  23.859  1.00  0.00     0.123 A 
ATOM      5  C   UNL     1      44.058 125.870  23.232  1.00  0.00    -0.009 A 
ATOM      6  C   UNL     1      43.330 124.780  23.661  1.00  0.00     0.045 A 
ATOM      7  C   UNL     1      42.359 125.287  24.506  1.00  0.00     0.195 A 
ATOM      8  O   UNL     1      42.488 126.592  24.605  1.00  0.00    -0.468 OA
ATOM      9  C   UNL     1      45.271 125.847  22.361  1.00  0.00     0.048 C 
ENDBRANCH   3   4
ENDBRANCH   1   3
BRANCH   1  10
ATOM     10  N   UNL     1      43.790 130.458  22.466  1.00  0.00    -0.406 N 
ATOM     11  C   UNL     1      44.212 131.697  23.141  1.00  0.00     0.008 C 
ATOM     12  C   UNL     1      43.678 130.474  20.996  1.00  0.00     0.190 C 
ATOM     13  C   UNL     1      45.487 132.261  22.505  1.00  0.00     0.000 C 
ATOM     14  C   UNL     1      44.963 131.043  20.367  1.00  0.00     0.119 C 
ATOM     15  C   UNL     1      45.327 132.402  20.989  1.00  0.00     0.017 C 
ATOM     16  F   UNL     1      42.573 131.227  20.637  1.00  0.00    -0.247 F 
BRANCH  14  17
ATOM     17  C   UNL     1      44.862 131.116  18.852  1.00  0.00     0.186 A 
ATOM     18  C   UNL     1      43.784 131.795  18.263  1.00  0.00     0.075 A 
ATOM     19  N   UNL     1      45.823 130.559  18.052  1.00  0.00    -0.206 N 
ATOM     20  C   UNL     1      43.691 131.881  16.876  1.00  0.00     0.021 A 
ATOM     21  C   UNL     1      45.757 130.630  16.688  1.00  0.00     0.247 A 
ATOM     22  C   UNL     1      44.675 131.300  16.073  1.00  0.00     0.049 A 
ATOM     23  C   UNL     1      46.755 130.044  15.886  1.00  0.00     0.197 A 
ATOM     24  C   UNL     1      44.599 131.373  14.676  1.00  0.00     0.015 A 
ATOM     25  C   UNL     1      46.678 130.130  14.485  1.00  0.00    -0.008 A 
ATOM     26  C   UNL     1      45.592 130.789  13.888  1.00  0.00     0.007 A 
ATOM     27  H   UNL     1      46.632 130.068  18.493  1.00  0.00     0.454 HD
ATOM     28  F   UNL     1      47.797 129.390  16.463  1.00  0.00    -0.199 F 
ATOM     29  C   UNL     1      47.734 129.486  13.633  1.00  0.00     0.048 C 
ENDBRANCH  14  17
ENDBRANCH   1  10
TORSDOF 4
ENDMDL
MODEL 2
REMARK VINA RESULT:      -6.8      0.948      1.332
REMARK SMILES Cc1ccoc1[N-]C(=O)N1CCC[C@H](c2ccc3ccc(C)c(F)c3[nH+]2)[C@@H]1F
REMARK SMILES IDX 8 1 9 2 7 3 6 4 2 5 3 6 4 7 5 8 1 9 10 10 11 11 27 12 12 13
REMARK SMILES IDX 14 14 13 15 28 16 15 17 16 18 26 19 17 20 25 21 18 22 23 23
REMARK SMILES IDX 19 24 21 25 20 26 24 28 22 29
REMARK H PARENT 26 27
ROOT
ATOM      1  C   UNL     1      43.562 129.760  23.450  1.00  0.00     0.163 C 
ATOM      2  O   UNL     1      43.214 130.058  24.625  1.00  0.00    -0.298 OA
ENDROOT
BRANCH   1   3
ATOM      3  N   UNL     1      43.355 128.427  22.964  1.00  0.00    -0.369 NA
BRANCH   3   4
ATOM      4  C   UNL     1      44.286 127.352  23.125  1.00  0.00     0.123 A 
ATOM      5  C   UNL     1      43.942 126.030  23.307  1.00  0.00    -0.009 A 
ATOM      6  C   UNL     1      45.133 125.340  23.386  1.00  0.00     0.045 A 
ATOM      7  C   UNL     1      46.128 126.295  23.269  1.00  0.00     0.195 A 
ATOM      8  O   UNL     1      45.591 127.485  23.113  1.00  0.00    -0.468 OA
ATOM      9  C   UNL     1      42.568 125.445  23.303  1.00  0.00     0.048 C 
ENDBRANCH   3   4
ENDBRANCH   1   3
BRANCH   1  10
ATOM     10  N   UNL     1      44.165 130.758  22.598  1.00  0.00    -0.406 N 
ATOM     11  C   UNL     1      44.704 131.999  23.181  1.00  0.00     0.008 C 
ATOM     12  C   UNL     1      43.928 130.723  21.144  1.00  0.00     0.190 C 
ATOM     13  C   UNL     1      45.946 132.469  22.416  1.00  0.00     0.000 C 
ATOM     14  C   UNL     1      45.181 131.197  20.384  1.00  0.00     0.119 C 
ATOM     15  C   UNL     1      45.664 132.559  20.914  1.00  0.00     0.017 C 
ATOM     16  F   UNL     1      42.835 131.518  20.846  1.00  0.00    -0.247 F 
BRANCH  14  17
ATOM     17  C   UNL     1      44.955 131.217  18.882  1.00  0.00     0.186 A 
ATOM     18  C   UNL     1      43.760 131.747  18.370  1.00  0.00     0.075 A 
ATOM     19  N   UNL     1      45.910 130.756  18.017  1.00  0.00    -0.206 N 
ATOM     20  C   UNL     1      43.549 131.783  16.993  1.00  0.00     0.021 A 
ATOM     21  C   UNL     1      45.729 130.781  16.662  1.00  0.00     0.247 A 
ATOM     22  C   UNL     1      44.530 131.300  16.124  1.00  0.00     0.049 A 
ATOM     23  C   UNL     1      46.725 130.295  15.792  1.00  0.00     0.197 A 
ATOM     24  C   UNL     1      44.337 131.325  14.737  1.00  0.00     0.015 A 
ATOM     25  C   UNL     1      46.529 130.333  14.400  1.00  0.00    -0.008 A 
ATOM     26  C   UNL     1      45.329 130.842  13.882  1.00  0.00     0.007 A 
ATOM     27  H   UNL     1      46.804 130.377  18.400  1.00  0.00     0.454 HD
ATOM     28  F   UNL     1      47.880 129.786  16.295  1.00  0.00    -0.199 F 
ATOM     29  C   UNL     1      47.585 129.795  13.478  1.00  0.00     0.048 C 
ENDBRANCH  14  17
ENDBRANCH   1  10
TORSDOF 4
ENDMDL
MODEL 3
REMARK VINA RESULT:      -5.8      0.994      1.146
REMARK SMILES Cc1ccoc1[N-]C(=O)N1CCC[C@H](c2ccc3ccc(C)c(F)c3[nH+]2)[C@@H]1F
REMARK SMILES IDX 8 1 9 2 7 3 6 4 2 5 3 6 4 7 5 8 1 9 10 10 11 11 27 12 12 13
REMARK SMILES IDX 14 14 13 15 28 16 15 17 16 18 26 19 17 20 25 21 18 22 23 23
REMARK SMILES IDX 19 24 21 25 20 26 24 28 22 29
REMARK H PARENT 26 27
ROOT
ATOM      1  C   UNL     1      42.882 130.578  22.906  1.00  0.00     0.163 C 
ATOM      2  O   UNL     1      41.674 130.937  22.845  1.00  0.00    -0.298 OA
ENDROOT
BRANCH   1   3
ATOM      3  N   UNL     1      43.264 129.519  23.793  1.00  0.00    -0.369 NA
BRANCH   3   4
ATOM      4  C   UNL     1      42.497 128.332  24.019  1.00  0.00     0.123 A 
ATOM      5  C   UNL     1      42.919 127.053  23.734  1.00  0.00    -0.009 A 
ATOM      6  C   UNL     1      41.892 126.222  24.132  1.00  0.00     0.045 A 
ATOM      7  C   UNL     1      40.899 127.057  24.613  1.00  0.00     0.195 A 
ATOM      8  O   UNL     1      41.290 128.310  24.533  1.00  0.00    -0.468 OA
ATOM      9  C   UNL     1      44.255 126.636  23.213  1.00  0.00     0.048 C 
ENDBRANCH   3   4
ENDBRANCH   1   3
BRANCH   1  10
ATOM     10  N   UNL     1      43.873 131.231  22.083  1.00  0.00    -0.406 N 
ATOM     11  C   UNL     1      44.796 132.213  22.679  1.00  0.00     0.008 C 
ATOM     12  C   UNL     1      43.742 131.206  20.616  1.00  0.00     0.190 C 
ATOM     13  C   UNL     1      46.174 132.144  22.011  1.00  0.00     0.000 C 
ATOM     14  C   UNL     1      45.132 131.137  19.955  1.00  0.00     0.119 C 
ATOM     15  C   UNL     1      46.052 132.249  20.489  1.00  0.00     0.017 C 
ATOM     16  F   UNL     1      43.051 132.333  20.206  1.00  0.00    -0.247 F 
BRANCH  14  17
ATOM     17  C   UNL     1      45.034 131.156  18.438  1.00  0.00     0.186 A 
ATOM     18  C   UNL     1      43.912 131.736  17.825  1.00  0.00     0.075 A 
ATOM     19  N   UNL     1      46.037 130.646  17.659  1.00  0.00    -0.206 N 
ATOM     20  C   UNL     1      43.821 131.772  16.435  1.00  0.00     0.021 A 
ATOM     21  C   UNL     1      45.974 130.670  16.294  1.00  0.00     0.247 A 
ATOM     22  C   UNL     1      44.849 131.239  15.655  1.00  0.00     0.049 A 
ATOM     23  C   UNL     1      47.016 130.134  15.513  1.00  0.00     0.197 A 
ATOM     24  C   UNL     1      44.776 131.263  14.255  1.00  0.00     0.015 A 
ATOM     25  C   UNL     1      46.941 130.170  14.110  1.00  0.00    -0.008 A 
ATOM     26  C   UNL     1      45.814 130.728  13.489  1.00  0.00     0.007 A 
ATOM     27  H   UNL     1      46.878 130.230  18.119  1.00  0.00     0.454 HD
ATOM     28  F   UNL     1      48.100 129.576  16.114  1.00  0.00    -0.199 F 
ATOM     29  C   UNL     1      48.046 129.578  13.282  1.00  0.00     0.048 C 
ENDBRANCH  14  17
ENDBRANCH   1  10
TORSDOF 4
ENDMDL
MODEL 4
REMARK VINA RESULT:      -5.5      3.435      5.763
REMARK SMILES Cc1ccoc1[N-]C(=O)N1CCC[C@H](c2ccc3ccc(C)c(F)c3[nH+]2)[C@@H]1F
REMARK SMILES IDX 8 1 9 2 7 3 6 4 2 5 3 6 4 7 5 8 1 9 10 10 11 11 27 12 12 13
REMARK SMILES IDX 14 14 13 15 28 16 15 17 16 18 26 19 17 20 25 21 18 22 23 23
REMARK SMILES IDX 19 24 21 25 20 26 24 28 22 29
REMARK H PARENT 26 27
ROOT
ATOM      1  C   UNL     1      46.566 133.311  22.827  1.00  0.00     0.163 C 
ATOM      2  O   UNL     1      46.561 133.499  24.074  1.00  0.00    -0.298 OA
ENDROOT
BRANCH   1   3
ATOM      3  N   UNL     1      47.550 133.965  22.014  1.00  0.00    -0.369 NA
BRANCH   3   4
ATOM      4  C   UNL     1      48.814 134.436  22.492  1.00  0.00     0.123 A 
ATOM      5  C   UNL     1      49.491 135.526  21.992  1.00  0.00    -0.009 A 
ATOM      6  C   UNL     1      50.635 135.639  22.753  1.00  0.00     0.045 A 
ATOM      7  C   UNL     1      50.589 134.592  23.657  1.00  0.00     0.195 A 
ATOM      8  O   UNL     1      49.490 133.893  23.477  1.00  0.00    -0.468 OA
ATOM      9  C   UNL     1      49.032 136.464  20.924  1.00  0.00     0.048 C 
ENDBRANCH   3   4
ENDBRANCH   1   3
BRANCH   1  10
ATOM     10  N   UNL     1      45.586 132.440  22.221  1.00  0.00    -0.406 N 
ATOM     11  C   UNL     1      44.794 131.523  23.060  1.00  0.00     0.008 C 
ATOM     12  C   UNL     1      45.619 132.195  20.769  1.00  0.00     0.190 C 
ATOM     13  C   UNL     1      43.376 131.359  22.504  1.00  0.00     0.000 C 
ATOM     14  C   UNL     1      44.189 132.032  20.220  1.00  0.00     0.119 C 
ATOM     15  C   UNL     1      43.408 130.976  21.022  1.00  0.00     0.017 C 
ATOM     16  F   UNL     1      46.380 131.066  20.519  1.00  0.00    -0.247 F 
BRANCH  14  17
ATOM     17  C   UNL     1      44.190 131.732  18.730  1.00  0.00     0.186 A 
ATOM     18  C   UNL     1      43.076 132.088  17.953  1.00  0.00     0.075 A 
ATOM     19  N   UNL     1      45.272 131.150  18.127  1.00  0.00    -0.206 N 
ATOM     20  C   UNL     1      43.074 131.832  16.584  1.00  0.00     0.021 A 
ATOM     21  C   UNL     1      45.296 130.889  16.785  1.00  0.00     0.247 A 
ATOM     22  C   UNL     1      44.182 131.229  15.985  1.00  0.00     0.049 A 
ATOM     23  C   UNL     1      46.419 130.284  16.188  1.00  0.00     0.197 A 
ATOM     24  C   UNL     1      44.199 130.960  14.609  1.00  0.00     0.015 A 
ATOM     25  C   UNL     1      46.433 130.026  14.806  1.00  0.00    -0.008 A 
ATOM     26  C   UNL     1      45.316 130.359  14.026  1.00  0.00     0.007 A 
ATOM     27  H   UNL     1      46.105 130.901  18.705  1.00  0.00     0.454 HD
ATOM     28  F   UNL     1      47.494 129.944  16.946  1.00  0.00    -0.199 F 
ATOM     29  C   UNL     1      47.625 129.362  14.177  1.00  0.00     0.048 C 
ENDBRANCH  14  17
ENDBRANCH   1  10
TORSDOF 4
ENDMDL
MODEL 5
REMARK VINA RESULT:      -5.3      2.012      2.772
REMARK SMILES Cc1ccoc1[N-]C(=O)N1CCC[C@H](c2ccc3ccc(C)c(F)c3[nH+]2)[C@@H]1F
REMARK SMILES IDX 8 1 9 2 7 3 6 4 2 5 3 6 4 7 5 8 1 9 10 10 11 11 27 12 12 13
REMARK SMILES IDX 14 14 13 15 28 16 15 17 16 18 26 19 17 20 25 21 18 22 23 23
REMARK SMILES IDX 19 24 21 25 20 26 24 28 22 29
REMARK H PARENT 26 27
ROOT
ATOM      1  C   UNL     1      44.260 131.740  23.873  1.00  0.00     0.163 C 
ATOM      2  O   UNL     1      44.834 132.763  24.337  1.00  0.00    -0.298 OA
ENDROOT
BRANCH   1   3
ATOM      3  N   UNL     1      44.266 130.519  24.625  1.00  0.00    -0.369 NA
BRANCH   3   4
ATOM      4  C   UNL     1      43.378 129.421  24.395  1.00  0.00     0.123 A 
ATOM      5  C   UNL     1      43.756 128.188  23.911  1.00  0.00    -0.009 A 
ATOM      6  C   UNL     1      42.604 127.430  23.874  1.00  0.00     0.045 A 
ATOM      7  C   UNL     1      41.593 128.264  24.319  1.00  0.00     0.195 A 
ATOM      8  O   UNL     1      42.086 129.444  24.623  1.00  0.00    -0.468 OA
ATOM      9  C   UNL     1      45.141 127.724  23.601  1.00  0.00     0.048 C 
ENDBRANCH   3   4
ENDBRANCH   1   3
BRANCH   1  10
ATOM     10  N   UNL     1      43.598 131.801  22.591  1.00  0.00    -0.406 N 
ATOM     11  C   UNL     1      42.147 132.046  22.519  1.00  0.00     0.008 C 
ATOM     12  C   UNL     1      44.271 131.270  21.392  1.00  0.00     0.190 C 
ATOM     13  C   UNL     1      41.793 132.880  21.283  1.00  0.00     0.000 C 
ATOM     14  C   UNL     1      43.908 132.115  20.156  1.00  0.00     0.119 C 
ATOM     15  C   UNL     1      42.383 132.258  20.014  1.00  0.00     0.017 C 
ATOM     16  F   UNL     1      43.902 129.947  21.217  1.00  0.00    -0.247 F 
BRANCH  14  17
ATOM     17  C   UNL     1      44.550 131.566  18.892  1.00  0.00     0.186 A 
ATOM     18  C   UNL     1      45.741 130.828  18.986  1.00  0.00     0.075 A 
ATOM     19  N   UNL     1      43.969 131.751  17.667  1.00  0.00    -0.206 N 
ATOM     20  C   UNL     1      46.329 130.308  17.836  1.00  0.00     0.021 A 
ATOM     21  C   UNL     1      44.524 131.250  16.522  1.00  0.00     0.247 A 
ATOM     22  C   UNL     1      45.728 130.513  16.591  1.00  0.00     0.049 A 
ATOM     23  C   UNL     1      43.911 131.458  15.272  1.00  0.00     0.197 A 
ATOM     24  C   UNL     1      46.304 130.001  15.421  1.00  0.00     0.015 A 
ATOM     25  C   UNL     1      44.489 130.932  14.103  1.00  0.00    -0.008 A 
ATOM     26  C   UNL     1      45.690 130.212  14.186  1.00  0.00     0.007 A 
ATOM     27  H   UNL     1      43.075 132.286  17.602  1.00  0.00     0.454 HD
ATOM     28  F   UNL     1      42.757 132.171  15.189  1.00  0.00    -0.199 F 
ATOM     29  C   UNL     1      43.842 131.174  12.770  1.00  0.00     0.048 C 
ENDBRANCH  14  17
ENDBRANCH   1  10
TORSDOF 4
ENDMDL
MODEL 6
REMARK VINA RESULT:      -4.8      2.155      2.842
REMARK SMILES Cc1ccoc1[N-]C(=O)N1CCC[C@H](c2ccc3ccc(C)c(F)c3[nH+]2)[C@@H]1F
REMARK SMILES IDX 8 1 9 2 7 3 6 4 2 5 3 6 4 7 5 8 1 9 10 10 11 11 27 12 12 13
REMARK SMILES IDX 14 14 13 15 28 16 15 17 16 18 26 19 17 20 25 21 18 22 23 23
REMARK SMILES IDX 19 24 21 25 20 26 24 28 22 29
REMARK H PARENT 26 27
ROOT
ATOM      1  C   UNL     1      46.084 126.953  23.512  1.00  0.00     0.163 C 
ATOM      2  O   UNL     1      46.731 126.808  24.585  1.00  0.00    -0.298 OA
ENDROOT
BRANCH   1   3
ATOM      3  N   UNL     1      46.086 125.904  22.535  1.00  0.00    -0.369 NA
BRANCH   3   4
ATOM      4  C   UNL     1      45.811 124.529  22.820  1.00  0.00     0.123 A 
ATOM      5  C   UNL     1      46.765 123.570  23.076  1.00  0.00    -0.009 A 
ATOM      6  C   UNL     1      46.068 122.405  23.325  1.00  0.00     0.045 A 
ATOM      7  C   UNL     1      44.731 122.730  23.181  1.00  0.00     0.195 A 
ATOM      8  O   UNL     1      44.610 124.005  22.881  1.00  0.00    -0.468 OA
ATOM      9  C   UNL     1      48.241 123.767  23.180  1.00  0.00     0.048 C 
ENDBRANCH   3   4
ENDBRANCH   1   3
BRANCH   1  10
ATOM     10  N   UNL     1      45.345 128.170  23.271  1.00  0.00    -0.406 N 
ATOM     11  C   UNL     1      44.576 128.796  24.361  1.00  0.00     0.008 C 
ATOM     12  C   UNL     1      45.056 128.592  21.889  1.00  0.00     0.190 C 
ATOM     13  C   UNL     1      44.601 130.323  24.242  1.00  0.00     0.000 C 
ATOM     14  C   UNL     1      45.083 130.128  21.780  1.00  0.00     0.119 C 
ATOM     15  C   UNL     1      44.173 130.772  22.842  1.00  0.00     0.017 C 
ATOM     16  F   UNL     1      43.822 128.087  21.513  1.00  0.00    -0.247 F 
BRANCH  14  17
ATOM     17  C   UNL     1      44.742 130.598  20.376  1.00  0.00     0.186 A 
ATOM     18  C   UNL     1      43.613 131.407  20.172  1.00  0.00     0.075 A 
ATOM     19  N   UNL     1      45.537 130.273  19.310  1.00  0.00    -0.206 N 
ATOM     20  C   UNL     1      43.301 131.856  18.891  1.00  0.00     0.021 A 
ATOM     21  C   UNL     1      45.254 130.701  18.042  1.00  0.00     0.247 A 
ATOM     22  C   UNL     1      44.117 131.508  17.812  1.00  0.00     0.049 A 
ATOM     23  C   UNL     1      46.084 130.349  16.960  1.00  0.00     0.197 A 
ATOM     24  C   UNL     1      43.821 131.946  16.514  1.00  0.00     0.015 A 
ATOM     25  C   UNL     1      45.786 130.800  15.663  1.00  0.00    -0.008 A 
ATOM     26  C   UNL     1      44.648 131.592  15.448  1.00  0.00     0.007 A 
ATOM     27  H   UNL     1      46.385 129.684  19.467  1.00  0.00     0.454 HD
ATOM     28  F   UNL     1      47.177 129.567  17.165  1.00  0.00    -0.199 F 
ATOM     29  C   UNL     1      46.662 130.405  14.509  1.00  0.00     0.048 C 
ENDBRANCH  14  17
ENDBRANCH   1  10
TORSDOF 4
ENDMDL
MODEL 7
REMARK VINA RESULT:      -4.4      3.343      5.648
REMARK SMILES Cc1ccoc1[N-]C(=O)N1CCC[C@H](c2ccc3ccc(C)c(F)c3[nH+]2)[C@@H]1F
REMARK SMILES IDX 8 1 9 2 7 3 6 4 2 5 3 6 4 7 5 8 1 9 10 10 11 11 27 12 12 13
REMARK SMILES IDX 14 14 13 15 28 16 15 17 16 18 26 19 17 20 25 21 18 22 23 23
REMARK SMILES IDX 19 24 21 25 20 26 24 28 22 29
REMARK H PARENT 26 27
ROOT
ATOM      1  C   UNL     1      46.132 133.315  23.438  1.00  0.00     0.163 C 
ATOM      2  O   UNL     1      45.714 134.076  24.353  1.00  0.00    -0.298 OA
ENDROOT
BRANCH   1   3
ATOM      3  N   UNL     1      47.510 133.366  23.046  1.00  0.00    -0.369 NA
BRANCH   3   4
ATOM      4  C   UNL     1      48.128 134.481  22.397  1.00  0.00     0.123 A 
ATOM      5  C   UNL     1      49.394 134.951  22.668  1.00  0.00    -0.009 A 
ATOM      6  C   UNL     1      49.596 136.006  21.803  1.00  0.00     0.045 A 
ATOM      7  C   UNL     1      48.425 136.123  21.074  1.00  0.00     0.195 A 
ATOM      8  O   UNL     1      47.570 135.198  21.451  1.00  0.00    -0.468 OA
ATOM      9  C   UNL     1      50.389 134.371  23.618  1.00  0.00     0.048 C 
ENDBRANCH   3   4
ENDBRANCH   1   3
BRANCH   1  10
ATOM     10  N   UNL     1      45.226 132.395  22.791  1.00  0.00    -0.406 N 
ATOM     11  C   UNL     1      44.550 131.348  23.576  1.00  0.00     0.008 C 
ATOM     12  C   UNL     1      45.244 132.257  21.324  1.00  0.00     0.190 C 
ATOM     13  C   UNL     1      43.139 131.085  23.038  1.00  0.00     0.000 C 
ATOM     14  C   UNL     1      43.823 131.991  20.793  1.00  0.00     0.119 C 
ATOM     15  C   UNL     1      43.170 130.810  21.532  1.00  0.00     0.017 C 
ATOM     16  F   UNL     1      46.105 131.229  20.979  1.00  0.00    -0.247 F 
BRANCH  14  17
ATOM     17  C   UNL     1      43.813 131.798  19.285  1.00  0.00     0.186 A 
ATOM     18  C   UNL     1      42.707 132.235  18.539  1.00  0.00     0.075 A 
ATOM     19  N   UNL     1      44.880 131.234  18.639  1.00  0.00    -0.206 N 
ATOM     20  C   UNL     1      42.696 132.076  17.156  1.00  0.00     0.021 A 
ATOM     21  C   UNL     1      44.895 131.068  17.282  1.00  0.00     0.247 A 
ATOM     22  C   UNL     1      43.788 131.490  16.511  1.00  0.00     0.049 A 
ATOM     23  C   UNL     1      46.002 130.480  16.639  1.00  0.00     0.197 A 
ATOM     24  C   UNL     1      43.796 131.319  15.120  1.00  0.00     0.015 A 
ATOM     25  C   UNL     1      46.007 130.320  15.242  1.00  0.00    -0.008 A 
ATOM     26  C   UNL     1      44.897 130.735  14.492  1.00  0.00     0.007 A 
ATOM     27  H   UNL     1      45.708 130.925  19.195  1.00  0.00     0.454 HD
ATOM     28  F   UNL     1      47.070 130.062  17.368  1.00  0.00    -0.199 F 
ATOM     29  C   UNL     1      47.181 129.675  14.564  1.00  0.00     0.048 C 
ENDBRANCH  14  17
ENDBRANCH   1  10
TORSDOF 4
ENDMDL


