REMARK SMILES CC[C@H](C)[C@@H](O)C(=O)N1CCC[C@H](Cc2cc3ccccc3[nH]2)C1
REMARK SMILES IDX 7 1 8 2 5 3 3 4 4 5 2 6 1 7 6 8 9 10 10 11 24 12 11 13 13 14
REMARK SMILES IDX 12 15 14 16 15 17 16 18 23 19 17 20 22 21 18 22 21 23 19 24
REMARK SMILES IDX 20 25
REMARK H PARENT 6 9 23 26
ROOT
ATOM      1  C   UNL     1      -0.989  -1.615   0.768  1.00  0.00     0.251 C 
ATOM      2  O   UNL     1      -0.801  -2.596   1.539  1.00  0.00    -0.272 OA
ENDROOT
BRANCH   1   3
ATOM      3  C   UNL     1      -1.376  -0.270   1.359  1.00  0.00     0.206 C 
BRANCH   3   4
ATOM      4  C   UNL     1      -2.641   0.340   0.686  1.00  0.00     0.024 C 
ATOM      5  C   UNL     1      -3.887  -0.550   0.861  1.00  0.00     0.011 C 
BRANCH   4   6
ATOM      6  C   UNL     1      -2.890   1.771   1.219  1.00  0.00     0.003 C 
ATOM      7  C   UNL     1      -3.933   2.538   0.405  1.00  0.00     0.004 C 
ENDBRANCH   4   6
ENDBRANCH   3   4
BRANCH   3   8
ATOM      8  O   UNL     1      -1.527  -0.346   2.758  1.00  0.00    -0.383 OA
ATOM      9  H   UNL     1      -2.227  -1.020   2.957  1.00  0.00     0.211 HD
ENDBRANCH   3   8
ENDBRANCH   1   3
BRANCH   1  10
ATOM     10  N   UNL     1      -0.841  -1.799  -0.654  1.00  0.00    -0.340 N 
ATOM     11  C   UNL     1      -1.147  -3.094  -1.272  1.00  0.00     0.119 C 
ATOM     12  C   UNL     1      -0.165  -0.809  -1.500  1.00  0.00     0.123 C 
ATOM     13  C   UNL     1       0.138  -3.732  -1.807  1.00  0.00     0.022 C 
ATOM     14  C   UNL     1       1.165  -1.388  -2.025  1.00  0.00     0.014 C 
ATOM     15  C   UNL     1       0.910  -2.752  -2.709  1.00  0.00     0.007 C 
BRANCH  14  16
ATOM     16  C   UNL     1       2.239  -1.509  -0.917  1.00  0.00     0.059 C 
BRANCH  16  17
ATOM     17  C   UNL     1       2.592  -0.177  -0.323  1.00  0.00     0.016 A 
ATOM     18  C   UNL     1       3.223   0.865  -1.001  1.00  0.00     0.031 A 
ATOM     19  N   UNL     1       2.282   0.183   0.945  1.00  0.00    -0.358 N 
ATOM     20  C   UNL     1       3.283   1.894  -0.087  1.00  0.00    -0.000 A 
ATOM     21  C   UNL     1       2.706   1.450   1.075  1.00  0.00     0.046 A 
ATOM     22  C   UNL     1       3.792   3.186  -0.209  1.00  0.00     0.010 A 
ATOM     23  C   UNL     1       2.596   2.269   2.197  1.00  0.00     0.026 A 
ATOM     24  C   UNL     1       3.698   4.035   0.909  1.00  0.00     0.001 A 
ATOM     25  C   UNL     1       3.102   3.579   2.107  1.00  0.00     0.002 A 
ATOM     26  H   UNL     1       1.802  -0.398   1.668  1.00  0.00     0.166 HD
ENDBRANCH  16  17
ENDBRANCH  14  16
ENDBRANCH   1  10
TORSDOF 7


