MODEL 1
REMARK VINA RESULT:      -8.5      0.000      0.000
REMARK SMILES CC(=O)c1ccc(-c2cc(N=C=O)c([O-])c([NH2+]c3ccc(C)c(F)c3)c2)cn1
REMARK SMILES IDX 8 1 9 2 10 3 14 4 15 5 16 6 26 7 7 8 27 9 28 10 4 11 6 12
REMARK SMILES IDX 5 13 2 14 3 15 1 16 11 17 12 18 13 19 17 20 18 23 19 24
REMARK SMILES IDX 25 25 20 26 23 27 21 28 24 29 22 30
REMARK H PARENT 17 21 17 22
ROOT
ATOM      1  C   UNL     1      44.725 131.310  18.713  1.00  0.00    -0.009 A 
ATOM      2  C   UNL     1      43.505 132.001  18.757  1.00  0.00     0.037 A 
ATOM      3  C   UNL     1      42.828 132.205  19.965  1.00  0.00     0.075 A 
ATOM      4  C   UNL     1      43.390 131.705  21.165  1.00  0.00    -0.018 A 
ATOM      5  O   UNL     1      42.743 131.891  22.382  1.00  0.00    -0.867 OA
ATOM      6  C   UNL     1      44.619 131.012  21.136  1.00  0.00     0.129 A 
ATOM      7  C   UNL     1      45.273 130.820  19.908  1.00  0.00     0.076 A 
ENDROOT
BRANCH   1   8
ATOM      8  C   UNL     1      45.423 131.093  17.421  1.00  0.00     0.000 A 
ATOM      9  C   UNL     1      46.095 129.887  17.157  1.00  0.00     0.120 A 
ATOM     10  N   UNL     1      46.729 129.700  15.970  1.00  0.00    -0.253 NA
ATOM     11  C   UNL     1      46.748 130.652  14.997  1.00  0.00     0.106 A 
ATOM     12  C   UNL     1      45.429 132.086  16.429  1.00  0.00     0.013 A 
ATOM     13  C   UNL     1      46.089 131.871  15.218  1.00  0.00     0.033 A 
BRANCH  11  14
ATOM     14  C   UNL     1      47.458 130.388  13.727  1.00  0.00     0.178 C 
ATOM     15  O   UNL     1      47.228 131.097  12.711  1.00  0.00    -0.293 OA
ATOM     16  C   UNL     1      48.458 129.277  13.629  1.00  0.00     0.095 C 
ENDBRANCH  11  14
ENDBRANCH   1   8
BRANCH   3  17
ATOM     17  N   UNL     1      41.579 132.918  19.912  1.00  0.00    -0.168 NA
BRANCH  17  18
ATOM     18  C   UNL     1      40.926 133.338  20.921  1.00  0.00     0.240 C 
ATOM     19  O   UNL     1      40.289 133.746  21.901  1.00  0.00    -0.211 OA
ENDBRANCH  17  18
ENDBRANCH   3  17
BRANCH   6  20
ATOM     20  N   UNL     1      45.192 130.464  22.344  1.00  0.00    -0.282 N 
ATOM     21  H   UNL     1      46.237 130.431  22.263  1.00  0.00     0.358 HD
ATOM     22  H   UNL     1      44.983 131.077  23.166  1.00  0.00     0.358 HD
BRANCH  20  23
ATOM     23  C   UNL     1      44.681 129.133  22.566  1.00  0.00     0.137 A 
ATOM     24  C   UNL     1      43.505 128.938  23.311  1.00  0.00     0.068 A 
ATOM     25  C   UNL     1      45.371 128.011  22.074  1.00  0.00     0.107 A 
ATOM     26  C   UNL     1      43.024 127.648  23.552  1.00  0.00     0.012 A 
ATOM     27  C   UNL     1      44.892 126.720  22.315  1.00  0.00     0.132 A 
ATOM     28  C   UNL     1      43.708 126.531  23.048  1.00  0.00    -0.015 A 
ATOM     29  F   UNL     1      45.583 125.654  21.837  1.00  0.00    -0.206 F 
ATOM     30  C   UNL     1      43.208 125.144  23.330  1.00  0.00     0.047 C 
ENDBRANCH  20  23
ENDBRANCH   6  20
TORSDOF 6
ENDMDL
MODEL 2
REMARK VINA RESULT:      -8.4      0.869      1.262
REMARK SMILES CC(=O)c1ccc(-c2cc(N=C=O)c([O-])c([NH2+]c3ccc(C)c(F)c3)c2)cn1
REMARK SMILES IDX 8 1 9 2 10 3 14 4 15 5 16 6 26 7 7 8 27 9 28 10 4 11 6 12
REMARK SMILES IDX 5 13 2 14 3 15 1 16 11 17 12 18 13 19 17 20 18 23 19 24
REMARK SMILES IDX 25 25 20 26 23 27 21 28 24 29 22 30
REMARK H PARENT 17 21 17 22
ROOT
ATOM      1  C   UNL     1      44.723 131.306  18.708  1.00  0.00    -0.009 A 
ATOM      2  C   UNL     1      43.496 131.986  18.751  1.00  0.00     0.037 A 
ATOM      3  C   UNL     1      42.819 132.187  19.961  1.00  0.00     0.075 A 
ATOM      4  C   UNL     1      43.388 131.697  21.161  1.00  0.00    -0.018 A 
ATOM      5  O   UNL     1      42.741 131.880  22.379  1.00  0.00    -0.867 OA
ATOM      6  C   UNL     1      44.624 131.015  21.132  1.00  0.00     0.129 A 
ATOM      7  C   UNL     1      45.277 130.826  19.903  1.00  0.00     0.076 A 
ENDROOT
BRANCH   1   8
ATOM      8  C   UNL     1      45.421 131.091  17.415  1.00  0.00     0.000 A 
ATOM      9  C   UNL     1      46.104 129.891  17.154  1.00  0.00     0.120 A 
ATOM     10  N   UNL     1      46.738 129.706  15.967  1.00  0.00    -0.253 NA
ATOM     11  C   UNL     1      46.746 130.655  14.991  1.00  0.00     0.106 A 
ATOM     12  C   UNL     1      45.415 132.081  16.420  1.00  0.00     0.013 A 
ATOM     13  C   UNL     1      46.075 131.868  15.209  1.00  0.00     0.033 A 
BRANCH  11  14
ATOM     14  C   UNL     1      47.456 130.393  13.721  1.00  0.00     0.178 C 
ATOM     15  O   UNL     1      47.244 131.120  12.713  1.00  0.00    -0.293 OA
ATOM     16  C   UNL     1      48.435 129.265  13.613  1.00  0.00     0.095 C 
ENDBRANCH  11  14
ENDBRANCH   1   8
BRANCH   3  17
ATOM     17  N   UNL     1      41.563 132.888  19.907  1.00  0.00    -0.168 NA
BRANCH  17  18
ATOM     18  C   UNL     1      40.917 133.322  20.914  1.00  0.00     0.240 C 
ATOM     19  O   UNL     1      40.289 133.742  21.894  1.00  0.00    -0.211 OA
ENDBRANCH  17  18
ENDBRANCH   3  17
BRANCH   6  20
ATOM     20  N   UNL     1      45.204 130.477  22.341  1.00  0.00    -0.282 N 
ATOM     21  H   UNL     1      46.249 130.498  22.278  1.00  0.00     0.358 HD
ATOM     22  H   UNL     1      44.950 131.065  23.169  1.00  0.00     0.358 HD
BRANCH  20  23
ATOM     23  C   UNL     1      44.757 129.118  22.532  1.00  0.00     0.137 A 
ATOM     24  C   UNL     1      45.470 128.048  21.963  1.00  0.00     0.068 A 
ATOM     25  C   UNL     1      43.583 128.847  23.256  1.00  0.00     0.107 A 
ATOM     26  C   UNL     1      45.022 126.734  22.121  1.00  0.00     0.012 A 
ATOM     27  C   UNL     1      43.134 127.532  23.415  1.00  0.00     0.132 A 
ATOM     28  C   UNL     1      43.858 126.465  22.857  1.00  0.00    -0.015 A 
ATOM     29  F   UNL     1      41.991 127.300  24.110  1.00  0.00    -0.206 F 
ATOM     30  C   UNL     1      43.360 125.056  23.004  1.00  0.00     0.047 C 
ENDBRANCH  20  23
ENDBRANCH   6  20
TORSDOF 6
ENDMDL
MODEL 3
REMARK VINA RESULT:      -6.5      4.122      7.588
REMARK SMILES CC(=O)c1ccc(-c2cc(N=C=O)c([O-])c([NH2+]c3ccc(C)c(F)c3)c2)cn1
REMARK SMILES IDX 8 1 9 2 10 3 14 4 15 5 16 6 26 7 7 8 27 9 28 10 4 11 6 12
REMARK SMILES IDX 5 13 2 14 3 15 1 16 11 17 12 18 13 19 17 20 18 23 19 24
REMARK SMILES IDX 25 25 20 26 23 27 21 28 24 29 22 30
REMARK H PARENT 17 21 17 22
ROOT
ATOM      1  C   UNL     1      44.822 126.547  23.293  1.00  0.00    -0.009 A 
ATOM      2  C   UNL     1      43.557 126.018  23.589  1.00  0.00     0.037 A 
ATOM      3  C   UNL     1      42.461 126.853  23.839  1.00  0.00     0.075 A 
ATOM      4  C   UNL     1      42.636 128.257  23.789  1.00  0.00    -0.018 A 
ATOM      5  O   UNL     1      41.568 129.114  24.033  1.00  0.00    -0.867 OA
ATOM      6  C   UNL     1      43.903 128.803  23.488  1.00  0.00     0.129 A 
ATOM      7  C   UNL     1      44.984 127.939  23.245  1.00  0.00     0.076 A 
ENDROOT
BRANCH   1   8
ATOM      8  C   UNL     1      45.977 125.647  23.042  1.00  0.00     0.000 A 
ATOM      9  C   UNL     1      47.238 125.919  23.597  1.00  0.00     0.120 A 
ATOM     10  N   UNL     1      48.286 125.087  23.360  1.00  0.00    -0.253 NA
ATOM     11  C   UNL     1      48.170 123.972  22.588  1.00  0.00     0.106 A 
ATOM     12  C   UNL     1      45.835 124.499  22.245  1.00  0.00     0.013 A 
ATOM     13  C   UNL     1      46.927 123.661  22.015  1.00  0.00     0.033 A 
BRANCH  11  14
ATOM     14  C   UNL     1      49.349 123.108  22.368  1.00  0.00     0.178 C 
ATOM     15  O   UNL     1      49.419 122.377  21.343  1.00  0.00    -0.293 OA
ATOM     16  C   UNL     1      50.476 123.088  23.354  1.00  0.00     0.095 C 
ENDBRANCH  11  14
ENDBRANCH   1   8
BRANCH   3  17
ATOM     17  N   UNL     1      41.204 126.221  24.142  1.00  0.00    -0.168 NA
BRANCH  17  18
ATOM     18  C   UNL     1      41.042 124.982  24.386  1.00  0.00     0.240 C 
ATOM     19  O   UNL     1      40.882 123.778  24.624  1.00  0.00    -0.211 OA
ENDBRANCH  17  18
ENDBRANCH   3  17
BRANCH   6  20
ATOM     20  N   UNL     1      44.110 130.232  23.466  1.00  0.00    -0.282 N 
ATOM     21  H   UNL     1      43.351 130.713  24.005  1.00  0.00     0.358 HD
ATOM     22  H   UNL     1      45.009 130.484  23.939  1.00  0.00     0.358 HD
BRANCH  20  23
ATOM     23  C   UNL     1      44.109 130.703  22.102  1.00  0.00     0.137 A 
ATOM     24  C   UNL     1      42.999 131.397  21.590  1.00  0.00     0.068 A 
ATOM     25  C   UNL     1      45.201 130.443  21.255  1.00  0.00     0.107 A 
ATOM     26  C   UNL     1      42.983 131.827  20.260  1.00  0.00     0.012 A 
ATOM     27  C   UNL     1      45.186 130.872  19.925  1.00  0.00     0.132 A 
ATOM     28  C   UNL     1      44.080 131.578  19.422  1.00  0.00    -0.015 A 
ATOM     29  F   UNL     1      46.249 130.598  19.127  1.00  0.00    -0.206 F 
ATOM     30  C   UNL     1      44.053 132.015  17.986  1.00  0.00     0.047 C 
ENDBRANCH  20  23
ENDBRANCH   6  20
TORSDOF 6
ENDMDL
MODEL 4
REMARK VINA RESULT:      -5.5      1.745      2.531
REMARK SMILES CC(=O)c1ccc(-c2cc(N=C=O)c([O-])c([NH2+]c3ccc(C)c(F)c3)c2)cn1
REMARK SMILES IDX 8 1 9 2 10 3 14 4 15 5 16 6 26 7 7 8 27 9 28 10 4 11 6 12
REMARK SMILES IDX 5 13 2 14 3 15 1 16 11 17 12 18 13 19 17 20 18 23 19 24
REMARK SMILES IDX 25 25 20 26 23 27 21 28 24 29 22 30
REMARK H PARENT 17 21 17 22
ROOT
ATOM      1  C   UNL     1      44.337 130.812  20.555  1.00  0.00    -0.009 A 
ATOM      2  C   UNL     1      43.324 131.647  21.051  1.00  0.00     0.037 A 
ATOM      3  C   UNL     1      42.920 131.582  22.390  1.00  0.00     0.075 A 
ATOM      4  C   UNL     1      43.549 130.656  23.258  1.00  0.00    -0.018 A 
ATOM      5  O   UNL     1      43.171 130.567  24.593  1.00  0.00    -0.867 OA
ATOM      6  C   UNL     1      44.573 129.814  22.773  1.00  0.00     0.129 A 
ATOM      7  C   UNL     1      44.954 129.901  21.424  1.00  0.00     0.076 A 
ENDROOT
BRANCH   1   8
ATOM      8  C   UNL     1      44.745 130.887  19.129  1.00  0.00     0.000 A 
ATOM      9  C   UNL     1      44.012 131.654  18.208  1.00  0.00     0.120 A 
ATOM     10  N   UNL     1      44.397 131.715  16.906  1.00  0.00    -0.253 NA
ATOM     11  C   UNL     1      45.487 131.047  16.437  1.00  0.00     0.106 A 
ATOM     12  C   UNL     1      45.874 130.193  18.666  1.00  0.00     0.013 A 
ATOM     13  C   UNL     1      46.248 130.270  17.323  1.00  0.00     0.033 A 
BRANCH  11  14
ATOM     14  C   UNL     1      45.851 131.153  15.008  1.00  0.00     0.178 C 
ATOM     15  O   UNL     1      47.060 131.094  14.654  1.00  0.00    -0.293 OA
ATOM     16  C   UNL     1      44.794 131.331  13.962  1.00  0.00     0.095 C 
ENDBRANCH  11  14
ENDBRANCH   1   8
BRANCH   3  17
ATOM     17  N   UNL     1      41.868 132.471  22.807  1.00  0.00    -0.168 NA
BRANCH  17  18
ATOM     18  C   UNL     1      41.106 133.129  22.028  1.00  0.00     0.240 C 
ATOM     19  O   UNL     1      40.365 133.767  21.269  1.00  0.00    -0.211 OA
ENDBRANCH  17  18
ENDBRANCH   3  17
BRANCH   6  20
ATOM     20  N   UNL     1      45.203 128.839  23.633  1.00  0.00    -0.282 N 
ATOM     21  H   UNL     1      46.245 128.901  23.542  1.00  0.00     0.358 HD
ATOM     22  H   UNL     1      44.986 129.036  24.638  1.00  0.00     0.358 HD
BRANCH  20  23
ATOM     23  C   UNL     1      44.763 127.514  23.272  1.00  0.00     0.137 A 
ATOM     24  C   UNL     1      45.639 126.624  22.625  1.00  0.00     0.068 A 
ATOM     25  C   UNL     1      43.442 127.106  23.526  1.00  0.00     0.107 A 
ATOM     26  C   UNL     1      45.205 125.351  22.247  1.00  0.00     0.012 A 
ATOM     27  C   UNL     1      43.006 125.832  23.147  1.00  0.00     0.132 A 
ATOM     28  C   UNL     1      43.890 124.942  22.515  1.00  0.00    -0.015 A 
ATOM     29  F   UNL     1      41.722 125.468  23.396  1.00  0.00    -0.206 F 
ATOM     30  C   UNL     1      43.415 123.584  22.084  1.00  0.00     0.047 C 
ENDBRANCH  20  23
ENDBRANCH   6  20
TORSDOF 6
ENDMDL


