MODEL 1
REMARK VINA RESULT:      -6.6      0.000      0.000
REMARK SMILES CC(=O)c1ccc(/C(O)=N/[C@@H]2C=CCC2)c(F)c1OC(=O)C(C)(C)C
REMARK SMILES IDX 7 1 6 2 5 3 4 4 18 5 16 6 17 7 8 8 9 9 10 11 11 12 12 13
REMARK SMILES IDX 15 14 13 15 14 16 19 17 20 18 21 19 22 20 23 21 24 22 25 23
REMARK SMILES IDX 2 24 3 25 1 26
REMARK H PARENT 9 10
ROOT
ATOM      1  C   UNL     1      44.058 131.643  18.880  1.00  0.00     0.076 A 
ATOM      2  C   UNL     1      42.924 132.326  19.340  1.00  0.00     0.018 A 
ATOM      3  C   UNL     1      42.537 132.244  20.677  1.00  0.00     0.017 A 
ATOM      4  C   UNL     1      43.281 131.488  21.600  1.00  0.00     0.063 A 
ATOM      5  C   UNL     1      44.445 130.821  21.153  1.00  0.00     0.178 A 
ATOM      6  C   UNL     1      44.811 130.880  19.794  1.00  0.00     0.179 A 
ATOM      7  F   UNL     1      45.889 130.175  19.361  1.00  0.00    -0.202 F 
ENDROOT
BRANCH   1   8
ATOM      8  C   UNL     1      44.434 131.716  17.446  1.00  0.00     0.217 C 
BRANCH   8   9
ATOM      9  O   UNL     1      45.392 132.634  17.009  1.00  0.00    -0.493 OA
ATOM     10  H   UNL     1      45.623 132.749  16.031  1.00  0.00     0.295 HD
ENDBRANCH   8   9
BRANCH   8  11
ATOM     11  N   UNL     1      43.867 130.918  16.592  1.00  0.00    -0.244 NA
BRANCH  11  12
ATOM     12  C   UNL     1      44.582 130.229  15.519  1.00  0.00     0.132 C 
ATOM     13  C   UNL     1      45.817 129.606  16.064  1.00  0.00    -0.005 C 
ATOM     14  C   UNL     1      45.095 131.217  14.455  1.00  0.00     0.036 C 
ATOM     15  C   UNL     1      46.911 130.055  15.477  1.00  0.00    -0.029 C 
ATOM     16  C   UNL     1      46.620 131.069  14.431  1.00  0.00     0.029 C 
ENDBRANCH  11  12
ENDBRANCH   8  11
ENDBRANCH   1   8
BRANCH   5  17
ATOM     17  O   UNL     1      45.214 130.082  22.064  1.00  0.00    -0.422 OA
BRANCH  17  18
ATOM     18  C   UNL     1      45.167 128.687  22.196  1.00  0.00     0.316 C 
ATOM     19  O   UNL     1      45.545 127.948  21.243  1.00  0.00    -0.251 OA
BRANCH  18  20
ATOM     20  C   UNL     1      44.663 128.057  23.479  1.00  0.00     0.060 C 
ATOM     21  C   UNL     1      44.725 129.090  24.623  1.00  0.00     0.023 C 
ATOM     22  C   UNL     1      45.552 126.850  23.824  1.00  0.00     0.023 C 
ATOM     23  C   UNL     1      43.204 127.583  23.315  1.00  0.00     0.023 C 
ENDBRANCH  18  20
ENDBRANCH  17  18
ENDBRANCH   5  17
BRANCH   4  24
ATOM     24  C   UNL     1      42.845 131.408  23.025  1.00  0.00     0.163 C 
ATOM     25  O   UNL     1      41.900 130.641  23.356  1.00  0.00    -0.294 OA
ATOM     26  C   UNL     1      43.477 132.252  24.092  1.00  0.00     0.093 C 
ENDBRANCH   4  24
TORSDOF 8
ENDMDL
MODEL 2
REMARK VINA RESULT:      -5.9      0.949      1.528
REMARK SMILES CC(=O)c1ccc(/C(O)=N/[C@@H]2C=CCC2)c(F)c1OC(=O)C(C)(C)C
REMARK SMILES IDX 7 1 6 2 5 3 4 4 18 5 16 6 17 7 8 8 9 9 10 11 11 12 12 13
REMARK SMILES IDX 15 14 13 15 14 16 19 17 20 18 21 19 22 20 23 21 24 22 25 23
REMARK SMILES IDX 2 24 3 25 1 26
REMARK H PARENT 9 10
ROOT
ATOM      1  C   UNL     1      43.737 131.605  18.766  1.00  0.00     0.076 A 
ATOM      2  C   UNL     1      42.683 132.389  19.253  1.00  0.00     0.018 A 
ATOM      3  C   UNL     1      42.431 132.472  20.622  1.00  0.00     0.017 A 
ATOM      4  C   UNL     1      43.233 131.784  21.548  1.00  0.00     0.063 A 
ATOM      5  C   UNL     1      44.319 131.015  21.069  1.00  0.00     0.178 A 
ATOM      6  C   UNL     1      44.548 130.908  19.683  1.00  0.00     0.179 A 
ATOM      7  F   UNL     1      45.548 130.106  19.231  1.00  0.00    -0.202 F 
ENDROOT
BRANCH   1   8
ATOM      8  C   UNL     1      43.969 131.503  17.304  1.00  0.00     0.217 C 
BRANCH   8   9
ATOM      9  O   UNL     1      43.244 132.298  16.413  1.00  0.00    -0.493 OA
ATOM     10  H   UNL     1      42.263 132.505  16.549  1.00  0.00     0.295 HD
ENDBRANCH   8   9
BRANCH   8  11
ATOM     11  N   UNL     1      44.855 130.667  16.850  1.00  0.00    -0.244 NA
BRANCH  11  12
ATOM     12  C   UNL     1      46.050 131.065  16.109  1.00  0.00     0.132 C 
ATOM     13  C   UNL     1      45.656 131.574  14.768  1.00  0.00    -0.005 C 
ATOM     14  C   UNL     1      46.957 129.860  15.806  1.00  0.00     0.036 C 
ATOM     15  C   UNL     1      46.201 130.881  13.785  1.00  0.00    -0.029 C 
ATOM     16  C   UNL     1      47.058 129.772  14.279  1.00  0.00     0.029 C 
ENDBRANCH  11  12
ENDBRANCH   8  11
ENDBRANCH   1   8
BRANCH   5  17
ATOM     17  O   UNL     1      45.147 130.341  21.980  1.00  0.00    -0.422 OA
BRANCH  17  18
ATOM     18  C   UNL     1      45.141 128.953  22.182  1.00  0.00     0.316 C 
ATOM     19  O   UNL     1      45.662 128.186  21.322  1.00  0.00    -0.251 OA
BRANCH  18  20
ATOM     20  C   UNL     1      44.511 128.365  23.429  1.00  0.00     0.060 C 
ATOM     21  C   UNL     1      43.003 128.148  23.194  1.00  0.00     0.023 C 
ATOM     22  C   UNL     1      44.718 129.343  24.599  1.00  0.00     0.023 C 
ATOM     23  C   UNL     1      45.161 127.009  23.778  1.00  0.00     0.023 C 
ENDBRANCH  18  20
ENDBRANCH  17  18
ENDBRANCH   5  17
BRANCH   4  24
ATOM     24  C   UNL     1      42.941 131.881  23.008  1.00  0.00     0.163 C 
ATOM     25  O   UNL     1      43.821 132.305  23.804  1.00  0.00    -0.294 OA
ATOM     26  C   UNL     1      41.622 131.446  23.577  1.00  0.00     0.093 C 
ENDBRANCH   4  24
TORSDOF 8
ENDMDL
MODEL 3
REMARK VINA RESULT:      -5.6      1.215      1.660
REMARK SMILES CC(=O)c1ccc(/C(O)=N/[C@@H]2C=CCC2)c(F)c1OC(=O)C(C)(C)C
REMARK SMILES IDX 7 1 6 2 5 3 4 4 18 5 16 6 17 7 8 8 9 9 10 11 11 12 12 13
REMARK SMILES IDX 15 14 13 15 14 16 19 17 20 18 21 19 22 20 23 21 24 22 25 23
REMARK SMILES IDX 2 24 3 25 1 26
REMARK H PARENT 9 10
ROOT
ATOM      1  C   UNL     1      44.873 131.298  19.158  1.00  0.00     0.076 A 
ATOM      2  C   UNL     1      43.985 132.322  19.515  1.00  0.00     0.018 A 
ATOM      3  C   UNL     1      43.484 132.410  20.813  1.00  0.00     0.017 A 
ATOM      4  C   UNL     1      43.866 131.484  21.800  1.00  0.00     0.063 A 
ATOM      5  C   UNL     1      44.786 130.466  21.459  1.00  0.00     0.178 A 
ATOM      6  C   UNL     1      45.262 130.362  20.137  1.00  0.00     0.179 A 
ATOM      7  F   UNL     1      46.088 129.336  19.802  1.00  0.00    -0.202 F 
ENDROOT
BRANCH   1   8
ATOM      8  C   UNL     1      45.369 131.202  17.763  1.00  0.00     0.217 C 
BRANCH   8   9
ATOM      9  O   UNL     1      45.346 132.317  16.922  1.00  0.00    -0.493 OA
ATOM     10  H   UNL     1      44.950 132.283  15.991  1.00  0.00     0.295 HD
ENDBRANCH   8   9
BRANCH   8  11
ATOM     11  N   UNL     1      45.830 130.069  17.321  1.00  0.00    -0.244 NA
BRANCH  11  12
ATOM     12  C   UNL     1      45.671 129.604  15.945  1.00  0.00     0.132 C 
ATOM     13  C   UNL     1      46.944 129.805  15.203  1.00  0.00    -0.005 C 
ATOM     14  C   UNL     1      44.645 130.455  15.174  1.00  0.00     0.036 C 
ATOM     15  C   UNL     1      46.798 130.591  14.152  1.00  0.00    -0.029 C 
ATOM     16  C   UNL     1      45.402 131.074  13.993  1.00  0.00     0.029 C 
ENDBRANCH  11  12
ENDBRANCH   8  11
ENDBRANCH   1   8
BRANCH   5  17
ATOM     17  O   UNL     1      45.198 129.548  22.436  1.00  0.00    -0.422 OA
BRANCH  17  18
ATOM     18  C   UNL     1      44.461 128.422  22.831  1.00  0.00     0.316 C 
ATOM     19  O   UNL     1      43.233 128.535  23.108  1.00  0.00    -0.251 OA
BRANCH  18  20
ATOM     20  C   UNL     1      45.131 127.066  22.929  1.00  0.00     0.060 C 
ATOM     21  C   UNL     1      44.081 125.954  22.736  1.00  0.00     0.023 C 
ATOM     22  C   UNL     1      45.779 126.931  24.318  1.00  0.00     0.023 C 
ATOM     23  C   UNL     1      46.219 126.918  21.844  1.00  0.00     0.023 C 
ENDBRANCH  18  20
ENDBRANCH  17  18
ENDBRANCH   5  17
BRANCH   4  24
ATOM     24  C   UNL     1      43.311 131.592  23.180  1.00  0.00     0.163 C 
ATOM     25  O   UNL     1      44.086 131.726  24.166  1.00  0.00    -0.294 OA
ATOM     26  C   UNL     1      41.836 131.507  23.446  1.00  0.00     0.093 C 
ENDBRANCH   4  24
TORSDOF 8
ENDMDL
MODEL 4
REMARK VINA RESULT:      -5.2      1.503      2.474
REMARK SMILES CC(=O)c1ccc(/C(O)=N/[C@@H]2C=CCC2)c(F)c1OC(=O)C(C)(C)C
REMARK SMILES IDX 7 1 6 2 5 3 4 4 18 5 16 6 17 7 8 8 9 9 10 11 11 12 12 13
REMARK SMILES IDX 15 14 13 15 14 16 19 17 20 18 21 19 22 20 23 21 24 22 25 23
REMARK SMILES IDX 2 24 3 25 1 26
REMARK H PARENT 9 10
ROOT
ATOM      1  C   UNL     1      43.977 131.270  17.103  1.00  0.00     0.076 A 
ATOM      2  C   UNL     1      42.724 131.899  17.087  1.00  0.00     0.018 A 
ATOM      3  C   UNL     1      42.131 132.336  18.271  1.00  0.00     0.017 A 
ATOM      4  C   UNL     1      42.779 132.171  19.508  1.00  0.00     0.063 A 
ATOM      5  C   UNL     1      44.056 131.566  19.532  1.00  0.00     0.178 A 
ATOM      6  C   UNL     1      44.635 131.095  18.336  1.00  0.00     0.179 A 
ATOM      7  F   UNL     1      45.830 130.449  18.381  1.00  0.00    -0.202 F 
ENDROOT
BRANCH   1   8
ATOM      8  C   UNL     1      44.576 130.782  15.836  1.00  0.00     0.217 C 
BRANCH   8   9
ATOM      9  O   UNL     1      44.076 131.209  14.604  1.00  0.00    -0.493 OA
ATOM     10  H   UNL     1      43.097 131.420  14.462  1.00  0.00     0.295 HD
ENDBRANCH   8   9
BRANCH   8  11
ATOM     11  N   UNL     1      45.574 129.951  15.876  1.00  0.00    -0.244 NA
BRANCH  11  12
ATOM     12  C   UNL     1      46.930 130.282  15.439  1.00  0.00     0.132 C 
ATOM     13  C   UNL     1      46.901 131.529  14.630  1.00  0.00    -0.005 C 
ATOM     14  C   UNL     1      47.490 129.219  14.477  1.00  0.00     0.036 C 
ATOM     15  C   UNL     1      47.365 131.349  13.407  1.00  0.00    -0.029 C 
ATOM     16  C   UNL     1      47.788 129.946  13.161  1.00  0.00     0.029 C 
ENDBRANCH  11  12
ENDBRANCH   8  11
ENDBRANCH   1   8
BRANCH   5  17
ATOM     17  O   UNL     1      44.729 131.414  20.754  1.00  0.00    -0.422 OA
BRANCH  17  18
ATOM     18  C   UNL     1      44.989 130.181  21.370  1.00  0.00     0.316 C 
ATOM     19  O   UNL     1      45.791 129.363  20.838  1.00  0.00    -0.251 OA
BRANCH  18  20
ATOM     20  C   UNL     1      44.308 129.823  22.677  1.00  0.00     0.060 C 
ATOM     21  C   UNL     1      44.981 128.577  23.287  1.00  0.00     0.023 C 
ATOM     22  C   UNL     1      42.824 129.526  22.400  1.00  0.00     0.023 C 
ATOM     23  C   UNL     1      44.415 130.989  23.682  1.00  0.00     0.023 C 
ENDBRANCH  18  20
ENDBRANCH  17  18
ENDBRANCH   5  17
BRANCH   4  24
ATOM     24  C   UNL     1      42.122 132.639  20.763  1.00  0.00     0.163 C 
ATOM     25  O   UNL     1      42.587 132.300  21.885  1.00  0.00    -0.294 OA
ATOM     26  C   UNL     1      40.882 133.483  20.736  1.00  0.00     0.093 C 
ENDBRANCH   4  24
TORSDOF 8
ENDMDL
MODEL 5
REMARK VINA RESULT:      -5.1      1.734      2.578
REMARK SMILES CC(=O)c1ccc(/C(O)=N/[C@@H]2C=CCC2)c(F)c1OC(=O)C(C)(C)C
REMARK SMILES IDX 7 1 6 2 5 3 4 4 18 5 16 6 17 7 8 8 9 9 10 11 11 12 12 13
REMARK SMILES IDX 15 14 13 15 14 16 19 17 20 18 21 19 22 20 23 21 24 22 25 23
REMARK SMILES IDX 2 24 3 25 1 26
REMARK H PARENT 9 10
ROOT
ATOM      1  C   UNL     1      45.203 130.878  17.828  1.00  0.00     0.076 A 
ATOM      2  C   UNL     1      44.057 131.541  17.367  1.00  0.00     0.018 A 
ATOM      3  C   UNL     1      43.120 132.050  18.265  1.00  0.00     0.017 A 
ATOM      4  C   UNL     1      43.307 131.926  19.653  1.00  0.00     0.063 A 
ATOM      5  C   UNL     1      44.476 131.287  20.128  1.00  0.00     0.178 A 
ATOM      6  C   UNL     1      45.401 130.744  19.216  1.00  0.00     0.179 A 
ATOM      7  F   UNL     1      46.483 130.068  19.684  1.00  0.00    -0.202 F 
ENDROOT
BRANCH   1   8
ATOM      8  C   UNL     1      46.172 130.314  16.855  1.00  0.00     0.217 C 
BRANCH   8   9
ATOM      9  O   UNL     1      46.739 129.055  17.067  1.00  0.00    -0.493 OA
ATOM     10  H   UNL     1      46.513 128.490  17.875  1.00  0.00     0.295 HD
ENDBRANCH   8   9
BRANCH   8  11
ATOM     11  N   UNL     1      46.494 130.998  15.798  1.00  0.00    -0.244 NA
BRANCH  11  12
ATOM     12  C   UNL     1      46.413 130.480  14.434  1.00  0.00     0.132 C 
ATOM     13  C   UNL     1      47.430 129.412  14.247  1.00  0.00    -0.005 C 
ATOM     14  C   UNL     1      46.794 131.552  13.397  1.00  0.00     0.036 C 
ATOM     15  C   UNL     1      48.285 129.692  13.280  1.00  0.00    -0.029 C 
ATOM     16  C   UNL     1      48.009 131.004  12.640  1.00  0.00     0.029 C 
ENDBRANCH  11  12
ENDBRANCH   8  11
ENDBRANCH   1   8
BRANCH   5  17
ATOM     17  O   UNL     1      44.692 131.176  21.510  1.00  0.00    -0.422 OA
BRANCH  17  18
ATOM     18  C   UNL     1      44.243 130.108  22.301  1.00  0.00     0.316 C 
ATOM     19  O   UNL     1      44.095 128.961  21.791  1.00  0.00    -0.251 OA
BRANCH  18  20
ATOM     20  C   UNL     1      43.932 130.323  23.769  1.00  0.00     0.060 C 
ATOM     21  C   UNL     1      44.731 129.316  24.621  1.00  0.00     0.023 C 
ATOM     22  C   UNL     1      42.425 130.109  23.994  1.00  0.00     0.023 C 
ATOM     23  C   UNL     1      44.314 131.754  24.201  1.00  0.00     0.023 C 
ENDBRANCH  18  20
ENDBRANCH  17  18
ENDBRANCH   5  17
BRANCH   4  24
ATOM     24  C   UNL     1      42.288 132.472  20.596  1.00  0.00     0.163 C 
ATOM     25  O   UNL     1      42.584 132.668  21.806  1.00  0.00    -0.294 OA
ATOM     26  C   UNL     1      40.884 132.765  20.155  1.00  0.00     0.093 C 
ENDBRANCH   4  24
TORSDOF 8
ENDMDL
MODEL 6
REMARK VINA RESULT:      -4.9      1.795      2.688
REMARK SMILES CC(=O)c1ccc(/C(O)=N/[C@@H]2C=CCC2)c(F)c1OC(=O)C(C)(C)C
REMARK SMILES IDX 7 1 6 2 5 3 4 4 18 5 16 6 17 7 8 8 9 9 10 11 11 12 12 13
REMARK SMILES IDX 15 14 13 15 14 16 19 17 20 18 21 19 22 20 23 21 24 22 25 23
REMARK SMILES IDX 2 24 3 25 1 26
REMARK H PARENT 9 10
ROOT
ATOM      1  C   UNL     1      44.861 130.945  17.438  1.00  0.00     0.076 A 
ATOM      2  C   UNL     1      43.654 131.444  16.928  1.00  0.00     0.018 A 
ATOM      3  C   UNL     1      42.706 132.017  17.775  1.00  0.00     0.017 A 
ATOM      4  C   UNL     1      42.942 132.124  19.157  1.00  0.00     0.063 A 
ATOM      5  C   UNL     1      44.169 131.652  19.677  1.00  0.00     0.178 A 
ATOM      6  C   UNL     1      45.108 131.043  18.821  1.00  0.00     0.179 A 
ATOM      7  F   UNL     1      46.252 130.527  19.343  1.00  0.00    -0.202 F 
ENDROOT
BRANCH   1   8
ATOM      8  C   UNL     1      45.842 130.309  16.525  1.00  0.00     0.217 C 
BRANCH   8   9
ATOM      9  O   UNL     1      46.320 129.021  16.781  1.00  0.00    -0.493 OA
ATOM     10  H   UNL     1      46.548 128.706  17.715  1.00  0.00     0.295 HD
ENDBRANCH   8   9
BRANCH   8  11
ATOM     11  N   UNL     1      46.260 130.956  15.478  1.00  0.00    -0.244 NA
BRANCH  11  12
ATOM     12  C   UNL     1      46.442 130.349  14.161  1.00  0.00     0.132 C 
ATOM     13  C   UNL     1      47.622 129.444  14.190  1.00  0.00    -0.005 C 
ATOM     14  C   UNL     1      46.798 131.401  13.096  1.00  0.00     0.036 C 
ATOM     15  C   UNL     1      48.550 129.796  13.318  1.00  0.00    -0.029 C 
ATOM     16  C   UNL     1      48.172 131.006  12.544  1.00  0.00     0.029 C 
ENDBRANCH  11  12
ENDBRANCH   8  11
ENDBRANCH   1   8
BRANCH   5  17
ATOM     17  O   UNL     1      44.433 131.772  21.050  1.00  0.00    -0.422 OA
BRANCH  17  18
ATOM     18  C   UNL     1      44.464 130.697  21.950  1.00  0.00     0.316 C 
ATOM     19  O   UNL     1      45.268 129.740  21.766  1.00  0.00    -0.251 OA
BRANCH  18  20
ATOM     20  C   UNL     1      43.533 130.676  23.146  1.00  0.00     0.060 C 
ATOM     21  C   UNL     1      43.105 132.115  23.496  1.00  0.00     0.023 C 
ATOM     22  C   UNL     1      44.274 130.052  24.342  1.00  0.00     0.023 C 
ATOM     23  C   UNL     1      42.272 129.842  22.838  1.00  0.00     0.023 C 
ENDBRANCH  18  20
ENDBRANCH  17  18
ENDBRANCH   5  17
BRANCH   4  24
ATOM     24  C   UNL     1      41.910 132.733  20.046  1.00  0.00     0.163 C 
ATOM     25  O   UNL     1      41.032 132.009  20.588  1.00  0.00    -0.294 OA
ATOM     26  C   UNL     1      41.857 134.213  20.292  1.00  0.00     0.093 C 
ENDBRANCH   4  24
TORSDOF 8
ENDMDL
MODEL 7
REMARK VINA RESULT:      -4.8      1.603      2.011
REMARK SMILES CC(=O)c1ccc(/C(O)=N/[C@@H]2C=CCC2)c(F)c1OC(=O)C(C)(C)C
REMARK SMILES IDX 7 1 6 2 5 3 4 4 18 5 16 6 17 7 8 8 9 9 10 11 11 12 12 13
REMARK SMILES IDX 15 14 13 15 14 16 19 17 20 18 21 19 22 20 23 21 24 22 25 23
REMARK SMILES IDX 2 24 3 25 1 26
REMARK H PARENT 9 10
ROOT
ATOM      1  C   UNL     1      44.981 130.847  18.371  1.00  0.00     0.076 A 
ATOM      2  C   UNL     1      44.039 131.824  18.020  1.00  0.00     0.018 A 
ATOM      3  C   UNL     1      43.178 132.359  18.977  1.00  0.00     0.017 A 
ATOM      4  C   UNL     1      43.241 131.945  20.319  1.00  0.00     0.063 A 
ATOM      5  C   UNL     1      44.209 130.983  20.690  1.00  0.00     0.178 A 
ATOM      6  C   UNL     1      45.053 130.421  19.711  1.00  0.00     0.179 A 
ATOM      7  F   UNL     1      45.929 129.444  20.066  1.00  0.00    -0.202 F 
ENDROOT
BRANCH   1   8
ATOM      8  C   UNL     1      45.867 130.266  17.331  1.00  0.00     0.217 C 
BRANCH   8   9
ATOM      9  O   UNL     1      46.236 128.920  17.384  1.00  0.00    -0.493 OA
ATOM     10  H   UNL     1      46.603 128.428  16.579  1.00  0.00     0.295 HD
ENDBRANCH   8   9
BRANCH   8  11
ATOM     11  N   UNL     1      46.301 131.017  16.363  1.00  0.00    -0.244 NA
BRANCH  11  12
ATOM     12  C   UNL     1      46.082 130.732  14.947  1.00  0.00     0.132 C 
ATOM     13  C   UNL     1      46.830 129.504  14.566  1.00  0.00    -0.005 C 
ATOM     14  C   UNL     1      46.676 131.832  14.048  1.00  0.00     0.036 C 
ATOM     15  C   UNL     1      47.709 129.726  13.606  1.00  0.00    -0.029 C 
ATOM     16  C   UNL     1      47.724 131.145  13.166  1.00  0.00     0.029 C 
ENDBRANCH  11  12
ENDBRANCH   8  11
ENDBRANCH   1   8
BRANCH   5  17
ATOM     17  O   UNL     1      44.304 130.575  22.029  1.00  0.00    -0.422 OA
BRANCH  17  18
ATOM     18  C   UNL     1      43.529 129.559  22.606  1.00  0.00     0.316 C 
ATOM     19  O   UNL     1      42.278 129.538  22.430  1.00  0.00    -0.251 OA
BRANCH  18  20
ATOM     20  C   UNL     1      44.186 128.482  23.446  1.00  0.00     0.060 C 
ATOM     21  C   UNL     1      44.943 129.131  24.623  1.00  0.00     0.023 C 
ATOM     22  C   UNL     1      45.175 127.698  22.565  1.00  0.00     0.023 C 
ATOM     23  C   UNL     1      43.127 127.511  24.010  1.00  0.00     0.023 C 
ENDBRANCH  18  20
ENDBRANCH  17  18
ENDBRANCH   5  17
BRANCH   4  24
ATOM     24  C   UNL     1      42.305 132.525  21.325  1.00  0.00     0.163 C 
ATOM     25  O   UNL     1      42.554 132.422  22.556  1.00  0.00    -0.294 OA
ATOM     26  C   UNL     1      41.032 133.207  20.915  1.00  0.00     0.093 C 
ENDBRANCH   4  24
TORSDOF 8
ENDMDL
MODEL 8
REMARK VINA RESULT:      -4.8      1.727      2.616
REMARK SMILES CC(=O)c1ccc(/C(O)=N/[C@@H]2C=CCC2)c(F)c1OC(=O)C(C)(C)C
REMARK SMILES IDX 7 1 6 2 5 3 4 4 18 5 16 6 17 7 8 8 9 9 10 11 11 12 12 13
REMARK SMILES IDX 15 14 13 15 14 16 19 17 20 18 21 19 22 20 23 21 24 22 25 23
REMARK SMILES IDX 2 24 3 25 1 26
REMARK H PARENT 9 10
ROOT
ATOM      1  C   UNL     1      44.966 131.454  17.026  1.00  0.00     0.076 A 
ATOM      2  C   UNL     1      43.679 131.735  16.549  1.00  0.00     0.018 A 
ATOM      3  C   UNL     1      42.631 131.987  17.433  1.00  0.00     0.017 A 
ATOM      4  C   UNL     1      42.840 131.980  18.823  1.00  0.00     0.063 A 
ATOM      5  C   UNL     1      44.142 131.728  19.314  1.00  0.00     0.178 A 
ATOM      6  C   UNL     1      45.189 131.441  18.417  1.00  0.00     0.179 A 
ATOM      7  F   UNL     1      46.419 131.127  18.903  1.00  0.00    -0.202 F 
ENDROOT
BRANCH   1   8
ATOM      8  C   UNL     1      46.061 131.155  16.069  1.00  0.00     0.217 C 
BRANCH   8   9
ATOM      9  O   UNL     1      46.877 132.179  15.581  1.00  0.00    -0.493 OA
ATOM     10  H   UNL     1      47.770 132.403  16.000  1.00  0.00     0.295 HD
ENDBRANCH   8   9
BRANCH   8  11
ATOM     11  N   UNL     1      46.261 129.930  15.683  1.00  0.00    -0.244 NA
BRANCH  11  12
ATOM     12  C   UNL     1      46.515 129.542  14.297  1.00  0.00     0.132 C 
ATOM     13  C   UNL     1      47.940 129.145  14.146  1.00  0.00    -0.005 C 
ATOM     14  C   UNL     1      46.349 130.732  13.335  1.00  0.00     0.036 C 
ATOM     15  C   UNL     1      48.579 129.886  13.259  1.00  0.00    -0.029 C 
ATOM     16  C   UNL     1      47.707 130.925  12.652  1.00  0.00     0.029 C 
ENDBRANCH  11  12
ENDBRANCH   8  11
ENDBRANCH   1   8
BRANCH   5  17
ATOM     17  O   UNL     1      44.376 131.742  20.698  1.00  0.00    -0.422 OA
BRANCH  17  18
ATOM     18  C   UNL     1      44.646 130.602  21.469  1.00  0.00     0.316 C 
ATOM     19  O   UNL     1      45.454 129.727  21.045  1.00  0.00    -0.251 OA
BRANCH  18  20
ATOM     20  C   UNL     1      43.972 130.412  22.813  1.00  0.00     0.060 C 
ATOM     21  C   UNL     1      44.154 131.682  23.668  1.00  0.00     0.023 C 
ATOM     22  C   UNL     1      44.615 129.210  23.527  1.00  0.00     0.023 C 
ATOM     23  C   UNL     1      42.462 130.147  22.630  1.00  0.00     0.023 C 
ENDBRANCH  18  20
ENDBRANCH  17  18
ENDBRANCH   5  17
BRANCH   4  24
ATOM     24  C   UNL     1      41.703 132.245  19.751  1.00  0.00     0.163 C 
ATOM     25  O   UNL     1      40.566 131.752  19.518  1.00  0.00    -0.294 OA
ATOM     26  C   UNL     1      41.858 133.126  20.956  1.00  0.00     0.093 C 
ENDBRANCH   4  24
TORSDOF 8
ENDMDL
MODEL 9
REMARK VINA RESULT:      -4.7      1.808      2.791
REMARK SMILES CC(=O)c1ccc(/C(O)=N/[C@@H]2C=CCC2)c(F)c1OC(=O)C(C)(C)C
REMARK SMILES IDX 7 1 6 2 5 3 4 4 18 5 16 6 17 7 8 8 9 9 10 11 11 12 12 13
REMARK SMILES IDX 15 14 13 15 14 16 19 17 20 18 21 19 22 20 23 21 24 22 25 23
REMARK SMILES IDX 2 24 3 25 1 26
REMARK H PARENT 9 10
ROOT
ATOM      1  C   UNL     1      44.979 130.725  17.606  1.00  0.00     0.076 A 
ATOM      2  C   UNL     1      43.819 131.273  17.042  1.00  0.00     0.018 A 
ATOM      3  C   UNL     1      42.916 131.990  17.826  1.00  0.00     0.017 A 
ATOM      4  C   UNL     1      43.151 132.193  19.197  1.00  0.00     0.063 A 
ATOM      5  C   UNL     1      44.334 131.671  19.770  1.00  0.00     0.178 A 
ATOM      6  C   UNL     1      45.225 130.918  18.979  1.00  0.00     0.179 A 
ATOM      7  F   UNL     1      46.321 130.358  19.557  1.00  0.00    -0.202 F 
ENDROOT
BRANCH   1   8
ATOM      8  C   UNL     1      45.911 129.937  16.762  1.00  0.00     0.217 C 
BRANCH   8   9
ATOM      9  O   UNL     1      47.268 129.861  17.083  1.00  0.00    -0.493 OA
ATOM     10  H   UNL     1      47.790 130.661  17.417  1.00  0.00     0.295 HD
ENDBRANCH   8   9
BRANCH   8  11
ATOM     11  N   UNL     1      45.459 129.314  15.715  1.00  0.00    -0.244 NA
BRANCH  11  12
ATOM     12  C   UNL     1      45.853 129.629  14.343  1.00  0.00     0.132 C 
ATOM     13  C   UNL     1      47.238 129.143  14.100  1.00  0.00    -0.005 C 
ATOM     14  C   UNL     1      45.939 131.148  14.113  1.00  0.00     0.036 C 
ATOM     15  C   UNL     1      48.061 130.116  13.756  1.00  0.00    -0.029 C 
ATOM     16  C   UNL     1      47.389 131.440  13.709  1.00  0.00     0.029 C 
ENDBRANCH  11  12
ENDBRANCH   8  11
ENDBRANCH   1   8
BRANCH   5  17
ATOM     17  O   UNL     1      44.598 131.884  21.131  1.00  0.00    -0.422 OA
BRANCH  17  18
ATOM     18  C   UNL     1      44.534 130.890  22.118  1.00  0.00     0.316 C 
ATOM     19  O   UNL     1      44.920 129.715  21.859  1.00  0.00    -0.251 OA
BRANCH  18  20
ATOM     20  C   UNL     1      44.002 131.218  23.499  1.00  0.00     0.060 C 
ATOM     21  C   UNL     1      42.560 131.753  23.385  1.00  0.00     0.023 C 
ATOM     22  C   UNL     1      44.902 132.291  24.137  1.00  0.00     0.023 C 
ATOM     23  C   UNL     1      43.997 129.960  24.393  1.00  0.00     0.023 C 
ENDBRANCH  18  20
ENDBRANCH  17  18
ENDBRANCH   5  17
BRANCH   4  24
ATOM     24  C   UNL     1      42.167 132.956  20.019  1.00  0.00     0.163 C 
ATOM     25  O   UNL     1      42.282 134.205  20.147  1.00  0.00    -0.294 OA
ATOM     26  C   UNL     1      41.046 132.270  20.744  1.00  0.00     0.093 C 
ENDBRANCH   4  24
TORSDOF 8
ENDMDL


