REMARK SMILES C=C[C@@H](Oc1nc[nH+]c(C)c1C)c1cc2[nH]ccc2cc1-c1c[nH+]c2c(c1)C(=O)NC2
REMARK SMILES IDX 3 1 2 2 1 3 4 4 5 5 6 6 11 7 7 8 9 9 8 10 12 11 10 12 13 14
REMARK SMILES IDX 14 15 21 16 15 17 20 18 16 19 19 20 17 21 18 22 22 24 23 25
REMARK SMILES IDX 27 26 24 27 26 28 25 29 28 30 31 31 30 32 29 34
REMARK H PARENT 8 13 16 23 24 33 30 35
ROOT
ATOM      1  C   UNL     1       0.935   1.876  -1.004  1.00  0.00     0.231 C 
ENDROOT
BRANCH   1   2
ATOM      2  C   UNL     1       0.351   3.181  -0.532  1.00  0.00     0.014 C 
ATOM      3  C   UNL     1       1.068   4.041   0.198  1.00  0.00     0.008 C 
ENDBRANCH   1   2
BRANCH   1   4
ATOM      4  O   UNL     1       1.488   1.163   0.104  1.00  0.00    -0.447 OA
BRANCH   4   5
ATOM      5  C   UNL     1       2.267   0.005  -0.023  1.00  0.00     0.335 A 
ATOM      6  N   UNL     1       2.541  -0.502  -1.254  1.00  0.00    -0.010 NA
ATOM      7  C   UNL     1       2.754  -0.646   1.124  1.00  0.00     0.080 A 
ATOM      8  C   UNL     1       3.272  -1.632  -1.406  1.00  0.00     0.453 A 
ATOM      9  C   UNL     1       3.522  -1.819   0.944  1.00  0.00     0.108 A 
ATOM     10  N   UNL     1       3.751  -2.285  -0.317  1.00  0.00    -0.247 N 
ATOM     11  C   UNL     1       2.495  -0.083   2.502  1.00  0.00     0.057 C 
ATOM     12  C   UNL     1       4.075  -2.576   2.122  1.00  0.00     0.093 C 
ATOM     13  H   UNL     1       4.303  -3.159  -0.465  1.00  0.00     0.311 HD
ENDBRANCH   4   5
ENDBRANCH   1   4
BRANCH   1  14
ATOM     14  C   UNL     1      -0.120   1.059  -1.739  1.00  0.00     0.007 A 
ATOM     15  C   UNL     1      -0.190   1.200  -3.146  1.00  0.00     0.035 A 
ATOM     16  C   UNL     1      -1.048   0.182  -1.077  1.00  0.00    -0.004 A 
ATOM     17  C   UNL     1      -1.133   0.457  -3.847  1.00  0.00     0.046 A 
ATOM     18  C   UNL     1      -1.978  -0.562  -1.837  1.00  0.00     0.019 A 
ATOM     19  N   UNL     1      -1.342   0.448  -5.173  1.00  0.00    -0.361 N 
ATOM     20  C   UNL     1      -1.989  -0.397  -3.215  1.00  0.00    -0.000 A 
ATOM     21  C   UNL     1      -2.349  -0.430  -5.383  1.00  0.00     0.083 A 
ATOM     22  C   UNL     1      -2.780  -0.980  -4.181  1.00  0.00     0.028 A 
ATOM     23  H   UNL     1      -0.832   1.000  -5.897  1.00  0.00     0.166 HD
BRANCH  16  24
ATOM     24  C   UNL     1      -1.060  -0.005   0.389  1.00  0.00     0.047 A 
ATOM     25  C   UNL     1      -0.700  -1.258   0.946  1.00  0.00     0.315 A 
ATOM     26  C   UNL     1      -1.440   1.045   1.246  1.00  0.00     0.035 A 
ATOM     27  N   UNL     1      -0.682  -1.438   2.301  1.00  0.00    -0.212 N 
ATOM     28  C   UNL     1      -1.401   0.809   2.615  1.00  0.00     0.109 A 
ATOM     29  C   UNL     1      -1.024  -0.410   3.120  1.00  0.00     0.211 A 
ATOM     30  C   UNL     1      -1.688   1.662   3.739  1.00  0.00     0.258 C 
ATOM     31  C   UNL     1      -1.037  -0.412   4.621  1.00  0.00     0.225 C 
ATOM     32  N   UNL     1      -1.478   0.946   4.950  1.00  0.00    -0.342 N 
ATOM     33  H   UNL     1      -0.395  -2.359   2.703  1.00  0.00     0.453 HD
ATOM     34  O   UNL     1      -2.066   2.861   3.680  1.00  0.00    -0.269 OA
ATOM     35  H   UNL     1      -1.607   1.329   5.913  1.00  0.00     0.164 HD
ENDBRANCH  16  24
ENDBRANCH   1  14
TORSDOF 5


