REMARK SMILES C/C=C(\C)C(=O)N1CC[C@@H](C)[C@H](F)[C@H]1c1ccc(C(C)=O)cc1
REMARK SMILES IDX 7 1 8 2 9 3 10 4 11 5 12 6 13 7 14 8 5 9 6 10 3 11 4 12 2 13
REMARK SMILES IDX 1 14 15 15 16 16 23 17 17 18 22 19 18 20 19 21 21 22 20 23
REMARK H PARENT
ROOT
ATOM      1  N   UNL     1      -0.717  -0.911   0.838  1.00  0.00    -0.329 N 
ATOM      2  C   UNL     1      -1.399  -1.815   1.768  1.00  0.00     0.121 C 
ATOM      3  C   UNL     1      -1.279  -3.255   1.252  1.00  0.00     0.028 C 
ATOM      4  C   UNL     1       0.196  -3.631   0.980  1.00  0.00     0.024 C 
ATOM      5  C   UNL     1       0.282  -5.047   0.396  1.00  0.00     0.011 C 
ATOM      6  C   UNL     1       0.867  -2.604   0.036  1.00  0.00     0.196 C 
ATOM      7  F   UNL     1       2.213  -2.904  -0.102  1.00  0.00    -0.245 F 
ATOM      8  C   UNL     1       0.712  -1.180   0.612  1.00  0.00     0.150 C 
ENDROOT
BRANCH   1   9
ATOM      9  C   UNL     1      -1.515  -0.193  -0.123  1.00  0.00     0.249 C 
ATOM     10  O   UNL     1      -1.422  -0.486  -1.346  1.00  0.00    -0.269 OA
BRANCH   9  11
ATOM     11  C   UNL     1      -2.447   0.880   0.309  1.00  0.00     0.010 C 
ATOM     12  C   UNL     1      -3.506   1.364  -0.651  1.00  0.00     0.050 C 
BRANCH  11  13
ATOM     13  C   UNL     1      -2.281   1.465   1.512  1.00  0.00    -0.021 C 
ATOM     14  C   UNL     1      -3.137   2.592   2.008  1.00  0.00     0.036 C 
ENDBRANCH  11  13
ENDBRANCH   9  11
ENDBRANCH   1   9
BRANCH   8  15
ATOM     15  C   UNL     1       1.385  -0.067  -0.184  1.00  0.00    -0.022 A 
ATOM     16  C   UNL     1       1.678  -0.176  -1.557  1.00  0.00     0.007 A 
ATOM     17  C   UNL     1       1.656   1.148   0.466  1.00  0.00     0.007 A 
ATOM     18  C   UNL     1       2.251   0.894  -2.249  1.00  0.00     0.012 A 
ATOM     19  C   UNL     1       2.227   2.219  -0.226  1.00  0.00     0.012 A 
ATOM     20  C   UNL     1       2.534   2.106  -1.594  1.00  0.00     0.017 A 
BRANCH  20  21
ATOM     21  C   UNL     1       3.139   3.237  -2.348  1.00  0.00     0.159 C 
ATOM     22  O   UNL     1       3.414   3.098  -3.571  1.00  0.00    -0.295 OA
ATOM     23  C   UNL     1       3.440   4.554  -1.696  1.00  0.00     0.093 C 
ENDBRANCH  20  21
ENDBRANCH   8  15
TORSDOF 5


