REMARK SMILES O=C=Nc1cc(O)c(F)cc1[NH2+]c1ccc2cc[nH]c2c1
REMARK SMILES IDX 6 1 5 2 4 3 11 4 10 5 8 6 9 7 7 8 3 10 2 11 1 12 12 13 13 16
REMARK SMILES IDX 14 17 21 18 15 19 20 20 16 21 19 22 17 23 18 24
REMARK H PARENT 7 9 12 14 12 15 19 25
ROOT
ATOM      1  C   UNL     1      -2.563  -1.998   2.331  1.00  0.00     0.153 A 
ATOM      2  C   UNL     1      -3.312  -0.884   1.932  1.00  0.00     0.085 A 
ATOM      3  C   UNL     1      -2.700   0.377   1.779  1.00  0.00     0.141 A 
ATOM      4  C   UNL     1      -1.314   0.511   2.037  1.00  0.00     0.164 A 
ATOM      5  C   UNL     1      -0.577  -0.620   2.435  1.00  0.00     0.113 A 
ATOM      6  C   UNL     1      -1.197  -1.862   2.582  1.00  0.00     0.170 A 
ATOM      7  F   UNL     1      -0.466  -2.937   2.967  1.00  0.00    -0.203 F 
ENDROOT
BRANCH   1   8
ATOM      8  O   UNL     1      -3.171  -3.243   2.481  1.00  0.00    -0.505 OA
ATOM      9  H   UNL     1      -4.160  -3.375   2.307  1.00  0.00     0.293 HD
ENDBRANCH   1   8
BRANCH   3  10
ATOM     10  N   UNL     1      -3.456   1.531   1.371  1.00  0.00    -0.162 NA
BRANCH  10  11
ATOM     11  C   UNL     1      -4.699   1.513   1.099  1.00  0.00     0.240 C 
ATOM     12  O   UNL     1      -5.908   1.496   0.835  1.00  0.00    -0.211 OA
ENDBRANCH  10  11
ENDBRANCH   3  10
BRANCH   4  13
ATOM     13  N   UNL     1      -0.639   1.777   1.862  1.00  0.00    -0.280 N 
ATOM     14  H   UNL     1       0.198   1.830   2.488  1.00  0.00     0.358 HD
ATOM     15  H   UNL     1      -1.265   2.567   2.145  1.00  0.00     0.358 HD
BRANCH  13  16
ATOM     16  C   UNL     1      -0.219   1.925   0.490  1.00  0.00     0.136 A 
ATOM     17  C   UNL     1       0.963   1.282   0.032  1.00  0.00     0.069 A 
ATOM     18  C   UNL     1      -0.989   2.693  -0.416  1.00  0.00     0.094 A 
ATOM     19  C   UNL     1       1.373   1.397  -1.308  1.00  0.00     0.016 A 
ATOM     20  C   UNL     1      -0.554   2.785  -1.736  1.00  0.00     0.051 A 
ATOM     21  C   UNL     1       0.585   2.159  -2.165  1.00  0.00    -0.000 A 
ATOM     22  N   UNL     1      -1.137   3.456  -2.743  1.00  0.00    -0.361 N 
ATOM     23  C   UNL     1       0.733   2.444  -3.505  1.00  0.00     0.028 A 
ATOM     24  C   UNL     1      -0.354   3.251  -3.826  1.00  0.00     0.083 A 
ATOM     25  H   UNL     1      -2.014   4.021  -2.701  1.00  0.00     0.166 HD
ENDBRANCH  13  16
ENDBRANCH   4  13
TORSDOF 5


