MODEL 1
REMARK VINA RESULT:      -6.3      0.000      0.000
REMARK SMILES C=Cc1ccc(-c2cc3cc[nH]c3cc2Nc2cc(F)c(O)cc2N)nc1
REMARK SMILES IDX 7 1 8 2 9 3 10 4 11 5 12 6 13 7 14 8 15 9 6 11 3 12 4 13
REMARK SMILES IDX 27 14 5 15 26 16 2 17 1 18 16 19 17 21 18 22 24 23 19 24
REMARK SMILES IDX 23 25 21 26 20 27 25 28 22 31
REMARK H PARENT 12 10 16 20 25 29 25 30 22 32
ROOT
ATOM      1  C   UNL     1      43.536 126.086  23.405  1.00  0.00     0.024 A 
ATOM      2  C   UNL     1      42.760 124.935  23.132  1.00  0.00     0.022 A 
ATOM      3  C   UNL     1      41.377 125.032  23.241  1.00  0.00     0.000 A 
ATOM      4  C   UNL     1      40.395 124.084  23.050  1.00  0.00     0.028 A 
ATOM      5  C   UNL     1      39.199 124.744  23.312  1.00  0.00     0.083 A 
ATOM      6  N   UNL     1      39.427 126.033  23.650  1.00  0.00    -0.361 N 
ATOM      7  C   UNL     1      40.760 126.195  23.605  1.00  0.00     0.047 A 
ATOM      8  C   UNL     1      41.480 127.354  23.872  1.00  0.00     0.053 A 
ATOM      9  C   UNL     1      42.886 127.315  23.750  1.00  0.00     0.050 A 
ATOM     10  H   UNL     1      38.711 126.753  23.897  1.00  0.00     0.166 HD
ENDROOT
BRANCH   1  11
ATOM     11  C   UNL     1      45.010 125.973  23.383  1.00  0.00     0.072 A 
ATOM     12  C   UNL     1      47.803 125.858  23.384  1.00  0.00    -0.008 A 
ATOM     13  C   UNL     1      47.086 125.633  22.194  1.00  0.00     0.012 A 
ATOM     14  C   UNL     1      47.077 126.140  24.551  1.00  0.00     0.119 A 
ATOM     15  C   UNL     1      45.692 125.682  22.194  1.00  0.00     0.030 A 
ATOM     16  N   UNL     1      45.720 126.188  24.524  1.00  0.00    -0.256 NA
BRANCH  12  17
ATOM     17  C   UNL     1      49.286 125.840  23.453  1.00  0.00     0.002 C 
ATOM     18  C   UNL     1      49.984 125.660  24.575  1.00  0.00     0.009 C 
ENDBRANCH  12  17
ENDBRANCH   1  11
BRANCH   9  19
ATOM     19  N   UNL     1      43.624 128.532  23.964  1.00  0.00    -0.353 N 
ATOM     20  H   UNL     1      43.850 128.796  24.949  1.00  0.00     0.167 HD
BRANCH  19  21
ATOM     21  C   UNL     1      43.855 129.509  22.932  1.00  0.00     0.065 A 
ATOM     22  C   UNL     1      44.938 129.358  22.048  1.00  0.00     0.071 A 
ATOM     23  C   UNL     1      42.996 130.622  22.789  1.00  0.00     0.059 A 
ATOM     24  C   UNL     1      45.177 130.302  21.047  1.00  0.00     0.167 A 
ATOM     25  C   UNL     1      43.241 131.559  21.773  1.00  0.00     0.077 A 
ATOM     26  C   UNL     1      44.327 131.406  20.907  1.00  0.00     0.153 A 
ATOM     27  F   UNL     1      46.235 130.137  20.213  1.00  0.00    -0.203 F 
BRANCH  23  28
ATOM     28  N   UNL     1      41.906 130.844  23.693  1.00  0.00    -0.397 N 
ATOM     29  H   UNL     1      42.044 131.407  24.561  1.00  0.00     0.156 HD
ATOM     30  H   UNL     1      40.969 130.408  23.548  1.00  0.00     0.156 HD
ENDBRANCH  23  28
BRANCH  26  31
ATOM     31  O   UNL     1      44.548 132.361  19.915  1.00  0.00    -0.505 OA
ATOM     32  H   UNL     1      43.854 133.061  19.682  1.00  0.00     0.293 HD
ENDBRANCH  26  31
ENDBRANCH  19  21
ENDBRANCH   9  19
TORSDOF 6
ENDMDL
MODEL 2
REMARK VINA RESULT:      -4.9      1.291      1.735
REMARK SMILES C=Cc1ccc(-c2cc3cc[nH]c3cc2Nc2cc(F)c(O)cc2N)nc1
REMARK SMILES IDX 7 1 8 2 9 3 10 4 11 5 12 6 13 7 14 8 15 9 6 11 3 12 4 13
REMARK SMILES IDX 27 14 5 15 26 16 2 17 1 18 16 19 17 21 18 22 24 23 19 24
REMARK SMILES IDX 23 25 21 26 20 27 25 28 22 31
REMARK H PARENT 12 10 16 20 25 29 25 30 22 32
ROOT
ATOM      1  C   UNL     1      45.238 125.436  23.107  1.00  0.00     0.024 A 
ATOM      2  C   UNL     1      44.657 124.171  22.858  1.00  0.00     0.022 A 
ATOM      3  C   UNL     1      43.271 124.084  22.791  1.00  0.00     0.000 A 
ATOM      4  C   UNL     1      42.451 122.997  22.578  1.00  0.00     0.028 A 
ATOM      5  C   UNL     1      41.157 123.504  22.630  1.00  0.00     0.083 A 
ATOM      6  N   UNL     1      41.173 124.836  22.864  1.00  0.00    -0.361 N 
ATOM      7  C   UNL     1      42.469 125.176  22.963  1.00  0.00     0.047 A 
ATOM      8  C   UNL     1      42.994 126.441  23.198  1.00  0.00     0.053 A 
ATOM      9  C   UNL     1      44.397 126.588  23.249  1.00  0.00     0.050 A 
ATOM     10  H   UNL     1      40.345 125.467  22.951  1.00  0.00     0.166 HD
ENDROOT
BRANCH   1  11
ATOM     11  C   UNL     1      46.705 125.527  23.273  1.00  0.00     0.072 A 
ATOM     12  C   UNL     1      49.465 125.803  23.611  1.00  0.00    -0.008 A 
ATOM     13  C   UNL     1      48.948 125.299  22.403  1.00  0.00     0.012 A 
ATOM     14  C   UNL     1      48.560 126.159  24.622  1.00  0.00     0.119 A 
ATOM     15  C   UNL     1      47.570 125.153  22.236  1.00  0.00     0.030 A 
ATOM     16  N   UNL     1      47.223 126.012  24.433  1.00  0.00    -0.256 NA
BRANCH  12  17
ATOM     17  C   UNL     1      50.917 126.001  23.850  1.00  0.00     0.002 C 
ATOM     18  C   UNL     1      51.587 127.108  23.529  1.00  0.00     0.009 C 
ENDBRANCH  12  17
ENDBRANCH   1  11
BRANCH   9  19
ATOM     19  N   UNL     1      44.941 127.908  23.428  1.00  0.00    -0.353 N 
ATOM     20  H   UNL     1      45.589 128.062  24.233  1.00  0.00     0.167 HD
BRANCH  19  21
ATOM     21  C   UNL     1      44.461 129.065  22.718  1.00  0.00     0.065 A 
ATOM     22  C   UNL     1      44.983 129.380  21.451  1.00  0.00     0.071 A 
ATOM     23  C   UNL     1      43.457 129.889  23.276  1.00  0.00     0.059 A 
ATOM     24  C   UNL     1      44.531 130.503  20.754  1.00  0.00     0.167 A 
ATOM     25  C   UNL     1      43.005 131.009  22.562  1.00  0.00     0.077 A 
ATOM     26  C   UNL     1      43.539 131.320  21.309  1.00  0.00     0.153 A 
ATOM     27  F   UNL     1      45.059 130.790  19.537  1.00  0.00    -0.203 F 
BRANCH  23  28
ATOM     28  N   UNL     1      42.926 129.635  24.583  1.00  0.00    -0.397 N 
ATOM     29  H   UNL     1      41.985 129.998  24.852  1.00  0.00     0.156 HD
ATOM     30  H   UNL     1      43.476 129.139  25.317  1.00  0.00     0.156 HD
ENDBRANCH  23  28
BRANCH  26  31
ATOM     31  O   UNL     1      43.075 132.447  20.630  1.00  0.00    -0.505 OA
ATOM     32  H   UNL     1      43.435 132.709  19.721  1.00  0.00     0.293 HD
ENDBRANCH  26  31
ENDBRANCH  19  21
ENDBRANCH   9  19
TORSDOF 6
ENDMDL
MODEL 3
REMARK VINA RESULT:      -4.3      1.599      2.243
REMARK SMILES C=Cc1ccc(-c2cc3cc[nH]c3cc2Nc2cc(F)c(O)cc2N)nc1
REMARK SMILES IDX 7 1 8 2 9 3 10 4 11 5 12 6 13 7 14 8 15 9 6 11 3 12 4 13
REMARK SMILES IDX 27 14 5 15 26 16 2 17 1 18 16 19 17 21 18 22 24 23 19 24
REMARK SMILES IDX 23 25 21 26 20 27 25 28 22 31
REMARK H PARENT 12 10 16 20 25 29 25 30 22 32
ROOT
ATOM      1  C   UNL     1      45.436 124.846  22.334  1.00  0.00     0.024 A 
ATOM      2  C   UNL     1      44.701 123.709  21.926  1.00  0.00     0.022 A 
ATOM      3  C   UNL     1      43.313 123.788  21.920  1.00  0.00     0.000 A 
ATOM      4  C   UNL     1      42.363 122.846  21.587  1.00  0.00     0.028 A 
ATOM      5  C   UNL     1      41.141 123.479  21.786  1.00  0.00     0.083 A 
ATOM      6  N   UNL     1      41.322 124.747  22.220  1.00  0.00    -0.361 N 
ATOM      7  C   UNL     1      42.652 124.921  22.300  1.00  0.00     0.047 A 
ATOM      8  C   UNL     1      43.331 126.067  22.698  1.00  0.00     0.053 A 
ATOM      9  C   UNL     1      44.742 126.047  22.696  1.00  0.00     0.050 A 
ATOM     10  H   UNL     1      40.578 125.444  22.447  1.00  0.00     0.166 HD
ENDROOT
BRANCH   1  11
ATOM     11  C   UNL     1      46.908 124.747  22.433  1.00  0.00     0.072 A 
ATOM     12  C   UNL     1      49.695 124.665  22.623  1.00  0.00    -0.008 A 
ATOM     13  C   UNL     1      49.039 124.011  21.564  1.00  0.00     0.012 A 
ATOM     14  C   UNL     1      48.913 125.351  23.564  1.00  0.00     0.119 A 
ATOM     15  C   UNL     1      47.647 124.044  21.472  1.00  0.00     0.030 A 
ATOM     16  N   UNL     1      47.559 125.373  23.450  1.00  0.00    -0.256 NA
BRANCH  12  17
ATOM     17  C   UNL     1      51.172 124.687  22.772  1.00  0.00     0.002 C 
ATOM     18  C   UNL     1      51.839 124.062  23.742  1.00  0.00     0.009 C 
ENDBRANCH  12  17
ENDBRANCH   1  11
BRANCH   9  19
ATOM     19  N   UNL     1      45.444 127.254  23.046  1.00  0.00    -0.353 N 
ATOM     20  H   UNL     1      46.114 127.211  23.847  1.00  0.00     0.167 HD
BRANCH  19  21
ATOM     21  C   UNL     1      45.101 128.549  22.521  1.00  0.00     0.065 A 
ATOM     22  C   UNL     1      45.523 128.921  21.232  1.00  0.00     0.071 A 
ATOM     23  C   UNL     1      44.333 129.457  23.285  1.00  0.00     0.059 A 
ATOM     24  C   UNL     1      45.203 130.177  20.712  1.00  0.00     0.167 A 
ATOM     25  C   UNL     1      44.010 130.712  22.748  1.00  0.00     0.077 A 
ATOM     26  C   UNL     1      44.444 131.077  21.471  1.00  0.00     0.153 A 
ATOM     27  F   UNL     1      45.630 130.514  19.469  1.00  0.00    -0.203 F 
BRANCH  23  28
ATOM     28  N   UNL     1      43.918 129.142  24.620  1.00  0.00    -0.397 N 
ATOM     29  H   UNL     1      43.837 128.149  24.930  1.00  0.00     0.156 HD
ATOM     30  H   UNL     1      43.629 129.881  25.298  1.00  0.00     0.156 HD
ENDBRANCH  23  28
BRANCH  26  31
ATOM     31  O   UNL     1      44.114 132.337  20.971  1.00  0.00    -0.505 OA
ATOM     32  H   UNL     1      43.679 132.455  20.065  1.00  0.00     0.293 HD
ENDBRANCH  26  31
ENDBRANCH  19  21
ENDBRANCH   9  19
TORSDOF 6
ENDMDL
MODEL 4
REMARK VINA RESULT:      -4.1      2.261      2.909
REMARK SMILES C=Cc1ccc(-c2cc3cc[nH]c3cc2Nc2cc(F)c(O)cc2N)nc1
REMARK SMILES IDX 7 1 8 2 9 3 10 4 11 5 12 6 13 7 14 8 15 9 6 11 3 12 4 13
REMARK SMILES IDX 27 14 5 15 26 16 2 17 1 18 16 19 17 21 18 22 24 23 19 24
REMARK SMILES IDX 23 25 21 26 20 27 25 28 22 31
REMARK H PARENT 12 10 16 20 25 29 25 30 22 32
ROOT
ATOM      1  C   UNL     1      45.415 124.834  22.760  1.00  0.00     0.024 A 
ATOM      2  C   UNL     1      44.772 123.598  22.517  1.00  0.00     0.022 A 
ATOM      3  C   UNL     1      43.389 123.592  22.369  1.00  0.00     0.000 A 
ATOM      4  C   UNL     1      42.517 122.549  22.142  1.00  0.00     0.028 A 
ATOM      5  C   UNL     1      41.256 123.135  22.100  1.00  0.00     0.083 A 
ATOM      6  N   UNL     1      41.341 124.471  22.291  1.00  0.00    -0.361 N 
ATOM      7  C   UNL     1      42.647 124.735  22.457  1.00  0.00     0.047 A 
ATOM      8  C   UNL     1      43.236 125.975  22.683  1.00  0.00     0.053 A 
ATOM      9  C   UNL     1      44.640 126.038  22.814  1.00  0.00     0.050 A 
ATOM     10  H   UNL     1      40.550 125.153  22.308  1.00  0.00     0.166 HD
ENDROOT
BRANCH   1  11
ATOM     11  C   UNL     1      46.872 124.842  23.011  1.00  0.00     0.072 A 
ATOM     12  C   UNL     1      49.642 124.829  23.383  1.00  0.00    -0.008 A 
ATOM     13  C   UNL     1      48.812 124.063  24.223  1.00  0.00     0.012 A 
ATOM     14  C   UNL     1      49.039 125.586  22.367  1.00  0.00     0.119 A 
ATOM     15  C   UNL     1      47.428 124.075  24.043  1.00  0.00     0.030 A 
ATOM     16  N   UNL     1      47.690 125.576  22.209  1.00  0.00    -0.256 NA
BRANCH  12  17
ATOM     17  C   UNL     1      51.121 124.849  23.505  1.00  0.00     0.002 C 
ATOM     18  C   UNL     1      51.788 124.522  24.612  1.00  0.00     0.009 C 
ENDBRANCH  12  17
ENDBRANCH   1  11
BRANCH   9  19
ATOM     19  N   UNL     1      45.253 127.329  22.984  1.00  0.00    -0.353 N 
ATOM     20  H   UNL     1      46.214 127.360  23.393  1.00  0.00     0.167 HD
BRANCH  19  21
ATOM     21  C   UNL     1      44.536 128.570  22.848  1.00  0.00     0.065 A 
ATOM     22  C   UNL     1      43.482 128.874  23.727  1.00  0.00     0.071 A 
ATOM     23  C   UNL     1      44.886 129.498  21.841  1.00  0.00     0.059 A 
ATOM     24  C   UNL     1      42.773 130.072  23.602  1.00  0.00     0.167 A 
ATOM     25  C   UNL     1      44.173 130.702  21.731  1.00  0.00     0.077 A 
ATOM     26  C   UNL     1      43.118 130.989  22.603  1.00  0.00     0.153 A 
ATOM     27  F   UNL     1      41.754 130.336  24.458  1.00  0.00    -0.203 F 
BRANCH  23  28
ATOM     28  N   UNL     1      45.922 129.214  20.893  1.00  0.00    -0.397 N 
ATOM     29  H   UNL     1      46.915 129.127  21.203  1.00  0.00     0.156 HD
ATOM     30  H   UNL     1      45.733 129.146  19.869  1.00  0.00     0.156 HD
ENDBRANCH  23  28
BRANCH  26  31
ATOM     31  O   UNL     1      42.423 132.190  22.460  1.00  0.00    -0.505 OA
ATOM     32  H   UNL     1      41.587 132.259  21.893  1.00  0.00     0.293 HD
ENDBRANCH  26  31
ENDBRANCH  19  21
ENDBRANCH   9  19
TORSDOF 6
ENDMDL
MODEL 5
REMARK VINA RESULT:      -3.8      1.647      5.449
REMARK SMILES C=Cc1ccc(-c2cc3cc[nH]c3cc2Nc2cc(F)c(O)cc2N)nc1
REMARK SMILES IDX 7 1 8 2 9 3 10 4 11 5 12 6 13 7 14 8 15 9 6 11 3 12 4 13
REMARK SMILES IDX 27 14 5 15 26 16 2 17 1 18 16 19 17 21 18 22 24 23 19 24
REMARK SMILES IDX 23 25 21 26 20 27 25 28 22 31
REMARK H PARENT 12 10 16 20 25 29 25 30 22 32
ROOT
ATOM      1  C   UNL     1      43.101 125.763  23.431  1.00  0.00     0.024 A 
ATOM      2  C   UNL     1      43.639 124.457  23.373  1.00  0.00     0.022 A 
ATOM      3  C   UNL     1      44.988 124.312  23.067  1.00  0.00     0.000 A 
ATOM      4  C   UNL     1      45.759 123.178  22.933  1.00  0.00     0.028 A 
ATOM      5  C   UNL     1      47.030 123.642  22.606  1.00  0.00     0.083 A 
ATOM      6  N   UNL     1      47.045 124.992  22.539  1.00  0.00    -0.361 N 
ATOM      7  C   UNL     1      45.792 125.388  22.820  1.00  0.00     0.047 A 
ATOM      8  C   UNL     1      45.311 126.691  22.876  1.00  0.00     0.053 A 
ATOM      9  C   UNL     1      43.954 126.893  23.209  1.00  0.00     0.050 A 
ATOM     10  H   UNL     1      47.864 125.599  22.313  1.00  0.00     0.166 HD
ENDROOT
BRANCH   1  11
ATOM     11  C   UNL     1      41.650 125.927  23.663  1.00  0.00     0.072 A 
ATOM     12  C   UNL     1      38.927 126.247  24.207  1.00  0.00    -0.008 A 
ATOM     13  C   UNL     1      39.379 125.116  23.501  1.00  0.00     0.012 A 
ATOM     14  C   UNL     1      39.877 127.191  24.625  1.00  0.00     0.119 A 
ATOM     15  C   UNL     1      40.737 124.960  23.221  1.00  0.00     0.030 A 
ATOM     16  N   UNL     1      41.194 127.012  24.345  1.00  0.00    -0.256 NA
BRANCH  12  17
ATOM     17  C   UNL     1      37.501 126.468  24.555  1.00  0.00     0.002 C 
ATOM     18  C   UNL     1      36.543 126.731  23.666  1.00  0.00     0.009 C 
ENDBRANCH  12  17
ENDBRANCH   1  11
BRANCH   9  19
ATOM     19  N   UNL     1      43.474 128.244  23.330  1.00  0.00    -0.353 N 
ATOM     20  H   UNL     1      42.521 128.386  23.737  1.00  0.00     0.167 HD
BRANCH  19  21
ATOM     21  C   UNL     1      44.119 129.372  22.712  1.00  0.00     0.065 A 
ATOM     22  C   UNL     1      44.800 129.213  21.492  1.00  0.00     0.071 A 
ATOM     23  C   UNL     1      44.071 130.650  23.315  1.00  0.00     0.059 A 
ATOM     24  C   UNL     1      45.437 130.299  20.885  1.00  0.00     0.167 A 
ATOM     25  C   UNL     1      44.706 131.734  22.691  1.00  0.00     0.077 A 
ATOM     26  C   UNL     1      45.390 131.563  21.485  1.00  0.00     0.153 A 
ATOM     27  F   UNL     1      46.095 130.115  19.713  1.00  0.00    -0.203 F 
BRANCH  23  28
ATOM     28  N   UNL     1      43.428 130.853  24.580  1.00  0.00    -0.397 N 
ATOM     29  H   UNL     1      42.935 130.066  25.057  1.00  0.00     0.156 HD
ATOM     30  H   UNL     1      43.380 131.792  25.031  1.00  0.00     0.156 HD
ENDBRANCH  23  28
BRANCH  26  31
ATOM     31  O   UNL     1      46.020 132.659  20.896  1.00  0.00    -0.505 OA
ATOM     32  H   UNL     1      46.879 133.046  21.269  1.00  0.00     0.293 HD
ENDBRANCH  26  31
ENDBRANCH  19  21
ENDBRANCH   9  19
TORSDOF 6
ENDMDL


