MODEL 1
REMARK VINA RESULT:      -6.2      0.000      0.000
REMARK SMILES Cc1cc(-c2cccc3[nH+]coc23)cc(OC(=S)Nc2ccc(-n3ccc[nH+]3)cc2)c1F
REMARK SMILES IDX 17 1 18 2 19 3 16 5 15 6 2 7 3 8 31 9 4 10 14 11 1 12 32 13
REMARK SMILES IDX 5 14 6 15 13 16 7 17 12 18 9 19 8 20 11 21 10 22 20 24 21 25
REMARK SMILES IDX 30 26 22 27 29 28 23 29 24 30 25 31 28 32 26 33 27 34
REMARK H PARENT 19 4 10 23 28 35
ROOT
ATOM      1  C   UNL     1      44.784 131.124  23.226  1.00  0.00     0.266 C 
ATOM      2  S   UNL     1      45.148 132.649  23.688  1.00  0.00    -0.018 S 
ATOM      3  N   UNL     1      44.367 130.174  24.225  1.00  0.00    -0.316 N 
ATOM      4  H   UNL     1      44.702 130.320  25.205  1.00  0.00     0.171 HD
ENDROOT
BRANCH   1   5
ATOM      5  O   UNL     1      44.878 130.807  21.859  1.00  0.00    -0.429 OA
BRANCH   5   6
ATOM      6  C   UNL     1      44.136 131.401  20.828  1.00  0.00     0.166 A 
ATOM      7  C   UNL     1      42.127 132.588  20.142  1.00  0.00    -0.011 A 
ATOM      8  C   UNL     1      42.482 132.400  18.798  1.00  0.00     0.015 A 
ATOM      9  C   UNL     1      42.953 132.074  21.154  1.00  0.00     0.168 A 
ATOM     10  C   UNL     1      43.686 131.761  18.460  1.00  0.00    -0.010 A 
ATOM     11  C   UNL     1      44.534 131.312  19.484  1.00  0.00     0.059 A 
ATOM     12  C   UNL     1      40.819 133.241  20.490  1.00  0.00     0.048 C 
ATOM     13  F   UNL     1      42.582 132.175  22.457  1.00  0.00    -0.203 F 
BRANCH  10  14
ATOM     14  C   UNL     1      44.025 131.494  17.044  1.00  0.00     0.032 A 
ATOM     15  C   UNL     1      43.223 131.981  15.985  1.00  0.00     0.013 A 
ATOM     16  C   UNL     1      45.183 130.791  16.689  1.00  0.00     0.212 A 
ATOM     17  C   UNL     1      43.586 131.749  14.638  1.00  0.00     0.008 A 
ATOM     18  O   UNL     1      46.105 130.269  17.462  1.00  0.00    -0.403 OA
ATOM     19  C   UNL     1      45.529 130.572  15.389  1.00  0.00     0.249 A 
ATOM     20  C   UNL     1      44.758 131.034  14.327  1.00  0.00     0.083 A 
ATOM     21  C   UNL     1      47.006 129.732  16.655  1.00  0.00     0.521 A 
ATOM     22  N   UNL     1      46.687 129.899  15.348  1.00  0.00    -0.176 N 
ATOM     23  H   UNL     1      47.224 129.582  14.510  1.00  0.00     0.457 HD
ENDBRANCH  10  14
ENDBRANCH   5   6
ENDBRANCH   1   5
BRANCH   3  24
ATOM     24  C   UNL     1      43.577 129.005  23.958  1.00  0.00     0.042 A 
ATOM     25  C   UNL     1      44.176 127.757  23.731  1.00  0.00     0.028 A 
ATOM     26  C   UNL     1      42.179 129.100  23.985  1.00  0.00     0.028 A 
ATOM     27  C   UNL     1      43.389 126.607  23.620  1.00  0.00     0.034 A 
ATOM     28  C   UNL     1      41.390 127.953  23.868  1.00  0.00     0.034 A 
ATOM     29  C   UNL     1      41.988 126.691  23.706  1.00  0.00     0.104 A 
BRANCH  29  30
ATOM     30  N   UNL     1      41.178 125.502  23.659  1.00  0.00    -0.130 N 
ATOM     31  C   UNL     1      41.409 124.350  24.321  1.00  0.00     0.163 A 
ATOM     32  N   UNL     1      40.052 125.380  22.972  1.00  0.00    -0.126 N 
ATOM     33  C   UNL     1      40.387 123.464  24.038  1.00  0.00     0.097 A 
ATOM     34  C   UNL     1      39.549 124.150  23.180  1.00  0.00     0.335 A 
ATOM     35  H   UNL     1      39.633 126.111  22.355  1.00  0.00     0.488 HD
ENDBRANCH  29  30
ENDBRANCH   3  24
TORSDOF 5
ENDMDL
MODEL 2
REMARK VINA RESULT:      -5.9      4.390      8.607
REMARK SMILES Cc1cc(-c2cccc3[nH+]coc23)cc(OC(=S)Nc2ccc(-n3ccc[nH+]3)cc2)c1F
REMARK SMILES IDX 17 1 18 2 19 3 16 5 15 6 2 7 3 8 31 9 4 10 14 11 1 12 32 13
REMARK SMILES IDX 5 14 6 15 13 16 7 17 12 18 9 19 8 20 11 21 10 22 20 24 21 25
REMARK SMILES IDX 30 26 22 27 29 28 23 29 24 30 25 31 28 32 26 33 27 34
REMARK H PARENT 19 4 10 23 28 35
ROOT
ATOM      1  C   UNL     1      43.112 131.874  19.028  1.00  0.00     0.266 C 
ATOM      2  S   UNL     1      41.996 132.694  19.896  1.00  0.00    -0.018 S 
ATOM      3  N   UNL     1      42.963 131.796  17.598  1.00  0.00    -0.316 N 
ATOM      4  H   UNL     1      41.996 131.869  17.205  1.00  0.00     0.171 HD
ENDROOT
BRANCH   1   5
ATOM      5  O   UNL     1      44.188 131.289  19.719  1.00  0.00    -0.429 OA
BRANCH   5   6
ATOM      6  C   UNL     1      44.791 131.797  20.879  1.00  0.00     0.166 A 
ATOM      7  C   UNL     1      44.710 132.095  23.292  1.00  0.00    -0.011 A 
ATOM      8  C   UNL     1      45.799 132.977  23.213  1.00  0.00     0.015 A 
ATOM      9  C   UNL     1      44.202 131.517  22.118  1.00  0.00     0.168 A 
ATOM     10  C   UNL     1      46.422 133.233  21.981  1.00  0.00    -0.010 A 
ATOM     11  C   UNL     1      45.944 132.596  20.825  1.00  0.00     0.059 A 
ATOM     12  C   UNL     1      44.031 131.858  24.610  1.00  0.00     0.048 C 
ATOM     13  F   UNL     1      43.098 130.728  22.168  1.00  0.00    -0.203 F 
BRANCH  10  14
ATOM     14  C   UNL     1      47.520 134.222  21.884  1.00  0.00     0.032 A 
ATOM     15  C   UNL     1      47.415 135.369  21.062  1.00  0.00     0.013 A 
ATOM     16  C   UNL     1      48.690 134.093  22.642  1.00  0.00     0.212 A 
ATOM     17  C   UNL     1      48.458 136.321  21.014  1.00  0.00     0.008 A 
ATOM     18  O   UNL     1      49.024 133.157  23.498  1.00  0.00    -0.403 OA
ATOM     19  C   UNL     1      49.692 135.016  22.594  1.00  0.00     0.249 A 
ATOM     20  C   UNL     1      49.619 136.149  21.791  1.00  0.00     0.083 A 
ATOM     21  C   UNL     1      50.214 133.492  23.970  1.00  0.00     0.521 A 
ATOM     22  N   UNL     1      50.671 134.649  23.432  1.00  0.00    -0.176 N 
ATOM     23  H   UNL     1      51.570 135.139  23.633  1.00  0.00     0.457 HD
ENDBRANCH  10  14
ENDBRANCH   5   6
ENDBRANCH   1   5
BRANCH   3  24
ATOM     24  C   UNL     1      44.040 131.560  16.678  1.00  0.00     0.042 A 
ATOM     25  C   UNL     1      45.357 131.383  17.128  1.00  0.00     0.028 A 
ATOM     26  C   UNL     1      43.761 131.445  15.310  1.00  0.00     0.028 A 
ATOM     27  C   UNL     1      46.363 131.009  16.232  1.00  0.00     0.034 A 
ATOM     28  C   UNL     1      44.766 131.078  14.411  1.00  0.00     0.034 A 
ATOM     29  C   UNL     1      46.073 130.835  14.867  1.00  0.00     0.104 A 
BRANCH  29  30
ATOM     30  N   UNL     1      47.091 130.386  13.953  1.00  0.00    -0.130 N 
ATOM     31  C   UNL     1      47.442 130.978  12.793  1.00  0.00     0.163 A 
ATOM     32  N   UNL     1      47.864 129.327  14.141  1.00  0.00    -0.126 N 
ATOM     33  C   UNL     1      48.477 130.260  12.226  1.00  0.00     0.097 A 
ATOM     34  C   UNL     1      48.715 129.222  13.106  1.00  0.00     0.335 A 
ATOM     35  H   UNL     1      47.808 128.670  14.951  1.00  0.00     0.488 HD
ENDBRANCH  29  30
ENDBRANCH   3  24
TORSDOF 5
ENDMDL
MODEL 3
REMARK VINA RESULT:      -5.6      1.745      2.325
REMARK SMILES Cc1cc(-c2cccc3[nH+]coc23)cc(OC(=S)Nc2ccc(-n3ccc[nH+]3)cc2)c1F
REMARK SMILES IDX 17 1 18 2 19 3 16 5 15 6 2 7 3 8 31 9 4 10 14 11 1 12 32 13
REMARK SMILES IDX 5 14 6 15 13 16 7 17 12 18 9 19 8 20 11 21 10 22 20 24 21 25
REMARK SMILES IDX 30 26 22 27 29 28 23 29 24 30 25 31 28 32 26 33 27 34
REMARK H PARENT 19 4 10 23 28 35
ROOT
ATOM      1  C   UNL     1      42.841 131.068  23.718  1.00  0.00     0.266 C 
ATOM      2  S   UNL     1      42.451 132.379  24.613  1.00  0.00    -0.018 S 
ATOM      3  N   UNL     1      43.284 129.873  24.389  1.00  0.00    -0.316 N 
ATOM      4  H   UNL     1      43.745 129.982  25.322  1.00  0.00     0.171 HD
ENDROOT
BRANCH   1   5
ATOM      5  O   UNL     1      42.708 131.158  22.321  1.00  0.00    -0.429 OA
BRANCH   5   6
ATOM      6  C   UNL     1      43.756 131.349  21.409  1.00  0.00     0.166 A 
ATOM      7  C   UNL     1      46.011 132.159  20.988  1.00  0.00    -0.011 A 
ATOM      8  C   UNL     1      45.811 131.983  19.611  1.00  0.00     0.015 A 
ATOM      9  C   UNL     1      44.974 131.851  21.883  1.00  0.00     0.168 A 
ATOM     10  C   UNL     1      44.608 131.443  19.128  1.00  0.00    -0.010 A 
ATOM     11  C   UNL     1      43.605 131.078  20.040  1.00  0.00     0.059 A 
ATOM     12  C   UNL     1      47.289 132.770  21.489  1.00  0.00     0.048 C 
ATOM     13  F   UNL     1      45.123 132.094  23.211  1.00  0.00    -0.203 F 
BRANCH  10  14
ATOM     14  C   UNL     1      44.364 131.329  17.672  1.00  0.00     0.032 A 
ATOM     15  C   UNL     1      43.216 131.892  17.065  1.00  0.00     0.013 A 
ATOM     16  C   UNL     1      45.287 130.706  16.822  1.00  0.00     0.212 A 
ATOM     17  C   UNL     1      43.023 131.807  15.667  1.00  0.00     0.008 A 
ATOM     18  O   UNL     1      46.433 130.141  17.116  1.00  0.00    -0.403 OA
ATOM     19  C   UNL     1      45.096 130.629  15.474  1.00  0.00     0.249 A 
ATOM     20  C   UNL     1      43.975 131.168  14.852  1.00  0.00     0.083 A 
ATOM     21  C   UNL     1      46.943 129.718  15.970  1.00  0.00     0.521 A 
ATOM     22  N   UNL     1      46.141 130.003  14.916  1.00  0.00    -0.176 N 
ATOM     23  H   UNL     1      46.305 129.790  13.907  1.00  0.00     0.457 HD
ENDBRANCH  10  14
ENDBRANCH   5   6
ENDBRANCH   1   5
BRANCH   3  24
ATOM     24  C   UNL     1      43.197 128.549  23.838  1.00  0.00     0.042 A 
ATOM     25  C   UNL     1      44.311 127.928  23.255  1.00  0.00     0.028 A 
ATOM     26  C   UNL     1      41.992 127.842  23.940  1.00  0.00     0.028 A 
ATOM     27  C   UNL     1      44.244 126.589  22.859  1.00  0.00     0.034 A 
ATOM     28  C   UNL     1      41.921 126.505  23.539  1.00  0.00     0.034 A 
ATOM     29  C   UNL     1      43.053 125.858  23.015  1.00  0.00     0.104 A 
BRANCH  29  30
ATOM     30  N   UNL     1      43.000 124.462  22.671  1.00  0.00    -0.130 N 
ATOM     31  C   UNL     1      41.971 123.620  22.902  1.00  0.00     0.163 A 
ATOM     32  N   UNL     1      43.957 123.801  22.038  1.00  0.00    -0.126 N 
ATOM     33  C   UNL     1      42.295 122.376  22.395  1.00  0.00     0.097 A 
ATOM     34  C   UNL     1      43.559 122.529  21.858  1.00  0.00     0.335 A 
ATOM     35  H   UNL     1      44.877 124.197  21.743  1.00  0.00     0.488 HD
ENDBRANCH  29  30
ENDBRANCH   3  24
TORSDOF 5
ENDMDL
MODEL 4
REMARK VINA RESULT:      -3.7      4.333      8.623
REMARK SMILES Cc1cc(-c2cccc3[nH+]coc23)cc(OC(=S)Nc2ccc(-n3ccc[nH+]3)cc2)c1F
REMARK SMILES IDX 17 1 18 2 19 3 16 5 15 6 2 7 3 8 31 9 4 10 14 11 1 12 32 13
REMARK SMILES IDX 5 14 6 15 13 16 7 17 12 18 9 19 8 20 11 21 10 22 20 24 21 25
REMARK SMILES IDX 30 26 22 27 29 28 23 29 24 30 25 31 28 32 26 33 27 34
REMARK H PARENT 19 4 10 23 28 35
ROOT
ATOM      1  C   UNL     1      43.285 132.193  19.057  1.00  0.00     0.266 C 
ATOM      2  S   UNL     1      42.399 133.300  19.869  1.00  0.00    -0.018 S 
ATOM      3  N   UNL     1      43.047 132.007  17.648  1.00  0.00    -0.316 N 
ATOM      4  H   UNL     1      42.094 132.234  17.282  1.00  0.00     0.171 HD
ENDROOT
BRANCH   1   5
ATOM      5  O   UNL     1      44.261 131.475  19.770  1.00  0.00    -0.429 OA
BRANCH   5   6
ATOM      6  C   UNL     1      44.760 131.808  21.037  1.00  0.00     0.166 A 
ATOM      7  C   UNL     1      44.377 131.978  23.434  1.00  0.00    -0.011 A 
ATOM      8  C   UNL     1      45.591 132.667  23.573  1.00  0.00     0.015 A 
ATOM      9  C   UNL     1      43.960 131.561  22.159  1.00  0.00     0.168 A 
ATOM     10  C   UNL     1      46.420 132.884  22.460  1.00  0.00    -0.010 A 
ATOM     11  C   UNL     1      46.021 132.403  21.204  1.00  0.00     0.059 A 
ATOM     12  C   UNL     1      43.483 131.783  24.625  1.00  0.00     0.048 C 
ATOM     13  F   UNL     1      42.750 130.967  21.996  1.00  0.00    -0.203 F 
BRANCH  10  14
ATOM     14  C   UNL     1      47.663 133.678  22.591  1.00  0.00     0.032 A 
ATOM     15  C   UNL     1      48.723 133.264  23.433  1.00  0.00     0.013 A 
ATOM     16  C   UNL     1      47.866 134.847  21.848  1.00  0.00     0.212 A 
ATOM     17  C   UNL     1      49.917 134.015  23.512  1.00  0.00     0.008 A 
ATOM     18  O   UNL     1      47.071 135.426  20.980  1.00  0.00    -0.403 OA
ATOM     19  C   UNL     1      49.022 135.567  21.927  1.00  0.00     0.249 A 
ATOM     20  C   UNL     1      50.077 135.186  22.749  1.00  0.00     0.083 A 
ATOM     21  C   UNL     1      47.721 136.488  20.531  1.00  0.00     0.521 A 
ATOM     22  N   UNL     1      48.947 136.615  21.096  1.00  0.00    -0.176 N 
ATOM     23  H   UNL     1      49.663 137.353  20.917  1.00  0.00     0.457 HD
ENDBRANCH  10  14
ENDBRANCH   5   6
ENDBRANCH   1   5
BRANCH   3  24
ATOM     24  C   UNL     1      44.007 131.473  16.723  1.00  0.00     0.042 A 
ATOM     25  C   UNL     1      43.825 131.588  15.337  1.00  0.00     0.028 A 
ATOM     26  C   UNL     1      45.176 130.878  17.214  1.00  0.00     0.028 A 
ATOM     27  C   UNL     1      44.838 131.193  14.458  1.00  0.00     0.034 A 
ATOM     28  C   UNL     1      46.188 130.476  16.338  1.00  0.00     0.034 A 
ATOM     29  C   UNL     1      46.038 130.651  14.951  1.00  0.00     0.104 A 
BRANCH  29  30
ATOM     30  N   UNL     1      47.110 130.305  14.055  1.00  0.00    -0.130 N 
ATOM     31  C   UNL     1      47.438 130.949  12.915  1.00  0.00     0.163 A 
ATOM     32  N   UNL     1      47.962 129.308  14.241  1.00  0.00    -0.126 N 
ATOM     33  C   UNL     1      48.541 130.330  12.360  1.00  0.00     0.097 A 
ATOM     34  C   UNL     1      48.842 129.295  13.225  1.00  0.00     0.335 A 
ATOM     35  H   UNL     1      47.941 128.631  15.036  1.00  0.00     0.488 HD
ENDBRANCH  29  30
ENDBRANCH   3  24
TORSDOF 5
ENDMDL
MODEL 5
REMARK VINA RESULT:      -3.4      3.716      7.010
REMARK SMILES Cc1cc(-c2cccc3[nH+]coc23)cc(OC(=S)Nc2ccc(-n3ccc[nH+]3)cc2)c1F
REMARK SMILES IDX 17 1 18 2 19 3 16 5 15 6 2 7 3 8 31 9 4 10 14 11 1 12 32 13
REMARK SMILES IDX 5 14 6 15 13 16 7 17 12 18 9 19 8 20 11 21 10 22 20 24 21 25
REMARK SMILES IDX 30 26 22 27 29 28 23 29 24 30 25 31 28 32 26 33 27 34
REMARK H PARENT 19 4 10 23 28 35
ROOT
ATOM      1  C   UNL     1      44.579 130.888  22.712  1.00  0.00     0.266 C 
ATOM      2  S   UNL     1      43.689 129.719  23.429  1.00  0.00    -0.018 S 
ATOM      3  N   UNL     1      45.033 132.002  23.504  1.00  0.00    -0.316 N 
ATOM      4  H   UNL     1      44.467 132.265  24.343  1.00  0.00     0.171 HD
ENDROOT
BRANCH   1   5
ATOM      5  O   UNL     1      44.880 130.745  21.346  1.00  0.00    -0.429 OA
BRANCH   5   6
ATOM      6  C   UNL     1      44.169 131.324  20.285  1.00  0.00     0.166 A 
ATOM      7  C   UNL     1      42.177 132.494  19.524  1.00  0.00    -0.011 A 
ATOM      8  C   UNL     1      42.575 132.294  18.194  1.00  0.00     0.015 A 
ATOM      9  C   UNL     1      42.974 131.995  20.567  1.00  0.00     0.168 A 
ATOM     10  C   UNL     1      43.792 131.657  17.901  1.00  0.00    -0.010 A 
ATOM     11  C   UNL     1      44.609 131.223  18.956  1.00  0.00     0.059 A 
ATOM     12  C   UNL     1      40.856 133.145  19.823  1.00  0.00     0.048 C 
ATOM     13  F   UNL     1      42.561 132.108  21.856  1.00  0.00    -0.203 F 
BRANCH  10  14
ATOM     14  C   UNL     1      44.176 131.376  16.499  1.00  0.00     0.032 A 
ATOM     15  C   UNL     1      43.452 131.914  15.409  1.00  0.00     0.013 A 
ATOM     16  C   UNL     1      45.305 130.607  16.190  1.00  0.00     0.212 A 
ATOM     17  C   UNL     1      43.860 131.667  14.078  1.00  0.00     0.008 A 
ATOM     18  O   UNL     1      46.160 130.028  16.999  1.00  0.00    -0.403 OA
ATOM     19  C   UNL     1      45.695 130.374  14.905  1.00  0.00     0.249 A 
ATOM     20  C   UNL     1      45.000 130.885  13.814  1.00  0.00     0.083 A 
ATOM     21  C   UNL     1      47.062 129.442  16.228  1.00  0.00     0.521 A 
ATOM     22  N   UNL     1      46.812 129.633  14.910  1.00  0.00    -0.176 N 
ATOM     23  H   UNL     1      47.365 129.288  14.094  1.00  0.00     0.457 HD
ENDBRANCH  10  14
ENDBRANCH   5   6
ENDBRANCH   1   5
BRANCH   3  24
ATOM     24  C   UNL     1      46.172 132.817  23.186  1.00  0.00     0.042 A 
ATOM     25  C   UNL     1      46.731 132.819  21.899  1.00  0.00     0.028 A 
ATOM     26  C   UNL     1      46.699 133.672  24.163  1.00  0.00     0.028 A 
ATOM     27  C   UNL     1      47.743 133.726  21.571  1.00  0.00     0.034 A 
ATOM     28  C   UNL     1      47.715 134.574  23.840  1.00  0.00     0.034 A 
ATOM     29  C   UNL     1      48.233 134.626  22.535  1.00  0.00     0.104 A 
BRANCH  29  30
ATOM     30  N   UNL     1      49.227 135.605  22.184  1.00  0.00    -0.130 N 
ATOM     31  C   UNL     1      49.213 136.407  21.098  1.00  0.00     0.163 A 
ATOM     32  N   UNL     1      50.300 135.888  22.907  1.00  0.00    -0.126 N 
ATOM     33  C   UNL     1      50.324 137.226  21.139  1.00  0.00     0.097 A 
ATOM     34  C   UNL     1      50.989 136.867  22.296  1.00  0.00     0.335 A 
ATOM     35  H   UNL     1      50.576 135.415  23.796  1.00  0.00     0.488 HD
ENDBRANCH  29  30
ENDBRANCH   3  24
TORSDOF 5
ENDMDL


