REMARK SMILES Cc1ccc2ccc(-c3ccc[nH+]c3F)[nH+]c2c1F
REMARK SMILES IDX 1 1 2 2 3 3 4 4 5 5 6 6 7 7 8 8 16 9 17 10 18 11 19 12 9 14
REMARK SMILES IDX 10 15 14 16 11 17 13 18 12 19 15 20
REMARK H PARENT 16 13 13 21
ROOT
ATOM      1  C   UNL     1       4.347   0.909   2.519  1.00  0.00     0.048 C 
ATOM      2  C   UNL     1       3.520   0.407   1.371  1.00  0.00    -0.008 A 
ATOM      3  C   UNL     1       4.127  -0.281   0.309  1.00  0.00     0.007 A 
ATOM      4  C   UNL     1       3.360  -0.767  -0.751  1.00  0.00     0.015 A 
ATOM      5  C   UNL     1       1.971  -0.577  -0.760  1.00  0.00     0.050 A 
ATOM      6  C   UNL     1       1.188  -1.058  -1.813  1.00  0.00     0.022 A 
ATOM      7  C   UNL     1      -0.191  -0.861  -1.800  1.00  0.00     0.081 A 
ATOM      8  C   UNL     1      -0.789  -0.177  -0.731  1.00  0.00     0.220 A 
ATOM      9  N   UNL     1      -0.011   0.282   0.296  1.00  0.00    -0.201 N 
ATOM     10  C   UNL     1       1.344   0.104   0.308  1.00  0.00     0.247 A 
ATOM     11  C   UNL     1       2.126   0.591   1.373  1.00  0.00     0.197 A 
ATOM     12  F   UNL     1       1.535   1.239   2.411  1.00  0.00    -0.199 F 
ATOM     13  H   UNL     1      -0.468   0.799   1.081  1.00  0.00     0.454 HD
ENDROOT
BRANCH   8  14
ATOM     14  C   UNL     1      -2.258   0.024  -0.698  1.00  0.00     0.150 A 
ATOM     15  C   UNL     1      -2.976  -0.234   0.480  1.00  0.00     0.031 A 
ATOM     16  C   UNL     1      -2.964   0.481  -1.828  1.00  0.00     0.371 A 
ATOM     17  C   UNL     1      -4.358  -0.050   0.513  1.00  0.00     0.072 A 
ATOM     18  N   UNL     1      -4.314   0.654  -1.768  1.00  0.00    -0.186 N 
ATOM     19  C   UNL     1      -5.016   0.397  -0.632  1.00  0.00     0.309 A 
ATOM     20  F   UNL     1      -2.308   0.790  -2.975  1.00  0.00    -0.135 F 
ATOM     21  H   UNL     1      -4.823   0.997  -2.613  1.00  0.00     0.456 HD
ENDBRANCH   8  14
TORSDOF 1


