REMARK SMILES c1cc2cc(CN3CC[C@H]4CCC[C@H]43)ccc2[nH]1
REMARK SMILES IDX 1 1 2 2 3 3 4 4 5 5 15 6 16 7 17 8 18 9 6 11 7 12 8 13 14 14
REMARK SMILES IDX 9 15 13 16 10 17 12 18 11 19
REMARK H PARENT 18 10
ROOT
ATOM      1  C   UNL     1       0.464  -6.449  -1.958  1.00  0.00     0.083 A 
ATOM      2  C   UNL     1       0.629  -5.558  -0.902  1.00  0.00     0.028 A 
ATOM      3  C   UNL     1       0.576  -4.307  -1.476  1.00  0.00    -0.000 A 
ATOM      4  C   UNL     1       0.679  -3.041  -0.903  1.00  0.00     0.015 A 
ATOM      5  C   UNL     1       0.579  -1.918  -1.755  1.00  0.00    -0.033 A 
ATOM      6  C   UNL     1       0.381  -2.105  -3.147  1.00  0.00     0.007 A 
ATOM      7  C   UNL     1       0.282  -3.398  -3.691  1.00  0.00     0.027 A 
ATOM      8  C   UNL     1       0.385  -4.480  -2.820  1.00  0.00     0.045 A 
ATOM      9  N   UNL     1       0.315  -5.786  -3.127  1.00  0.00    -0.361 N 
ATOM     10  H   UNL     1       0.173  -6.206  -4.073  1.00  0.00     0.166 HD
ENDROOT
BRANCH   5  11
ATOM     11  C   UNL     1       0.658  -0.524  -1.191  1.00  0.00     0.120 C 
BRANCH  11  12
ATOM     12  N   UNL     1      -0.623   0.186  -1.389  1.00  0.00    -0.296 NA
ATOM     13  C   UNL     1      -0.497   1.618  -1.074  1.00  0.00     0.085 C 
ATOM     14  C   UNL     1      -1.693  -0.347  -0.517  1.00  0.00     0.060 C 
ATOM     15  C   UNL     1      -1.069   1.840   0.312  1.00  0.00     0.021 C 
ATOM     16  C   UNL     1      -2.938  -0.679  -1.344  1.00  0.00     0.019 C 
ATOM     17  C   UNL     1      -2.097   0.738   0.477  1.00  0.00     0.007 C 
ATOM     18  C   UNL     1      -4.108  -0.035  -0.621  1.00  0.00     0.002 C 
ATOM     19  C   UNL     1      -3.518   1.163   0.098  1.00  0.00     0.005 C 
ENDBRANCH  11  12
ENDBRANCH   5  11
TORSDOF 2


