MODEL 1
REMARK VINA RESULT:      -6.8      0.000      0.000
REMARK SMILES CC[C@H](O)C(=O)[N@H+]1C[C@H](c2ccc3cc[nH]c3c2)[C@H](C)C[C@H]1F
REMARK SMILES IDX 5 1 6 2 3 3 2 4 1 5 4 6 7 8 8 9 22 10 9 11 21 12 19 13 23 15
REMARK SMILES IDX 20 16 10 17 11 18 18 19 12 20 17 21 13 22 16 23 14 24 15 25
REMARK H PARENT 4 7 7 14 16 26
ROOT
ATOM      1  C   UNL     1      44.851 130.689  21.608  1.00  0.00     0.343 C 
ATOM      2  O   UNL     1      45.280 129.691  21.047  1.00  0.00    -0.228 OA
ENDROOT
BRANCH   1   3
ATOM      3  C   UNL     1      44.721 130.682  23.120  1.00  0.00     0.243 C 
BRANCH   3   4
ATOM      4  C   UNL     1      43.518 129.836  23.573  1.00  0.00     0.043 C 
ATOM      5  C   UNL     1      43.926 128.539  24.275  1.00  0.00     0.007 C 
ENDBRANCH   3   4
BRANCH   3   6
ATOM      6  O   UNL     1      44.596 131.991  23.618  1.00  0.00    -0.379 OA
ATOM      7  H   UNL     1      43.734 132.347  23.276  1.00  0.00     0.211 HD
ENDBRANCH   3   6
ENDBRANCH   1   3
BRANCH   1   8
ATOM      8  N   UNL     1      44.484 131.873  20.843  1.00  0.00    -0.240 N 
ATOM      9  C   UNL     1      45.176 131.944  19.533  1.00  0.00     0.281 C 
ATOM     10  C   UNL     1      43.016 132.052  20.725  1.00  0.00     0.374 C 
ATOM     11  C   UNL     1      44.569 130.998  18.466  1.00  0.00     0.078 C 
ATOM     12  C   UNL     1      42.364 131.116  19.689  1.00  0.00     0.107 C 
ATOM     13  C   UNL     1      43.044 131.208  18.310  1.00  0.00     0.008 C 
ATOM     14  H   UNL     1      44.826 132.703  21.385  1.00  0.00     0.359 HD
ATOM     15  F   UNL     1      42.408 131.864  21.958  1.00  0.00    -0.185 F 
ATOM     16  C   UNL     1      42.666 132.513  17.583  1.00  0.00     0.009 C 
BRANCH  11  17
ATOM     17  C   UNL     1      45.300 131.031  17.129  1.00  0.00    -0.037 A 
ATOM     18  C   UNL     1      45.410 132.269  16.438  1.00  0.00     0.005 A 
ATOM     19  C   UNL     1      45.932 129.882  16.585  1.00  0.00     0.031 A 
ATOM     20  C   UNL     1      46.109 132.363  15.222  1.00  0.00     0.010 A 
ATOM     21  C   UNL     1      46.614 130.012  15.377  1.00  0.00     0.046 A 
ATOM     22  C   UNL     1      46.697 131.209  14.721  1.00  0.00    -0.001 A 
ATOM     23  N   UNL     1      47.272 129.053  14.705  1.00  0.00    -0.361 N 
ATOM     24  C   UNL     1      47.440 131.005  13.579  1.00  0.00     0.028 A 
ATOM     25  C   UNL     1      47.779 129.655  13.604  1.00  0.00     0.083 A 
ATOM     26  H   UNL     1      47.375 128.049  14.972  1.00  0.00     0.166 HD
ENDBRANCH  11  17
ENDBRANCH   1   8
TORSDOF 5
ENDMDL
MODEL 2
REMARK VINA RESULT:      -6.7      1.078      1.303
REMARK SMILES CC[C@H](O)C(=O)[N@H+]1C[C@H](c2ccc3cc[nH]c3c2)[C@H](C)C[C@H]1F
REMARK SMILES IDX 5 1 6 2 3 3 2 4 1 5 4 6 7 8 8 9 22 10 9 11 21 12 19 13 23 15
REMARK SMILES IDX 20 16 10 17 11 18 18 19 12 20 17 21 13 22 16 23 14 24 15 25
REMARK H PARENT 4 7 7 14 16 26
ROOT
ATOM      1  C   UNL     1      44.461 131.176  21.629  1.00  0.00     0.343 C 
ATOM      2  O   UNL     1      45.506 130.566  21.454  1.00  0.00    -0.228 OA
ENDROOT
BRANCH   1   3
ATOM      3  C   UNL     1      43.572 130.789  22.798  1.00  0.00     0.243 C 
BRANCH   3   4
ATOM      4  C   UNL     1      44.271 131.057  24.143  1.00  0.00     0.043 C 
ATOM      5  C   UNL     1      44.242 132.531  24.552  1.00  0.00     0.007 C 
ENDBRANCH   3   4
BRANCH   3   6
ATOM      6  O   UNL     1      43.201 129.435  22.716  1.00  0.00    -0.379 OA
ATOM      7  H   UNL     1      44.040 128.905  22.756  1.00  0.00     0.211 HD
ENDBRANCH   3   6
ENDBRANCH   1   3
BRANCH   1   8
ATOM      8  N   UNL     1      44.079 132.269  20.745  1.00  0.00    -0.240 N 
ATOM      9  C   UNL     1      44.730 132.180  19.414  1.00  0.00     0.281 C 
ATOM     10  C   UNL     1      42.609 132.449  20.652  1.00  0.00     0.374 C 
ATOM     11  C   UNL     1      44.081 131.125  18.484  1.00  0.00     0.078 C 
ATOM     12  C   UNL     1      41.917 131.408  19.752  1.00  0.00     0.107 C 
ATOM     13  C   UNL     1      42.553 131.332  18.351  1.00  0.00     0.008 C 
ATOM     14  H   UNL     1      44.444 133.151  21.177  1.00  0.00     0.359 HD
ATOM     15  F   UNL     1      42.039 132.411  21.917  1.00  0.00    -0.185 F 
ATOM     16  C   UNL     1      42.163 132.550  17.490  1.00  0.00     0.009 C 
BRANCH  11  17
ATOM     17  C   UNL     1      44.770 130.996  17.130  1.00  0.00    -0.037 A 
ATOM     18  C   UNL     1      44.299 131.783  16.043  1.00  0.00     0.005 A 
ATOM     19  C   UNL     1      45.907 130.167  16.935  1.00  0.00     0.031 A 
ATOM     20  C   UNL     1      44.923 131.733  14.785  1.00  0.00     0.010 A 
ATOM     21  C   UNL     1      46.498 130.141  15.675  1.00  0.00     0.046 A 
ATOM     22  C   UNL     1      46.022 130.896  14.639  1.00  0.00    -0.001 A 
ATOM     23  N   UNL     1      47.571 129.430  15.292  1.00  0.00    -0.361 N 
ATOM     24  C   UNL     1      46.826 130.655  13.546  1.00  0.00     0.028 A 
ATOM     25  C   UNL     1      47.776 129.739  13.991  1.00  0.00     0.083 A 
ATOM     26  H   UNL     1      48.136 128.772  15.874  1.00  0.00     0.166 HD
ENDBRANCH  11  17
ENDBRANCH   1   8
TORSDOF 5
ENDMDL
MODEL 3
REMARK VINA RESULT:      -6.6      0.881      1.362
REMARK SMILES CC[C@H](O)C(=O)[N@H+]1C[C@H](c2ccc3cc[nH]c3c2)[C@H](C)C[C@H]1F
REMARK SMILES IDX 5 1 6 2 3 3 2 4 1 5 4 6 7 8 8 9 22 10 9 11 21 12 19 13 23 15
REMARK SMILES IDX 20 16 10 17 11 18 18 19 12 20 17 21 13 22 16 23 14 24 15 25
REMARK H PARENT 4 7 7 14 16 26
ROOT
ATOM      1  C   UNL     1      44.543 131.426  21.674  1.00  0.00     0.343 C 
ATOM      2  O   UNL     1      44.579 131.667  22.872  1.00  0.00    -0.228 OA
ENDROOT
BRANCH   1   3
ATOM      3  C   UNL     1      44.973 130.053  21.190  1.00  0.00     0.243 C 
BRANCH   3   4
ATOM      4  C   UNL     1      44.794 128.992  22.290  1.00  0.00     0.043 C 
ATOM      5  C   UNL     1      45.316 127.612  21.885  1.00  0.00     0.007 C 
ENDBRANCH   3   4
BRANCH   3   6
ATOM      6  O   UNL     1      46.312 130.071  20.761  1.00  0.00    -0.379 OA
ATOM      7  H   UNL     1      46.537 129.143  20.485  1.00  0.00     0.211 HD
ENDBRANCH   3   6
ENDBRANCH   1   3
BRANCH   1   8
ATOM      8  N   UNL     1      44.080 132.430  20.725  1.00  0.00    -0.240 N 
ATOM      9  C   UNL     1      44.812 132.377  19.436  1.00  0.00     0.281 C 
ATOM     10  C   UNL     1      42.607 132.420  20.548  1.00  0.00     0.374 C 
ATOM     11  C   UNL     1      44.355 131.216  18.517  1.00  0.00     0.078 C 
ATOM     12  C   UNL     1      42.103 131.268  19.657  1.00  0.00     0.107 C 
ATOM     13  C   UNL     1      42.823 131.225  18.296  1.00  0.00     0.008 C 
ATOM     14  H   UNL     1      44.307 133.366  21.138  1.00  0.00     0.359 HD
ATOM     15  F   UNL     1      41.974 132.355  21.781  1.00  0.00    -0.185 F 
ATOM     16  C   UNL     1      42.335 132.352  17.365  1.00  0.00     0.009 C 
BRANCH  11  17
ATOM     17  C   UNL     1      45.131 131.127  17.209  1.00  0.00    -0.037 A 
ATOM     18  C   UNL     1      45.424 132.327  16.503  1.00  0.00     0.005 A 
ATOM     19  C   UNL     1      45.628 129.896  16.706  1.00  0.00     0.031 A 
ATOM     20  C   UNL     1      46.172 132.306  15.312  1.00  0.00     0.010 A 
ATOM     21  C   UNL     1      46.363 129.913  15.523  1.00  0.00     0.046 A 
ATOM     22  C   UNL     1      46.623 131.075  14.852  1.00  0.00    -0.001 A 
ATOM     23  N   UNL     1      46.915 128.864  14.891  1.00  0.00    -0.361 N 
ATOM     24  C   UNL     1      47.374 130.754  13.742  1.00  0.00     0.028 A 
ATOM     25  C   UNL     1      47.534 129.372  13.801  1.00  0.00     0.083 A 
ATOM     26  H   UNL     1      46.878 127.860  15.178  1.00  0.00     0.166 HD
ENDBRANCH  11  17
ENDBRANCH   1   8
TORSDOF 5
ENDMDL
MODEL 4
REMARK VINA RESULT:      -6.4      1.510      1.874
REMARK SMILES CC[C@H](O)C(=O)[N@H+]1C[C@H](c2ccc3cc[nH]c3c2)[C@H](C)C[C@H]1F
REMARK SMILES IDX 5 1 6 2 3 3 2 4 1 5 4 6 7 8 8 9 22 10 9 11 21 12 19 13 23 15
REMARK SMILES IDX 20 16 10 17 11 18 18 19 12 20 17 21 13 22 16 23 14 24 15 25
REMARK H PARENT 4 7 7 14 16 26
ROOT
ATOM      1  C   UNL     1      44.948 129.174  22.292  1.00  0.00     0.343 C 
ATOM      2  O   UNL     1      45.306 128.243  21.583  1.00  0.00    -0.228 OA
ENDROOT
BRANCH   1   3
ATOM      3  C   UNL     1      44.194 128.870  23.574  1.00  0.00     0.243 C 
BRANCH   3   4
ATOM      4  C   UNL     1      44.950 127.845  24.437  1.00  0.00     0.043 C 
ATOM      5  C   UNL     1      44.435 126.415  24.261  1.00  0.00     0.007 C 
ENDBRANCH   3   4
BRANCH   3   6
ATOM      6  O   UNL     1      42.901 128.393  23.293  1.00  0.00    -0.379 OA
ATOM      7  H   UNL     1      42.508 129.010  22.620  1.00  0.00     0.211 HD
ENDBRANCH   3   6
ENDBRANCH   1   3
BRANCH   1   8
ATOM      8  N   UNL     1      45.254 130.550  21.926  1.00  0.00    -0.240 N 
ATOM      9  C   UNL     1      45.643 130.688  20.501  1.00  0.00     0.281 C 
ATOM     10  C   UNL     1      44.188 131.503  22.324  1.00  0.00     0.374 C 
ATOM     11  C   UNL     1      44.438 130.638  19.528  1.00  0.00     0.078 C 
ATOM     12  C   UNL     1      42.959 131.473  21.396  1.00  0.00     0.107 C 
ATOM     13  C   UNL     1      43.340 131.658  19.915  1.00  0.00     0.008 C 
ATOM     14  H   UNL     1      46.101 130.830  22.475  1.00  0.00     0.359 HD
ATOM     15  F   UNL     1      43.784 131.255  23.628  1.00  0.00    -0.185 F 
ATOM     16  C   UNL     1      43.716 133.121  19.610  1.00  0.00     0.009 C 
BRANCH  11  17
ATOM     17  C   UNL     1      44.830 130.735  18.059  1.00  0.00    -0.037 A 
ATOM     18  C   UNL     1      44.051 131.553  17.194  1.00  0.00     0.005 A 
ATOM     19  C   UNL     1      45.986 130.093  17.540  1.00  0.00     0.031 A 
ATOM     20  C   UNL     1      44.393 131.711  15.840  1.00  0.00     0.010 A 
ATOM     21  C   UNL     1      46.293 130.271  16.193  1.00  0.00     0.046 A 
ATOM     22  C   UNL     1      45.523 131.050  15.375  1.00  0.00    -0.001 A 
ATOM     23  N   UNL     1      47.333 129.753  15.519  1.00  0.00    -0.361 N 
ATOM     24  C   UNL     1      46.097 131.028  14.122  1.00  0.00     0.028 A 
ATOM     25  C   UNL     1      47.217 130.212  14.252  1.00  0.00     0.083 A 
ATOM     26  H   UNL     1      48.080 129.125  15.891  1.00  0.00     0.166 HD
ENDBRANCH  11  17
ENDBRANCH   1   8
TORSDOF 5
ENDMDL
MODEL 5
REMARK VINA RESULT:      -6.0      3.208      7.336
REMARK SMILES CC[C@H](O)C(=O)[N@H+]1C[C@H](c2ccc3cc[nH]c3c2)[C@H](C)C[C@H]1F
REMARK SMILES IDX 5 1 6 2 3 3 2 4 1 5 4 6 7 8 8 9 22 10 9 11 21 12 19 13 23 15
REMARK SMILES IDX 20 16 10 17 11 18 18 19 12 20 17 21 13 22 16 23 14 24 15 25
REMARK H PARENT 4 7 7 14 16 26
ROOT
ATOM      1  C   UNL     1      46.690 130.504  15.053  1.00  0.00     0.343 C 
ATOM      2  O   UNL     1      46.965 131.692  15.153  1.00  0.00    -0.228 OA
ENDROOT
BRANCH   1   3
ATOM      3  C   UNL     1      47.764 129.540  14.584  1.00  0.00     0.243 C 
BRANCH   3   4
ATOM      4  C   UNL     1      48.326 129.955  13.212  1.00  0.00     0.043 C 
ATOM      5  C   UNL     1      47.658 131.209  12.643  1.00  0.00     0.007 C 
ENDBRANCH   3   4
BRANCH   3   6
ATOM      6  O   UNL     1      47.265 128.228  14.516  1.00  0.00    -0.379 OA
ATOM      7  H   UNL     1      46.520 128.171  15.171  1.00  0.00     0.211 HD
ENDBRANCH   3   6
ENDBRANCH   1   3
BRANCH   1   8
ATOM      8  N   UNL     1      45.360 130.016  15.392  1.00  0.00    -0.240 N 
ATOM      9  C   UNL     1      45.145 129.913  16.856  1.00  0.00     0.281 C 
ATOM     10  C   UNL     1      44.278 130.766  14.706  1.00  0.00     0.374 C 
ATOM     11  C   UNL     1      44.878 131.280  17.535  1.00  0.00     0.078 C 
ATOM     12  C   UNL     1      43.991 132.143  15.335  1.00  0.00     0.107 C 
ATOM     13  C   UNL     1      43.724 132.049  16.849  1.00  0.00     0.008 C 
ATOM     14  H   UNL     1      45.295 129.035  15.029  1.00  0.00     0.359 HD
ATOM     15  F   UNL     1      44.584 130.931  13.362  1.00  0.00    -0.185 F 
ATOM     16  C   UNL     1      42.327 131.464  17.138  1.00  0.00     0.009 C 
BRANCH  11  17
ATOM     17  C   UNL     1      44.700 131.190  19.046  1.00  0.00    -0.037 A 
ATOM     18  C   UNL     1      45.736 130.606  19.825  1.00  0.00     0.005 A 
ATOM     19  C   UNL     1      43.565 131.731  19.707  1.00  0.00     0.031 A 
ATOM     20  C   UNL     1      45.641 130.535  21.225  1.00  0.00     0.010 A 
ATOM     21  C   UNL     1      43.504 131.641  21.095  1.00  0.00     0.046 A 
ATOM     22  C   UNL     1      44.505 131.063  21.826  1.00  0.00    -0.001 A 
ATOM     23  N   UNL     1      42.525 132.088  21.899  1.00  0.00    -0.361 N 
ATOM     24  C   UNL     1      44.149 131.145  23.154  1.00  0.00     0.028 A 
ATOM     25  C   UNL     1      42.913 131.786  23.159  1.00  0.00     0.083 A 
ATOM     26  H   UNL     1      41.643 132.571  21.615  1.00  0.00     0.166 HD
ENDBRANCH  11  17
ENDBRANCH   1   8
TORSDOF 5
ENDMDL
MODEL 6
REMARK VINA RESULT:      -5.8      3.018      7.348
REMARK SMILES CC[C@H](O)C(=O)[N@H+]1C[C@H](c2ccc3cc[nH]c3c2)[C@H](C)C[C@H]1F
REMARK SMILES IDX 5 1 6 2 3 3 2 4 1 5 4 6 7 8 8 9 22 10 9 11 21 12 19 13 23 15
REMARK SMILES IDX 20 16 10 17 11 18 18 19 12 20 17 21 13 22 16 23 14 24 15 25
REMARK H PARENT 4 7 7 14 16 26
ROOT
ATOM      1  C   UNL     1      46.172 131.147  15.692  1.00  0.00     0.343 C 
ATOM      2  O   UNL     1      46.273 132.328  15.995  1.00  0.00    -0.228 OA
ENDROOT
BRANCH   1   3
ATOM      3  C   UNL     1      47.238 130.522  14.812  1.00  0.00     0.243 C 
BRANCH   3   4
ATOM      4  C   UNL     1      47.294 131.204  13.433  1.00  0.00     0.043 C 
ATOM      5  C   UNL     1      48.206 130.480  12.441  1.00  0.00     0.007 C 
ENDBRANCH   3   4
BRANCH   3   6
ATOM      6  O   UNL     1      47.011 129.144  14.652  1.00  0.00    -0.379 OA
ATOM      7  H   UNL     1      47.646 128.827  13.957  1.00  0.00     0.211 HD
ENDBRANCH   3   6
ENDBRANCH   1   3
BRANCH   1   8
ATOM      8  N   UNL     1      45.057 130.346  16.180  1.00  0.00    -0.240 N 
ATOM      9  C   UNL     1      44.983 130.313  17.661  1.00  0.00     0.281 C 
ATOM     10  C   UNL     1      43.764 130.713  15.550  1.00  0.00     0.374 C 
ATOM     11  C   UNL     1      44.395 131.607  18.276  1.00  0.00     0.078 C 
ATOM     12  C   UNL     1      43.151 132.008  16.117  1.00  0.00     0.107 C 
ATOM     13  C   UNL     1      43.027 131.974  17.652  1.00  0.00     0.008 C 
ATOM     14  H   UNL     1      45.242 129.358  15.886  1.00  0.00     0.359 HD
ATOM     15  F   UNL     1      43.917 130.842  14.177  1.00  0.00    -0.185 F 
ATOM     16  C   UNL     1      41.872 131.057  18.101  1.00  0.00     0.009 C 
BRANCH  11  17
ATOM     17  C   UNL     1      44.355 131.600  19.799  1.00  0.00    -0.037 A 
ATOM     18  C   UNL     1      45.583 131.601  20.517  1.00  0.00     0.005 A 
ATOM     19  C   UNL     1      43.135 131.660  20.525  1.00  0.00     0.031 A 
ATOM     20  C   UNL     1      45.603 131.636  21.922  1.00  0.00     0.010 A 
ATOM     21  C   UNL     1      43.194 131.692  21.916  1.00  0.00     0.046 A 
ATOM     22  C   UNL     1      44.385 131.678  22.588  1.00  0.00    -0.001 A 
ATOM     23  N   UNL     1      42.163 131.749  22.774  1.00  0.00    -0.361 N 
ATOM     24  C   UNL     1      44.101 131.729  23.935  1.00  0.00     0.028 A 
ATOM     25  C   UNL     1      42.711 131.772  24.011  1.00  0.00     0.083 A 
ATOM     26  H   UNL     1      41.145 131.773  22.541  1.00  0.00     0.166 HD
ENDBRANCH  11  17
ENDBRANCH   1   8
TORSDOF 5
ENDMDL
MODEL 7
REMARK VINA RESULT:      -5.6      1.024      1.744
REMARK SMILES CC[C@H](O)C(=O)[N@H+]1C[C@H](c2ccc3cc[nH]c3c2)[C@H](C)C[C@H]1F
REMARK SMILES IDX 5 1 6 2 3 3 2 4 1 5 4 6 7 8 8 9 22 10 9 11 21 12 19 13 23 15
REMARK SMILES IDX 20 16 10 17 11 18 18 19 12 20 17 21 13 22 16 23 14 24 15 25
REMARK H PARENT 4 7 7 14 16 26
ROOT
ATOM      1  C   UNL     1      44.470 131.690  21.595  1.00  0.00     0.343 C 
ATOM      2  O   UNL     1      45.097 132.085  22.568  1.00  0.00    -0.228 OA
ENDROOT
BRANCH   1   3
ATOM      3  C   UNL     1      44.027 130.239  21.548  1.00  0.00     0.243 C 
BRANCH   3   4
ATOM      4  C   UNL     1      43.127 129.891  22.748  1.00  0.00     0.043 C 
ATOM      5  C   UNL     1      43.744 128.845  23.678  1.00  0.00     0.007 C 
ENDBRANCH   3   4
BRANCH   3   6
ATOM      6  O   UNL     1      45.138 129.378  21.523  1.00  0.00    -0.379 OA
ATOM      7  H   UNL     1      45.945 129.946  21.636  1.00  0.00     0.211 HD
ENDBRANCH   3   6
ENDBRANCH   1   3
BRANCH   1   8
ATOM      8  N   UNL     1      44.137 132.597  20.505  1.00  0.00    -0.240 N 
ATOM      9  C   UNL     1      44.905 132.310  19.269  1.00  0.00     0.281 C 
ATOM     10  C   UNL     1      42.676 132.695  20.262  1.00  0.00     0.374 C 
ATOM     11  C   UNL     1      44.372 131.084  18.486  1.00  0.00     0.078 C 
ATOM     12  C   UNL     1      42.097 131.485  19.503  1.00  0.00     0.107 C 
ATOM     13  C   UNL     1      42.856 131.199  18.194  1.00  0.00     0.008 C 
ATOM     14  H   UNL     1      44.437 133.555  20.805  1.00  0.00     0.359 HD
ATOM     15  F   UNL     1      41.998 132.849  21.463  1.00  0.00    -0.185 F 
ATOM     16  C   UNL     1      42.509 132.232  17.105  1.00  0.00     0.009 C 
BRANCH  11  17
ATOM     17  C   UNL     1      45.181 130.754  17.237  1.00  0.00    -0.037 A 
ATOM     18  C   UNL     1      45.384 129.389  16.892  1.00  0.00     0.005 A 
ATOM     19  C   UNL     1      45.680 131.763  16.371  1.00  0.00     0.031 A 
ATOM     20  C   UNL     1      46.087 129.030  15.729  1.00  0.00     0.010 A 
ATOM     21  C   UNL     1      46.374 131.370  15.229  1.00  0.00     0.046 A 
ATOM     22  C   UNL     1      46.570 130.052  14.922  1.00  0.00    -0.001 A 
ATOM     23  N   UNL     1      46.919 132.164  14.292  1.00  0.00    -0.361 N 
ATOM     24  C   UNL     1      47.272 130.003  13.737  1.00  0.00     0.028 A 
ATOM     25  C   UNL     1      47.470 131.333  13.378  1.00  0.00     0.083 A 
ATOM     26  H   UNL     1      46.919 133.208  14.269  1.00  0.00     0.166 HD
ENDBRANCH  11  17
ENDBRANCH   1   8
TORSDOF 5
ENDMDL
MODEL 8
REMARK VINA RESULT:      -5.6      1.912      2.799
REMARK SMILES CC[C@H](O)C(=O)[N@H+]1C[C@H](c2ccc3cc[nH]c3c2)[C@H](C)C[C@H]1F
REMARK SMILES IDX 5 1 6 2 3 3 2 4 1 5 4 6 7 8 8 9 22 10 9 11 21 12 19 13 23 15
REMARK SMILES IDX 20 16 10 17 11 18 18 19 12 20 17 21 13 22 16 23 14 24 15 25
REMARK H PARENT 4 7 7 14 16 26
ROOT
ATOM      1  C   UNL     1      43.820 129.164  23.005  1.00  0.00     0.343 C 
ATOM      2  O   UNL     1      42.730 129.298  22.465  1.00  0.00    -0.228 OA
ENDROOT
BRANCH   1   3
ATOM      3  C   UNL     1      44.012 128.028  23.993  1.00  0.00     0.243 C 
BRANCH   3   4
ATOM      4  C   UNL     1      45.189 127.125  23.582  1.00  0.00     0.043 C 
ATOM      5  C   UNL     1      45.030 126.531  22.181  1.00  0.00     0.007 C 
ENDBRANCH   3   4
BRANCH   3   6
ATOM      6  O   UNL     1      42.840 127.260  24.107  1.00  0.00    -0.379 OA
ATOM      7  H   UNL     1      43.085 126.436  24.604  1.00  0.00     0.211 HD
ENDBRANCH   3   6
ENDBRANCH   1   3
BRANCH   1   8
ATOM      8  N   UNL     1      44.921 130.066  22.696  1.00  0.00    -0.240 N 
ATOM      9  C   UNL     1      45.269 130.069  21.254  1.00  0.00     0.281 C 
ATOM     10  C   UNL     1      44.717 131.432  23.238  1.00  0.00     0.374 C 
ATOM     11  C   UNL     1      44.281 130.887  20.386  1.00  0.00     0.078 C 
ATOM     12  C   UNL     1      43.724 132.278  22.418  1.00  0.00     0.107 C 
ATOM     13  C   UNL     1      44.095 132.327  20.923  1.00  0.00     0.008 C 
ATOM     14  H   UNL     1      45.767 129.692  23.187  1.00  0.00     0.359 HD
ATOM     15  F   UNL     1      44.284 131.367  24.555  1.00  0.00    -0.185 F 
ATOM     16  C   UNL     1      45.307 133.246  20.675  1.00  0.00     0.009 C 
BRANCH  11  17
ATOM     17  C   UNL     1      44.605 130.861  18.897  1.00  0.00    -0.037 A 
ATOM     18  C   UNL     1      43.759 131.568  17.998  1.00  0.00     0.005 A 
ATOM     19  C   UNL     1      45.759 130.211  18.385  1.00  0.00     0.031 A 
ATOM     20  C   UNL     1      44.035 131.610  16.620  1.00  0.00     0.010 A 
ATOM     21  C   UNL     1      46.000 130.273  17.015  1.00  0.00     0.046 A 
ATOM     22  C   UNL     1      45.167 130.946  16.165  1.00  0.00    -0.001 A 
ATOM     23  N   UNL     1      47.028 129.730  16.342  1.00  0.00    -0.361 N 
ATOM     24  C   UNL     1      45.686 130.827  14.895  1.00  0.00     0.028 A 
ATOM     25  C   UNL     1      46.841 130.065  15.045  1.00  0.00     0.083 A 
ATOM     26  H   UNL     1      47.814 129.164  16.735  1.00  0.00     0.166 HD
ENDBRANCH  11  17
ENDBRANCH   1   8
TORSDOF 5
ENDMDL
MODEL 9
REMARK VINA RESULT:      -5.5      1.824      2.817
REMARK SMILES CC[C@H](O)C(=O)[N@H+]1C[C@H](c2ccc3cc[nH]c3c2)[C@H](C)C[C@H]1F
REMARK SMILES IDX 5 1 6 2 3 3 2 4 1 5 4 6 7 8 8 9 22 10 9 11 21 12 19 13 23 15
REMARK SMILES IDX 20 16 10 17 11 18 18 19 12 20 17 21 13 22 16 23 14 24 15 25
REMARK H PARENT 4 7 7 14 16 26
ROOT
ATOM      1  C   UNL     1      44.409 130.192  23.563  1.00  0.00     0.343 C 
ATOM      2  O   UNL     1      44.984 129.990  24.624  1.00  0.00    -0.228 OA
ENDROOT
BRANCH   1   3
ATOM      3  C   UNL     1      43.745 129.024  22.857  1.00  0.00     0.243 C 
BRANCH   3   4
ATOM      4  C   UNL     1      42.670 128.373  23.745  1.00  0.00     0.043 C 
ATOM      5  C   UNL     1      42.552 126.862  23.536  1.00  0.00     0.007 C 
ENDBRANCH   3   4
BRANCH   3   6
ATOM      6  O   UNL     1      44.696 128.061  22.479  1.00  0.00    -0.379 OA
ATOM      7  H   UNL     1      44.251 127.176  22.547  1.00  0.00     0.211 HD
ENDBRANCH   3   6
ENDBRANCH   1   3
BRANCH   1   8
ATOM      8  N   UNL     1      44.346 131.531  22.993  1.00  0.00    -0.240 N 
ATOM      9  C   UNL     1      44.867 131.585  21.604  1.00  0.00     0.281 C 
ATOM     10  C   UNL     1      43.005 132.152  23.125  1.00  0.00     0.374 C 
ATOM     11  C   UNL     1      43.873 131.029  20.554  1.00  0.00     0.078 C 
ATOM     12  C   UNL     1      41.976 131.614  22.112  1.00  0.00     0.107 C 
ATOM     13  C   UNL     1      42.484 131.702  20.661  1.00  0.00     0.008 C 
ATOM     14  H   UNL     1      44.992 132.132  23.558  1.00  0.00     0.359 HD
ATOM     15  F   UNL     1      42.517 131.973  24.412  1.00  0.00    -0.185 F 
ATOM     16  C   UNL     1      42.453 133.153  20.142  1.00  0.00     0.009 C 
BRANCH  11  17
ATOM     17  C   UNL     1      44.416 131.040  19.130  1.00  0.00    -0.037 A 
ATOM     18  C   UNL     1      45.675 130.430  18.871  1.00  0.00     0.005 A 
ATOM     19  C   UNL     1      43.678 131.579  18.043  1.00  0.00     0.031 A 
ATOM     20  C   UNL     1      46.203 130.376  17.570  1.00  0.00     0.010 A 
ATOM     21  C   UNL     1      44.233 131.509  16.767  1.00  0.00     0.046 A 
ATOM     22  C   UNL     1      45.451 130.930  16.541  1.00  0.00    -0.001 A 
ATOM     23  N   UNL     1      43.697 131.956  15.620  1.00  0.00    -0.361 N 
ATOM     24  C   UNL     1      45.704 131.012  15.189  1.00  0.00     0.028 A 
ATOM     25  C   UNL     1      44.593 131.655  14.651  1.00  0.00     0.083 A 
ATOM     26  H   UNL     1      42.779 132.437  15.494  1.00  0.00     0.166 HD
ENDBRANCH  11  17
ENDBRANCH   1   8
TORSDOF 5
ENDMDL


