REMARK SMILES Nc1cc(F)c(CCC(=O)c2ccccc2)c(F)c1C1CC1
REMARK SMILES IDX 7 1 6 2 2 3 3 4 19 5 4 6 17 7 5 8 18 9 1 10 20 13 21 14
REMARK SMILES IDX 22 15 8 16 9 17 10 18 11 19 12 20 16 21 13 22 15 23 14 24
REMARK H PARENT 1 11 1 12
ROOT
ATOM      1  C   UNL     1       3.110  -1.271   0.970  1.00  0.00     0.050 C 
ENDROOT
BRANCH   1   2
ATOM      2  C   UNL     1       1.619  -1.486   1.104  1.00  0.00     0.024 A 
ATOM      3  C   UNL     1      -1.177  -1.805   1.278  1.00  0.00     0.041 A 
ATOM      4  C   UNL     1      -0.437  -2.516   0.325  1.00  0.00     0.065 A 
ATOM      5  C   UNL     1      -0.520  -0.882   2.126  1.00  0.00     0.014 A 
ATOM      6  C   UNL     1       0.945  -2.354   0.229  1.00  0.00     0.131 A 
ATOM      7  C   UNL     1       0.883  -0.765   2.060  1.00  0.00     0.134 A 
ATOM      8  F   UNL     1       1.622  -3.045  -0.724  1.00  0.00    -0.207 F 
ATOM      9  F   UNL     1       1.534   0.061   2.921  1.00  0.00    -0.206 F 
BRANCH   3  10
ATOM     10  N   UNL     1      -2.587  -2.050   1.382  1.00  0.00    -0.398 N 
ATOM     11  H   UNL     1      -3.159  -1.671   2.168  1.00  0.00     0.156 HD
ATOM     12  H   UNL     1      -3.066  -2.682   0.703  1.00  0.00     0.156 HD
ENDBRANCH   3  10
BRANCH   5  13
ATOM     13  C   UNL     1      -1.286  -0.069   3.145  1.00  0.00     0.024 C 
ATOM     14  C   UNL     1      -1.040   1.437   3.102  1.00  0.00     0.009 C 
ATOM     15  C   UNL     1      -2.339   0.872   2.568  1.00  0.00     0.009 C 
ENDBRANCH   5  13
ENDBRANCH   1   2
BRANCH   1  16
ATOM     16  C   UNL     1       3.446   0.044   0.250  1.00  0.00     0.086 C 
BRANCH  16  17
ATOM     17  C   UNL     1       2.928   0.058  -1.169  1.00  0.00     0.163 C 
ATOM     18  O   UNL     1       3.704  -0.324  -2.087  1.00  0.00    -0.294 OA
BRANCH  17  19
ATOM     19  C   UNL     1       1.521   0.405  -1.506  1.00  0.00     0.017 A 
ATOM     20  C   UNL     1       0.752   1.266  -0.697  1.00  0.00     0.012 A 
ATOM     21  C   UNL     1       0.922  -0.162  -2.648  1.00  0.00     0.012 A 
ATOM     22  C   UNL     1      -0.585   1.528  -1.011  1.00  0.00     0.001 A 
ATOM     23  C   UNL     1      -0.415   0.102  -2.955  1.00  0.00     0.001 A 
ATOM     24  C   UNL     1      -1.170   0.943  -2.135  1.00  0.00     0.000 A 
ENDBRANCH  17  19
ENDBRANCH  16  17
ENDBRANCH   1  16
TORSDOF 6


