MODEL 1
REMARK VINA RESULT:      -5.9      0.000      0.000
REMARK SMILES CC(=O)c1ccc(Oc2c(Nc3ccc(C)cc3)ccc3cc[nH]c23)[nH+]n1
REMARK SMILES IDX 9 1 10 2 19 3 20 4 21 5 22 6 23 7 24 8 25 9 8 11 7 12 4 13
REMARK SMILES IDX 5 14 27 15 6 16 26 17 2 19 1 20 3 21 11 22 12 24 13 25 18 26
REMARK SMILES IDX 14 27 17 28 15 29 16 30
REMARK H PARENT 24 10 26 18 11 23
ROOT
ATOM      1  C   UNL     1      44.118 130.892  21.679  1.00  0.00     0.181 A 
ATOM      2  C   UNL     1      44.266 131.064  20.279  1.00  0.00     0.084 A 
ATOM      3  C   UNL     1      43.391 131.929  19.580  1.00  0.00     0.031 A 
ATOM      4  C   UNL     1      42.335 132.576  20.243  1.00  0.00     0.013 A 
ATOM      5  C   UNL     1      42.184 132.346  21.606  1.00  0.00     0.003 A 
ATOM      6  C   UNL     1      41.231 132.807  22.486  1.00  0.00     0.028 A 
ATOM      7  C   UNL     1      41.555 132.227  23.707  1.00  0.00     0.083 A 
ATOM      8  N   UNL     1      42.653 131.446  23.591  1.00  0.00    -0.358 N 
ATOM      9  C   UNL     1      43.036 131.532  22.305  1.00  0.00     0.091 A 
ATOM     10  H   UNL     1      43.088 130.880  24.352  1.00  0.00     0.166 HD
ENDROOT
BRANCH   1  11
ATOM     11  O   UNL     1      45.024 130.095  22.393  1.00  0.00    -0.399 OA
BRANCH  11  12
ATOM     12  C   UNL     1      44.767 128.791  22.835  1.00  0.00     0.397 A 
ATOM     13  C   UNL     1      44.282 126.211  23.697  1.00  0.00     0.173 A 
ATOM     14  C   UNL     1      44.871 126.418  22.444  1.00  0.00     0.049 A 
ATOM     15  N   UNL     1      43.975 127.292  24.465  1.00  0.00     0.004 NA
ATOM     16  C   UNL     1      45.119 127.719  22.015  1.00  0.00     0.129 A 
ATOM     17  N   UNL     1      44.210 128.541  24.055  1.00  0.00    -0.065 N 
ATOM     18  H   UNL     1      43.973 129.325  24.700  1.00  0.00     0.495 HD
BRANCH  13  19
ATOM     19  C   UNL     1      43.996 124.849  24.197  1.00  0.00     0.184 C 
ATOM     20  C   UNL     1      42.612 124.465  24.618  1.00  0.00     0.095 C 
ATOM     21  O   UNL     1      44.921 123.994  24.273  1.00  0.00    -0.293 OA
ENDBRANCH  13  19
ENDBRANCH  11  12
ENDBRANCH   1  11
BRANCH   2  22
ATOM     22  N   UNL     1      45.343 130.437  19.562  1.00  0.00    -0.352 N 
ATOM     23  H   UNL     1      46.014 129.850  20.106  1.00  0.00     0.167 HD
BRANCH  22  24
ATOM     24  C   UNL     1      45.591 130.619  18.156  1.00  0.00     0.038 A 
ATOM     25  C   UNL     1      45.297 131.852  17.559  1.00  0.00     0.026 A 
ATOM     26  C   UNL     1      46.088 129.572  17.360  1.00  0.00     0.026 A 
ATOM     27  C   UNL     1      45.523 132.051  16.194  1.00  0.00     0.005 A 
ATOM     28  C   UNL     1      46.315 129.771  15.994  1.00  0.00     0.005 A 
ATOM     29  C   UNL     1      46.024 131.007  15.400  1.00  0.00    -0.051 A 
ATOM     30  C   UNL     1      46.307 131.232  13.945  1.00  0.00     0.044 C 
ENDBRANCH  22  24
ENDBRANCH   2  22
TORSDOF 5
ENDMDL
MODEL 2
REMARK VINA RESULT:      -5.6      2.616      7.225
REMARK SMILES CC(=O)c1ccc(Oc2c(Nc3ccc(C)cc3)ccc3cc[nH]c23)[nH+]n1
REMARK SMILES IDX 9 1 10 2 19 3 20 4 21 5 22 6 23 7 24 8 25 9 8 11 7 12 4 13
REMARK SMILES IDX 5 14 27 15 6 16 26 17 2 19 1 20 3 21 11 22 12 24 13 25 18 26
REMARK SMILES IDX 14 27 17 28 15 29 16 30
REMARK H PARENT 24 10 26 18 11 23
ROOT
ATOM      1  C   UNL     1      44.738 129.320  22.264  1.00  0.00     0.181 A 
ATOM      2  C   UNL     1      44.753 127.919  22.488  1.00  0.00     0.084 A 
ATOM      3  C   UNL     1      43.746 127.324  23.284  1.00  0.00     0.031 A 
ATOM      4  C   UNL     1      42.762 128.108  23.909  1.00  0.00     0.013 A 
ATOM      5  C   UNL     1      42.805 129.484  23.712  1.00  0.00     0.003 A 
ATOM      6  C   UNL     1      42.006 130.482  24.224  1.00  0.00     0.028 A 
ATOM      7  C   UNL     1      42.533 131.663  23.717  1.00  0.00     0.083 A 
ATOM      8  N   UNL     1      43.604 131.413  22.929  1.00  0.00    -0.358 N 
ATOM      9  C   UNL     1      43.757 130.077  22.925  1.00  0.00     0.091 A 
ATOM     10  H   UNL     1      44.193 132.126  22.448  1.00  0.00     0.166 HD
ENDROOT
BRANCH   1  11
ATOM     11  O   UNL     1      45.687 129.911  21.418  1.00  0.00    -0.399 OA
BRANCH  11  12
ATOM     12  C   UNL     1      45.437 130.336  20.108  1.00  0.00     0.397 A 
ATOM     13  C   UNL     1      44.946 131.152  17.514  1.00  0.00     0.173 A 
ATOM     14  C   UNL     1      45.899 130.155  17.753  1.00  0.00     0.049 A 
ATOM     15  N   UNL     1      44.274 131.684  18.571  1.00  0.00     0.004 NA
ATOM     16  C   UNL     1      46.140 129.742  19.060  1.00  0.00     0.129 A 
ATOM     17  N   UNL     1      44.506 131.292  19.826  1.00  0.00    -0.065 N 
ATOM     18  H   UNL     1      43.941 131.723  20.590  1.00  0.00     0.495 HD
BRANCH  13  19
ATOM     19  C   UNL     1      44.655 131.625  16.144  1.00  0.00     0.184 C 
ATOM     20  C   UNL     1      45.767 131.992  15.211  1.00  0.00     0.095 C 
ATOM     21  O   UNL     1      43.462 131.724  15.746  1.00  0.00    -0.293 OA
ENDBRANCH  13  19
ENDBRANCH  11  12
ENDBRANCH   1  11
BRANCH   2  22
ATOM     22  N   UNL     1      45.729 127.075  21.855  1.00  0.00    -0.352 N 
ATOM     23  H   UNL     1      45.788 127.096  20.813  1.00  0.00     0.167 HD
BRANCH  22  24
ATOM     24  C   UNL     1      46.583 126.158  22.562  1.00  0.00     0.038 A 
ATOM     25  C   UNL     1      47.221 125.128  21.856  1.00  0.00     0.026 A 
ATOM     26  C   UNL     1      46.763 126.250  23.953  1.00  0.00     0.026 A 
ATOM     27  C   UNL     1      48.051 124.221  22.522  1.00  0.00     0.005 A 
ATOM     28  C   UNL     1      47.594 125.343  24.619  1.00  0.00     0.005 A 
ATOM     29  C   UNL     1      48.234 124.317  23.910  1.00  0.00    -0.051 A 
ATOM     30  C   UNL     1      49.158 123.371  24.618  1.00  0.00     0.044 C 
ENDBRANCH  22  24
ENDBRANCH   2  22
TORSDOF 5
ENDMDL
MODEL 3
REMARK VINA RESULT:      -5.6      1.091      1.235
REMARK SMILES CC(=O)c1ccc(Oc2c(Nc3ccc(C)cc3)ccc3cc[nH]c23)[nH+]n1
REMARK SMILES IDX 9 1 10 2 19 3 20 4 21 5 22 6 23 7 24 8 25 9 8 11 7 12 4 13
REMARK SMILES IDX 5 14 27 15 6 16 26 17 2 19 1 20 3 21 11 22 12 24 13 25 18 26
REMARK SMILES IDX 14 27 17 28 15 29 16 30
REMARK H PARENT 24 10 26 18 11 23
ROOT
ATOM      1  C   UNL     1      44.809 129.964  21.653  1.00  0.00     0.181 A 
ATOM      2  C   UNL     1      44.893 130.644  20.410  1.00  0.00     0.084 A 
ATOM      3  C   UNL     1      44.120 131.810  20.193  1.00  0.00     0.031 A 
ATOM      4  C   UNL     1      43.222 132.273  21.170  1.00  0.00     0.013 A 
ATOM      5  C   UNL     1      43.125 131.554  22.356  1.00  0.00     0.003 A 
ATOM      6  C   UNL     1      42.314 131.751  23.451  1.00  0.00     0.028 A 
ATOM      7  C   UNL     1      42.619 130.710  24.320  1.00  0.00     0.083 A 
ATOM      8  N   UNL     1      43.573 129.909  23.792  1.00  0.00    -0.358 N 
ATOM      9  C   UNL     1      43.882 130.438  22.595  1.00  0.00     0.091 A 
ATOM     10  H   UNL     1      43.961 129.046  24.230  1.00  0.00     0.166 HD
ENDROOT
BRANCH   1  11
ATOM     11  O   UNL     1      45.622 128.851  21.906  1.00  0.00    -0.399 OA
BRANCH  11  12
ATOM     12  C   UNL     1      45.157 127.596  22.317  1.00  0.00     0.397 A 
ATOM     13  C   UNL     1      44.260 125.112  23.129  1.00  0.00     0.173 A 
ATOM     14  C   UNL     1      45.367 125.199  22.276  1.00  0.00     0.049 A 
ATOM     15  N   UNL     1      43.662 126.260  23.547  1.00  0.00     0.004 NA
ATOM     16  C   UNL     1      45.820 126.452  21.873  1.00  0.00     0.129 A 
ATOM     17  N   UNL     1      44.093 127.463  23.160  1.00  0.00    -0.065 N 
ATOM     18  H   UNL     1      43.605 128.306  23.534  1.00  0.00     0.495 HD
BRANCH  13  19
ATOM     19  C   UNL     1      43.741 123.804  23.583  1.00  0.00     0.184 C 
ATOM     20  C   UNL     1      42.608 123.730  24.560  1.00  0.00     0.095 C 
ATOM     21  O   UNL     1      44.249 122.734  23.150  1.00  0.00    -0.293 OA
ENDBRANCH  13  19
ENDBRANCH  11  12
ENDBRANCH   1  11
BRANCH   2  22
ATOM     22  N   UNL     1      45.811 130.218  19.389  1.00  0.00    -0.352 N 
ATOM     23  H   UNL     1      46.677 129.718  19.691  1.00  0.00     0.167 HD
BRANCH  22  24
ATOM     24  C   UNL     1      45.643 130.493  17.987  1.00  0.00     0.038 A 
ATOM     25  C   UNL     1      44.999 131.673  17.589  1.00  0.00     0.026 A 
ATOM     26  C   UNL     1      46.079 129.584  17.006  1.00  0.00     0.026 A 
ATOM     27  C   UNL     1      44.819 131.958  16.232  1.00  0.00     0.005 A 
ATOM     28  C   UNL     1      45.900 129.870  15.649  1.00  0.00     0.005 A 
ATOM     29  C   UNL     1      45.259 131.053  15.254  1.00  0.00    -0.051 A 
ATOM     30  C   UNL     1      45.105 131.379  13.798  1.00  0.00     0.044 C 
ENDBRANCH  22  24
ENDBRANCH   2  22
TORSDOF 5
ENDMDL
MODEL 4
REMARK VINA RESULT:      -5.2      2.353      7.495
REMARK SMILES CC(=O)c1ccc(Oc2c(Nc3ccc(C)cc3)ccc3cc[nH]c23)[nH+]n1
REMARK SMILES IDX 9 1 10 2 19 3 20 4 21 5 22 6 23 7 24 8 25 9 8 11 7 12 4 13
REMARK SMILES IDX 5 14 27 15 6 16 26 17 2 19 1 20 3 21 11 22 12 24 13 25 18 26
REMARK SMILES IDX 14 27 17 28 15 29 16 30
REMARK H PARENT 24 10 26 18 11 23
ROOT
ATOM      1  C   UNL     1      44.256 130.850  20.114  1.00  0.00     0.181 A 
ATOM      2  C   UNL     1      44.284 130.763  21.530  1.00  0.00     0.084 A 
ATOM      3  C   UNL     1      43.266 131.384  22.293  1.00  0.00     0.031 A 
ATOM      4  C   UNL     1      42.257 132.139  21.672  1.00  0.00     0.013 A 
ATOM      5  C   UNL     1      42.287 132.248  20.286  1.00  0.00     0.003 A 
ATOM      6  C   UNL     1      41.464 132.945  19.430  1.00  0.00     0.028 A 
ATOM      7  C   UNL     1      41.987 132.722  18.162  1.00  0.00     0.083 A 
ATOM      8  N   UNL     1      43.078 131.926  18.226  1.00  0.00    -0.358 N 
ATOM      9  C   UNL     1      43.249 131.634  19.528  1.00  0.00     0.091 A 
ATOM     10  H   UNL     1      43.670 131.627  17.420  1.00  0.00     0.166 HD
ENDROOT
BRANCH   1  11
ATOM     11  O   UNL     1      45.217 130.178  19.346  1.00  0.00    -0.399 OA
BRANCH  11  12
ATOM     12  C   UNL     1      45.456 130.407  17.985  1.00  0.00     0.397 A 
ATOM     13  C   UNL     1      45.943 130.875  15.306  1.00  0.00     0.173 A 
ATOM     14  C   UNL     1      45.831 131.960  16.184  1.00  0.00     0.049 A 
ATOM     15  N   UNL     1      45.821 129.614  15.801  1.00  0.00     0.004 NA
ATOM     16  C   UNL     1      45.591 131.720  17.535  1.00  0.00     0.129 A 
ATOM     17  N   UNL     1      45.589 129.381  17.095  1.00  0.00    -0.065 N 
ATOM     18  H   UNL     1      45.529 128.391  17.416  1.00  0.00     0.495 HD
BRANCH  13  19
ATOM     19  C   UNL     1      46.195 131.078  13.863  1.00  0.00     0.184 C 
ATOM     20  C   UNL     1      47.595 131.149  13.336  1.00  0.00     0.095 C 
ATOM     21  O   UNL     1      45.230 131.193  13.060  1.00  0.00    -0.293 OA
ENDBRANCH  13  19
ENDBRANCH  11  12
ENDBRANCH   1  11
BRANCH   2  22
ATOM     22  N   UNL     1      45.286 129.987  22.209  1.00  0.00    -0.352 N 
ATOM     23  H   UNL     1      46.258 130.365  22.236  1.00  0.00     0.167 HD
BRANCH  22  24
ATOM     24  C   UNL     1      45.046 128.696  22.796  1.00  0.00     0.038 A 
ATOM     25  C   UNL     1      44.383 128.612  24.028  1.00  0.00     0.026 A 
ATOM     26  C   UNL     1      45.495 127.516  22.176  1.00  0.00     0.026 A 
ATOM     27  C   UNL     1      44.144 127.368  24.621  1.00  0.00     0.005 A 
ATOM     28  C   UNL     1      45.255 126.272  22.769  1.00  0.00     0.005 A 
ATOM     29  C   UNL     1      44.588 126.191  24.000  1.00  0.00    -0.051 A 
ATOM     30  C   UNL     1      44.295 124.854  24.614  1.00  0.00     0.044 C 
ENDBRANCH  22  24
ENDBRANCH   2  22
TORSDOF 5
ENDMDL
MODEL 5
REMARK VINA RESULT:      -5.2      2.699      7.373
REMARK SMILES CC(=O)c1ccc(Oc2c(Nc3ccc(C)cc3)ccc3cc[nH]c23)[nH+]n1
REMARK SMILES IDX 9 1 10 2 19 3 20 4 21 5 22 6 23 7 24 8 25 9 8 11 7 12 4 13
REMARK SMILES IDX 5 14 27 15 6 16 26 17 2 19 1 20 3 21 11 22 12 24 13 25 18 26
REMARK SMILES IDX 14 27 17 28 15 29 16 30
REMARK H PARENT 24 10 26 18 11 23
ROOT
ATOM      1  C   UNL     1      42.090 127.261  23.756  1.00  0.00     0.181 A 
ATOM      2  C   UNL     1      42.874 126.222  23.191  1.00  0.00     0.084 A 
ATOM      3  C   UNL     1      42.259 125.002  22.819  1.00  0.00     0.031 A 
ATOM      4  C   UNL     1      40.893 124.780  23.057  1.00  0.00     0.013 A 
ATOM      5  C   UNL     1      40.164 125.799  23.660  1.00  0.00     0.003 A 
ATOM      6  C   UNL     1      38.841 125.841  24.041  1.00  0.00     0.028 A 
ATOM      7  C   UNL     1      38.672 127.092  24.623  1.00  0.00     0.083 A 
ATOM      8  N   UNL     1      39.830 127.791  24.603  1.00  0.00    -0.358 N 
ATOM      9  C   UNL     1      40.734 126.996  24.004  1.00  0.00     0.091 A 
ATOM     10  H   UNL     1      39.978 128.745  24.998  1.00  0.00     0.166 HD
ENDROOT
BRANCH   1  11
ATOM     11  O   UNL     1      42.673 128.499  24.061  1.00  0.00    -0.399 OA
BRANCH  11  12
ATOM     12  C   UNL     1      43.273 129.353  23.127  1.00  0.00     0.397 A 
ATOM     13  C   UNL     1      44.444 131.055  21.292  1.00  0.00     0.173 A 
ATOM     14  C   UNL     1      43.082 131.189  21.583  1.00  0.00     0.049 A 
ATOM     15  N   UNL     1      45.161 130.093  21.935  1.00  0.00     0.004 NA
ATOM     16  C   UNL     1      42.496 130.334  22.512  1.00  0.00     0.129 A 
ATOM     17  N   UNL     1      44.601 129.269  22.825  1.00  0.00    -0.065 N 
ATOM     18  H   UNL     1      45.209 128.568  23.300  1.00  0.00     0.495 HD
BRANCH  13  19
ATOM     19  C   UNL     1      45.112 131.938  20.313  1.00  0.00     0.184 C 
ATOM     20  C   UNL     1      44.596 132.053  18.912  1.00  0.00     0.095 C 
ATOM     21  O   UNL     1      46.127 132.606  20.649  1.00  0.00    -0.293 OA
ENDBRANCH  13  19
ENDBRANCH  11  12
ENDBRANCH   1  11
BRANCH   2  22
ATOM     22  N   UNL     1      44.271 126.410  22.912  1.00  0.00    -0.352 N 
ATOM     23  H   UNL     1      44.565 127.319  22.492  1.00  0.00     0.167 HD
BRANCH  22  24
ATOM     24  C   UNL     1      45.278 125.403  23.116  1.00  0.00     0.038 A 
ATOM     25  C   UNL     1      45.423 124.821  24.384  1.00  0.00     0.026 A 
ATOM     26  C   UNL     1      46.145 125.015  22.080  1.00  0.00     0.026 A 
ATOM     27  C   UNL     1      46.398 123.845  24.607  1.00  0.00     0.005 A 
ATOM     28  C   UNL     1      47.120 124.038  22.304  1.00  0.00     0.005 A 
ATOM     29  C   UNL     1      47.261 123.455  23.571  1.00  0.00    -0.051 A 
ATOM     30  C   UNL     1      48.278 122.377  23.799  1.00  0.00     0.044 C 
ENDBRANCH  22  24
ENDBRANCH   2  22
TORSDOF 5
ENDMDL
MODEL 6
REMARK VINA RESULT:      -5.1      4.326      8.070
REMARK SMILES CC(=O)c1ccc(Oc2c(Nc3ccc(C)cc3)ccc3cc[nH]c23)[nH+]n1
REMARK SMILES IDX 9 1 10 2 19 3 20 4 21 5 22 6 23 7 24 8 25 9 8 11 7 12 4 13
REMARK SMILES IDX 5 14 27 15 6 16 26 17 2 19 1 20 3 21 11 22 12 24 13 25 18 26
REMARK SMILES IDX 14 27 17 28 15 29 16 30
REMARK H PARENT 24 10 26 18 11 23
ROOT
ATOM      1  C   UNL     1      45.245 124.866  23.125  1.00  0.00     0.181 A 
ATOM      2  C   UNL     1      45.990 124.121  24.075  1.00  0.00     0.084 A 
ATOM      3  C   UNL     1      45.485 122.887  24.553  1.00  0.00     0.031 A 
ATOM      4  C   UNL     1      44.226 122.416  24.146  1.00  0.00     0.013 A 
ATOM      5  C   UNL     1      43.498 123.195  23.254  1.00  0.00     0.003 A 
ATOM      6  C   UNL     1      42.241 123.003  22.725  1.00  0.00     0.028 A 
ATOM      7  C   UNL     1      42.011 124.115  21.924  1.00  0.00     0.083 A 
ATOM      8  N   UNL     1      43.071 124.954  21.952  1.00  0.00    -0.358 N 
ATOM      9  C   UNL     1      43.979 124.379  22.760  1.00  0.00     0.091 A 
ATOM     10  H   UNL     1      43.144 125.870  21.457  1.00  0.00     0.166 HD
ENDROOT
BRANCH   1  11
ATOM     11  O   UNL     1      45.767 126.051  22.590  1.00  0.00    -0.399 OA
BRANCH  11  12
ATOM     12  C   UNL     1      45.253 127.332  22.828  1.00  0.00     0.397 A 
ATOM     13  C   UNL     1      44.249 129.859  23.318  1.00  0.00     0.173 A 
ATOM     14  C   UNL     1      44.326 128.934  24.366  1.00  0.00     0.049 A 
ATOM     15  N   UNL     1      44.685 129.489  22.083  1.00  0.00     0.004 NA
ATOM     16  C   UNL     1      44.838 127.664  24.117  1.00  0.00     0.129 A 
ATOM     17  N   UNL     1      45.174 128.270  21.841  1.00  0.00    -0.065 N 
ATOM     18  H   UNL     1      45.512 128.057  20.878  1.00  0.00     0.495 HD
BRANCH  13  19
ATOM     19  C   UNL     1      43.711 131.220  23.531  1.00  0.00     0.184 C 
ATOM     20  C   UNL     1      44.250 132.091  24.623  1.00  0.00     0.095 C 
ATOM     21  O   UNL     1      42.791 131.662  22.791  1.00  0.00    -0.293 OA
ENDBRANCH  13  19
ENDBRANCH  11  12
ENDBRANCH   1  11
BRANCH   2  22
ATOM     22  N   UNL     1      47.291 124.553  24.506  1.00  0.00    -0.352 N 
ATOM     23  H   UNL     1      47.352 125.100  25.394  1.00  0.00     0.167 HD
BRANCH  22  24
ATOM     24  C   UNL     1      48.502 124.336  23.761  1.00  0.00     0.038 A 
ATOM     25  C   UNL     1      49.199 123.130  23.917  1.00  0.00     0.026 A 
ATOM     26  C   UNL     1      49.023 125.324  22.907  1.00  0.00     0.026 A 
ATOM     27  C   UNL     1      50.382 122.899  23.208  1.00  0.00     0.005 A 
ATOM     28  C   UNL     1      50.205 125.092  22.197  1.00  0.00     0.005 A 
ATOM     29  C   UNL     1      50.898 123.883  22.352  1.00  0.00    -0.051 A 
ATOM     30  C   UNL     1      52.143 123.619  21.559  1.00  0.00     0.044 C 
ENDBRANCH  22  24
ENDBRANCH   2  22
TORSDOF 5
ENDMDL
MODEL 7
REMARK VINA RESULT:      -4.8      2.543      7.181
REMARK SMILES CC(=O)c1ccc(Oc2c(Nc3ccc(C)cc3)ccc3cc[nH]c23)[nH+]n1
REMARK SMILES IDX 9 1 10 2 19 3 20 4 21 5 22 6 23 7 24 8 25 9 8 11 7 12 4 13
REMARK SMILES IDX 5 14 27 15 6 16 26 17 2 19 1 20 3 21 11 22 12 24 13 25 18 26
REMARK SMILES IDX 14 27 17 28 15 29 16 30
REMARK H PARENT 24 10 26 18 11 23
ROOT
ATOM      1  C   UNL     1      44.810 129.545  22.050  1.00  0.00     0.181 A 
ATOM      2  C   UNL     1      44.827 128.156  22.340  1.00  0.00     0.084 A 
ATOM      3  C   UNL     1      43.825 127.599  23.172  1.00  0.00     0.031 A 
ATOM      4  C   UNL     1      42.846 128.413  23.767  1.00  0.00     0.013 A 
ATOM      5  C   UNL     1      42.889 129.778  23.504  1.00  0.00     0.003 A 
ATOM      6  C   UNL     1      42.094 130.799  23.975  1.00  0.00     0.028 A 
ATOM      7  C   UNL     1      42.617 131.955  23.408  1.00  0.00     0.083 A 
ATOM      8  N   UNL     1      43.681 131.667  22.624  1.00  0.00    -0.358 N 
ATOM      9  C   UNL     1      43.834 130.332  22.682  1.00  0.00     0.091 A 
ATOM     10  H   UNL     1      44.267 132.357  22.105  1.00  0.00     0.166 HD
ENDROOT
BRANCH   1  11
ATOM     11  O   UNL     1      45.752 130.094  21.170  1.00  0.00    -0.399 OA
BRANCH  11  12
ATOM     12  C   UNL     1      45.495 130.444  19.838  1.00  0.00     0.397 A 
ATOM     13  C   UNL     1      44.994 131.112  17.205  1.00  0.00     0.173 A 
ATOM     14  C   UNL     1      46.084 130.288  17.510  1.00  0.00     0.049 A 
ATOM     15  N   UNL     1      44.200 131.552  18.218  1.00  0.00     0.004 NA
ATOM     16  C   UNL     1      46.330 129.949  18.837  1.00  0.00     0.129 A 
ATOM     17  N   UNL     1      44.435 131.230  19.493  1.00  0.00    -0.065 N 
ATOM     18  H   UNL     1      43.776 131.581  20.221  1.00  0.00     0.495 HD
BRANCH  13  19
ATOM     19  C   UNL     1      44.691 131.503  15.811  1.00  0.00     0.184 C 
ATOM     20  C   UNL     1      43.285 131.790  15.387  1.00  0.00     0.095 C 
ATOM     21  O   UNL     1      45.620 131.598  14.963  1.00  0.00    -0.293 OA
ENDBRANCH  13  19
ENDBRANCH  11  12
ENDBRANCH   1  11
BRANCH   2  22
ATOM     22  N   UNL     1      45.797 127.281  21.741  1.00  0.00    -0.352 N 
ATOM     23  H   UNL     1      46.119 127.503  20.773  1.00  0.00     0.167 HD
BRANCH  22  24
ATOM     24  C   UNL     1      46.303 126.088  22.364  1.00  0.00     0.038 A 
ATOM     25  C   UNL     1      47.450 126.164  23.167  1.00  0.00     0.026 A 
ATOM     26  C   UNL     1      45.693 124.838  22.156  1.00  0.00     0.026 A 
ATOM     27  C   UNL     1      47.964 125.016  23.778  1.00  0.00     0.005 A 
ATOM     28  C   UNL     1      46.206 123.691  22.769  1.00  0.00     0.005 A 
ATOM     29  C   UNL     1      47.351 123.771  23.574  1.00  0.00    -0.051 A 
ATOM     30  C   UNL     1      47.876 122.547  24.264  1.00  0.00     0.044 C 
ENDBRANCH  22  24
ENDBRANCH   2  22
TORSDOF 5
ENDMDL
MODEL 8
REMARK VINA RESULT:      -4.1      1.861      2.714
REMARK SMILES CC(=O)c1ccc(Oc2c(Nc3ccc(C)cc3)ccc3cc[nH]c23)[nH+]n1
REMARK SMILES IDX 9 1 10 2 19 3 20 4 21 5 22 6 23 7 24 8 25 9 8 11 7 12 4 13
REMARK SMILES IDX 5 14 27 15 6 16 26 17 2 19 1 20 3 21 11 22 12 24 13 25 18 26
REMARK SMILES IDX 14 27 17 28 15 29 16 30
REMARK H PARENT 24 10 26 18 11 23
ROOT
ATOM      1  C   UNL     1      44.343 131.216  18.875  1.00  0.00     0.181 A 
ATOM      2  C   UNL     1      44.500 130.871  17.508  1.00  0.00     0.084 A 
ATOM      3  C   UNL     1      43.556 131.326  16.556  1.00  0.00     0.031 A 
ATOM      4  C   UNL     1      42.429 132.065  16.953  1.00  0.00     0.013 A 
ATOM      5  C   UNL     1      42.277 132.341  18.307  1.00  0.00     0.003 A 
ATOM      6  C   UNL     1      41.267 132.999  18.973  1.00  0.00     0.028 A 
ATOM      7  C   UNL     1      41.624 132.946  20.315  1.00  0.00     0.083 A 
ATOM      8  N   UNL     1      42.796 132.290  20.475  1.00  0.00    -0.358 N 
ATOM      9  C   UNL     1      43.193 131.932  19.241  1.00  0.00     0.091 A 
ATOM     10  H   UNL     1      43.271 132.092  21.383  1.00  0.00     0.166 HD
ENDROOT
BRANCH   1  11
ATOM     11  O   UNL     1      45.310 130.833  19.815  1.00  0.00    -0.399 OA
BRANCH  11  12
ATOM     12  C   UNL     1      45.110 129.891  20.832  1.00  0.00     0.397 A 
ATOM     13  C   UNL     1      44.738 128.028  22.838  1.00  0.00     0.173 A 
ATOM     14  C   UNL     1      45.714 127.801  21.860  1.00  0.00     0.049 A 
ATOM     15  N   UNL     1      44.005 129.173  22.780  1.00  0.00     0.004 NA
ATOM     16  C   UNL     1      45.903 128.744  20.854  1.00  0.00     0.129 A 
ATOM     17  N   UNL     1      44.182 130.078  21.814  1.00  0.00    -0.065 N 
ATOM     18  H   UNL     1      43.604 130.946  21.838  1.00  0.00     0.495 HD
BRANCH  13  19
ATOM     19  C   UNL     1      44.498 127.056  23.926  1.00  0.00     0.184 C 
ATOM     20  C   UNL     1      43.175 127.003  24.625  1.00  0.00     0.095 C 
ATOM     21  O   UNL     1      45.410 126.258  24.276  1.00  0.00    -0.293 OA
ENDBRANCH  13  19
ENDBRANCH  11  12
ENDBRANCH   1  11
BRANCH   2  22
ATOM     22  N   UNL     1      45.646 130.134  17.052  1.00  0.00    -0.352 N 
ATOM     23  H   UNL     1      46.079 129.450  17.712  1.00  0.00     0.167 HD
BRANCH  22  24
ATOM     24  C   UNL     1      46.272 130.324  15.771  1.00  0.00     0.038 A 
ATOM     25  C   UNL     1      45.869 131.394  14.960  1.00  0.00     0.026 A 
ATOM     26  C   UNL     1      47.254 129.436  15.297  1.00  0.00     0.026 A 
ATOM     27  C   UNL     1      46.458 131.595  13.708  1.00  0.00     0.005 A 
ATOM     28  C   UNL     1      47.844 129.638  14.045  1.00  0.00     0.005 A 
ATOM     29  C   UNL     1      47.442 130.712  13.238  1.00  0.00    -0.051 A 
ATOM     30  C   UNL     1      48.104 130.952  11.914  1.00  0.00     0.044 C 
ENDBRANCH  22  24
ENDBRANCH   2  22
TORSDOF 5
ENDMDL
MODEL 9
REMARK VINA RESULT:      -4.1      3.816      5.352
REMARK SMILES CC(=O)c1ccc(Oc2c(Nc3ccc(C)cc3)ccc3cc[nH]c23)[nH+]n1
REMARK SMILES IDX 9 1 10 2 19 3 20 4 21 5 22 6 23 7 24 8 25 9 8 11 7 12 4 13
REMARK SMILES IDX 5 14 27 15 6 16 26 17 2 19 1 20 3 21 11 22 12 24 13 25 18 26
REMARK SMILES IDX 14 27 17 28 15 29 16 30
REMARK H PARENT 24 10 26 18 11 23
ROOT
ATOM      1  C   UNL     1      44.163 131.588  20.187  1.00  0.00     0.181 A 
ATOM      2  C   UNL     1      44.342 131.324  18.804  1.00  0.00     0.084 A 
ATOM      3  C   UNL     1      43.345 131.719  17.879  1.00  0.00     0.031 A 
ATOM      4  C   UNL     1      42.151 132.316  18.316  1.00  0.00     0.013 A 
ATOM      5  C   UNL     1      41.984 132.514  19.682  1.00  0.00     0.003 A 
ATOM      6  C   UNL     1      40.918 133.031  20.382  1.00  0.00     0.028 A 
ATOM      7  C   UNL     1      41.292 132.955  21.719  1.00  0.00     0.083 A 
ATOM      8  N   UNL     1      42.528 132.420  21.842  1.00  0.00    -0.358 N 
ATOM      9  C   UNL     1      42.947 132.162  20.591  1.00  0.00     0.091 A 
ATOM     10  H   UNL     1      43.030 132.232  22.737  1.00  0.00     0.166 HD
ENDROOT
BRANCH   1  11
ATOM     11  O   UNL     1      45.174 131.268  21.103  1.00  0.00    -0.399 OA
BRANCH  11  12
ATOM     12  C   UNL     1      46.179 132.147  21.526  1.00  0.00     0.397 A 
ATOM     13  C   UNL     1      48.156 133.877  22.383  1.00  0.00     0.173 A 
ATOM     14  C   UNL     1      46.915 133.875  23.031  1.00  0.00     0.049 A 
ATOM     15  N   UNL     1      48.359 133.012  21.352  1.00  0.00     0.004 NA
ATOM     16  C   UNL     1      45.923 132.998  22.600  1.00  0.00     0.129 A 
ATOM     17  N   UNL     1      47.409 132.172  20.936  1.00  0.00    -0.065 N 
ATOM     18  H   UNL     1      47.635 131.518  20.155  1.00  0.00     0.495 HD
BRANCH  13  19
ATOM     19  C   UNL     1      49.241 134.790  22.801  1.00  0.00     0.184 C 
ATOM     20  C   UNL     1      49.924 134.610  24.122  1.00  0.00     0.095 C 
ATOM     21  O   UNL     1      49.603 135.733  22.047  1.00  0.00    -0.293 OA
ENDBRANCH  13  19
ENDBRANCH  11  12
ENDBRANCH   1  11
BRANCH   2  22
ATOM     22  N   UNL     1      45.554 130.733  18.309  1.00  0.00    -0.352 N 
ATOM     23  H   UNL     1      46.195 130.285  19.001  1.00  0.00     0.167 HD
BRANCH  22  24
ATOM     24  C   UNL     1      45.970 130.774  16.932  1.00  0.00     0.038 A 
ATOM     25  C   UNL     1      45.892 131.983  16.226  1.00  0.00     0.026 A 
ATOM     26  C   UNL     1      46.418 129.619  16.268  1.00  0.00     0.026 A 
ATOM     27  C   UNL     1      46.284 132.046  14.886  1.00  0.00     0.005 A 
ATOM     28  C   UNL     1      46.812 129.683  14.928  1.00  0.00     0.005 A 
ATOM     29  C   UNL     1      46.736 130.894  14.225  1.00  0.00    -0.051 A 
ATOM     30  C   UNL     1      47.198 130.971  12.800  1.00  0.00     0.044 C 
ENDBRANCH  22  24
ENDBRANCH   2  22
TORSDOF 5
ENDMDL


