MODEL 1
REMARK VINA RESULT:      -7.7      0.000      0.000
REMARK SMILES C=Cc1ccc([C@H]2CCC[C@]3(Cl)C=CO[C@H]23)nc1
REMARK SMILES IDX 3 1 4 2 5 3 6 4 17 5 18 6 2 7 1 8 7 9 8 10 16 11 9 12 15 13
REMARK SMILES IDX 11 14 10 15 14 16 13 17 12 18
REMARK H PARENT
ROOT
ATOM      1  C   UNL     1      46.714 130.411  15.101  1.00  0.00    -0.008 A 
ATOM      2  C   UNL     1      46.295 131.754  15.091  1.00  0.00     0.011 A 
ATOM      3  C   UNL     1      45.522 132.257  16.139  1.00  0.00     0.025 A 
ATOM      4  C   UNL     1      45.158 131.415  17.201  1.00  0.00     0.047 A 
ATOM      5  N   UNL     1      45.562 130.114  17.184  1.00  0.00    -0.260 NA
ATOM      6  C   UNL     1      46.315 129.601  16.175  1.00  0.00     0.119 A 
ENDROOT
BRANCH   1   7
ATOM      7  C   UNL     1      47.529 129.809  14.018  1.00  0.00     0.002 C 
ATOM      8  C   UNL     1      47.967 130.475  12.948  1.00  0.00     0.009 C 
ENDBRANCH   1   7
BRANCH   4   9
ATOM      9  C   UNL     1      44.316 131.906  18.358  1.00  0.00     0.081 C 
ATOM     10  C   UNL     1      42.810 131.735  18.075  1.00  0.00     0.014 C 
ATOM     11  C   UNL     1      44.696 131.198  19.677  1.00  0.00     0.206 C 
ATOM     12  C   UNL     1      41.916 132.254  19.226  1.00  0.00     0.003 C 
ATOM     13  O   UNL     1      45.977 131.630  20.116  1.00  0.00    -0.495 OA
ATOM     14  C   UNL     1      43.748 131.550  20.863  1.00  0.00     0.103 C 
ATOM     15  C   UNL     1      42.690 132.616  20.506  1.00  0.00     0.031 C 
ATOM     16  C   UNL     1      45.923 132.115  21.408  1.00  0.00     0.185 C 
ATOM     17  C   UNL     1      44.697 132.086  21.886  1.00  0.00     0.038 C 
ATOM     18  Cl  UNL     1      42.955 130.081  21.515  1.00  0.00    -0.111 Cl
ENDBRANCH   4   9
TORSDOF 2
ENDMDL
MODEL 2
REMARK VINA RESULT:      -7.6      0.667      1.140
REMARK SMILES C=Cc1ccc([C@H]2CCC[C@]3(Cl)C=CO[C@H]23)nc1
REMARK SMILES IDX 3 1 4 2 5 3 6 4 17 5 18 6 2 7 1 8 7 9 8 10 16 11 9 12 15 13
REMARK SMILES IDX 11 14 10 15 14 16 13 17 12 18
REMARK H PARENT
ROOT
ATOM      1  C   UNL     1      46.540 130.507  15.000  1.00  0.00    -0.008 A 
ATOM      2  C   UNL     1      46.455 129.693  16.143  1.00  0.00     0.011 A 
ATOM      3  C   UNL     1      45.726 130.117  17.256  1.00  0.00     0.025 A 
ATOM      4  C   UNL     1      45.082 131.364  17.230  1.00  0.00     0.047 A 
ATOM      5  N   UNL     1      45.188 132.143  16.119  1.00  0.00    -0.260 NA
ATOM      6  C   UNL     1      45.892 131.752  15.023  1.00  0.00     0.119 A 
ENDROOT
BRANCH   1   7
ATOM      7  C   UNL     1      47.303 130.123  13.787  1.00  0.00     0.002 C 
ATOM      8  C   UNL     1      47.829 130.993  12.923  1.00  0.00     0.009 C 
ENDBRANCH   1   7
BRANCH   4   9
ATOM      9  C   UNL     1      44.285 131.875  18.410  1.00  0.00     0.081 C 
ATOM     10  C   UNL     1      42.768 131.752  18.166  1.00  0.00     0.014 C 
ATOM     11  C   UNL     1      44.676 131.150  19.717  1.00  0.00     0.206 C 
ATOM     12  C   UNL     1      41.920 132.294  19.341  1.00  0.00     0.003 C 
ATOM     13  O   UNL     1      45.981 131.540  20.124  1.00  0.00    -0.495 OA
ATOM     14  C   UNL     1      43.770 131.526  20.928  1.00  0.00     0.103 C 
ATOM     15  C   UNL     1      42.737 132.625  20.602  1.00  0.00     0.031 C 
ATOM     16  C   UNL     1      45.975 132.020  21.419  1.00  0.00     0.185 C 
ATOM     17  C   UNL     1      44.762 132.027  21.928  1.00  0.00     0.038 C 
ATOM     18  Cl  UNL     1      42.949 130.078  21.594  1.00  0.00    -0.111 Cl
ENDBRANCH   4   9
TORSDOF 2
ENDMDL
MODEL 3
REMARK VINA RESULT:      -6.7      1.519      2.384
REMARK SMILES C=Cc1ccc([C@H]2CCC[C@]3(Cl)C=CO[C@H]23)nc1
REMARK SMILES IDX 3 1 4 2 5 3 6 4 17 5 18 6 2 7 1 8 7 9 8 10 16 11 9 12 15 13
REMARK SMILES IDX 11 14 10 15 14 16 13 17 12 18
REMARK H PARENT
ROOT
ATOM      1  C   UNL     1      46.425 131.055  14.821  1.00  0.00    -0.008 A 
ATOM      2  C   UNL     1      45.857 132.142  15.509  1.00  0.00     0.011 A 
ATOM      3  C   UNL     1      45.401 131.983  16.819  1.00  0.00     0.025 A 
ATOM      4  C   UNL     1      45.506 130.731  17.445  1.00  0.00     0.047 A 
ATOM      5  N   UNL     1      46.046 129.689  16.755  1.00  0.00    -0.260 NA
ATOM      6  C   UNL     1      46.497 129.818  15.479  1.00  0.00     0.119 A 
ENDROOT
BRANCH   1   7
ATOM      7  C   UNL     1      46.922 131.151  13.426  1.00  0.00     0.002 C 
ATOM      8  C   UNL     1      48.038 130.570  12.985  1.00  0.00     0.009 C 
ENDBRANCH   1   7
BRANCH   4   9
ATOM      9  C   UNL     1      45.022 130.502  18.860  1.00  0.00     0.081 C 
ATOM     10  C   UNL     1      46.118 129.869  19.739  1.00  0.00     0.014 C 
ATOM     11  C   UNL     1      44.509 131.809  19.503  1.00  0.00     0.206 C 
ATOM     12  C   UNL     1      45.648 129.592  21.187  1.00  0.00     0.003 C 
ATOM     13  O   UNL     1      43.288 132.211  18.896  1.00  0.00    -0.495 OA
ATOM     14  C   UNL     1      44.152 131.657  21.013  1.00  0.00     0.103 C 
ATOM     15  C   UNL     1      44.280 130.208  21.529  1.00  0.00     0.031 C 
ATOM     16  C   UNL     1      42.295 132.382  19.840  1.00  0.00     0.185 C 
ATOM     17  C   UNL     1      42.723 132.096  21.051  1.00  0.00     0.038 C 
ATOM     18  Cl  UNL     1      45.131 132.767  22.023  1.00  0.00    -0.111 Cl
ENDBRANCH   4   9
TORSDOF 2
ENDMDL
MODEL 4
REMARK VINA RESULT:      -6.5      1.606      2.665
REMARK SMILES C=Cc1ccc([C@H]2CCC[C@]3(Cl)C=CO[C@H]23)nc1
REMARK SMILES IDX 3 1 4 2 5 3 6 4 17 5 18 6 2 7 1 8 7 9 8 10 16 11 9 12 15 13
REMARK SMILES IDX 11 14 10 15 14 16 13 17 12 18
REMARK H PARENT
ROOT
ATOM      1  C   UNL     1      46.332 130.835  14.396  1.00  0.00    -0.008 A 
ATOM      2  C   UNL     1      46.107 129.556  14.935  1.00  0.00     0.011 A 
ATOM      3  C   UNL     1      45.690 129.416  16.260  1.00  0.00     0.025 A 
ATOM      4  C   UNL     1      45.502 130.558  17.054  1.00  0.00     0.047 A 
ATOM      5  N   UNL     1      45.740 131.786  16.517  1.00  0.00    -0.260 NA
ATOM      6  C   UNL     1      46.147 131.948  15.230  1.00  0.00     0.119 A 
ENDROOT
BRANCH   1   7
ATOM      7  C   UNL     1      46.783 131.057  13.000  1.00  0.00     0.002 C 
ATOM      8  C   UNL     1      48.061 131.144  12.628  1.00  0.00     0.009 C 
ENDBRANCH   1   7
BRANCH   4   9
ATOM      9  C   UNL     1      45.059 130.463  18.498  1.00  0.00     0.081 C 
ATOM     10  C   UNL     1      46.208 130.001  19.415  1.00  0.00     0.014 C 
ATOM     11  C   UNL     1      44.478 131.802  19.002  1.00  0.00     0.206 C 
ATOM     12  C   UNL     1      45.783 129.863  20.896  1.00  0.00     0.003 C 
ATOM     13  O   UNL     1      43.224 132.058  18.385  1.00  0.00    -0.495 OA
ATOM     14  C   UNL     1      44.159 131.802  20.528  1.00  0.00     0.103 C 
ATOM     15  C   UNL     1      44.386 130.432  21.201  1.00  0.00     0.031 C 
ATOM     16  C   UNL     1      42.240 132.277  19.329  1.00  0.00     0.185 C 
ATOM     17  C   UNL     1      42.707 132.157  20.553  1.00  0.00     0.038 C 
ATOM     18  Cl  UNL     1      45.087 133.077  21.382  1.00  0.00    -0.111 Cl
ENDBRANCH   4   9
TORSDOF 2
ENDMDL
MODEL 5
REMARK VINA RESULT:      -6.5      2.615      3.889
REMARK SMILES C=Cc1ccc([C@H]2CCC[C@]3(Cl)C=CO[C@H]23)nc1
REMARK SMILES IDX 3 1 4 2 5 3 6 4 17 5 18 6 2 7 1 8 7 9 8 10 16 11 9 12 15 13
REMARK SMILES IDX 11 14 10 15 14 16 13 17 12 18
REMARK H PARENT
ROOT
ATOM      1  C   UNL     1      44.661 131.399  17.693  1.00  0.00    -0.008 A 
ATOM      2  C   UNL     1      45.647 130.837  18.524  1.00  0.00     0.011 A 
ATOM      3  C   UNL     1      45.428 130.725  19.898  1.00  0.00     0.025 A 
ATOM      4  C   UNL     1      44.221 131.183  20.448  1.00  0.00     0.047 A 
ATOM      5  N   UNL     1      43.286 131.737  19.628  1.00  0.00    -0.260 NA
ATOM      6  C   UNL     1      43.476 131.856  18.288  1.00  0.00     0.119 A 
ENDROOT
BRANCH   1   7
ATOM      7  C   UNL     1      44.831 131.555  16.227  1.00  0.00     0.002 C 
ATOM      8  C   UNL     1      46.011 131.651  15.614  1.00  0.00     0.009 C 
ENDBRANCH   1   7
BRANCH   4   9
ATOM      9  C   UNL     1      43.934 131.093  21.932  1.00  0.00     0.081 C 
ATOM     10  C   UNL     1      42.762 132.007  22.339  1.00  0.00     0.014 C 
ATOM     11  C   UNL     1      43.655 129.639  22.369  1.00  0.00     0.206 C 
ATOM     12  C   UNL     1      42.459 131.964  23.855  1.00  0.00     0.003 C 
ATOM     13  O   UNL     1      44.848 128.869  22.310  1.00  0.00    -0.495 OA
ATOM     14  C   UNL     1      43.194 129.516  23.853  1.00  0.00     0.103 C 
ATOM     15  C   UNL     1      43.216 130.859  24.613  1.00  0.00     0.031 C 
ATOM     16  C   UNL     1      45.109 128.262  23.523  1.00  0.00     0.185 C 
ATOM     17  C   UNL     1      44.208 128.579  24.428  1.00  0.00     0.038 C 
ATOM     18  Cl  UNL     1      41.572 128.763  23.966  1.00  0.00    -0.111 Cl
ENDBRANCH   4   9
TORSDOF 2
ENDMDL
MODEL 6
REMARK VINA RESULT:      -6.1      2.620      3.816
REMARK SMILES C=Cc1ccc([C@H]2CCC[C@]3(Cl)C=CO[C@H]23)nc1
REMARK SMILES IDX 3 1 4 2 5 3 6 4 17 5 18 6 2 7 1 8 7 9 8 10 16 11 9 12 15 13
REMARK SMILES IDX 11 14 10 15 14 16 13 17 12 18
REMARK H PARENT
ROOT
ATOM      1  C   UNL     1      44.956 131.252  17.782  1.00  0.00    -0.008 A 
ATOM      2  C   UNL     1      43.709 131.748  18.202  1.00  0.00     0.011 A 
ATOM      3  C   UNL     1      43.357 131.712  19.553  1.00  0.00     0.025 A 
ATOM      4  C   UNL     1      44.252 131.172  20.490  1.00  0.00     0.047 A 
ATOM      5  N   UNL     1      45.448 130.685  20.060  1.00  0.00    -0.260 NA
ATOM      6  C   UNL     1      45.813 130.708  18.751  1.00  0.00     0.119 A 
ENDROOT
BRANCH   1   7
ATOM      7  C   UNL     1      45.391 131.252  16.364  1.00  0.00     0.002 C 
ATOM      8  C   UNL     1      44.857 130.482  15.414  1.00  0.00     0.009 C 
ENDBRANCH   1   7
BRANCH   4   9
ATOM      9  C   UNL     1      43.919 131.102  21.964  1.00  0.00     0.081 C 
ATOM     10  C   UNL     1      42.748 132.037  22.326  1.00  0.00     0.014 C 
ATOM     11  C   UNL     1      43.604 129.656  22.406  1.00  0.00     0.206 C 
ATOM     12  C   UNL     1      42.399 132.014  23.833  1.00  0.00     0.003 C 
ATOM     13  O   UNL     1      44.787 128.868  22.392  1.00  0.00    -0.495 OA
ATOM     14  C   UNL     1      43.096 129.555  23.877  1.00  0.00     0.103 C 
ATOM     15  C   UNL     1      43.115 130.905  24.625  1.00  0.00     0.031 C 
ATOM     16  C   UNL     1      45.000 128.269  23.618  1.00  0.00     0.185 C 
ATOM     17  C   UNL     1      44.077 128.609  24.492  1.00  0.00     0.038 C 
ATOM     18  Cl  UNL     1      41.460 128.827  23.947  1.00  0.00    -0.111 Cl
ENDBRANCH   4   9
TORSDOF 2
ENDMDL
MODEL 7
REMARK VINA RESULT:      -5.3      2.702      6.160
REMARK SMILES C=Cc1ccc([C@H]2CCC[C@]3(Cl)C=CO[C@H]23)nc1
REMARK SMILES IDX 3 1 4 2 5 3 6 4 17 5 18 6 2 7 1 8 7 9 8 10 16 11 9 12 15 13
REMARK SMILES IDX 11 14 10 15 14 16 13 17 12 18
REMARK H PARENT
ROOT
ATOM      1  C   UNL     1      44.514 131.428  21.133  1.00  0.00    -0.008 A 
ATOM      2  C   UNL     1      45.602 130.750  20.555  1.00  0.00     0.011 A 
ATOM      3  C   UNL     1      45.659 130.561  19.173  1.00  0.00     0.025 A 
ATOM      4  C   UNL     1      44.622 131.046  18.362  1.00  0.00     0.047 A 
ATOM      5  N   UNL     1      43.570 131.688  18.943  1.00  0.00    -0.260 NA
ATOM      6  C   UNL     1      43.492 131.883  20.286  1.00  0.00     0.119 A 
ENDROOT
BRANCH   1   7
ATOM      7  C   UNL     1      44.385 131.656  22.593  1.00  0.00     0.002 C 
ATOM      8  C   UNL     1      44.015 130.722  23.470  1.00  0.00     0.009 C 
ENDBRANCH   1   7
BRANCH   4   9
ATOM      9  C   UNL     1      44.629 130.863  16.860  1.00  0.00     0.081 C 
ATOM     10  C   UNL     1      43.774 131.934  16.154  1.00  0.00     0.014 C 
ATOM     11  C   UNL     1      46.066 130.869  16.295  1.00  0.00     0.206 C 
ATOM     12  C   UNL     1      43.735 131.760  14.617  1.00  0.00     0.003 C 
ATOM     13  O   UNL     1      46.753 129.686  16.682  1.00  0.00    -0.495 OA
ATOM     14  C   UNL     1      46.119 130.848  14.737  1.00  0.00     0.103 C 
ATOM     15  C   UNL     1      44.729 130.716  14.079  1.00  0.00     0.031 C 
ATOM     16  C   UNL     1      47.256 129.020  15.582  1.00  0.00     0.185 C 
ATOM     17  C   UNL     1      46.941 129.630  14.459  1.00  0.00     0.038 C 
ATOM     18  Cl  UNL     1      46.975 132.288  14.100  1.00  0.00    -0.111 Cl
ENDBRANCH   4   9
TORSDOF 2
ENDMDL
MODEL 8
REMARK VINA RESULT:      -5.0      1.742      2.661
REMARK SMILES C=Cc1ccc([C@H]2CCC[C@]3(Cl)C=CO[C@H]23)nc1
REMARK SMILES IDX 3 1 4 2 5 3 6 4 17 5 18 6 2 7 1 8 7 9 8 10 16 11 9 12 15 13
REMARK SMILES IDX 11 14 10 15 14 16 13 17 12 18
REMARK H PARENT
ROOT
ATOM      1  C   UNL     1      46.220 131.196  15.902  1.00  0.00    -0.008 A 
ATOM      2  C   UNL     1      45.336 132.107  16.508  1.00  0.00     0.011 A 
ATOM      3  C   UNL     1      44.846 131.862  17.792  1.00  0.00     0.025 A 
ATOM      4  C   UNL     1      45.235 130.699  18.474  1.00  0.00     0.047 A 
ATOM      5  N   UNL     1      46.081 129.823  17.864  1.00  0.00    -0.260 NA
ATOM      6  C   UNL     1      46.571 130.039  16.614  1.00  0.00     0.119 A 
ENDROOT
BRANCH   1   7
ATOM      7  C   UNL     1      46.772 131.389  14.538  1.00  0.00     0.002 C 
ATOM      8  C   UNL     1      46.189 130.949  13.422  1.00  0.00     0.009 C 
ENDBRANCH   1   7
BRANCH   4   9
ATOM      9  C   UNL     1      44.729 130.381  19.864  1.00  0.00     0.081 C 
ATOM     10  C   UNL     1      45.769 129.587  20.678  1.00  0.00     0.014 C 
ATOM     11  C   UNL     1      44.318 131.660  20.625  1.00  0.00     0.206 C 
ATOM     12  C   UNL     1      45.274 129.218  22.097  1.00  0.00     0.003 C 
ATOM     13  O   UNL     1      43.135 132.210  20.061  1.00  0.00    -0.495 OA
ATOM     14  C   UNL     1      43.945 131.400  22.116  1.00  0.00     0.103 C 
ATOM     15  C   UNL     1      43.957 129.905  22.499  1.00  0.00     0.031 C 
ATOM     16  C   UNL     1      42.155 132.372  21.021  1.00  0.00     0.185 C 
ATOM     17  C   UNL     1      42.554 131.945  22.199  1.00  0.00     0.038 C 
ATOM     18  Cl  UNL     1      45.004 132.334  23.219  1.00  0.00    -0.111 Cl
ENDBRANCH   4   9
TORSDOF 2
ENDMDL
MODEL 9
REMARK VINA RESULT:      -5.0      2.590      6.114
REMARK SMILES C=Cc1ccc([C@H]2CCC[C@]3(Cl)C=CO[C@H]23)nc1
REMARK SMILES IDX 3 1 4 2 5 3 6 4 17 5 18 6 2 7 1 8 7 9 8 10 16 11 9 12 15 13
REMARK SMILES IDX 11 14 10 15 14 16 13 17 12 18
REMARK H PARENT
ROOT
ATOM      1  C   UNL     1      43.711 131.761  20.899  1.00  0.00    -0.008 A 
ATOM      2  C   UNL     1      42.651 131.997  20.004  1.00  0.00     0.011 A 
ATOM      3  C   UNL     1      42.814 131.748  18.640  1.00  0.00     0.025 A 
ATOM      4  C   UNL     1      44.043 131.265  18.164  1.00  0.00     0.047 A 
ATOM      5  N   UNL     1      45.060 131.057  19.045  1.00  0.00    -0.260 NA
ATOM      6  C   UNL     1      44.926 131.293  20.377  1.00  0.00     0.119 A 
ENDROOT
BRANCH   1   7
ATOM      7  C   UNL     1      43.609 132.012  22.357  1.00  0.00     0.002 C 
ATOM      8  C   UNL     1      43.705 131.064  23.291  1.00  0.00     0.009 C 
ENDBRANCH   1   7
BRANCH   4   9
ATOM      9  C   UNL     1      44.277 130.985  16.696  1.00  0.00     0.081 C 
ATOM     10  C   UNL     1      43.517 131.983  15.800  1.00  0.00     0.014 C 
ATOM     11  C   UNL     1      45.782 130.993  16.349  1.00  0.00     0.206 C 
ATOM     12  C   UNL     1      43.708 131.708  14.290  1.00  0.00     0.003 C 
ATOM     13  O   UNL     1      46.424 129.858  16.912  1.00  0.00    -0.495 OA
ATOM     14  C   UNL     1      46.065 130.872  14.820  1.00  0.00     0.103 C 
ATOM     15  C   UNL     1      44.790 130.659  13.977  1.00  0.00     0.031 C 
ATOM     16  C   UNL     1      47.096 129.136  15.946  1.00  0.00     0.185 C 
ATOM     17  C   UNL     1      46.940 129.662  14.750  1.00  0.00     0.038 C 
ATOM     18  Cl  UNL     1      46.980 132.291  14.218  1.00  0.00    -0.111 Cl
ENDBRANCH   4   9
TORSDOF 2
ENDMDL


