REMARK SMILES O=C1Cc2ccc(-c3c[n-]c4nccc-4c3)cc2[N-]1
REMARK SMILES IDX 1 1 2 2 3 3 4 4 5 5 6 6 7 7 17 8 18 9 19 10 8 11 9 12 16 13
REMARK SMILES IDX 10 14 15 15 11 16 14 17 12 18 13 19
REMARK H PARENT
ROOT
ATOM      1  O   UNL     1      -5.400  -2.120   2.765  1.00  0.00    -0.320 OA
ATOM      2  C   UNL     1      -4.471  -1.489   2.198  1.00  0.00     0.059 C 
ATOM      3  C   UNL     1      -4.582  -0.060   1.761  1.00  0.00     0.089 C 
ATOM      4  C   UNL     1      -3.225   0.126   1.179  1.00  0.00    -0.057 A 
ATOM      5  C   UNL     1      -2.690   1.267   0.586  1.00  0.00     0.003 A 
ATOM      6  C   UNL     1      -1.375   1.217   0.098  1.00  0.00     0.009 A 
ATOM      7  C   UNL     1      -0.607   0.029   0.205  1.00  0.00    -0.020 A 
ATOM      8  C   UNL     1      -1.181  -1.111   0.812  1.00  0.00    -0.007 A 
ATOM      9  C   UNL     1      -2.488  -1.032   1.288  1.00  0.00    -0.130 A 
ATOM     10  N   UNL     1      -3.205  -2.084   1.914  1.00  0.00    -0.626 NA
ENDROOT
BRANCH   7  11
ATOM     11  C   UNL     1       0.783  -0.017  -0.316  1.00  0.00    -0.022 A 
ATOM     12  C   UNL     1       1.803  -0.696   0.415  1.00  0.00    -0.014 A 
ATOM     13  C   UNL     1       1.104   0.614  -1.542  1.00  0.00     0.016 A 
ATOM     14  N   UNL     1       3.091  -0.755  -0.042  1.00  0.00    -0.442 NA
ATOM     15  C   UNL     1       2.416   0.535  -1.977  1.00  0.00    -0.026 A 
ATOM     16  C   UNL     1       3.397  -0.155  -1.213  1.00  0.00    -0.052 A 
ATOM     17  C   UNL     1       3.068   1.007  -3.087  1.00  0.00     0.003 A 
ATOM     18  N   UNL     1       4.601  -0.121  -1.804  1.00  0.00    -0.442 NA
ATOM     19  C   UNL     1       4.393   0.588  -2.945  1.00  0.00    -0.022 A 
ENDBRANCH   7  11
TORSDOF 1


