MODEL 1
REMARK VINA RESULT:      -7.4      0.000      0.000
REMARK SMILES Cc1cccc(C(=O)/N=C(\S)Oc2[nH+]ccc3ccc(-c4cccc([C@H]5CO5)c4)cc23)c1
REMARK SMILES IDX 10 1 11 2 9 4 7 5 8 6 6 7 5 8 32 9 4 10 2 11 3 12 1 13 12 14
REMARK SMILES IDX 13 15 31 16 14 17 30 18 17 19 15 20 20 21 18 22 16 23 19 24
REMARK SMILES IDX 21 26 22 27 29 28 23 29 25 30 24 31 26 32 28 33 27 34
REMARK H PARENT 11 3 14 25
ROOT
ATOM      1  C   UNL     1      44.430 131.211  19.073  1.00  0.00     0.262 C 
ENDROOT
BRANCH   1   2
ATOM      2  S   UNL     1      42.728 131.784  19.098  1.00  0.00    -0.084 SA
ATOM      3  H   UNL     1      43.116 133.077  19.496  1.00  0.00     0.113 HD
ENDBRANCH   1   2
BRANCH   1   4
ATOM      4  N   UNL     1      45.194 131.340  18.025  1.00  0.00    -0.167 NA
BRANCH   4   5
ATOM      5  C   UNL     1      45.811 130.297  17.255  1.00  0.00     0.280 C 
ATOM      6  O   UNL     1      46.043 129.170  17.769  1.00  0.00    -0.267 OA
BRANCH   5   7
ATOM      7  C   UNL     1      46.183 130.555  15.844  1.00  0.00     0.042 A 
ATOM      8  C   UNL     1      45.409 131.416  15.047  1.00  0.00     0.014 A 
ATOM      9  C   UNL     1      47.279 129.888  15.264  1.00  0.00     0.017 A 
ATOM     10  C   UNL     1      45.711 131.589  13.695  1.00  0.00     0.001 A 
ATOM     11  C   UNL     1      47.586 130.066  13.906  1.00  0.00    -0.050 A 
ATOM     12  C   UNL     1      46.788 130.910  13.122  1.00  0.00     0.003 A 
ATOM     13  C   UNL     1      48.710 129.287  13.288  1.00  0.00     0.044 C 
ENDBRANCH   5   7
ENDBRANCH   4   5
ENDBRANCH   1   4
BRANCH   1  14
ATOM     14  O   UNL     1      44.914 130.571  20.221  1.00  0.00    -0.379 OA
BRANCH  14  15
ATOM     15  C   UNL     1      44.268 130.592  21.468  1.00  0.00     0.381 A 
ATOM     16  C   UNL     1      44.372 129.522  22.393  1.00  0.00     0.095 A 
ATOM     17  N   UNL     1      43.518 131.684  21.786  1.00  0.00    -0.179 N 
ATOM     18  C   UNL     1      45.044 128.325  22.088  1.00  0.00     0.028 A 
ATOM     19  C   UNL     1      43.768 129.666  23.665  1.00  0.00    -0.002 A 
ATOM     20  C   UNL     1      42.911 131.817  22.994  1.00  0.00     0.310 A 
ATOM     21  C   UNL     1      45.218 127.326  23.062  1.00  0.00    -0.017 A 
ATOM     22  C   UNL     1      43.907 128.653  24.624  1.00  0.00     0.010 A 
ATOM     23  C   UNL     1      43.037 130.822  23.959  1.00  0.00     0.079 A 
ATOM     24  C   UNL     1      44.640 127.503  24.331  1.00  0.00     0.009 A 
ATOM     25  H   UNL     1      43.427 132.457  21.089  1.00  0.00     0.457 HD
BRANCH  21  26
ATOM     26  C   UNL     1      46.056 126.132  22.778  1.00  0.00    -0.018 A 
ATOM     27  C   UNL     1      45.487 124.960  22.250  1.00  0.00     0.009 A 
ATOM     28  C   UNL     1      47.430 126.142  23.082  1.00  0.00     0.015 A 
ATOM     29  C   UNL     1      46.271 123.820  22.048  1.00  0.00     0.001 A 
ATOM     30  C   UNL     1      48.218 125.001  22.881  1.00  0.00    -0.016 A 
ATOM     31  C   UNL     1      47.629 123.835  22.374  1.00  0.00     0.006 A 
BRANCH  30  32
ATOM     32  C   UNL     1      49.663 125.007  23.286  1.00  0.00     0.174 C 
ATOM     33  O   UNL     1      50.252 126.267  23.064  1.00  0.00    -0.368 OA
ATOM     34  C   UNL     1      50.649 125.225  22.206  1.00  0.00     0.198 C 
ENDBRANCH  30  32
ENDBRANCH  21  26
ENDBRANCH  14  15
ENDBRANCH   1  14
TORSDOF 8
ENDMDL
MODEL 2
REMARK VINA RESULT:      -5.5      4.458      6.731
REMARK SMILES Cc1cccc(C(=O)/N=C(\S)Oc2[nH+]ccc3ccc(-c4cccc([C@H]5CO5)c4)cc23)c1
REMARK SMILES IDX 10 1 11 2 9 4 7 5 8 6 6 7 5 8 32 9 4 10 2 11 3 12 1 13 12 14
REMARK SMILES IDX 13 15 31 16 14 17 30 18 17 19 15 20 20 21 18 22 16 23 19 24
REMARK SMILES IDX 21 26 22 27 29 28 23 29 25 30 24 31 26 32 28 33 27 34
REMARK H PARENT 11 3 14 25
ROOT
ATOM      1  C   UNL     1      44.269 131.916  18.561  1.00  0.00     0.262 C 
ENDROOT
BRANCH   1   2
ATOM      2  S   UNL     1      42.524 132.033  18.967  1.00  0.00    -0.084 SA
ATOM      3  H   UNL     1      42.146 131.586  17.686  1.00  0.00     0.113 HD
ENDBRANCH   1   2
BRANCH   1   4
ATOM      4  N   UNL     1      44.691 131.705  17.346  1.00  0.00    -0.167 NA
BRANCH   4   5
ATOM      5  C   UNL     1      45.520 130.629  16.879  1.00  0.00     0.280 C 
ATOM      6  O   UNL     1      45.771 129.643  17.622  1.00  0.00    -0.267 OA
BRANCH   5   7
ATOM      7  C   UNL     1      46.088 130.687  15.511  1.00  0.00     0.042 A 
ATOM      8  C   UNL     1      45.411 131.367  14.484  1.00  0.00     0.014 A 
ATOM      9  C   UNL     1      47.281 130.004  15.207  1.00  0.00     0.017 A 
ATOM     10  C   UNL     1      45.904 131.347  13.179  1.00  0.00     0.001 A 
ATOM     11  C   UNL     1      47.779 129.986  13.896  1.00  0.00    -0.050 A 
ATOM     12  C   UNL     1      47.078 130.651  12.881  1.00  0.00     0.003 A 
ATOM     13  C   UNL     1      49.009 129.187  13.576  1.00  0.00     0.044 C 
ENDBRANCH   5   7
ENDBRANCH   4   5
ENDBRANCH   1   4
BRANCH   1  14
ATOM     14  O   UNL     1      45.187 132.020  19.614  1.00  0.00    -0.379 OA
BRANCH  14  15
ATOM     15  C   UNL     1      44.843 131.918  20.973  1.00  0.00     0.381 A 
ATOM     16  C   UNL     1      45.579 132.574  21.991  1.00  0.00     0.095 A 
ATOM     17  N   UNL     1      43.763 131.158  21.307  1.00  0.00    -0.179 N 
ATOM     18  C   UNL     1      46.761 133.289  21.726  1.00  0.00     0.028 A 
ATOM     19  C   UNL     1      45.107 132.497  23.323  1.00  0.00    -0.002 A 
ATOM     20  C   UNL     1      43.321 131.055  22.588  1.00  0.00     0.310 A 
ATOM     21  C   UNL     1      47.409 134.014  22.741  1.00  0.00    -0.017 A 
ATOM     22  C   UNL     1      45.776 133.188  24.343  1.00  0.00     0.010 A 
ATOM     23  C   UNL     1      43.973 131.733  23.615  1.00  0.00     0.079 A 
ATOM     24  C   UNL     1      46.905 133.953  24.052  1.00  0.00     0.009 A 
ATOM     25  H   UNL     1      43.240 130.658  20.553  1.00  0.00     0.457 HD
BRANCH  21  26
ATOM     26  C   UNL     1      48.570 134.887  22.422  1.00  0.00    -0.018 A 
ATOM     27  C   UNL     1      49.805 134.710  23.071  1.00  0.00     0.009 A 
ATOM     28  C   UNL     1      48.433 135.937  21.497  1.00  0.00     0.015 A 
ATOM     29  C   UNL     1      50.871 135.577  22.812  1.00  0.00     0.001 A 
ATOM     30  C   UNL     1      49.500 136.808  21.236  1.00  0.00    -0.016 A 
ATOM     31  C   UNL     1      50.716 136.630  21.908  1.00  0.00     0.006 A 
BRANCH  30  32
ATOM     32  C   UNL     1      49.309 137.971  20.307  1.00  0.00     0.174 C 
ATOM     33  O   UNL     1      48.194 137.779  19.469  1.00  0.00    -0.368 OA
ATOM     34  C   UNL     1      49.461 137.692  18.863  1.00  0.00     0.198 C 
ENDBRANCH  30  32
ENDBRANCH  21  26
ENDBRANCH  14  15
ENDBRANCH   1  14
TORSDOF 8
ENDMDL
MODEL 3
REMARK VINA RESULT:      -5.2      1.725      2.112
REMARK SMILES Cc1cccc(C(=O)/N=C(\S)Oc2[nH+]ccc3ccc(-c4cccc([C@H]5CO5)c4)cc23)c1
REMARK SMILES IDX 10 1 11 2 9 4 7 5 8 6 6 7 5 8 32 9 4 10 2 11 3 12 1 13 12 14
REMARK SMILES IDX 13 15 31 16 14 17 30 18 17 19 15 20 20 21 18 22 16 23 19 24
REMARK SMILES IDX 21 26 22 27 29 28 23 29 25 30 24 31 26 32 28 33 27 34
REMARK H PARENT 11 3 14 25
ROOT
ATOM      1  C   UNL     1      45.027 130.977  20.553  1.00  0.00     0.262 C 
ENDROOT
BRANCH   1   2
ATOM      2  S   UNL     1      46.637 130.791  19.779  1.00  0.00    -0.084 SA
ATOM      3  H   UNL     1      46.619 129.395  19.961  1.00  0.00     0.113 HD
ENDBRANCH   1   2
BRANCH   1   4
ATOM      4  N   UNL     1      43.915 130.919  19.875  1.00  0.00    -0.167 NA
BRANCH   4   5
ATOM      5  C   UNL     1      43.494 131.777  18.804  1.00  0.00     0.280 C 
ATOM      6  O   UNL     1      42.691 132.724  19.018  1.00  0.00    -0.267 OA
BRANCH   5   7
ATOM      7  C   UNL     1      44.006 131.538  17.433  1.00  0.00     0.042 A 
ATOM      8  C   UNL     1      43.239 131.898  16.312  1.00  0.00     0.014 A 
ATOM      9  C   UNL     1      45.238 130.887  17.239  1.00  0.00     0.017 A 
ATOM     10  C   UNL     1      43.685 131.594  15.025  1.00  0.00     0.001 A 
ATOM     11  C   UNL     1      45.689 130.584  15.945  1.00  0.00    -0.050 A 
ATOM     12  C   UNL     1      44.900 130.930  14.839  1.00  0.00     0.003 A 
ATOM     13  C   UNL     1      46.967 129.820  15.759  1.00  0.00     0.044 C 
ENDBRANCH   5   7
ENDBRANCH   4   5
ENDBRANCH   1   4
BRANCH   1  14
ATOM     14  O   UNL     1      44.997 131.232  21.930  1.00  0.00    -0.379 OA
BRANCH  14  15
ATOM     15  C   UNL     1      43.951 130.841  22.782  1.00  0.00     0.381 A 
ATOM     16  C   UNL     1      43.778 129.498  23.202  1.00  0.00     0.095 A 
ATOM     17  N   UNL     1      43.080 131.796  23.212  1.00  0.00    -0.179 N 
ATOM     18  C   UNL     1      44.579 128.448  22.716  1.00  0.00     0.028 A 
ATOM     19  C   UNL     1      42.757 129.207  24.137  1.00  0.00    -0.002 A 
ATOM     20  C   UNL     1      42.078 131.520  24.087  1.00  0.00     0.310 A 
ATOM     21  C   UNL     1      44.450 127.145  23.230  1.00  0.00    -0.017 A 
ATOM     22  C   UNL     1      42.603 127.900  24.620  1.00  0.00     0.010 A 
ATOM     23  C   UNL     1      41.908 130.227  24.577  1.00  0.00     0.079 A 
ATOM     24  C   UNL     1      43.452 126.884  24.185  1.00  0.00     0.009 A 
ATOM     25  H   UNL     1      43.199 132.779  22.879  1.00  0.00     0.457 HD
BRANCH  21  26
ATOM     26  C   UNL     1      45.398 126.075  22.821  1.00  0.00    -0.018 A 
ATOM     27  C   UNL     1      44.937 124.785  22.508  1.00  0.00     0.009 A 
ATOM     28  C   UNL     1      46.781 126.330  22.788  1.00  0.00     0.015 A 
ATOM     29  C   UNL     1      45.843 123.768  22.189  1.00  0.00     0.001 A 
ATOM     30  C   UNL     1      47.690 125.312  22.469  1.00  0.00    -0.016 A 
ATOM     31  C   UNL     1      47.215 124.026  22.181  1.00  0.00     0.006 A 
BRANCH  30  32
ATOM     32  C   UNL     1      49.166 125.582  22.518  1.00  0.00     0.174 C 
ATOM     33  O   UNL     1      49.878 124.681  21.704  1.00  0.00    -0.368 OA
ATOM     34  C   UNL     1      50.012 124.515  23.095  1.00  0.00     0.198 C 
ENDBRANCH  30  32
ENDBRANCH  21  26
ENDBRANCH  14  15
ENDBRANCH   1  14
TORSDOF 8
ENDMDL


