REMARK SMILES C/C(O)=[N+](\C)[C@@H](C)C(=O)N(c1cn2ccccc2n1)c1cc2ccccc2[nH]1
REMARK SMILES IDX 6 1 7 2 4 3 5 4 2 5 1 6 3 7 8 9 9 10 10 11 11 12 19 13 12 14
REMARK SMILES IDX 18 15 13 16 17 17 14 18 16 19 15 20 20 21 21 22 28 23 22 24
REMARK SMILES IDX 27 25 23 26 26 27 24 28 25 29
REMARK H PARENT 3 8 28 30
ROOT
ATOM      1  C   UNL     1       2.079   0.226  -0.142  1.00  0.00     0.349 C 
ATOM      2  C   UNL     1       2.037  -0.258   1.316  1.00  0.00     0.098 C 
ENDROOT
BRANCH   1   3
ATOM      3  N   UNL     1       3.157   1.235  -0.311  1.00  0.00    -0.194 N 
ATOM      4  C   UNL     1       3.052   2.510   0.426  1.00  0.00     0.437 C 
BRANCH   3   5
ATOM      5  C   UNL     1       4.198   0.995  -1.085  1.00  0.00     0.331 C 
ATOM      6  C   UNL     1       5.309   2.001  -1.262  1.00  0.00     0.172 C 
BRANCH   5   7
ATOM      7  O   UNL     1       4.301  -0.217  -1.775  1.00  0.00    -0.464 OA
ATOM      8  H   UNL     1       5.087  -0.426  -2.377  1.00  0.00     0.299 HD
ENDBRANCH   5   7
ENDBRANCH   3   5
ENDBRANCH   1   3
BRANCH   1   9
ATOM      9  C   UNL     1       0.739   0.775  -0.592  1.00  0.00     0.302 C 
ATOM     10  O   UNL     1       0.698   1.785  -1.347  1.00  0.00    -0.266 OA
BRANCH   9  11
ATOM     11  N   UNL     1      -0.493   0.135  -0.212  1.00  0.00    -0.243 N 
BRANCH  11  12
ATOM     12  C   UNL     1      -1.574   0.926   0.315  1.00  0.00     0.160 A 
ATOM     13  N   UNL     1      -2.867   0.515   0.336  1.00  0.00    -0.211 NA
ATOM     14  C   UNL     1      -1.454   2.197   0.863  1.00  0.00     0.140 A 
ATOM     15  C   UNL     1      -3.506   1.558   0.904  1.00  0.00     0.139 A 
ATOM     16  N   UNL     1      -2.687   2.573   1.227  1.00  0.00    -0.305 N 
ATOM     17  C   UNL     1      -4.874   1.636   1.158  1.00  0.00     0.048 A 
ATOM     18  C   UNL     1      -3.110   3.722   1.811  1.00  0.00     0.093 A 
ATOM     19  C   UNL     1      -5.359   2.808   1.761  1.00  0.00     0.005 A 
ATOM     20  C   UNL     1      -4.478   3.857   2.090  1.00  0.00     0.018 A 
ENDBRANCH  11  12
BRANCH  11  21
ATOM     21  C   UNL     1      -0.667  -1.277  -0.426  1.00  0.00     0.120 A 
ATOM     22  C   UNL     1      -0.108  -2.002  -1.478  1.00  0.00     0.056 A 
ATOM     23  N   UNL     1      -1.387  -2.078   0.397  1.00  0.00    -0.341 N 
ATOM     24  C   UNL     1      -0.520  -3.299  -1.265  1.00  0.00     0.002 A 
ATOM     25  C   UNL     1      -1.287  -3.310  -0.128  1.00  0.00     0.047 A 
ATOM     26  C   UNL     1      -0.266  -4.460  -1.992  1.00  0.00     0.010 A 
ATOM     27  C   UNL     1      -1.851  -4.487   0.363  1.00  0.00     0.027 A 
ATOM     28  C   UNL     1      -0.824  -5.663  -1.521  1.00  0.00     0.001 A 
ATOM     29  C   UNL     1      -1.612  -5.677  -0.349  1.00  0.00     0.002 A 
ATOM     30  H   UNL     1      -1.888  -1.806   1.272  1.00  0.00     0.168 HD
ENDBRANCH  11  21
ENDBRANCH   9  11
ENDBRANCH   1   9
TORSDOF 7


