MODEL 1
REMARK VINA RESULT:      -9.9      0.000      0.000
REMARK SMILES Fc1ccc2nc(-c3ccc4[nH]ccc4c3)ncc2c1
REMARK SMILES IDX 1 1 2 2 3 3 4 4 5 5 6 6 7 7 17 8 18 9 19 10 20 11 8 12 9 13
REMARK SMILES IDX 16 14 10 15 15 16 11 17 14 18 12 19 13 20
REMARK H PARENT 12 21
ROOT
ATOM      1  F   UNL     1      42.220 131.716  23.893  1.00  0.00    -0.207 F 
ATOM      2  C   UNL     1      42.695 131.719  22.623  1.00  0.00     0.124 A 
ATOM      3  C   UNL     1      42.014 132.427  21.625  1.00  0.00     0.041 A 
ATOM      4  C   UNL     1      42.498 132.435  20.312  1.00  0.00     0.032 A 
ATOM      5  C   UNL     1      43.667 131.731  19.994  1.00  0.00     0.075 A 
ATOM      6  N   UNL     1      44.143 131.733  18.723  1.00  0.00    -0.228 NA
ATOM      7  C   UNL     1      45.278 131.055  18.391  1.00  0.00     0.159 A 
ATOM      8  N   UNL     1      45.948 130.362  19.353  1.00  0.00    -0.236 NA
ATOM      9  C   UNL     1      45.512 130.329  20.640  1.00  0.00     0.124 A 
ATOM     10  C   UNL     1      44.352 131.018  20.998  1.00  0.00     0.022 A 
ATOM     11  C   UNL     1      43.863 131.013  22.311  1.00  0.00     0.051 A 
ENDROOT
BRANCH   7  12
ATOM     12  C   UNL     1      45.778 131.073  16.995  1.00  0.00     0.020 A 
ATOM     13  C   UNL     1      45.501 132.178  16.142  1.00  0.00     0.014 A 
ATOM     14  C   UNL     1      46.539 129.987  16.494  1.00  0.00     0.022 A 
ATOM     15  C   UNL     1      45.971 132.204  14.818  1.00  0.00     0.027 A 
ATOM     16  C   UNL     1      46.987 130.049  15.177  1.00  0.00     0.000 A 
ATOM     17  C   UNL     1      46.713 131.117  14.367  1.00  0.00     0.045 A 
ATOM     18  C   UNL     1      47.733 129.154  14.441  1.00  0.00     0.028 A 
ATOM     19  N   UNL     1      47.251 130.943  13.149  1.00  0.00    -0.361 N 
ATOM     20  C   UNL     1      47.876 129.744  13.188  1.00  0.00     0.083 A 
ATOM     21  H   UNL     1      47.200 131.596  12.336  1.00  0.00     0.166 HD
ENDBRANCH   7  12
TORSDOF 1
ENDMDL
MODEL 2
REMARK VINA RESULT:      -9.8      0.890      1.766
REMARK SMILES Fc1ccc2nc(-c3ccc4[nH]ccc4c3)ncc2c1
REMARK SMILES IDX 1 1 2 2 3 3 4 4 5 5 6 6 7 7 17 8 18 9 19 10 20 11 8 12 9 13
REMARK SMILES IDX 16 14 10 15 15 16 11 17 14 18 12 19 13 20
REMARK H PARENT 12 21
ROOT
ATOM      1  F   UNL     1      42.393 131.958  23.617  1.00  0.00    -0.207 F 
ATOM      2  C   UNL     1      43.035 131.765  22.438  1.00  0.00     0.124 A 
ATOM      3  C   UNL     1      44.370 131.346  22.430  1.00  0.00     0.041 A 
ATOM      4  C   UNL     1      45.039 131.145  21.218  1.00  0.00     0.032 A 
ATOM      5  C   UNL     1      44.370 131.365  20.007  1.00  0.00     0.075 A 
ATOM      6  N   UNL     1      45.011 131.173  18.825  1.00  0.00    -0.228 NA
ATOM      7  C   UNL     1      44.379 131.381  17.636  1.00  0.00     0.159 A 
ATOM      8  N   UNL     1      43.080 131.790  17.631  1.00  0.00    -0.236 NA
ATOM      9  C   UNL     1      42.395 131.996  18.785  1.00  0.00     0.124 A 
ATOM     10  C   UNL     1      43.026 131.788  20.014  1.00  0.00     0.022 A 
ATOM     11  C   UNL     1      42.361 131.988  21.231  1.00  0.00     0.051 A 
ENDROOT
BRANCH   7  12
ATOM     12  C   UNL     1      45.101 131.164  16.359  1.00  0.00     0.020 A 
ATOM     13  C   UNL     1      44.645 131.778  15.158  1.00  0.00     0.014 A 
ATOM     14  C   UNL     1      46.256 130.342  16.320  1.00  0.00     0.022 A 
ATOM     15  C   UNL     1      45.323 131.578  13.943  1.00  0.00     0.027 A 
ATOM     16  C   UNL     1      46.899 130.169  15.097  1.00  0.00     0.000 A 
ATOM     17  C   UNL     1      46.451 130.764  13.950  1.00  0.00     0.045 A 
ATOM     18  C   UNL     1      48.022 129.438  14.771  1.00  0.00     0.028 A 
ATOM     19  N   UNL     1      47.237 130.446  12.908  1.00  0.00    -0.361 N 
ATOM     20  C   UNL     1      48.199 129.635  13.405  1.00  0.00     0.083 A 
ATOM     21  H   UNL     1      47.130 130.758  11.917  1.00  0.00     0.166 HD
ENDBRANCH   7  12
TORSDOF 1
ENDMDL
MODEL 3
REMARK VINA RESULT:      -9.5      3.339      7.542
REMARK SMILES Fc1ccc2nc(-c3ccc4[nH]ccc4c3)ncc2c1
REMARK SMILES IDX 1 1 2 2 3 3 4 4 5 5 6 6 7 7 17 8 18 9 19 10 20 11 8 12 9 13
REMARK SMILES IDX 16 14 10 15 15 16 11 17 14 18 12 19 13 20
REMARK H PARENT 12 21
ROOT
ATOM      1  F   UNL     1      48.079 129.972  12.117  1.00  0.00    -0.207 F 
ATOM      2  C   UNL     1      47.485 130.151  13.322  1.00  0.00     0.124 A 
ATOM      3  C   UNL     1      48.058 129.596  14.472  1.00  0.00     0.041 A 
ATOM      4  C   UNL     1      47.451 129.776  15.720  1.00  0.00     0.032 A 
ATOM      5  C   UNL     1      46.265 130.515  15.819  1.00  0.00     0.075 A 
ATOM      6  N   UNL     1      45.668 130.695  17.025  1.00  0.00    -0.228 NA
ATOM      7  C   UNL     1      44.514 131.409  17.145  1.00  0.00     0.159 A 
ATOM      8  N   UNL     1      43.946 131.952  16.032  1.00  0.00    -0.236 NA
ATOM      9  C   UNL     1      44.503 131.801  14.803  1.00  0.00     0.124 A 
ATOM     10  C   UNL     1      45.687 131.073  14.662  1.00  0.00     0.022 A 
ATOM     11  C   UNL     1      46.299 130.889  13.414  1.00  0.00     0.051 A 
ENDROOT
BRANCH   7  12
ATOM     12  C   UNL     1      43.882 131.591  18.474  1.00  0.00     0.020 A 
ATOM     13  C   UNL     1      42.559 132.105  18.580  1.00  0.00     0.014 A 
ATOM     14  C   UNL     1      44.590 131.256  19.655  1.00  0.00     0.022 A 
ATOM     15  C   UNL     1      41.951 132.281  19.835  1.00  0.00     0.027 A 
ATOM     16  C   UNL     1      43.955 131.445  20.879  1.00  0.00     0.000 A 
ATOM     17  C   UNL     1      42.682 131.939  20.968  1.00  0.00     0.045 A 
ATOM     18  C   UNL     1      44.396 131.209  22.164  1.00  0.00     0.028 A 
ATOM     19  N   UNL     1      42.293 132.028  22.251  1.00  0.00    -0.361 N 
ATOM     20  C   UNL     1      43.337 131.583  22.986  1.00  0.00     0.083 A 
ATOM     21  H   UNL     1      41.374 132.371  22.610  1.00  0.00     0.166 HD
ENDBRANCH   7  12
TORSDOF 1
ENDMDL
MODEL 4
REMARK VINA RESULT:      -9.5      3.239      7.652
REMARK SMILES Fc1ccc2nc(-c3ccc4[nH]ccc4c3)ncc2c1
REMARK SMILES IDX 1 1 2 2 3 3 4 4 5 5 6 6 7 7 17 8 18 9 19 10 20 11 8 12 9 13
REMARK SMILES IDX 16 14 10 15 15 16 11 17 14 18 12 19 13 20
REMARK H PARENT 12 21
ROOT
ATOM      1  F   UNL     1      47.785 130.718  12.008  1.00  0.00    -0.207 F 
ATOM      2  C   UNL     1      47.380 130.582  13.295  1.00  0.00     0.124 A 
ATOM      3  C   UNL     1      47.683 129.412  14.002  1.00  0.00     0.041 A 
ATOM      4  C   UNL     1      47.269 129.266  15.330  1.00  0.00     0.032 A 
ATOM      5  C   UNL     1      46.550 130.292  15.955  1.00  0.00     0.075 A 
ATOM      6  N   UNL     1      46.143 130.158  17.244  1.00  0.00    -0.228 NA
ATOM      7  C   UNL     1      45.442 131.143  17.871  1.00  0.00     0.159 A 
ATOM      8  N   UNL     1      45.141 132.285  17.193  1.00  0.00    -0.236 NA
ATOM      9  C   UNL     1      45.524 132.468  15.903  1.00  0.00     0.124 A 
ATOM     10  C   UNL     1      46.244 131.469  15.244  1.00  0.00     0.022 A 
ATOM     11  C   UNL     1      46.661 131.611  13.913  1.00  0.00     0.051 A 
ENDROOT
BRANCH   7  12
ATOM     12  C   UNL     1      45.010 130.973  19.280  1.00  0.00     0.020 A 
ATOM     13  C   UNL     1      45.670 130.041  20.130  1.00  0.00     0.014 A 
ATOM     14  C   UNL     1      43.934 131.737  19.795  1.00  0.00     0.022 A 
ATOM     15  C   UNL     1      45.268 129.873  21.466  1.00  0.00     0.027 A 
ATOM     16  C   UNL     1      43.565 131.541  21.124  1.00  0.00     0.000 A 
ATOM     17  C   UNL     1      44.207 130.643  21.931  1.00  0.00     0.045 A 
ATOM     18  C   UNL     1      42.573 132.136  21.875  1.00  0.00     0.028 A 
ATOM     19  N   UNL     1      43.670 130.638  23.162  1.00  0.00    -0.361 N 
ATOM     20  C   UNL     1      42.671 131.549  23.134  1.00  0.00     0.083 A 
ATOM     21  H   UNL     1      43.961 130.052  23.976  1.00  0.00     0.166 HD
ENDBRANCH   7  12
TORSDOF 1
ENDMDL
MODEL 5
REMARK VINA RESULT:      -9.0      0.919      2.133
REMARK SMILES Fc1ccc2nc(-c3ccc4[nH]ccc4c3)ncc2c1
REMARK SMILES IDX 1 1 2 2 3 3 4 4 5 5 6 6 7 7 17 8 18 9 19 10 20 11 8 12 9 13
REMARK SMILES IDX 16 14 10 15 15 16 11 17 14 18 12 19 13 20
REMARK H PARENT 12 21
ROOT
ATOM      1  F   UNL     1      42.421 132.150  23.910  1.00  0.00    -0.207 F 
ATOM      2  C   UNL     1      43.071 131.808  22.771  1.00  0.00     0.124 A 
ATOM      3  C   UNL     1      44.273 131.094  22.839  1.00  0.00     0.041 A 
ATOM      4  C   UNL     1      44.949 130.739  21.667  1.00  0.00     0.032 A 
ATOM      5  C   UNL     1      44.422 131.099  20.420  1.00  0.00     0.075 A 
ATOM      6  N   UNL     1      45.071 130.759  19.277  1.00  0.00    -0.228 NA
ATOM      7  C   UNL     1      44.577 131.099  18.054  1.00  0.00     0.159 A 
ATOM      8  N   UNL     1      43.409 131.796  17.975  1.00  0.00    -0.236 NA
ATOM      9  C   UNL     1      42.721 132.160  19.088  1.00  0.00     0.124 A 
ATOM     10  C   UNL     1      43.213 131.819  20.350  1.00  0.00     0.022 A 
ATOM     11  C   UNL     1      42.539 132.173  21.528  1.00  0.00     0.051 A 
ENDROOT
BRANCH   7  12
ATOM     12  C   UNL     1      45.305 130.715  16.820  1.00  0.00     0.020 A 
ATOM     13  C   UNL     1      45.387 129.350  16.425  1.00  0.00     0.014 A 
ATOM     14  C   UNL     1      45.928 131.706  16.020  1.00  0.00     0.022 A 
ATOM     15  C   UNL     1      46.075 128.977  15.257  1.00  0.00     0.027 A 
ATOM     16  C   UNL     1      46.600 131.296  14.871  1.00  0.00     0.000 A 
ATOM     17  C   UNL     1      46.672 129.981  14.502  1.00  0.00     0.045 A 
ATOM     18  C   UNL     1      47.284 132.028  13.924  1.00  0.00     0.028 A 
ATOM     19  N   UNL     1      47.370 129.842  13.363  1.00  0.00    -0.361 N 
ATOM     20  C   UNL     1      47.747 131.091  13.005  1.00  0.00     0.083 A 
ATOM     21  H   UNL     1      47.581 128.955  12.855  1.00  0.00     0.166 HD
ENDBRANCH   7  12
TORSDOF 1
ENDMDL
MODEL 6
REMARK VINA RESULT:      -8.9      3.285      7.491
REMARK SMILES Fc1ccc2nc(-c3ccc4[nH]ccc4c3)ncc2c1
REMARK SMILES IDX 1 1 2 2 3 3 4 4 5 5 6 6 7 7 17 8 18 9 19 10 20 11 8 12 9 13
REMARK SMILES IDX 16 14 10 15 15 16 11 17 14 18 12 19 13 20
REMARK H PARENT 12 21
ROOT
ATOM      1  F   UNL     1      48.276 130.320  12.218  1.00  0.00    -0.207 F 
ATOM      2  C   UNL     1      47.661 130.303  13.426  1.00  0.00     0.124 A 
ATOM      3  C   UNL     1      47.643 129.126  14.183  1.00  0.00     0.041 A 
ATOM      4  C   UNL     1      47.010 129.100  15.431  1.00  0.00     0.032 A 
ATOM      5  C   UNL     1      46.391 130.256  15.923  1.00  0.00     0.075 A 
ATOM      6  N   UNL     1      45.774 130.241  17.133  1.00  0.00    -0.228 NA
ATOM      7  C   UNL     1      45.165 131.353  17.631  1.00  0.00     0.159 A 
ATOM      8  N   UNL     1      45.175 132.504  16.903  1.00  0.00    -0.236 NA
ATOM      9  C   UNL     1      45.779 132.571  15.688  1.00  0.00     0.124 A 
ATOM     10  C   UNL     1      46.408 131.441  15.161  1.00  0.00     0.022 A 
ATOM     11  C   UNL     1      47.043 131.461  13.912  1.00  0.00     0.051 A 
ENDROOT
BRANCH   7  12
ATOM     12  C   UNL     1      44.498 131.311  18.955  1.00  0.00     0.020 A 
ATOM     13  C   UNL     1      43.257 131.977  19.160  1.00  0.00     0.014 A 
ATOM     14  C   UNL     1      45.090 130.605  20.032  1.00  0.00     0.022 A 
ATOM     15  C   UNL     1      42.617 131.941  20.411  1.00  0.00     0.027 A 
ATOM     16  C   UNL     1      44.426 130.593  21.256  1.00  0.00     0.000 A 
ATOM     17  C   UNL     1      43.233 131.237  21.440  1.00  0.00     0.045 A 
ATOM     18  C   UNL     1      44.762 129.998  22.453  1.00  0.00     0.028 A 
ATOM     19  N   UNL     1      42.795 131.080  22.700  1.00  0.00    -0.361 N 
ATOM     20  C   UNL     1      43.726 130.323  23.324  1.00  0.00     0.083 A 
ATOM     21  H   UNL     1      41.917 131.462  23.117  1.00  0.00     0.166 HD
ENDBRANCH   7  12
TORSDOF 1
ENDMDL
MODEL 7
REMARK VINA RESULT:      -8.6      3.118      7.656
REMARK SMILES Fc1ccc2nc(-c3ccc4[nH]ccc4c3)ncc2c1
REMARK SMILES IDX 1 1 2 2 3 3 4 4 5 5 6 6 7 7 17 8 18 9 19 10 20 11 8 12 9 13
REMARK SMILES IDX 16 14 10 15 15 16 11 17 14 18 12 19 13 20
REMARK H PARENT 12 21
ROOT
ATOM      1  F   UNL     1      46.516 130.947  12.524  1.00  0.00    -0.207 F 
ATOM      2  C   UNL     1      46.310 130.832  13.859  1.00  0.00     0.124 A 
ATOM      3  C   UNL     1      47.216 130.114  14.647  1.00  0.00     0.041 A 
ATOM      4  C   UNL     1      47.010 129.992  16.025  1.00  0.00     0.032 A 
ATOM      5  C   UNL     1      45.893 130.591  16.620  1.00  0.00     0.075 A 
ATOM      6  N   UNL     1      45.684 130.477  17.957  1.00  0.00    -0.228 NA
ATOM      7  C   UNL     1      44.604 131.052  18.556  1.00  0.00     0.159 A 
ATOM      8  N   UNL     1      43.714 131.753  17.799  1.00  0.00    -0.236 NA
ATOM      9  C   UNL     1      43.877 131.895  16.459  1.00  0.00     0.124 A 
ATOM     10  C   UNL     1      44.979 131.314  15.828  1.00  0.00     0.022 A 
ATOM     11  C   UNL     1      45.190 131.433  14.447  1.00  0.00     0.051 A 
ENDROOT
BRANCH   7  12
ATOM     12  C   UNL     1      44.398 130.913  20.018  1.00  0.00     0.020 A 
ATOM     13  C   UNL     1      45.207 130.023  20.780  1.00  0.00     0.014 A 
ATOM     14  C   UNL     1      43.393 131.668  20.674  1.00  0.00     0.022 A 
ATOM     15  C   UNL     1      45.020 129.886  22.166  1.00  0.00     0.027 A 
ATOM     16  C   UNL     1      43.239 131.503  22.048  1.00  0.00     0.000 A 
ATOM     17  C   UNL     1      44.022 130.645  22.769  1.00  0.00     0.045 A 
ATOM     18  C   UNL     1      42.359 132.097  22.928  1.00  0.00     0.028 A 
ATOM     19  N   UNL     1      43.681 130.664  24.068  1.00  0.00    -0.361 N 
ATOM     20  C   UNL     1      42.665 131.550  24.171  1.00  0.00     0.083 A 
ATOM     21  H   UNL     1      44.110 130.110  24.843  1.00  0.00     0.166 HD
ENDBRANCH   7  12
TORSDOF 1
ENDMDL
MODEL 8
REMARK VINA RESULT:      -8.6      3.146      7.500
REMARK SMILES Fc1ccc2nc(-c3ccc4[nH]ccc4c3)ncc2c1
REMARK SMILES IDX 1 1 2 2 3 3 4 4 5 5 6 6 7 7 17 8 18 9 19 10 20 11 8 12 9 13
REMARK SMILES IDX 16 14 10 15 15 16 11 17 14 18 12 19 13 20
REMARK H PARENT 12 21
ROOT
ATOM      1  F   UNL     1      46.715 130.585  12.635  1.00  0.00    -0.207 F 
ATOM      2  C   UNL     1      46.362 130.642  13.942  1.00  0.00     0.124 A 
ATOM      3  C   UNL     1      47.218 130.122  14.920  1.00  0.00     0.041 A 
ATOM      4  C   UNL     1      46.861 130.178  16.272  1.00  0.00     0.032 A 
ATOM      5  C   UNL     1      45.642 130.755  16.648  1.00  0.00     0.075 A 
ATOM      6  N   UNL     1      45.286 130.813  17.957  1.00  0.00    -0.228 NA
ATOM      7  C   UNL     1      44.105 131.370  18.346  1.00  0.00     0.159 A 
ATOM      8  N   UNL     1      43.263 131.878  17.404  1.00  0.00    -0.236 NA
ATOM      9  C   UNL     1      43.572 131.844  16.082  1.00  0.00     0.124 A 
ATOM     10  C   UNL     1      44.779 131.278  15.665  1.00  0.00     0.022 A 
ATOM     11  C   UNL     1      45.142 131.219  14.312  1.00  0.00     0.051 A 
ENDROOT
BRANCH   7  12
ATOM     12  C   UNL     1      43.740 131.422  19.783  1.00  0.00     0.020 A 
ATOM     13  C   UNL     1      42.708 132.291  20.235  1.00  0.00     0.014 A 
ATOM     14  C   UNL     1      44.416 130.603  20.722  1.00  0.00     0.022 A 
ATOM     15  C   UNL     1      42.355 132.347  21.594  1.00  0.00     0.027 A 
ATOM     16  C   UNL     1      44.037 130.687  22.060  1.00  0.00     0.000 A 
ATOM     17  C   UNL     1      43.044 131.527  22.482  1.00  0.00     0.045 A 
ATOM     18  C   UNL     1      44.513 130.021  23.169  1.00  0.00     0.028 A 
ATOM     19  N   UNL     1      42.865 131.426  23.809  1.00  0.00    -0.361 N 
ATOM     20  C   UNL     1      43.761 130.506  24.235  1.00  0.00     0.083 A 
ATOM     21  H   UNL     1      42.177 131.949  24.396  1.00  0.00     0.166 HD
ENDBRANCH   7  12
TORSDOF 1
ENDMDL
MODEL 9
REMARK VINA RESULT:      -8.5      3.139      7.418
REMARK SMILES Fc1ccc2nc(-c3ccc4[nH]ccc4c3)ncc2c1
REMARK SMILES IDX 1 1 2 2 3 3 4 4 5 5 6 6 7 7 17 8 18 9 19 10 20 11 8 12 9 13
REMARK SMILES IDX 16 14 10 15 15 16 11 17 14 18 12 19 13 20
REMARK H PARENT 12 21
ROOT
ATOM      1  F   UNL     1      46.620 130.611  12.682  1.00  0.00    -0.207 F 
ATOM      2  C   UNL     1      45.983 130.849  13.855  1.00  0.00     0.124 A 
ATOM      3  C   UNL     1      44.737 131.486  13.857  1.00  0.00     0.041 A 
ATOM      4  C   UNL     1      44.075 131.735  15.064  1.00  0.00     0.032 A 
ATOM      5  C   UNL     1      44.660 131.346  16.275  1.00  0.00     0.075 A 
ATOM      6  N   UNL     1      44.025 131.584  17.451  1.00  0.00    -0.228 NA
ATOM      7  C   UNL     1      44.576 131.213  18.641  1.00  0.00     0.159 A 
ATOM      8  N   UNL     1      45.788 130.594  18.652  1.00  0.00    -0.236 NA
ATOM      9  C   UNL     1      46.464 130.333  17.503  1.00  0.00     0.124 A 
ATOM     10  C   UNL     1      45.915 130.705  16.274  1.00  0.00     0.022 A 
ATOM     11  C   UNL     1      46.574 130.458  15.062  1.00  0.00     0.051 A 
ENDROOT
BRANCH   7  12
ATOM     12  C   UNL     1      43.861 131.484  19.912  1.00  0.00     0.020 A 
ATOM     13  C   UNL     1      42.684 132.285  19.923  1.00  0.00     0.014 A 
ATOM     14  C   UNL     1      44.344 130.948  21.132  1.00  0.00     0.022 A 
ATOM     15  C   UNL     1      42.000 132.547  21.122  1.00  0.00     0.027 A 
ATOM     16  C   UNL     1      43.639 131.230  22.299  1.00  0.00     0.000 A 
ATOM     17  C   UNL     1      42.509 132.001  22.296  1.00  0.00     0.045 A 
ATOM     18  C   UNL     1      43.874 130.848  23.603  1.00  0.00     0.028 A 
ATOM     19  N   UNL     1      42.014 132.127  23.539  1.00  0.00    -0.361 N 
ATOM     20  C   UNL     1      42.845 131.424  24.341  1.00  0.00     0.083 A 
ATOM     21  H   UNL     1      41.162 132.658  23.829  1.00  0.00     0.166 HD
ENDBRANCH   7  12
TORSDOF 1
ENDMDL


