REMARK SMILES Cc1ccc(N[C@H]2CC[C@@H]3[N+](C)=NN[C@]3([NH3+])[C@@H]2O)cc1
REMARK SMILES IDX 7 1 8 2 9 3 10 4 11 5 12 6 13 7 14 8 15 9 17 10 6 12 5 14
REMARK SMILES IDX 2 15 3 16 20 17 4 18 19 19 1 20 18 21 16 23
REMARK H PARENT 14 11 6 13 18 22 16 24 16 25 16 26
ROOT
ATOM      1  C   UNL     1      -0.212   0.196   0.386  1.00  0.00     0.119 C 
ATOM      2  C   UNL     1      -0.249  -0.612  -0.941  1.00  0.00     0.033 C 
ATOM      3  C   UNL     1      -1.489  -0.343  -1.804  1.00  0.00     0.066 C 
ATOM      4  C   UNL     1      -1.768   1.163  -1.971  1.00  0.00     0.310 C 
ATOM      5  N   UNL     1      -0.689   1.832  -2.702  1.00  0.00    -0.158 N 
ATOM      6  C   UNL     1      -0.286   1.536  -4.072  1.00  0.00     0.320 C 
ATOM      7  N   UNL     1      -0.171   2.781  -2.044  1.00  0.00     0.083 NA
ATOM      8  N   UNL     1      -0.757   2.927  -0.791  1.00  0.00    -0.121 N 
ATOM      9  C   UNL     1      -1.812   1.937  -0.611  1.00  0.00     0.318 C 
ATOM     10  C   UNL     1      -1.496   1.032   0.616  1.00  0.00     0.251 C 
ATOM     11  H   UNL     1      -0.483   3.666  -0.106  1.00  0.00     0.342 HD
ENDROOT
BRANCH   1  12
ATOM     12  N   UNL     1       0.015  -0.708   1.524  1.00  0.00    -0.379 N 
ATOM     13  H   UNL     1      -0.775  -0.872   2.189  1.00  0.00     0.160 HD
BRANCH  12  14
ATOM     14  C   UNL     1       1.260  -1.387   1.791  1.00  0.00     0.034 A 
ATOM     15  C   UNL     1       3.656  -2.761   2.365  1.00  0.00    -0.051 A 
ATOM     16  C   UNL     1       2.520  -2.954   3.163  1.00  0.00     0.005 A 
ATOM     17  C   UNL     1       3.598  -1.858   1.295  1.00  0.00     0.005 A 
ATOM     18  C   UNL     1       1.332  -2.278   2.874  1.00  0.00     0.026 A 
ATOM     19  C   UNL     1       2.411  -1.179   1.004  1.00  0.00     0.026 A 
ATOM     20  C   UNL     1       4.942  -3.457   2.699  1.00  0.00     0.044 C 
ENDBRANCH  12  14
ENDBRANCH   1  12
BRANCH  10  21
ATOM     21  O   UNL     1      -1.323   1.822   1.768  1.00  0.00    -0.380 OA
ATOM     22  H   UNL     1      -2.206   1.888   2.216  1.00  0.00     0.211 HD
ENDBRANCH  10  21
BRANCH   9  23
ATOM     23  N   UNL     1      -3.104   2.618  -0.441  1.00  0.00    -0.310 N 
ATOM     24  H   UNL     1      -3.090   3.222   0.412  1.00  0.00     0.348 HD
ATOM     25  H   UNL     1      -3.873   1.914  -0.351  1.00  0.00     0.348 HD
ATOM     26  H   UNL     1      -3.301   3.232  -1.266  1.00  0.00     0.348 HD
ENDBRANCH   9  23
TORSDOF 4


