REMARK SMILES N[NH2+]c1cc(F)c(F)cc1Nc1ccc(F)cc1
REMARK SMILES IDX 3 1 4 2 5 3 6 4 7 5 8 6 9 7 10 8 2 9 1 12 11 15 12 17 13 18
REMARK SMILES IDX 18 19 14 20 17 21 15 22 16 23
REMARK H PARENT 2 10 2 11 1 13 1 14 11 16
ROOT
ATOM      1  C   UNL     1       0.062   1.949  -0.002  1.00  0.00     0.175 A 
ATOM      2  C   UNL     1      -0.779   2.883  -0.634  1.00  0.00     0.114 A 
ATOM      3  C   UNL     1      -2.156   2.663  -0.710  1.00  0.00     0.164 A 
ATOM      4  F   UNL     1      -2.952   3.571  -1.328  1.00  0.00    -0.204 F 
ATOM      5  C   UNL     1      -2.713   1.515  -0.145  1.00  0.00     0.161 A 
ATOM      6  F   UNL     1      -4.052   1.307  -0.208  1.00  0.00    -0.204 F 
ATOM      7  C   UNL     1      -1.895   0.586   0.500  1.00  0.00     0.075 A 
ATOM      8  C   UNL     1      -0.505   0.785   0.573  1.00  0.00     0.105 A 
ENDROOT
BRANCH   1   9
ATOM      9  N   UNL     1       1.480   2.204   0.071  1.00  0.00    -0.238 N 
ATOM     10  H   UNL     1       1.788   2.848  -0.697  1.00  0.00     0.376 HD
ATOM     11  H   UNL     1       2.015   1.309  -0.022  1.00  0.00     0.376 HD
BRANCH   9  12
ATOM     12  N   UNL     1       1.769   2.791   1.319  1.00  0.00    -0.178 NA
ATOM     13  H   UNL     1       1.421   3.779   1.310  1.00  0.00     0.183 HD
ATOM     14  H   UNL     1       2.810   2.847   1.415  1.00  0.00     0.183 HD
ENDBRANCH   9  12
ENDBRANCH   1   9
BRANCH   8  15
ATOM     15  N   UNL     1       0.320  -0.157   1.283  1.00  0.00    -0.351 N 
ATOM     16  H   UNL     1       1.062   0.218   1.915  1.00  0.00     0.167 HD
BRANCH  15  17
ATOM     17  C   UNL     1       0.158  -1.584   1.206  1.00  0.00     0.039 A 
ATOM     18  C   UNL     1      -0.397  -2.199   0.068  1.00  0.00     0.029 A 
ATOM     19  C   UNL     1       0.610  -2.388   2.265  1.00  0.00     0.029 A 
ATOM     20  C   UNL     1      -0.523  -3.591   0.009  1.00  0.00     0.041 A 
ATOM     21  C   UNL     1       0.482  -3.779   2.202  1.00  0.00     0.041 A 
ATOM     22  C   UNL     1      -0.087  -4.380   1.076  1.00  0.00     0.123 A 
ATOM     23  F   UNL     1      -0.209  -5.729   1.016  1.00  0.00    -0.207 F 
ENDBRANCH  15  17
ENDBRANCH   8  15
TORSDOF 4


