REMARK SMILES C=C1CC[C@@H](N[C@@H]2CCC[C@H](NN)[C@H]2O)C[C@H]1F
REMARK SMILES IDX 7 1 8 2 9 3 10 4 11 5 14 6 6 7 5 9 2 10 3 11 17 12 4 13
REMARK SMILES IDX 16 14 1 15 18 16 15 17 12 19 13 21
REMARK H PARENT 6 8 15 18 12 20 13 22 13 23
ROOT
ATOM      1  C   UNL     1       0.570  -1.238  -0.287  1.00  0.00     0.084 C 
ATOM      2  C   UNL     1       0.930  -2.707  -0.582  1.00  0.00     0.022 C 
ATOM      3  C   UNL     1       0.862  -3.572   0.677  1.00  0.00     0.003 C 
ATOM      4  C   UNL     1      -0.534  -3.507   1.297  1.00  0.00     0.023 C 
ATOM      5  C   UNL     1      -0.915  -2.049   1.634  1.00  0.00     0.099 C 
ATOM      6  C   UNL     1      -0.831  -1.149   0.377  1.00  0.00     0.149 C 
ENDROOT
BRANCH   1   7
ATOM      7  N   UNL     1       0.628  -0.504  -1.572  1.00  0.00    -0.308 NA
ATOM      8  H   UNL     1      -0.210  -0.712  -2.166  1.00  0.00     0.123 HD
BRANCH   7   9
ATOM      9  C   UNL     1       0.996   0.935  -1.617  1.00  0.00     0.057 C 
ATOM     10  C   UNL     1       1.101   3.779  -1.001  1.00  0.00    -0.044 C 
ATOM     11  C   UNL     1       2.268   2.897  -0.620  1.00  0.00     0.035 C 
ATOM     12  C   UNL     1       0.178   3.300  -2.103  1.00  0.00     0.193 C 
ATOM     13  C   UNL     1       1.811   1.449  -0.408  1.00  0.00     0.023 C 
ATOM     14  C   UNL     1      -0.233   1.839  -1.871  1.00  0.00     0.061 C 
ATOM     15  C   UNL     1       1.010   5.024  -0.505  1.00  0.00     0.011 C 
ATOM     16  F   UNL     1      -0.968   4.076  -2.182  1.00  0.00    -0.243 F 
ENDBRANCH   7   9
ENDBRANCH   1   7
BRANCH   6  17
ATOM     17  O   UNL     1      -1.083   0.176   0.759  1.00  0.00    -0.390 OA
ATOM     18  H   UNL     1      -2.069   0.296   0.768  1.00  0.00     0.211 HD
ENDBRANCH   6  17
BRANCH   5  19
ATOM     19  N   UNL     1      -2.270  -1.972   2.205  1.00  0.00    -0.255 NA
ATOM     20  H   UNL     1      -2.927  -2.521   1.600  1.00  0.00     0.141 HD
BRANCH  19  21
ATOM     21  N   UNL     1      -2.264  -2.553   3.487  1.00  0.00    -0.271 NA
ATOM     22  H   UNL     1      -1.868  -1.843   4.146  1.00  0.00     0.137 HD
ATOM     23  H   UNL     1      -3.260  -2.682   3.780  1.00  0.00     0.137 HD
ENDBRANCH  19  21
ENDBRANCH   5  19
TORSDOF 5


