REMARK SMILES Cc1ccc(-c2ccc3cc[nH]c3c2)cc1F
REMARK SMILES IDX 6 1 7 2 8 3 9 4 10 5 11 6 12 7 13 8 14 9 5 11 2 12 3 13
REMARK SMILES IDX 16 14 4 15 15 16 1 17 17 18
REMARK H PARENT 12 10
ROOT
ATOM      1  C   UNL     1       0.058  -0.605  -0.932  1.00  0.00    -0.016 A 
ATOM      2  C   UNL     1      -0.595  -1.752  -1.460  1.00  0.00     0.009 A 
ATOM      3  C   UNL     1       0.144  -2.863  -1.905  1.00  0.00     0.011 A 
ATOM      4  C   UNL     1       1.530  -2.801  -1.810  1.00  0.00    -0.001 A 
ATOM      5  C   UNL     1       2.496  -3.720  -2.158  1.00  0.00     0.028 A 
ATOM      6  C   UNL     1       3.706  -3.115  -1.835  1.00  0.00     0.083 A 
ATOM      7  N   UNL     1       3.503  -1.883  -1.314  1.00  0.00    -0.361 N 
ATOM      8  C   UNL     1       2.172  -1.703  -1.305  1.00  0.00     0.046 A 
ATOM      9  C   UNL     1       1.472  -0.586  -0.856  1.00  0.00     0.035 A 
ATOM     10  H   UNL     1       4.234  -1.213  -0.987  1.00  0.00     0.166 HD
ENDROOT
BRANCH   1  11
ATOM     11  C   UNL     1      -0.733   0.562  -0.466  1.00  0.00    -0.015 A 
ATOM     12  C   UNL     1      -2.242   2.778   0.414  1.00  0.00    -0.015 A 
ATOM     13  C   UNL     1      -2.672   1.472   0.692  1.00  0.00     0.007 A 
ATOM     14  C   UNL     1      -1.044   2.972  -0.291  1.00  0.00     0.126 A 
ATOM     15  C   UNL     1      -1.928   0.374   0.252  1.00  0.00     0.009 A 
ATOM     16  C   UNL     1      -0.299   1.873  -0.730  1.00  0.00     0.048 A 
ATOM     17  C   UNL     1      -3.028   3.958   0.909  1.00  0.00     0.047 C 
ATOM     18  F   UNL     1      -0.597   4.226  -0.556  1.00  0.00    -0.207 F 
ENDBRANCH   1  11
TORSDOF 1


