MODEL 1
REMARK VINA RESULT:      -8.1      0.000      0.000
REMARK SMILES O=C(N[C@H]1CCCOC1)N1C[NH2+]C[C@H](F)[C@H]1c1cc2ccc(F)cc2[nH]1
REMARK SMILES IDX 10 1 11 2 12 3 13 4 14 5 15 6 16 7 2 10 3 11 1 12 4 14 5 15
REMARK SMILES IDX 9 16 6 17 8 18 7 19 17 20 18 21 26 22 19 23 25 24 20 25
REMARK SMILES IDX 24 26 21 27 22 28 23 30
REMARK H PARENT 12 8 12 9 3 13 26 29
ROOT
ATOM      1  N   UNL     1      44.104 131.262  21.610  1.00  0.00    -0.266 N 
ATOM      2  C   UNL     1      42.833 132.002  21.681  1.00  0.00     0.393 C 
ATOM      3  N   UNL     1      42.002 131.505  22.787  1.00  0.00    -0.327 N 
ATOM      4  C   UNL     1      42.652 131.627  24.107  1.00  0.00     0.302 C 
ATOM      5  C   UNL     1      44.189 131.485  24.063  1.00  0.00     0.250 C 
ATOM      6  F   UNL     1      44.759 132.748  24.021  1.00  0.00    -0.238 F 
ATOM      7  C   UNL     1      44.674 130.687  22.839  1.00  0.00     0.179 C 
ATOM      8  H   UNL     1      41.759 130.503  22.608  1.00  0.00     0.347 HD
ATOM      9  H   UNL     1      41.105 132.045  22.800  1.00  0.00     0.347 HD
ENDROOT
BRANCH   1  10
ATOM     10  C   UNL     1      44.838 131.236  20.367  1.00  0.00     0.322 C 
ATOM     11  N   UNL     1      44.255 131.736  19.151  1.00  0.00    -0.333 N 
ATOM     12  O   UNL     1      46.014 130.779  20.350  1.00  0.00    -0.248 OA
ATOM     13  H   UNL     1      43.361 132.272  19.199  1.00  0.00     0.165 HD
BRANCH  11  14
ATOM     14  C   UNL     1      44.920 131.591  17.852  1.00  0.00     0.109 C 
ATOM     15  C   UNL     1      45.733 130.289  17.813  1.00  0.00     0.030 C 
ATOM     16  C   UNL     1      43.885 131.581  16.711  1.00  0.00     0.185 C 
ATOM     17  C   UNL     1      46.274 130.039  16.404  1.00  0.00     0.031 C 
ATOM     18  O   UNL     1      44.520 131.429  15.455  1.00  0.00    -0.379 OA
ATOM     19  C   UNL     1      45.140 130.158  15.378  1.00  0.00     0.160 C 
ENDBRANCH  11  14
ENDBRANCH   1  10
BRANCH   7  20
ATOM     20  C   UNL     1      44.342 129.217  22.967  1.00  0.00     0.042 A 
ATOM     21  C   UNL     1      43.351 128.701  23.802  1.00  0.00     0.034 A 
ATOM     22  N   UNL     1      45.002 128.217  22.329  1.00  0.00    -0.356 N 
ATOM     23  C   UNL     1      43.422 127.336  23.639  1.00  0.00    -0.000 A 
ATOM     24  C   UNL     1      44.427 127.078  22.746  1.00  0.00     0.049 A 
ATOM     25  C   UNL     1      42.678 126.313  24.225  1.00  0.00     0.013 A 
ATOM     26  C   UNL     1      44.762 125.776  22.375  1.00  0.00     0.065 A 
ATOM     27  C   UNL     1      42.991 124.989  23.868  1.00  0.00     0.040 A 
ATOM     28  C   UNL     1      44.028 124.720  22.947  1.00  0.00     0.125 A 
ATOM     29  H   UNL     1      45.802 128.302  21.663  1.00  0.00     0.166 HD
ATOM     30  F   UNL     1      44.319 123.439  22.613  1.00  0.00    -0.207 F 
ENDBRANCH   7  20
TORSDOF 3
ENDMDL
MODEL 2
REMARK VINA RESULT:      -6.6      1.042      1.200
REMARK SMILES O=C(N[C@H]1CCCOC1)N1C[NH2+]C[C@H](F)[C@H]1c1cc2ccc(F)cc2[nH]1
REMARK SMILES IDX 10 1 11 2 12 3 13 4 14 5 15 6 16 7 2 10 3 11 1 12 4 14 5 15
REMARK SMILES IDX 9 16 6 17 8 18 7 19 17 20 18 21 26 22 19 23 25 24 20 25
REMARK SMILES IDX 24 26 21 27 22 28 23 30
REMARK H PARENT 12 8 12 9 3 13 26 29
ROOT
ATOM      1  N   UNL     1      44.223 131.168  20.736  1.00  0.00    -0.266 N 
ATOM      2  C   UNL     1      42.977 131.939  20.879  1.00  0.00     0.393 C 
ATOM      3  N   UNL     1      42.295 131.599  22.135  1.00  0.00    -0.327 N 
ATOM      4  C   UNL     1      43.112 131.865  23.335  1.00  0.00     0.302 C 
ATOM      5  C   UNL     1      44.629 131.683  23.112  1.00  0.00     0.250 C 
ATOM      6  F   UNL     1      45.197 132.919  22.842  1.00  0.00    -0.238 F 
ATOM      7  C   UNL     1      44.945 130.733  21.943  1.00  0.00     0.179 C 
ATOM      8  H   UNL     1      42.023 130.589  22.114  1.00  0.00     0.347 HD
ATOM      9  H   UNL     1      41.411 132.157  22.197  1.00  0.00     0.347 HD
ENDROOT
BRANCH   1  10
ATOM     10  C   UNL     1      44.788 130.975  19.422  1.00  0.00     0.322 C 
ATOM     11  N   UNL     1      44.096 131.423  18.244  1.00  0.00    -0.333 N 
ATOM     12  O   UNL     1      45.914 130.417  19.306  1.00  0.00    -0.248 OA
ATOM     13  H   UNL     1      43.258 132.037  18.349  1.00  0.00     0.165 HD
BRANCH  11  14
ATOM     14  C   UNL     1      44.576 131.113  16.893  1.00  0.00     0.109 C 
ATOM     15  C   UNL     1      45.566 132.189  16.422  1.00  0.00     0.030 C 
ATOM     16  C   UNL     1      45.267 129.736  16.865  1.00  0.00     0.185 C 
ATOM     17  C   UNL     1      46.212 131.776  15.098  1.00  0.00     0.031 C 
ATOM     18  O   UNL     1      45.745 129.438  15.567  1.00  0.00    -0.379 OA
ATOM     19  C   UNL     1      46.765 130.350  15.206  1.00  0.00     0.160 C 
ENDBRANCH  11  14
ENDBRANCH   1  10
BRANCH   7  20
ATOM     20  C   UNL     1      44.622 129.297  22.292  1.00  0.00     0.042 A 
ATOM     21  C   UNL     1      43.597 128.905  23.152  1.00  0.00     0.034 A 
ATOM     22  N   UNL     1      45.323 128.219  21.856  1.00  0.00    -0.356 N 
ATOM     23  C   UNL     1      43.689 127.532  23.217  1.00  0.00    -0.000 A 
ATOM     24  C   UNL     1      44.740 127.152  22.425  1.00  0.00     0.049 A 
ATOM     25  C   UNL     1      42.929 126.605  23.925  1.00  0.00     0.013 A 
ATOM     26  C   UNL     1      45.107 125.814  22.287  1.00  0.00     0.065 A 
ATOM     27  C   UNL     1      43.272 125.246  23.803  1.00  0.00     0.040 A 
ATOM     28  C   UNL     1      44.356 124.851  22.987  1.00  0.00     0.125 A 
ATOM     29  H   UNL     1      46.154 128.210  21.223  1.00  0.00     0.166 HD
ATOM     30  F   UNL     1      44.676 123.538  22.880  1.00  0.00    -0.207 F 
ENDBRANCH   7  20
TORSDOF 3
ENDMDL
MODEL 3
REMARK VINA RESULT:      -6.4      1.164      1.670
REMARK SMILES O=C(N[C@H]1CCCOC1)N1C[NH2+]C[C@H](F)[C@H]1c1cc2ccc(F)cc2[nH]1
REMARK SMILES IDX 10 1 11 2 12 3 13 4 14 5 15 6 16 7 2 10 3 11 1 12 4 14 5 15
REMARK SMILES IDX 9 16 6 17 8 18 7 19 17 20 18 21 26 22 19 23 25 24 20 25
REMARK SMILES IDX 24 26 21 27 22 28 23 30
REMARK H PARENT 12 8 12 9 3 13 26 29
ROOT
ATOM      1  N   UNL     1      44.133 131.149  21.132  1.00  0.00    -0.266 N 
ATOM      2  C   UNL     1      42.904 131.947  21.278  1.00  0.00     0.393 C 
ATOM      3  N   UNL     1      42.219 131.623  22.537  1.00  0.00    -0.327 N 
ATOM      4  C   UNL     1      43.045 131.874  23.734  1.00  0.00     0.302 C 
ATOM      5  C   UNL     1      44.558 131.660  23.506  1.00  0.00     0.250 C 
ATOM      6  F   UNL     1      45.151 132.882  23.232  1.00  0.00    -0.238 F 
ATOM      7  C   UNL     1      44.849 130.700  22.338  1.00  0.00     0.179 C 
ATOM      8  H   UNL     1      41.926 130.619  22.518  1.00  0.00     0.347 HD
ATOM      9  H   UNL     1      41.347 132.201  22.601  1.00  0.00     0.347 HD
ENDROOT
BRANCH   1  10
ATOM     10  C   UNL     1      44.690 130.941  19.816  1.00  0.00     0.322 C 
ATOM     11  N   UNL     1      44.025 131.441  18.643  1.00  0.00    -0.333 N 
ATOM     12  O   UNL     1      45.784 130.324  19.695  1.00  0.00    -0.248 OA
ATOM     13  H   UNL     1      43.222 132.098  18.755  1.00  0.00     0.165 HD
BRANCH  11  14
ATOM     14  C   UNL     1      44.491 131.122  17.290  1.00  0.00     0.109 C 
ATOM     15  C   UNL     1      45.407 132.238  16.767  1.00  0.00     0.030 C 
ATOM     16  C   UNL     1      45.258 129.786  17.281  1.00  0.00     0.185 C 
ATOM     17  C   UNL     1      46.043 131.827  15.438  1.00  0.00     0.031 C 
ATOM     18  O   UNL     1      45.722 129.480  15.978  1.00  0.00    -0.379 OA
ATOM     19  C   UNL     1      46.680 130.438  15.569  1.00  0.00     0.160 C 
ENDBRANCH  11  14
ENDBRANCH   1  10
BRANCH   7  20
ATOM     20  C   UNL     1      44.497 129.272  22.690  1.00  0.00     0.042 A 
ATOM     21  C   UNL     1      45.208 128.154  22.255  1.00  0.00     0.034 A 
ATOM     22  N   UNL     1      43.417 128.901  23.424  1.00  0.00    -0.356 N 
ATOM     23  C   UNL     1      44.523 127.074  22.766  1.00  0.00    -0.000 A 
ATOM     24  C   UNL     1      43.449 127.560  23.464  1.00  0.00     0.049 A 
ATOM     25  C   UNL     1      44.769 125.707  22.651  1.00  0.00     0.013 A 
ATOM     26  C   UNL     1      42.542 126.710  24.098  1.00  0.00     0.065 A 
ATOM     27  C   UNL     1      43.873 124.825  23.283  1.00  0.00     0.040 A 
ATOM     28  C   UNL     1      42.765 125.323  24.003  1.00  0.00     0.125 A 
ATOM     29  H   UNL     1      42.695 129.519  23.858  1.00  0.00     0.166 HD
ATOM     30  F   UNL     1      41.909 124.462  24.606  1.00  0.00    -0.207 F 
ENDBRANCH   7  20
TORSDOF 3
ENDMDL
MODEL 4
REMARK VINA RESULT:      -6.2      3.145      6.510
REMARK SMILES O=C(N[C@H]1CCCOC1)N1C[NH2+]C[C@H](F)[C@H]1c1cc2ccc(F)cc2[nH]1
REMARK SMILES IDX 10 1 11 2 12 3 13 4 14 5 15 6 16 7 2 10 3 11 1 12 4 14 5 15
REMARK SMILES IDX 9 16 6 17 8 18 7 19 17 20 18 21 26 22 19 23 25 24 20 25
REMARK SMILES IDX 24 26 21 27 22 28 23 30
REMARK H PARENT 12 8 12 9 3 13 26 29
ROOT
ATOM      1  N   UNL     1      43.814 129.984  23.698  1.00  0.00    -0.266 N 
ATOM      2  C   UNL     1      44.679 130.736  24.623  1.00  0.00     0.393 C 
ATOM      3  N   UNL     1      44.959 132.079  24.098  1.00  0.00    -0.327 N 
ATOM      4  C   UNL     1      43.743 132.889  23.885  1.00  0.00     0.302 C 
ATOM      5  C   UNL     1      42.501 132.060  23.489  1.00  0.00     0.250 C 
ATOM      6  F   UNL     1      41.747 131.806  24.624  1.00  0.00    -0.238 F 
ATOM      7  C   UNL     1      42.871 130.716  22.836  1.00  0.00     0.179 C 
ATOM      8  H   UNL     1      45.484 131.993  23.197  1.00  0.00     0.347 HD
ATOM      9  H   UNL     1      45.583 132.579  24.775  1.00  0.00     0.347 HD
ENDROOT
BRANCH   1  10
ATOM     10  C   UNL     1      43.804 128.541  23.754  1.00  0.00     0.322 C 
ATOM     11  N   UNL     1      45.026 127.796  23.892  1.00  0.00    -0.333 N 
ATOM     12  O   UNL     1      42.704 127.925  23.695  1.00  0.00    -0.248 OA
ATOM     13  H   UNL     1      45.909 128.305  24.118  1.00  0.00     0.165 HD
BRANCH  11  14
ATOM     14  C   UNL     1      45.059 126.332  23.807  1.00  0.00     0.109 C 
ATOM     15  C   UNL     1      45.123 125.886  22.340  1.00  0.00     0.030 C 
ATOM     16  C   UNL     1      46.279 125.773  24.565  1.00  0.00     0.185 C 
ATOM     17  C   UNL     1      45.347 124.375  22.251  1.00  0.00     0.031 C 
ATOM     18  O   UNL     1      46.323 124.361  24.476  1.00  0.00    -0.379 OA
ATOM     19  C   UNL     1      46.533 123.967  23.132  1.00  0.00     0.160 C 
ENDBRANCH  11  14
ENDBRANCH   1  10
BRANCH   7  20
ATOM     20  C   UNL     1      43.432 130.910  21.445  1.00  0.00     0.042 A 
ATOM     21  C   UNL     1      42.752 131.534  20.399  1.00  0.00     0.034 A 
ATOM     22  N   UNL     1      44.640 130.453  21.027  1.00  0.00    -0.356 N 
ATOM     23  C   UNL     1      43.602 131.451  19.319  1.00  0.00    -0.000 A 
ATOM     24  C   UNL     1      44.730 130.794  19.732  1.00  0.00     0.049 A 
ATOM     25  C   UNL     1      43.450 131.900  18.009  1.00  0.00     0.013 A 
ATOM     26  C   UNL     1      45.789 130.537  18.861  1.00  0.00     0.065 A 
ATOM     27  C   UNL     1      44.503 131.659  17.108  1.00  0.00     0.040 A 
ATOM     28  C   UNL     1      45.668 130.980  17.531  1.00  0.00     0.125 A 
ATOM     29  H   UNL     1      45.353 129.929  21.584  1.00  0.00     0.166 HD
ATOM     30  F   UNL     1      46.674 130.753  16.651  1.00  0.00    -0.207 F 
ENDBRANCH   7  20
TORSDOF 3
ENDMDL
MODEL 5
REMARK VINA RESULT:      -6.1      2.176      3.046
REMARK SMILES O=C(N[C@H]1CCCOC1)N1C[NH2+]C[C@H](F)[C@H]1c1cc2ccc(F)cc2[nH]1
REMARK SMILES IDX 10 1 11 2 12 3 13 4 14 5 15 6 16 7 2 10 3 11 1 12 4 14 5 15
REMARK SMILES IDX 9 16 6 17 8 18 7 19 17 20 18 21 26 22 19 23 25 24 20 25
REMARK SMILES IDX 24 26 21 27 22 28 23 30
REMARK H PARENT 12 8 12 9 3 13 26 29
ROOT
ATOM      1  N   UNL     1      43.662 131.678  18.894  1.00  0.00    -0.266 N 
ATOM      2  C   UNL     1      42.373 131.604  18.187  1.00  0.00     0.393 C 
ATOM      3  N   UNL     1      41.268 131.414  19.138  1.00  0.00    -0.327 N 
ATOM      4  C   UNL     1      41.158 132.500  20.131  1.00  0.00     0.302 C 
ATOM      5  C   UNL     1      42.512 133.139  20.513  1.00  0.00     0.250 C 
ATOM      6  F   UNL     1      42.701 134.283  19.754  1.00  0.00    -0.238 F 
ATOM      7  C   UNL     1      43.701 132.190  20.274  1.00  0.00     0.179 C 
ATOM      8  H   UNL     1      41.394 130.500  19.631  1.00  0.00     0.347 HD
ATOM      9  H   UNL     1      40.371 131.356  18.600  1.00  0.00     0.347 HD
ENDROOT
BRANCH   1  10
ATOM     10  C   UNL     1      44.880 131.383  18.176  1.00  0.00     0.322 C 
ATOM     11  N   UNL     1      44.962 131.559  16.751  1.00  0.00    -0.333 N 
ATOM     12  O   UNL     1      45.893 130.978  18.811  1.00  0.00    -0.248 OA
ATOM     13  H   UNL     1      44.191 132.058  16.255  1.00  0.00     0.165 HD
BRANCH  11  14
ATOM     14  C   UNL     1      46.134 131.133  15.980  1.00  0.00     0.109 C 
ATOM     15  C   UNL     1      45.959 129.684  15.503  1.00  0.00     0.030 C 
ATOM     16  C   UNL     1      46.344 132.051  14.760  1.00  0.00     0.185 C 
ATOM     17  C   UNL     1      47.088 129.298  14.545  1.00  0.00     0.031 C 
ATOM     18  O   UNL     1      47.467 131.636  14.005  1.00  0.00    -0.379 OA
ATOM     19  C   UNL     1      47.229 130.357  13.446  1.00  0.00     0.160 C 
ENDBRANCH  11  14
ENDBRANCH   1  10
BRANCH   7  20
ATOM     20  C   UNL     1      43.722 131.061  21.280  1.00  0.00     0.042 A 
ATOM     21  C   UNL     1      42.795 130.905  22.310  1.00  0.00     0.034 A 
ATOM     22  N   UNL     1      44.676 130.097  21.340  1.00  0.00    -0.356 N 
ATOM     23  C   UNL     1      43.214 129.790  23.002  1.00  0.00    -0.000 A 
ATOM     24  C   UNL     1      44.350 129.328  22.391  1.00  0.00     0.049 A 
ATOM     25  C   UNL     1      42.677 129.165  24.126  1.00  0.00     0.013 A 
ATOM     26  C   UNL     1      45.032 128.207  22.864  1.00  0.00     0.065 A 
ATOM     27  C   UNL     1      43.341 128.029  24.624  1.00  0.00     0.040 A 
ATOM     28  C   UNL     1      44.513 127.552  23.996  1.00  0.00     0.125 A 
ATOM     29  H   UNL     1      45.504 129.977  20.715  1.00  0.00     0.166 HD
ATOM     30  F   UNL     1      45.144 126.457  24.488  1.00  0.00    -0.207 F 
ENDBRANCH   7  20
TORSDOF 3
ENDMDL
MODEL 6
REMARK VINA RESULT:      -5.9      1.056      1.496
REMARK SMILES O=C(N[C@H]1CCCOC1)N1C[NH2+]C[C@H](F)[C@H]1c1cc2ccc(F)cc2[nH]1
REMARK SMILES IDX 10 1 11 2 12 3 13 4 14 5 15 6 16 7 2 10 3 11 1 12 4 14 5 15
REMARK SMILES IDX 9 16 6 17 8 18 7 19 17 20 18 21 26 22 19 23 25 24 20 25
REMARK SMILES IDX 24 26 21 27 22 28 23 30
REMARK H PARENT 12 8 12 9 3 13 26 29
ROOT
ATOM      1  N   UNL     1      43.735 131.463  21.828  1.00  0.00    -0.266 N 
ATOM      2  C   UNL     1      42.445 132.004  22.288  1.00  0.00     0.393 C 
ATOM      3  N   UNL     1      41.967 131.277  23.471  1.00  0.00    -0.327 N 
ATOM      4  C   UNL     1      42.898 131.342  24.614  1.00  0.00     0.302 C 
ATOM      5  C   UNL     1      44.386 131.423  24.206  1.00  0.00     0.250 C 
ATOM      6  F   UNL     1      44.785 132.750  24.214  1.00  0.00    -0.238 F 
ATOM      7  C   UNL     1      44.645 130.841  22.804  1.00  0.00     0.179 C 
ATOM      8  H   UNL     1      41.799 130.277  23.213  1.00  0.00     0.347 HD
ATOM      9  H   UNL     1      41.045 131.681  23.762  1.00  0.00     0.347 HD
ENDROOT
BRANCH   1  10
ATOM     10  C   UNL     1      44.145 131.677  20.461  1.00  0.00     0.322 C 
ATOM     11  N   UNL     1      44.939 130.701  19.764  1.00  0.00    -0.333 N 
ATOM     12  O   UNL     1      43.789 132.730  19.863  1.00  0.00    -0.248 OA
ATOM     13  H   UNL     1      45.081 129.761  20.193  1.00  0.00     0.165 HD
BRANCH  11  14
ATOM     14  C   UNL     1      45.488 130.955  18.428  1.00  0.00     0.109 C 
ATOM     15  C   UNL     1      45.992 129.647  17.802  1.00  0.00     0.030 C 
ATOM     16  C   UNL     1      44.419 131.581  17.512  1.00  0.00     0.185 C 
ATOM     17  C   UNL     1      46.391 129.872  16.343  1.00  0.00     0.031 C 
ATOM     18  O   UNL     1      44.940 131.817  16.216  1.00  0.00    -0.379 OA
ATOM     19  C   UNL     1      45.260 130.586  15.593  1.00  0.00     0.160 C 
ENDBRANCH  11  14
ENDBRANCH   1  10
BRANCH   7  20
ATOM     20  C   UNL     1      44.518 129.334  22.796  1.00  0.00     0.042 A 
ATOM     21  C   UNL     1      45.365 128.474  22.096  1.00  0.00     0.034 A 
ATOM     22  N   UNL     1      43.534 128.637  23.419  1.00  0.00    -0.356 N 
ATOM     23  C   UNL     1      44.864 127.212  22.328  1.00  0.00    -0.000 A 
ATOM     24  C   UNL     1      43.761 127.347  23.128  1.00  0.00     0.049 A 
ATOM     25  C   UNL     1      45.301 125.967  21.880  1.00  0.00     0.013 A 
ATOM     26  C   UNL     1      43.013 126.243  23.537  1.00  0.00     0.065 A 
ATOM     27  C   UNL     1      44.568 124.834  22.279  1.00  0.00     0.040 A 
ATOM     28  C   UNL     1      43.430 124.970  23.104  1.00  0.00     0.125 A 
ATOM     29  H   UNL     1      42.748 129.016  23.995  1.00  0.00     0.166 HD
ATOM     30  F   UNL     1      42.733 123.870  23.479  1.00  0.00    -0.207 F 
ENDBRANCH   7  20
TORSDOF 3
ENDMDL
MODEL 7
REMARK VINA RESULT:      -5.8      2.051      2.889
REMARK SMILES O=C(N[C@H]1CCCOC1)N1C[NH2+]C[C@H](F)[C@H]1c1cc2ccc(F)cc2[nH]1
REMARK SMILES IDX 10 1 11 2 12 3 13 4 14 5 15 6 16 7 2 10 3 11 1 12 4 14 5 15
REMARK SMILES IDX 9 16 6 17 8 18 7 19 17 20 18 21 26 22 19 23 25 24 20 25
REMARK SMILES IDX 24 26 21 27 22 28 23 30
REMARK H PARENT 12 8 12 9 3 13 26 29
ROOT
ATOM      1  N   UNL     1      44.845 131.112  18.914  1.00  0.00    -0.266 N 
ATOM      2  C   UNL     1      43.537 131.778  18.799  1.00  0.00     0.393 C 
ATOM      3  N   UNL     1      42.865 131.836  20.104  1.00  0.00    -0.327 N 
ATOM      4  C   UNL     1      43.638 132.568  21.127  1.00  0.00     0.302 C 
ATOM      5  C   UNL     1      45.168 132.448  20.960  1.00  0.00     0.250 C 
ATOM      6  F   UNL     1      45.636 133.557  20.272  1.00  0.00    -0.238 F 
ATOM      7  C   UNL     1      45.581 131.182  20.187  1.00  0.00     0.179 C 
ATOM      8  H   UNL     1      42.679 130.862  20.437  1.00  0.00     0.347 HD
ATOM      9  H   UNL     1      41.937 132.306  19.982  1.00  0.00     0.347 HD
ENDROOT
BRANCH   1  10
ATOM     10  C   UNL     1      45.445 130.525  17.739  1.00  0.00     0.322 C 
ATOM     11  N   UNL     1      45.510 131.249  16.499  1.00  0.00    -0.333 N 
ATOM     12  O   UNL     1      45.934 129.363  17.806  1.00  0.00    -0.248 OA
ATOM     13  H   UNL     1      45.269 132.265  16.490  1.00  0.00     0.165 HD
BRANCH  11  14
ATOM     14  C   UNL     1      45.983 130.627  15.258  1.00  0.00     0.109 C 
ATOM     15  C   UNL     1      46.570 131.691  14.320  1.00  0.00     0.030 C 
ATOM     16  C   UNL     1      47.056 129.563  15.559  1.00  0.00     0.185 C 
ATOM     17  C   UNL     1      47.232 131.029  13.110  1.00  0.00     0.031 C 
ATOM     18  O   UNL     1      47.526 128.968  14.364  1.00  0.00    -0.379 OA
ATOM     19  C   UNL     1      48.198 129.933  13.575  1.00  0.00     0.160 C 
ENDBRANCH  11  14
ENDBRANCH   1  10
BRANCH   7  20
ATOM     20  C   UNL     1      45.373 129.933  21.014  1.00  0.00     0.042 A 
ATOM     21  C   UNL     1      44.592 129.872  22.169  1.00  0.00     0.034 A 
ATOM     22  N   UNL     1      45.963 128.736  20.769  1.00  0.00    -0.356 N 
ATOM     23  C   UNL     1      44.718 128.576  22.617  1.00  0.00    -0.000 A 
ATOM     24  C   UNL     1      45.552 127.919  21.751  1.00  0.00     0.049 A 
ATOM     25  C   UNL     1      44.166 127.943  23.728  1.00  0.00     0.013 A 
ATOM     26  C   UNL     1      45.893 126.580  21.936  1.00  0.00     0.065 A 
ATOM     27  C   UNL     1      44.489 126.591  23.940  1.00  0.00     0.040 A 
ATOM     28  C   UNL     1      45.348 125.911  23.049  1.00  0.00     0.125 A 
ATOM     29  H   UNL     1      46.617 128.493  19.990  1.00  0.00     0.166 HD
ATOM     30  F   UNL     1      45.652 124.608  23.266  1.00  0.00    -0.207 F 
ENDBRANCH   7  20
TORSDOF 3
ENDMDL
MODEL 8
REMARK VINA RESULT:      -5.3      3.134      6.585
REMARK SMILES O=C(N[C@H]1CCCOC1)N1C[NH2+]C[C@H](F)[C@H]1c1cc2ccc(F)cc2[nH]1
REMARK SMILES IDX 10 1 11 2 12 3 13 4 14 5 15 6 16 7 2 10 3 11 1 12 4 14 5 15
REMARK SMILES IDX 9 16 6 17 8 18 7 19 17 20 18 21 26 22 19 23 25 24 20 25
REMARK SMILES IDX 24 26 21 27 22 28 23 30
REMARK H PARENT 12 8 12 9 3 13 26 29
ROOT
ATOM      1  N   UNL     1      43.577 129.890  23.687  1.00  0.00    -0.266 N 
ATOM      2  C   UNL     1      44.542 130.493  24.621  1.00  0.00     0.393 C 
ATOM      3  N   UNL     1      45.026 131.783  24.110  1.00  0.00    -0.327 N 
ATOM      4  C   UNL     1      43.948 132.770  23.900  1.00  0.00     0.302 C 
ATOM      5  C   UNL     1      42.596 132.143  23.493  1.00  0.00     0.250 C 
ATOM      6  F   UNL     1      41.807 131.997  24.623  1.00  0.00    -0.238 F 
ATOM      7  C   UNL     1      42.761 130.764  22.828  1.00  0.00     0.179 C 
ATOM      8  H   UNL     1      45.536 131.625  23.210  1.00  0.00     0.347 HD
ATOM      9  H   UNL     1      45.715 132.176  24.794  1.00  0.00     0.347 HD
ENDROOT
BRANCH   1  10
ATOM     10  C   UNL     1      43.348 128.465  23.730  1.00  0.00     0.322 C 
ATOM     11  N   UNL     1      44.443 127.541  23.845  1.00  0.00    -0.333 N 
ATOM     12  O   UNL     1      42.166 128.024  23.680  1.00  0.00    -0.248 OA
ATOM     13  H   UNL     1      45.396 127.906  24.064  1.00  0.00     0.165 HD
BRANCH  11  14
ATOM     14  C   UNL     1      44.251 126.090  23.747  1.00  0.00     0.109 C 
ATOM     15  C   UNL     1      42.799 125.771  23.366  1.00  0.00     0.030 C 
ATOM     16  C   UNL     1      45.201 125.487  22.693  1.00  0.00     0.185 C 
ATOM     17  C   UNL     1      42.639 124.276  23.079  1.00  0.00     0.031 C 
ATOM     18  O   UNL     1      45.011 124.089  22.585  1.00  0.00    -0.379 OA
ATOM     19  C   UNL     1      43.714 123.814  22.088  1.00  0.00     0.160 C 
ENDBRANCH  11  14
ENDBRANCH   1  10
BRANCH   7  20
ATOM     20  C   UNL     1      43.351 130.882  21.441  1.00  0.00     0.042 A 
ATOM     21  C   UNL     1      44.650 130.504  21.101  1.00  0.00     0.034 A 
ATOM     22  N   UNL     1      42.712 131.419  20.372  1.00  0.00    -0.356 N 
ATOM     23  C   UNL     1      44.778 130.822  19.768  1.00  0.00    -0.000 A 
ATOM     24  C   UNL     1      43.592 131.373  19.360  1.00  0.00     0.049 A 
ATOM     25  C   UNL     1      45.857 130.674  18.899  1.00  0.00     0.013 A 
ATOM     26  C   UNL     1      43.401 131.815  18.051  1.00  0.00     0.065 A 
ATOM     27  C   UNL     1      45.694 131.108  17.571  1.00  0.00     0.040 A 
ATOM     28  C   UNL     1      44.472 131.676  17.148  1.00  0.00     0.125 A 
ATOM     29  H   UNL     1      41.742 131.808  20.335  1.00  0.00     0.166 HD
ATOM     30  F   UNL     1      44.329 132.092  15.865  1.00  0.00    -0.207 F 
ENDBRANCH   7  20
TORSDOF 3
ENDMDL
MODEL 9
REMARK VINA RESULT:      -5.3      3.210      6.673
REMARK SMILES O=C(N[C@H]1CCCOC1)N1C[NH2+]C[C@H](F)[C@H]1c1cc2ccc(F)cc2[nH]1
REMARK SMILES IDX 10 1 11 2 12 3 13 4 14 5 15 6 16 7 2 10 3 11 1 12 4 14 5 15
REMARK SMILES IDX 9 16 6 17 8 18 7 19 17 20 18 21 26 22 19 23 25 24 20 25
REMARK SMILES IDX 24 26 21 27 22 28 23 30
REMARK H PARENT 12 8 12 9 3 13 26 29
ROOT
ATOM      1  N   UNL     1      43.743 129.849  23.705  1.00  0.00    -0.266 N 
ATOM      2  C   UNL     1      44.631 130.580  24.624  1.00  0.00     0.393 C 
ATOM      3  N   UNL     1      44.949 131.912  24.092  1.00  0.00    -0.327 N 
ATOM      4  C   UNL     1      43.757 132.755  23.875  1.00  0.00     0.302 C 
ATOM      5  C   UNL     1      42.491 131.961  23.486  1.00  0.00     0.250 C 
ATOM      6  F   UNL     1      41.732 131.736  24.623  1.00  0.00    -0.238 F 
ATOM      7  C   UNL     1      42.821 130.603  22.839  1.00  0.00     0.179 C 
ATOM      8  H   UNL     1      45.470 131.805  23.191  1.00  0.00     0.347 HD
ATOM      9  H   UNL     1      45.588 132.397  24.765  1.00  0.00     0.347 HD
ENDROOT
BRANCH   1  10
ATOM     10  C   UNL     1      43.691 128.407  23.769  1.00  0.00     0.322 C 
ATOM     11  N   UNL     1      44.578 127.598  22.978  1.00  0.00    -0.333 N 
ATOM     12  O   UNL     1      42.863 127.849  24.541  1.00  0.00    -0.248 OA
ATOM     13  H   UNL     1      45.374 128.054  22.479  1.00  0.00     0.165 HD
BRANCH  11  14
ATOM     14  C   UNL     1      44.451 126.138  22.915  1.00  0.00     0.109 C 
ATOM     15  C   UNL     1      45.184 125.490  24.098  1.00  0.00     0.030 C 
ATOM     16  C   UNL     1      42.968 125.720  22.941  1.00  0.00     0.185 C 
ATOM     17  C   UNL     1      44.899 123.987  24.143  1.00  0.00     0.031 C 
ATOM     18  O   UNL     1      42.840 124.311  22.894  1.00  0.00    -0.379 OA
ATOM     19  C   UNL     1      43.388 123.737  24.066  1.00  0.00     0.160 C 
ENDBRANCH  11  14
ENDBRANCH   1  10
BRANCH   7  20
ATOM     20  C   UNL     1      43.386 130.773  21.447  1.00  0.00     0.042 A 
ATOM     21  C   UNL     1      44.701 130.481  21.087  1.00  0.00     0.034 A 
ATOM     22  N   UNL     1      42.700 131.281  20.391  1.00  0.00    -0.356 N 
ATOM     23  C   UNL     1      44.792 130.821  19.756  1.00  0.00    -0.000 A 
ATOM     24  C   UNL     1      43.569 131.300  19.368  1.00  0.00     0.049 A 
ATOM     25  C   UNL     1      45.867 130.750  18.873  1.00  0.00     0.013 A 
ATOM     26  C   UNL     1      43.335 131.745  18.067  1.00  0.00     0.065 A 
ATOM     27  C   UNL     1      45.661 131.187  17.552  1.00  0.00     0.040 A 
ATOM     28  C   UNL     1      44.401 131.683  17.150  1.00  0.00     0.125 A 
ATOM     29  H   UNL     1      41.708 131.608  20.371  1.00  0.00     0.166 HD
ATOM     30  F   UNL     1      44.216 132.102  15.874  1.00  0.00    -0.207 F 
ENDBRANCH   7  20
TORSDOF 3
ENDMDL


