REMARK SMILES [NH-]C(=O)c1ccc(-c2cc(F)cc(F)c2OCc2[nH+][nH]c3c2CCC3)cc1
REMARK SMILES IDX 8 1 9 2 10 3 11 4 12 5 13 6 14 7 15 8 7 9 4 10 5 11 27 12
REMARK SMILES IDX 6 13 26 14 2 15 3 16 1 17 16 19 17 20 18 21 19 22 22 23
REMARK SMILES IDX 20 24 21 25 23 26 25 27 24 28
REMARK H PARENT 1 18 19 29 20 30
ROOT
ATOM      1  C   UNL     1      -0.280  -0.408  -2.293  1.00  0.00     0.030 A 
ATOM      2  C   UNL     1       0.351   0.241  -3.369  1.00  0.00     0.052 A 
ATOM      3  C   UNL     1       1.056  -0.493  -4.326  1.00  0.00     0.127 A 
ATOM      4  F   UNL     1       1.656   0.144  -5.361  1.00  0.00    -0.207 F 
ATOM      5  C   UNL     1       1.142  -1.882  -4.218  1.00  0.00     0.082 A 
ATOM      6  C   UNL     1       0.528  -2.541  -3.151  1.00  0.00     0.168 A 
ATOM      7  F   UNL     1       0.608  -3.893  -3.068  1.00  0.00    -0.203 F 
ATOM      8  C   UNL     1      -0.177  -1.812  -2.180  1.00  0.00     0.163 A 
ENDROOT
BRANCH   1   9
ATOM      9  C   UNL     1      -0.981   0.393  -1.260  1.00  0.00    -0.014 A 
ATOM     10  C   UNL     1      -2.266   1.879   0.768  1.00  0.00    -0.001 A 
ATOM     11  C   UNL     1      -0.987   2.246   0.315  1.00  0.00     0.011 A 
ATOM     12  C   UNL     1      -2.901   0.769   0.182  1.00  0.00     0.011 A 
ATOM     13  C   UNL     1      -0.353   1.512  -0.691  1.00  0.00     0.009 A 
ATOM     14  C   UNL     1      -2.266   0.036  -0.824  1.00  0.00     0.009 A 
BRANCH  10  15
ATOM     15  C   UNL     1      -2.933   2.644   1.847  1.00  0.00     0.080 C 
ATOM     16  O   UNL     1      -4.082   2.313   2.246  1.00  0.00    -0.315 OA
BRANCH  15  17
ATOM     17  N   UNL     1      -2.285   3.764   2.449  1.00  0.00    -0.664 NA
ATOM     18  H   UNL     1      -2.749   4.307   3.210  1.00  0.00    -0.121 HD
ENDBRANCH  15  17
ENDBRANCH  10  15
ENDBRANCH   1   9
BRANCH   8  19
ATOM     19  O   UNL     1      -0.767  -2.477  -1.101  1.00  0.00    -0.479 OA
BRANCH  19  20
ATOM     20  C   UNL     1      -0.000  -3.097  -0.073  1.00  0.00     0.340 C 
BRANCH  20  21
ATOM     21  C   UNL     1       0.443  -2.071   0.923  1.00  0.00     0.245 A 
ATOM     22  N   UNL     1      -0.396  -1.410   1.753  1.00  0.00    -0.126 N 
ATOM     23  C   UNL     1       1.668  -1.433   0.971  1.00  0.00     0.050 A 
ATOM     24  N   UNL     1       0.247  -0.376   2.280  1.00  0.00    -0.171 N 
ATOM     25  C   UNL     1       1.509  -0.407   1.821  1.00  0.00     0.083 A 
ATOM     26  C   UNL     1       2.733  -1.200  -0.026  1.00  0.00     0.045 C 
ATOM     27  C   UNL     1       2.439   0.711   1.573  1.00  0.00     0.060 C 
ATOM     28  C   UNL     1       3.321   0.164   0.420  1.00  0.00     0.012 C 
ATOM     29  H   UNL     1      -1.421  -1.582   1.861  1.00  0.00     0.488 HD
ATOM     30  H   UNL     1      -0.206   0.397   2.817  1.00  0.00     0.238 HD
ENDBRANCH  20  21
ENDBRANCH  19  20
ENDBRANCH   8  19
TORSDOF 6


