MODEL 1
REMARK VINA RESULT:      -9.6      0.000      0.000
REMARK SMILES O=Cc1cc(F)c(F)cc1[NH2+]c1cc2ccccc2[n-]1
REMARK SMILES IDX 3 1 4 2 5 3 6 4 7 5 8 6 9 7 10 8 2 9 1 10 11 11 12 14 13 15
REMARK SMILES IDX 20 16 14 17 19 18 15 19 18 20 16 21 17 22
REMARK H PARENT 11 12 11 13
ROOT
ATOM      1  C   UNL     1      43.027 131.844  19.554  1.00  0.00     0.079 A 
ATOM      2  C   UNL     1      43.384 131.559  20.885  1.00  0.00     0.060 A 
ATOM      3  C   UNL     1      44.649 131.060  21.199  1.00  0.00     0.160 A 
ATOM      4  F   UNL     1      44.972 130.802  22.491  1.00  0.00    -0.204 F 
ATOM      5  C   UNL     1      45.581 130.835  20.189  1.00  0.00     0.164 A 
ATOM      6  F   UNL     1      46.812 130.357  20.495  1.00  0.00    -0.204 F 
ATOM      7  C   UNL     1      45.247 131.096  18.861  1.00  0.00     0.111 A 
ATOM      8  C   UNL     1      43.971 131.587  18.514  1.00  0.00     0.146 A 
ENDROOT
BRANCH   1   9
ATOM      9  C   UNL     1      41.669 132.399  19.333  1.00  0.00     0.266 C 
ATOM     10  O   UNL     1      41.189 133.319  20.043  1.00  0.00    -0.298 OA
ENDBRANCH   1   9
BRANCH   8  11
ATOM     11  N   UNL     1      43.676 131.817  17.117  1.00  0.00    -0.299 N 
ATOM     12  H   UNL     1      43.450 132.823  16.950  1.00  0.00     0.356 HD
ATOM     13  H   UNL     1      42.827 131.277  16.831  1.00  0.00     0.356 HD
BRANCH  11  14
ATOM     14  C   UNL     1      44.769 131.380  16.291  1.00  0.00     0.036 A 
ATOM     15  C   UNL     1      45.434 132.195  15.377  1.00  0.00     0.050 A 
ATOM     16  N   UNL     1      45.184 130.089  16.225  1.00  0.00    -0.610 NA
ATOM     17  C   UNL     1      46.320 131.354  14.752  1.00  0.00    -0.036 A 
ATOM     18  C   UNL     1      46.145 130.103  15.283  1.00  0.00    -0.125 A 
ATOM     19  C   UNL     1      47.253 131.606  13.747  1.00  0.00     0.007 A 
ATOM     20  C   UNL     1      46.897 129.013  14.844  1.00  0.00    -0.015 A 
ATOM     21  C   UNL     1      48.027 130.525  13.288  1.00  0.00     0.001 A 
ATOM     22  C   UNL     1      47.850 129.235  13.834  1.00  0.00    -0.001 A 
ENDBRANCH  11  14
ENDBRANCH   8  11
TORSDOF 3
ENDMDL
MODEL 2
REMARK VINA RESULT:      -9.4      0.615      1.320
REMARK SMILES O=Cc1cc(F)c(F)cc1[NH2+]c1cc2ccccc2[n-]1
REMARK SMILES IDX 3 1 4 2 5 3 6 4 7 5 8 6 9 7 10 8 2 9 1 10 11 11 12 14 13 15
REMARK SMILES IDX 20 16 14 17 19 18 15 19 18 20 16 21 17 22
REMARK H PARENT 11 12 11 13
ROOT
ATOM      1  C   UNL     1      43.014 131.946  19.469  1.00  0.00     0.079 A 
ATOM      2  C   UNL     1      43.431 131.666  20.784  1.00  0.00     0.060 A 
ATOM      3  C   UNL     1      44.691 131.122  21.038  1.00  0.00     0.160 A 
ATOM      4  F   UNL     1      45.073 130.870  22.314  1.00  0.00    -0.204 F 
ATOM      5  C   UNL     1      45.558 130.846  19.983  1.00  0.00     0.164 A 
ATOM      6  F   UNL     1      46.785 130.325  20.230  1.00  0.00    -0.204 F 
ATOM      7  C   UNL     1      45.163 131.102  18.670  1.00  0.00     0.111 A 
ATOM      8  C   UNL     1      43.890 131.637  18.385  1.00  0.00     0.146 A 
ENDROOT
BRANCH   1   9
ATOM      9  C   UNL     1      41.668 132.551  19.312  1.00  0.00     0.266 C 
ATOM     10  O   UNL     1      41.138 133.264  20.202  1.00  0.00    -0.298 OA
ENDBRANCH   1   9
BRANCH   8  11
ATOM     11  N   UNL     1      43.529 131.860  17.002  1.00  0.00    -0.299 N 
ATOM     12  H   UNL     1      43.341 132.873  16.829  1.00  0.00     0.356 HD
ATOM     13  H   UNL     1      42.641 131.356  16.772  1.00  0.00     0.356 HD
BRANCH  11  14
ATOM     14  C   UNL     1      44.553 131.358  16.125  1.00  0.00     0.036 A 
ATOM     15  C   UNL     1      44.966 130.029  16.083  1.00  0.00     0.050 A 
ATOM     16  N   UNL     1      45.315 132.158  15.335  1.00  0.00    -0.610 NA
ATOM     17  C   UNL     1      46.011 130.024  15.193  1.00  0.00    -0.036 A 
ATOM     18  C   UNL     1      46.192 131.312  14.764  1.00  0.00    -0.125 A 
ATOM     19  C   UNL     1      46.815 128.977  14.746  1.00  0.00     0.007 A 
ATOM     20  C   UNL     1      47.196 131.643  13.854  1.00  0.00    -0.015 A 
ATOM     21  C   UNL     1      47.834 129.281  13.825  1.00  0.00     0.001 A 
ATOM     22  C   UNL     1      48.023 130.608  13.381  1.00  0.00    -0.001 A 
ENDBRANCH  11  14
ENDBRANCH   8  11
TORSDOF 3
ENDMDL
MODEL 3
REMARK VINA RESULT:      -7.9      2.521      3.318
REMARK SMILES O=Cc1cc(F)c(F)cc1[NH2+]c1cc2ccccc2[n-]1
REMARK SMILES IDX 3 1 4 2 5 3 6 4 7 5 8 6 9 7 10 8 2 9 1 10 11 11 12 14 13 15
REMARK SMILES IDX 20 16 14 17 19 18 15 19 18 20 16 21 17 22
REMARK H PARENT 11 12 11 13
ROOT
ATOM      1  C   UNL     1      43.815 131.500  21.284  1.00  0.00     0.079 A 
ATOM      2  C   UNL     1      42.632 132.224  21.522  1.00  0.00     0.060 A 
ATOM      3  C   UNL     1      41.856 132.703  20.466  1.00  0.00     0.160 A 
ATOM      4  F   UNL     1      40.715 133.389  20.722  1.00  0.00    -0.204 F 
ATOM      5  C   UNL     1      42.249 132.470  19.150  1.00  0.00     0.164 A 
ATOM      6  F   UNL     1      41.492 132.929  18.124  1.00  0.00    -0.204 F 
ATOM      7  C   UNL     1      43.425 131.768  18.887  1.00  0.00     0.111 A 
ATOM      8  C   UNL     1      44.235 131.285  19.936  1.00  0.00     0.146 A 
ENDROOT
BRANCH   1   9
ATOM      9  C   UNL     1      44.549 131.011  22.477  1.00  0.00     0.266 C 
ATOM     10  O   UNL     1      44.221 129.965  23.092  1.00  0.00    -0.298 OA
ENDBRANCH   1   9
BRANCH   8  11
ATOM     11  N   UNL     1      45.454 130.584  19.600  1.00  0.00    -0.299 N 
ATOM     12  H   UNL     1      45.431 129.607  19.971  1.00  0.00     0.356 HD
ATOM     13  H   UNL     1      46.276 131.046  20.053  1.00  0.00     0.356 HD
BRANCH  11  14
ATOM     14  C   UNL     1      45.673 130.601  18.179  1.00  0.00     0.036 A 
ATOM     15  C   UNL     1      46.066 129.492  17.434  1.00  0.00     0.050 A 
ATOM     16  N   UNL     1      45.641 131.735  17.433  1.00  0.00    -0.610 NA
ATOM     17  C   UNL     1      46.247 129.980  16.164  1.00  0.00    -0.036 A 
ATOM     18  C   UNL     1      45.984 131.325  16.199  1.00  0.00    -0.125 A 
ATOM     19  C   UNL     1      46.637 129.334  14.992  1.00  0.00     0.007 A 
ATOM     20  C   UNL     1      46.093 132.118  15.057  1.00  0.00    -0.015 A 
ATOM     21  C   UNL     1      46.751 130.110  13.824  1.00  0.00     0.001 A 
ATOM     22  C   UNL     1      46.480 131.495  13.857  1.00  0.00    -0.001 A 
ENDBRANCH  11  14
ENDBRANCH   8  11
TORSDOF 3
ENDMDL
MODEL 4
REMARK VINA RESULT:      -7.9      3.049      6.567
REMARK SMILES O=Cc1cc(F)c(F)cc1[NH2+]c1cc2ccccc2[n-]1
REMARK SMILES IDX 3 1 4 2 5 3 6 4 7 5 8 6 9 7 10 8 2 9 1 10 11 11 12 14 13 15
REMARK SMILES IDX 20 16 14 17 19 18 15 19 18 20 16 21 17 22
REMARK H PARENT 11 12 11 13
ROOT
ATOM      1  C   UNL     1      43.296 131.797  18.306  1.00  0.00     0.079 A 
ATOM      2  C   UNL     1      43.385 131.414  16.954  1.00  0.00     0.060 A 
ATOM      3  C   UNL     1      44.547 130.833  16.446  1.00  0.00     0.160 A 
ATOM      4  F   UNL     1      44.604 130.465  15.143  1.00  0.00    -0.204 F 
ATOM      5  C   UNL     1      45.645 130.625  17.278  1.00  0.00     0.164 A 
ATOM      6  F   UNL     1      46.771 130.054  16.786  1.00  0.00    -0.204 F 
ATOM      7  C   UNL     1      45.587 131.008  18.618  1.00  0.00     0.111 A 
ATOM      8  C   UNL     1      44.430 131.610  19.153  1.00  0.00     0.146 A 
ENDROOT
BRANCH   1   9
ATOM      9  C   UNL     1      42.005 132.377  18.750  1.00  0.00     0.266 C 
ATOM     10  O   UNL     1      41.877 132.990  19.841  1.00  0.00    -0.298 OA
ENDBRANCH   1   9
BRANCH   8  11
ATOM     11  N   UNL     1      44.438 132.007  20.545  1.00  0.00    -0.299 N 
ATOM     12  H   UNL     1      43.766 132.789  20.708  1.00  0.00     0.356 HD
ATOM     13  H   UNL     1      45.381 132.373  20.812  1.00  0.00     0.356 HD
BRANCH  11  14
ATOM     14  C   UNL     1      44.151 130.881  21.393  1.00  0.00     0.036 A 
ATOM     15  C   UNL     1      42.961 130.716  22.098  1.00  0.00     0.050 A 
ATOM     16  N   UNL     1      45.065 129.924  21.695  1.00  0.00    -0.610 NA
ATOM     17  C   UNL     1      43.159 129.577  22.838  1.00  0.00    -0.036 A 
ATOM     18  C   UNL     1      44.427 129.129  22.573  1.00  0.00    -0.125 A 
ATOM     19  C   UNL     1      42.315 128.919  23.731  1.00  0.00     0.007 A 
ATOM     20  C   UNL     1      44.938 127.985  23.186  1.00  0.00    -0.015 A 
ATOM     21  C   UNL     1      42.804 127.761  24.361  1.00  0.00     0.001 A 
ATOM     22  C   UNL     1      44.109 127.296  24.090  1.00  0.00    -0.001 A 
ENDBRANCH  11  14
ENDBRANCH   8  11
TORSDOF 3
ENDMDL
MODEL 5
REMARK VINA RESULT:      -7.8      2.534      3.105
REMARK SMILES O=Cc1cc(F)c(F)cc1[NH2+]c1cc2ccccc2[n-]1
REMARK SMILES IDX 3 1 4 2 5 3 6 4 7 5 8 6 9 7 10 8 2 9 1 10 11 11 12 14 13 15
REMARK SMILES IDX 20 16 14 17 19 18 15 19 18 20 16 21 17 22
REMARK H PARENT 11 12 11 13
ROOT
ATOM      1  C   UNL     1      43.785 131.425  21.230  1.00  0.00     0.079 A 
ATOM      2  C   UNL     1      42.645 132.223  21.444  1.00  0.00     0.060 A 
ATOM      3  C   UNL     1      41.900 132.716  20.372  1.00  0.00     0.160 A 
ATOM      4  F   UNL     1      40.801 133.474  20.605  1.00  0.00    -0.204 F 
ATOM      5  C   UNL     1      42.281 132.423  19.064  1.00  0.00     0.164 A 
ATOM      6  F   UNL     1      41.553 132.895  18.023  1.00  0.00    -0.204 F 
ATOM      7  C   UNL     1      43.414 131.646  18.825  1.00  0.00     0.111 A 
ATOM      8  C   UNL     1      44.193 131.148  19.890  1.00  0.00     0.146 A 
ENDROOT
BRANCH   1   9
ATOM      9  C   UNL     1      44.486 130.928  22.439  1.00  0.00     0.266 C 
ATOM     10  O   UNL     1      44.665 129.704  22.664  1.00  0.00    -0.298 OA
ENDBRANCH   1   9
BRANCH   8  11
ATOM     11  N   UNL     1      45.370 130.367  19.578  1.00  0.00    -0.299 N 
ATOM     12  H   UNL     1      45.224 129.364  19.832  1.00  0.00     0.356 HD
ATOM     13  H   UNL     1      46.185 130.696  20.146  1.00  0.00     0.356 HD
BRANCH  11  14
ATOM     14  C   UNL     1      45.719 130.511  18.190  1.00  0.00     0.036 A 
ATOM     15  C   UNL     1      45.523 131.675  17.450  1.00  0.00     0.050 A 
ATOM     16  N   UNL     1      46.161 129.483  17.422  1.00  0.00    -0.610 NA
ATOM     17  C   UNL     1      45.900 131.336  16.175  1.00  0.00    -0.036 A 
ATOM     18  C   UNL     1      46.277 130.019  16.193  1.00  0.00    -0.125 A 
ATOM     19  C   UNL     1      45.922 132.095  15.006  1.00  0.00     0.007 A 
ATOM     20  C   UNL     1      46.705 129.367  15.037  1.00  0.00    -0.015 A 
ATOM     21  C   UNL     1      46.353 131.464  13.825  1.00  0.00     0.001 A 
ATOM     22  C   UNL     1      46.743 130.107  13.840  1.00  0.00    -0.001 A 
ENDBRANCH  11  14
ENDBRANCH   8  11
TORSDOF 3
ENDMDL
MODEL 6
REMARK VINA RESULT:      -7.8      3.440      6.406
REMARK SMILES O=Cc1cc(F)c(F)cc1[NH2+]c1cc2ccccc2[n-]1
REMARK SMILES IDX 3 1 4 2 5 3 6 4 7 5 8 6 9 7 10 8 2 9 1 10 11 11 12 14 13 15
REMARK SMILES IDX 20 16 14 17 19 18 15 19 18 20 16 21 17 22
REMARK H PARENT 11 12 11 13
ROOT
ATOM      1  C   UNL     1      46.021 129.606  14.941  1.00  0.00     0.079 A 
ATOM      2  C   UNL     1      47.232 129.069  14.463  1.00  0.00     0.060 A 
ATOM      3  C   UNL     1      48.087 129.825  13.661  1.00  0.00     0.160 A 
ATOM      4  F   UNL     1      49.252 129.288  13.222  1.00  0.00    -0.204 F 
ATOM      5  C   UNL     1      47.750 131.132  13.319  1.00  0.00     0.164 A 
ATOM      6  F   UNL     1      48.584 131.870  12.546  1.00  0.00    -0.204 F 
ATOM      7  C   UNL     1      46.550 131.684  13.768  1.00  0.00     0.111 A 
ATOM      8  C   UNL     1      45.660 130.936  14.568  1.00  0.00     0.146 A 
ENDROOT
BRANCH   1   9
ATOM      9  C   UNL     1      45.200 128.728  15.810  1.00  0.00     0.266 C 
ATOM     10  O   UNL     1      44.172 128.136  15.396  1.00  0.00    -0.298 OA
ENDBRANCH   1   9
BRANCH   8  11
ATOM     11  N   UNL     1      44.420 131.555  14.984  1.00  0.00    -0.299 N 
ATOM     12  H   UNL     1      43.601 131.037  14.591  1.00  0.00     0.356 HD
ATOM     13  H   UNL     1      44.356 132.529  14.607  1.00  0.00     0.356 HD
BRANCH  11  14
ATOM     14  C   UNL     1      44.352 131.636  16.418  1.00  0.00     0.036 A 
ATOM     15  C   UNL     1      45.448 131.483  17.264  1.00  0.00     0.050 A 
ATOM     16  N   UNL     1      43.186 131.745  17.104  1.00  0.00    -0.610 NA
ATOM     17  C   UNL     1      44.914 131.537  18.527  1.00  0.00    -0.036 A 
ATOM     18  C   UNL     1      43.560 131.695  18.395  1.00  0.00    -0.125 A 
ATOM     19  C   UNL     1      45.529 131.444  19.775  1.00  0.00     0.007 A 
ATOM     20  C   UNL     1      42.723 131.772  19.508  1.00  0.00    -0.015 A 
ATOM     21  C   UNL     1      44.710 131.522  20.915  1.00  0.00     0.001 A 
ATOM     22  C   UNL     1      43.313 131.686  20.783  1.00  0.00    -0.001 A 
ENDBRANCH  11  14
ENDBRANCH   8  11
TORSDOF 3
ENDMDL
MODEL 7
REMARK VINA RESULT:      -7.8      1.705      2.706
REMARK SMILES O=Cc1cc(F)c(F)cc1[NH2+]c1cc2ccccc2[n-]1
REMARK SMILES IDX 3 1 4 2 5 3 6 4 7 5 8 6 9 7 10 8 2 9 1 10 11 11 12 14 13 15
REMARK SMILES IDX 20 16 14 17 19 18 15 19 18 20 16 21 17 22
REMARK H PARENT 11 12 11 13
ROOT
ATOM      1  C   UNL     1      43.020 131.663  21.032  1.00  0.00     0.079 A 
ATOM      2  C   UNL     1      42.339 130.796  21.907  1.00  0.00     0.060 A 
ATOM      3  C   UNL     1      43.023 129.813  22.623  1.00  0.00     0.160 A 
ATOM      4  F   UNL     1      42.345 128.997  23.467  1.00  0.00    -0.204 F 
ATOM      5  C   UNL     1      44.401 129.676  22.477  1.00  0.00     0.164 A 
ATOM      6  F   UNL     1      45.067 128.726  23.179  1.00  0.00    -0.204 F 
ATOM      7  C   UNL     1      45.098 130.513  21.606  1.00  0.00     0.111 A 
ATOM      8  C   UNL     1      44.428 131.505  20.860  1.00  0.00     0.146 A 
ENDROOT
BRANCH   1   9
ATOM      9  C   UNL     1      42.202 132.691  20.342  1.00  0.00     0.266 C 
ATOM     10  O   UNL     1      41.748 132.529  19.181  1.00  0.00    -0.298 OA
ENDBRANCH   1   9
BRANCH   8  11
ATOM     11  N   UNL     1      45.202 132.328  19.956  1.00  0.00    -0.299 N 
ATOM     12  H   UNL     1      46.161 132.491  20.336  1.00  0.00     0.356 HD
ATOM     13  H   UNL     1      44.764 133.273  19.859  1.00  0.00     0.356 HD
BRANCH  11  14
ATOM     14  C   UNL     1      45.250 131.733  18.647  1.00  0.00     0.036 A 
ATOM     15  C   UNL     1      45.782 130.474  18.378  1.00  0.00     0.050 A 
ATOM     16  N   UNL     1      44.897 132.394  17.515  1.00  0.00    -0.610 NA
ATOM     17  C   UNL     1      45.712 130.359  17.012  1.00  0.00    -0.036 A 
ATOM     18  C   UNL     1      45.177 131.524  16.528  1.00  0.00    -0.125 A 
ATOM     19  C   UNL     1      46.094 129.316  16.170  1.00  0.00     0.007 A 
ATOM     20  C   UNL     1      44.987 131.726  15.161  1.00  0.00    -0.015 A 
ATOM     21  C   UNL     1      45.910 129.491  14.787  1.00  0.00     0.001 A 
ATOM     22  C   UNL     1      45.359 130.690  14.284  1.00  0.00    -0.001 A 
ENDBRANCH  11  14
ENDBRANCH   8  11
TORSDOF 3
ENDMDL
MODEL 8
REMARK VINA RESULT:      -7.8      2.998      6.523
REMARK SMILES O=Cc1cc(F)c(F)cc1[NH2+]c1cc2ccccc2[n-]1
REMARK SMILES IDX 3 1 4 2 5 3 6 4 7 5 8 6 9 7 10 8 2 9 1 10 11 11 12 14 13 15
REMARK SMILES IDX 20 16 14 17 19 18 15 19 18 20 16 21 17 22
REMARK H PARENT 11 12 11 13
ROOT
ATOM      1  C   UNL     1      43.286 131.807  18.385  1.00  0.00     0.079 A 
ATOM      2  C   UNL     1      43.301 131.380  17.043  1.00  0.00     0.060 A 
ATOM      3  C   UNL     1      44.453 130.836  16.474  1.00  0.00     0.160 A 
ATOM      4  F   UNL     1      44.438 130.423  15.183  1.00  0.00    -0.204 F 
ATOM      5  C   UNL     1      45.614 130.710  17.233  1.00  0.00     0.164 A 
ATOM      6  F   UNL     1      46.731 130.175  16.683  1.00  0.00    -0.204 F 
ATOM      7  C   UNL     1      45.629 131.138  18.561  1.00  0.00     0.111 A 
ATOM      8  C   UNL     1      44.483 131.705  19.156  1.00  0.00     0.146 A 
ENDROOT
BRANCH   1   9
ATOM      9  C   UNL     1      42.001 132.342  18.899  1.00  0.00     0.266 C 
ATOM     10  O   UNL     1      41.933 133.078  19.916  1.00  0.00    -0.298 OA
ENDBRANCH   1   9
BRANCH   8  11
ATOM     11  N   UNL     1      44.568 132.151  20.529  1.00  0.00    -0.299 N 
ATOM     12  H   UNL     1      43.920 132.955  20.695  1.00  0.00     0.356 HD
ATOM     13  H   UNL     1      45.530 132.506  20.738  1.00  0.00     0.356 HD
BRANCH  11  14
ATOM     14  C   UNL     1      44.298 131.064  21.432  1.00  0.00     0.036 A 
ATOM     15  C   UNL     1      45.142 129.971  21.614  1.00  0.00     0.050 A 
ATOM     16  N   UNL     1      43.129 130.929  22.107  1.00  0.00    -0.610 NA
ATOM     17  C   UNL     1      44.455 129.150  22.474  1.00  0.00    -0.036 A 
ATOM     18  C   UNL     1      43.256 129.753  22.749  1.00  0.00    -0.125 A 
ATOM     19  C   UNL     1      44.802 127.914  23.016  1.00  0.00     0.007 A 
ATOM     20  C   UNL     1      42.317 129.157  23.591  1.00  0.00    -0.015 A 
ATOM     21  C   UNL     1      43.875 127.292  23.871  1.00  0.00     0.001 A 
ATOM     22  C   UNL     1      42.639 127.910  24.158  1.00  0.00    -0.001 A 
ENDBRANCH  11  14
ENDBRANCH   8  11
TORSDOF 3
ENDMDL
MODEL 9
REMARK VINA RESULT:      -7.7      3.496      6.415
REMARK SMILES O=Cc1cc(F)c(F)cc1[NH2+]c1cc2ccccc2[n-]1
REMARK SMILES IDX 3 1 4 2 5 3 6 4 7 5 8 6 9 7 10 8 2 9 1 10 11 11 12 14 13 15
REMARK SMILES IDX 20 16 14 17 19 18 15 19 18 20 16 21 17 22
REMARK H PARENT 11 12 11 13
ROOT
ATOM      1  C   UNL     1      45.882 129.769  15.013  1.00  0.00     0.079 A 
ATOM      2  C   UNL     1      46.993 129.122  14.441  1.00  0.00     0.060 A 
ATOM      3  C   UNL     1      47.910 129.824  13.657  1.00  0.00     0.160 A 
ATOM      4  F   UNL     1      48.977 129.180  13.125  1.00  0.00    -0.204 F 
ATOM      5  C   UNL     1      47.734 131.187  13.430  1.00  0.00     0.164 A 
ATOM      6  F   UNL     1      48.629 131.871  12.675  1.00  0.00    -0.204 F 
ATOM      7  C   UNL     1      46.633 131.849  13.974  1.00  0.00     0.111 A 
ATOM      8  C   UNL     1      45.684 131.160  14.757  1.00  0.00     0.146 A 
ENDROOT
BRANCH   1   9
ATOM      9  C   UNL     1      44.986 128.936  15.852  1.00  0.00     0.266 C 
ATOM     10  O   UNL     1      44.546 127.821  15.474  1.00  0.00    -0.298 OA
ENDBRANCH   1   9
BRANCH   8  11
ATOM     11  N   UNL     1      44.552 131.896  15.276  1.00  0.00    -0.299 N 
ATOM     12  H   UNL     1      43.673 131.612  14.787  1.00  0.00     0.356 HD
ATOM     13  H   UNL     1      44.669 132.919  15.092  1.00  0.00     0.356 HD
BRANCH  11  14
ATOM     14  C   UNL     1      44.442 131.718  16.699  1.00  0.00     0.036 A 
ATOM     15  C   UNL     1      43.245 131.795  17.407  1.00  0.00     0.050 A 
ATOM     16  N   UNL     1      45.516 131.582  17.518  1.00  0.00    -0.610 NA
ATOM     17  C   UNL     1      43.618 131.664  18.721  1.00  0.00    -0.036 A 
ATOM     18  C   UNL     1      44.981 131.538  18.752  1.00  0.00    -0.125 A 
ATOM     19  C   UNL     1      42.849 131.662  19.884  1.00  0.00     0.007 A 
ATOM     20  C   UNL     1      45.674 131.399  19.955  1.00  0.00    -0.015 A 
ATOM     21  C   UNL     1      43.521 131.519  21.112  1.00  0.00     0.001 A 
ATOM     22  C   UNL     1      44.927 131.389  21.147  1.00  0.00    -0.001 A 
ENDBRANCH  11  14
ENDBRANCH   8  11
TORSDOF 3
ENDMDL


