MODEL 1
REMARK VINA RESULT:     -10.0      0.000      0.000
REMARK SMILES [O-]c1nccc2ccc(-c3cccc([C@H]4CO4)c3)cc12
REMARK SMILES IDX 1 1 2 2 3 3 4 4 5 5 6 6 7 7 8 8 9 9 19 10 20 11 10 12 11 13
REMARK SMILES IDX 18 14 12 15 14 16 13 17 15 18 16 19 17 20
REMARK H PARENT
ROOT
ATOM      1  O   UNL     1      41.543 132.927  20.216  1.00  0.00    -0.858 OA
ATOM      2  C   UNL     1      42.564 132.281  20.905  1.00  0.00    -0.005 A 
ATOM      3  N   UNL     1      42.501 132.202  22.261  1.00  0.00    -0.272 NA
ATOM      4  C   UNL     1      43.466 131.586  22.993  1.00  0.00     0.111 A 
ATOM      5  C   UNL     1      44.566 131.007  22.359  1.00  0.00     0.029 A 
ATOM      6  C   UNL     1      44.667 131.068  20.964  1.00  0.00    -0.016 A 
ATOM      7  C   UNL     1      45.760 130.494  20.302  1.00  0.00     0.009 A 
ATOM      8  C   UNL     1      45.853 130.558  18.910  1.00  0.00     0.009 A 
ATOM      9  C   UNL     1      44.854 131.198  18.153  1.00  0.00    -0.018 A 
ATOM     10  C   UNL     1      43.756 131.774  18.818  1.00  0.00     0.018 A 
ATOM     11  C   UNL     1      43.655 131.714  20.218  1.00  0.00    -0.007 A 
ENDROOT
BRANCH   9  12
ATOM     12  C   UNL     1      44.959 131.264  16.673  1.00  0.00    -0.018 A 
ATOM     13  C   UNL     1      43.807 131.412  15.881  1.00  0.00     0.009 A 
ATOM     14  C   UNL     1      46.215 131.176  16.042  1.00  0.00     0.015 A 
ATOM     15  C   UNL     1      43.908 131.467  14.488  1.00  0.00     0.001 A 
ATOM     16  C   UNL     1      46.318 131.250  14.644  1.00  0.00    -0.016 A 
ATOM     17  C   UNL     1      45.156 131.379  13.870  1.00  0.00     0.006 A 
BRANCH  16  18
ATOM     18  C   UNL     1      47.654 131.117  13.974  1.00  0.00     0.174 C 
ATOM     19  C   UNL     1      47.928 129.817  13.321  1.00  0.00     0.198 C 
ATOM     20  O   UNL     1      47.524 130.944  12.581  1.00  0.00    -0.368 OA
ENDBRANCH  16  18
ENDBRANCH   9  12
TORSDOF 2
ENDMDL
MODEL 2
REMARK VINA RESULT:      -8.8      0.928      1.015
REMARK SMILES [O-]c1nccc2ccc(-c3cccc([C@H]4CO4)c3)cc12
REMARK SMILES IDX 1 1 2 2 3 3 4 4 5 5 6 6 7 7 8 8 9 9 19 10 20 11 10 12 11 13
REMARK SMILES IDX 18 14 12 15 14 16 13 17 15 18 16 19 17 20
REMARK H PARENT
ROOT
ATOM      1  O   UNL     1      41.561 132.856  19.440  1.00  0.00    -0.858 OA
ATOM      2  C   UNL     1      42.489 132.301  20.315  1.00  0.00    -0.005 A 
ATOM      3  N   UNL     1      42.250 132.348  21.652  1.00  0.00    -0.272 NA
ATOM      4  C   UNL     1      43.117 131.825  22.559  1.00  0.00     0.111 A 
ATOM      5  C   UNL     1      44.297 131.215  22.131  1.00  0.00     0.029 A 
ATOM      6  C   UNL     1      44.579 131.147  20.762  1.00  0.00    -0.016 A 
ATOM      7  C   UNL     1      45.755 130.538  20.305  1.00  0.00     0.009 A 
ATOM      8  C   UNL     1      46.029 130.474  18.937  1.00  0.00     0.009 A 
ATOM      9  C   UNL     1      45.131 131.018  17.999  1.00  0.00    -0.018 A 
ATOM     10  C   UNL     1      43.949 131.628  18.458  1.00  0.00     0.018 A 
ATOM     11  C   UNL     1      43.666 131.697  19.832  1.00  0.00    -0.007 A 
ENDROOT
BRANCH   9  12
ATOM     12  C   UNL     1      45.429 130.947  16.546  1.00  0.00    -0.018 A 
ATOM     13  C   UNL     1      44.717 131.743  15.631  1.00  0.00     0.009 A 
ATOM     14  C   UNL     1      46.427 130.080  16.063  1.00  0.00     0.015 A 
ATOM     15  C   UNL     1      44.994 131.670  14.264  1.00  0.00     0.001 A 
ATOM     16  C   UNL     1      46.718 130.020  14.691  1.00  0.00    -0.016 A 
ATOM     17  C   UNL     1      45.985 130.807  13.793  1.00  0.00     0.006 A 
BRANCH  16  18
ATOM     18  C   UNL     1      47.757 129.067  14.177  1.00  0.00     0.174 C 
ATOM     19  C   UNL     1      48.470 129.481  12.947  1.00  0.00     0.198 C 
ATOM     20  O   UNL     1      49.048 129.629  14.222  1.00  0.00    -0.368 OA
ENDBRANCH  16  18
ENDBRANCH   9  12
TORSDOF 2
ENDMDL
MODEL 3
REMARK VINA RESULT:      -8.3      2.727      6.975
REMARK SMILES [O-]c1nccc2ccc(-c3cccc([C@H]4CO4)c3)cc12
REMARK SMILES IDX 1 1 2 2 3 3 4 4 5 5 6 6 7 7 8 8 9 9 19 10 20 11 10 12 11 13
REMARK SMILES IDX 18 14 12 15 14 16 13 17 15 18 16 19 17 20
REMARK H PARENT
ROOT
ATOM      1  O   UNL     1      43.399 132.005  14.264  1.00  0.00    -0.858 OA
ATOM      2  C   UNL     1      44.561 131.320  14.606  1.00  0.00    -0.005 A 
ATOM      3  N   UNL     1      45.384 130.878  13.618  1.00  0.00    -0.272 NA
ATOM      4  C   UNL     1      46.533 130.202  13.885  1.00  0.00     0.111 A 
ATOM      5  C   UNL     1      46.904 129.942  15.204  1.00  0.00     0.029 A 
ATOM      6  C   UNL     1      46.082 130.381  16.249  1.00  0.00    -0.016 A 
ATOM      7  C   UNL     1      46.432 130.135  17.583  1.00  0.00     0.009 A 
ATOM      8  C   UNL     1      45.607 130.577  18.620  1.00  0.00     0.009 A 
ATOM      9  C   UNL     1      44.417 131.275  18.343  1.00  0.00    -0.018 A 
ATOM     10  C   UNL     1      44.066 131.523  17.003  1.00  0.00     0.018 A 
ATOM     11  C   UNL     1      44.890 131.081  15.954  1.00  0.00    -0.007 A 
ENDROOT
BRANCH   9  12
ATOM     12  C   UNL     1      43.545 131.741  19.450  1.00  0.00    -0.018 A 
ATOM     13  C   UNL     1      42.394 132.503  19.181  1.00  0.00     0.009 A 
ATOM     14  C   UNL     1      43.859 131.430  20.787  1.00  0.00     0.015 A 
ATOM     15  C   UNL     1      41.578 132.947  20.225  1.00  0.00     0.001 A 
ATOM     16  C   UNL     1      43.029 131.860  21.834  1.00  0.00    -0.016 A 
ATOM     17  C   UNL     1      41.896 132.634  21.547  1.00  0.00     0.006 A 
BRANCH  16  18
ATOM     18  C   UNL     1      43.389 131.558  23.259  1.00  0.00     0.174 C 
ATOM     19  C   UNL     1      42.844 130.298  23.815  1.00  0.00     0.198 C 
ATOM     20  O   UNL     1      44.174 130.392  23.363  1.00  0.00    -0.368 OA
ENDBRANCH  16  18
ENDBRANCH   9  12
TORSDOF 2
ENDMDL
MODEL 4
REMARK VINA RESULT:      -8.0      1.518      2.096
REMARK SMILES [O-]c1nccc2ccc(-c3cccc([C@H]4CO4)c3)cc12
REMARK SMILES IDX 1 1 2 2 3 3 4 4 5 5 6 6 7 7 8 8 9 9 19 10 20 11 10 12 11 13
REMARK SMILES IDX 18 14 12 15 14 16 13 17 15 18 16 19 17 20
REMARK H PARENT
ROOT
ATOM      1  O   UNL     1      46.487 131.425  21.085  1.00  0.00    -0.858 OA
ATOM      2  C   UNL     1      45.124 131.645  21.250  1.00  0.00    -0.005 A 
ATOM      3  N   UNL     1      44.626 131.801  22.506  1.00  0.00    -0.272 NA
ATOM      4  C   UNL     1      43.304 132.018  22.736  1.00  0.00     0.111 A 
ATOM      5  C   UNL     1      42.408 132.089  21.669  1.00  0.00     0.029 A 
ATOM      6  C   UNL     1      42.882 131.933  20.361  1.00  0.00    -0.016 A 
ATOM      7  C   UNL     1      42.005 132.001  19.271  1.00  0.00     0.009 A 
ATOM      8  C   UNL     1      42.486 131.846  17.969  1.00  0.00     0.009 A 
ATOM      9  C   UNL     1      43.855 131.619  17.732  1.00  0.00    -0.018 A 
ATOM     10  C   UNL     1      44.736 131.552  18.827  1.00  0.00     0.018 A 
ATOM     11  C   UNL     1      44.261 131.707  20.139  1.00  0.00    -0.007 A 
ENDROOT
BRANCH   9  12
ATOM     12  C   UNL     1      44.359 131.454  16.346  1.00  0.00    -0.018 A 
ATOM     13  C   UNL     1      43.509 131.663  15.245  1.00  0.00     0.009 A 
ATOM     14  C   UNL     1      45.697 131.081  16.112  1.00  0.00     0.015 A 
ATOM     15  C   UNL     1      43.984 131.500  13.942  1.00  0.00     0.001 A 
ATOM     16  C   UNL     1      46.179 130.936  14.802  1.00  0.00    -0.016 A 
ATOM     17  C   UNL     1      45.311 131.131  13.719  1.00  0.00     0.006 A 
BRANCH  16  18
ATOM     18  C   UNL     1      47.595 130.502  14.559  1.00  0.00     0.174 C 
ATOM     19  C   UNL     1      47.773 129.320  13.684  1.00  0.00     0.198 C 
ATOM     20  O   UNL     1      47.954 130.631  13.203  1.00  0.00    -0.368 OA
ENDBRANCH  16  18
ENDBRANCH   9  12
TORSDOF 2
ENDMDL


