REMARK SMILES CC(=O)c1ccc(/C(O)=N/[C@@H]2C=CCC2)c(F)c1OC(=O)C(C)(C)C
REMARK SMILES IDX 7 1 6 2 5 3 4 4 18 5 16 6 17 7 8 8 9 9 10 11 11 12 12 13
REMARK SMILES IDX 15 14 13 15 14 16 19 17 20 18 21 19 22 20 23 21 24 22 25 23
REMARK SMILES IDX 2 24 3 25 1 26
REMARK H PARENT 9 10
ROOT
ATOM      1  C   UNL     1       0.965   1.885   0.425  1.00  0.00     0.076 A 
ATOM      2  C   UNL     1       2.216   2.509   0.325  1.00  0.00     0.018 A 
ATOM      3  C   UNL     1       3.346   1.782  -0.049  1.00  0.00     0.017 A 
ATOM      4  C   UNL     1       3.262   0.404  -0.320  1.00  0.00     0.063 A 
ATOM      5  C   UNL     1       2.011  -0.242  -0.188  1.00  0.00     0.178 A 
ATOM      6  C   UNL     1       0.867   0.506   0.158  1.00  0.00     0.179 A 
ATOM      7  F   UNL     1      -0.350  -0.097   0.162  1.00  0.00    -0.202 F 
ENDROOT
BRANCH   1   8
ATOM      8  C   UNL     1      -0.228   2.674   0.814  1.00  0.00     0.217 C 
BRANCH   8   9
ATOM      9  O   UNL     1      -0.343   4.019   0.451  1.00  0.00    -0.493 OA
ATOM     10  H   UNL     1       0.330   4.473  -0.154  1.00  0.00     0.295 HD
ENDBRANCH   8   9
BRANCH   8  11
ATOM     11  N   UNL     1      -1.174   2.108   1.504  1.00  0.00    -0.244 NA
BRANCH  11  12
ATOM     12  C   UNL     1      -2.394   2.791   1.932  1.00  0.00     0.132 C 
ATOM     13  C   UNL     1      -3.152   1.915   2.863  1.00  0.00    -0.005 C 
ATOM     14  C   UNL     1      -3.360   3.018   0.755  1.00  0.00     0.036 C 
ATOM     15  C   UNL     1      -4.375   1.661   2.435  1.00  0.00    -0.029 C 
ATOM     16  C   UNL     1      -4.668   2.316   1.135  1.00  0.00     0.029 C 
ENDBRANCH  11  12
ENDBRANCH   8  11
ENDBRANCH   1   8
BRANCH   5  17
ATOM     17  O   UNL     1       1.914  -1.620  -0.434  1.00  0.00    -0.422 OA
BRANCH  17  18
ATOM     18  C   UNL     1       1.189  -2.520   0.359  1.00  0.00     0.316 C 
ATOM     19  O   UNL     1       0.792  -2.176   1.508  1.00  0.00    -0.251 OA
BRANCH  18  20
ATOM     20  C   UNL     1       0.941  -3.936  -0.123  1.00  0.00     0.060 C 
ATOM     21  C   UNL     1       1.696  -4.919   0.791  1.00  0.00     0.023 C 
ATOM     22  C   UNL     1       1.438  -4.113  -1.573  1.00  0.00     0.023 C 
ATOM     23  C   UNL     1      -0.569  -4.235  -0.071  1.00  0.00     0.023 C 
ENDBRANCH  18  20
ENDBRANCH  17  18
ENDBRANCH   5  17
BRANCH   4  24
ATOM     24  C   UNL     1       4.482  -0.353  -0.724  1.00  0.00     0.163 C 
ATOM     25  O   UNL     1       4.373  -1.457  -1.323  1.00  0.00    -0.294 OA
ATOM     26  C   UNL     1       5.861   0.183  -0.475  1.00  0.00     0.093 C 
ENDBRANCH   4  24
TORSDOF 8


