REMARK SMILES NNc1ccc2cc(-c3ncnc4c3COC4)[nH]c2c1F
REMARK SMILES IDX 2 1 1 3 3 6 4 7 20 8 5 9 19 10 6 11 18 12 7 13 8 14 21 15
REMARK SMILES IDX 9 17 10 18 14 19 11 20 13 21 15 22 12 23 17 24 16 25
REMARK H PARENT 2 2 1 4 1 5 18 16
ROOT
ATOM      1  N   UNL     1      -0.208  -4.561   1.464  1.00  0.00    -0.321 N 
ATOM      2  H   UNL     1       0.283  -5.363   1.923  1.00  0.00     0.181 HD
ENDROOT
BRANCH   1   3
ATOM      3  N   UNL     1      -1.597  -4.431   1.626  1.00  0.00    -0.250 NA
ATOM      4  H   UNL     1      -1.758  -3.608   2.250  1.00  0.00     0.143 HD
ATOM      5  H   UNL     1      -1.936  -5.270   2.151  1.00  0.00     0.143 HD
ENDBRANCH   1   3
BRANCH   1   6
ATOM      6  C   UNL     1       0.563  -3.627   0.687  1.00  0.00     0.087 A 
ATOM      7  C   UNL     1       1.977  -3.738   0.688  1.00  0.00     0.031 A 
ATOM      8  C   UNL     1      -0.055  -2.609  -0.086  1.00  0.00     0.171 A 
ATOM      9  C   UNL     1       2.773  -2.852  -0.058  1.00  0.00     0.013 A 
ATOM     10  C   UNL     1       0.767  -1.744  -0.810  1.00  0.00     0.084 A 
ATOM     11  C   UNL     1       2.129  -1.864  -0.796  1.00  0.00     0.003 A 
ATOM     12  N   UNL     1       0.384  -0.729  -1.604  1.00  0.00    -0.351 N 
ATOM     13  C   UNL     1       2.640  -0.885  -1.617  1.00  0.00     0.038 A 
ATOM     14  C   UNL     1       1.528  -0.192  -2.097  1.00  0.00     0.066 A 
ATOM     15  F   UNL     1      -1.402  -2.467  -0.148  1.00  0.00    -0.202 F 
ATOM     16  H   UNL     1      -0.600  -0.462  -1.816  1.00  0.00     0.167 HD
BRANCH  14  17
ATOM     17  C   UNL     1       1.609   0.940  -3.048  1.00  0.00     0.096 A 
ATOM     18  N   UNL     1       2.743   1.092  -3.794  1.00  0.00    -0.234 NA
ATOM     19  C   UNL     1       0.605   1.913  -3.194  1.00  0.00     0.030 A 
ATOM     20  C   UNL     1       2.904   2.143  -4.651  1.00  0.00     0.222 A 
ATOM     21  C   UNL     1       0.799   2.950  -4.030  1.00  0.00     0.076 A 
ATOM     22  C   UNL     1      -0.692   2.123  -2.514  1.00  0.00     0.200 C 
ATOM     23  N   UNL     1       1.931   3.089  -4.763  1.00  0.00    -0.239 NA
ATOM     24  C   UNL     1      -0.324   3.891  -3.939  1.00  0.00     0.217 C 
ATOM     25  O   UNL     1      -1.188   3.392  -2.927  1.00  0.00    -0.370 OA
ENDBRANCH  14  17
ENDBRANCH   1   6
TORSDOF 3


