REMARK SMILES Cc1ccnc(F)c1-c1cc2cc(F)ccc2[nH]1
REMARK SMILES IDX 9 1 10 2 11 3 12 4 13 5 14 6 15 7 16 8 17 9 18 10 8 12 2 13
REMARK SMILES IDX 3 14 4 15 6 16 5 17 1 18 7 19
REMARK H PARENT 18 11
ROOT
ATOM      1  C   UNL     1       0.464   0.683   0.354  1.00  0.00     0.051 A 
ATOM      2  C   UNL     1       0.159   1.498  -0.737  1.00  0.00     0.037 A 
ATOM      3  C   UNL     1       0.728   2.717  -0.440  1.00  0.00     0.003 A 
ATOM      4  C   UNL     1       0.750   3.908  -1.163  1.00  0.00     0.049 A 
ATOM      5  C   UNL     1       1.427   5.006  -0.600  1.00  0.00     0.123 A 
ATOM      6  F   UNL     1       1.472   6.184  -1.268  1.00  0.00    -0.207 F 
ATOM      7  C   UNL     1       2.060   4.886   0.658  1.00  0.00     0.041 A 
ATOM      8  C   UNL     1       2.023   3.668   1.362  1.00  0.00     0.030 A 
ATOM      9  C   UNL     1       1.344   2.599   0.778  1.00  0.00     0.046 A 
ATOM     10  N   UNL     1       1.195   1.360   1.273  1.00  0.00    -0.354 N 
ATOM     11  H   UNL     1       1.560   0.998   2.182  1.00  0.00     0.167 HD
ENDROOT
BRANCH   1  12
ATOM     12  C   UNL     1       0.098  -0.745   0.490  1.00  0.00     0.056 A 
ATOM     13  C   UNL     1      -1.227  -1.208   0.294  1.00  0.00    -0.036 A 
ATOM     14  C   UNL     1      -1.492  -2.582   0.399  1.00  0.00     0.024 A 
ATOM     15  C   UNL     1      -0.465  -3.464   0.728  1.00  0.00     0.114 A 
ATOM     16  C   UNL     1       1.094  -1.677   0.831  1.00  0.00     0.222 A 
ATOM     17  N   UNL     1       0.792  -2.998   0.937  1.00  0.00    -0.228 NA
ATOM     18  C   UNL     1      -2.365  -0.274  -0.029  1.00  0.00     0.045 C 
ATOM     19  F   UNL     1       2.377  -1.281   1.024  1.00  0.00    -0.184 F 
ENDBRANCH   1  12
TORSDOF 1


