REMARK SMILES c1c[nH+]cc(Cc2cc3ccccc3[nH]2)c1
REMARK SMILES IDX 6 1 5 2 1 3 2 4 16 5 3 6 4 7 7 9 8 10 15 11 9 12 14 13 10 14
REMARK SMILES IDX 13 15 11 16 12 17
REMARK H PARENT 3 8 15 18
ROOT
ATOM      1  C   UNL     1      -0.761  -2.752   0.122  1.00  0.00     0.095 C 
ENDROOT
BRANCH   1   2
ATOM      2  C   UNL     1      -1.974  -2.653   1.004  1.00  0.00     0.022 A 
ATOM      3  C   UNL     1      -4.378  -2.556   1.279  1.00  0.00     0.071 A 
ATOM      4  C   UNL     1      -4.196  -2.381   2.652  1.00  0.00     0.306 A 
ATOM      5  C   UNL     1      -3.262  -2.688   0.452  1.00  0.00     0.016 A 
ATOM      6  N   UNL     1      -2.941  -2.334   3.175  1.00  0.00    -0.218 N 
ATOM      7  C   UNL     1      -1.837  -2.460   2.388  1.00  0.00     0.310 A 
ATOM      8  H   UNL     1      -2.821  -2.196   4.203  1.00  0.00     0.453 HD
ENDBRANCH   1   2
BRANCH   1   9
ATOM      9  C   UNL     1      -0.352  -1.388  -0.340  1.00  0.00     0.020 A 
ATOM     10  C   UNL     1      -0.822  -0.758  -1.490  1.00  0.00     0.032 A 
ATOM     11  N   UNL     1       0.462  -0.569   0.368  1.00  0.00    -0.358 N 
ATOM     12  C   UNL     1      -0.244   0.493  -1.468  1.00  0.00    -0.000 A 
ATOM     13  C   UNL     1       0.524   0.574  -0.335  1.00  0.00     0.046 A 
ATOM     14  C   UNL     1      -0.355   1.558  -2.359  1.00  0.00     0.010 A 
ATOM     15  C   UNL     1       1.235   1.729  -0.013  1.00  0.00     0.026 A 
ATOM     16  C   UNL     1       0.354   2.737  -2.063  1.00  0.00     0.001 A 
ATOM     17  C   UNL     1       1.146   2.822  -0.895  1.00  0.00     0.002 A 
ATOM     18  H   UNL     1       0.932  -0.777   1.278  1.00  0.00     0.166 HD
ENDBRANCH   1   9
TORSDOF 2


