MODEL 1
REMARK VINA RESULT:      -9.6      0.000      0.000
REMARK SMILES CC(=O)c1ccc(-c2nccc(C)c2F)c2cn[nH]c12
REMARK SMILES IDX 4 1 5 2 6 3 7 4 16 5 17 6 18 7 19 8 20 9 2 11 1 12 3 13 8 14
REMARK SMILES IDX 9 15 14 16 10 17 12 18 11 19 15 20 13 21
REMARK H PARENT 19 10
ROOT
ATOM      1  C   UNL     1      44.402 131.179  21.207  1.00  0.00     0.043 A 
ATOM      2  C   UNL     1      45.585 130.654  20.634  1.00  0.00     0.015 A 
ATOM      3  C   UNL     1      45.766 130.617  19.235  1.00  0.00     0.012 A 
ATOM      4  C   UNL     1      44.772 131.111  18.363  1.00  0.00     0.014 A 
ATOM      5  C   UNL     1      43.609 131.622  18.954  1.00  0.00     0.030 A 
ATOM      6  C   UNL     1      42.484 132.216  18.417  1.00  0.00     0.144 A 
ATOM      7  N   UNL     1      41.675 132.594  19.433  1.00  0.00    -0.183 NA
ATOM      8  N   UNL     1      42.252 132.256  20.579  1.00  0.00    -0.277 N 
ATOM      9  C   UNL     1      43.430 131.661  20.312  1.00  0.00     0.076 A 
ATOM     10  H   UNL     1      41.840 132.465  21.514  1.00  0.00     0.190 HD
ENDROOT
BRANCH   1  11
ATOM     11  C   UNL     1      44.211 131.190  22.679  1.00  0.00     0.161 C 
ATOM     12  C   UNL     1      43.514 130.067  23.384  1.00  0.00     0.093 C 
ATOM     13  O   UNL     1      44.588 132.183  23.358  1.00  0.00    -0.294 OA
ENDBRANCH   1  11
BRANCH   4  14
ATOM     14  C   UNL     1      44.941 131.058  16.893  1.00  0.00     0.107 A 
ATOM     15  N   UNL     1      44.025 131.675  16.097  1.00  0.00    -0.253 NA
ATOM     16  C   UNL     1      46.026 130.385  16.301  1.00  0.00     0.152 A 
ATOM     17  C   UNL     1      44.117 131.663  14.742  1.00  0.00     0.112 A 
ATOM     18  C   UNL     1      46.136 130.345  14.901  1.00  0.00    -0.012 A 
ATOM     19  C   UNL     1      45.175 130.999  14.119  1.00  0.00     0.026 A 
ATOM     20  F   UNL     1      46.988 129.811  17.072  1.00  0.00    -0.204 F 
ATOM     21  C   UNL     1      47.304 129.661  14.252  1.00  0.00     0.047 C 
ENDBRANCH   4  14
TORSDOF 2
ENDMDL
MODEL 2
REMARK VINA RESULT:      -8.9      2.561      6.137
REMARK SMILES CC(=O)c1ccc(-c2nccc(C)c2F)c2cn[nH]c12
REMARK SMILES IDX 4 1 5 2 6 3 7 4 16 5 17 6 18 7 19 8 20 9 2 11 1 12 3 13 8 14
REMARK SMILES IDX 9 15 14 16 10 17 12 18 11 19 15 20 13 21
REMARK H PARENT 19 10
ROOT
ATOM      1  C   UNL     1      44.739 131.335  17.545  1.00  0.00     0.043 A 
ATOM      2  C   UNL     1      45.768 130.701  18.281  1.00  0.00     0.015 A 
ATOM      3  C   UNL     1      45.667 130.527  19.678  1.00  0.00     0.012 A 
ATOM      4  C   UNL     1      44.530 130.976  20.383  1.00  0.00     0.014 A 
ATOM      5  C   UNL     1      43.527 131.603  19.634  1.00  0.00     0.030 A 
ATOM      6  C   UNL     1      42.290 132.106  19.983  1.00  0.00     0.144 A 
ATOM      7  N   UNL     1      41.678 132.552  18.862  1.00  0.00    -0.183 NA
ATOM      8  N   UNL     1      42.487 132.348  17.831  1.00  0.00    -0.277 N 
ATOM      9  C   UNL     1      43.620 131.772  18.277  1.00  0.00     0.076 A 
ATOM     10  H   UNL     1      42.234 132.581  16.847  1.00  0.00     0.190 HD
ENDROOT
BRANCH   1  11
ATOM     11  C   UNL     1      44.865 131.536  16.079  1.00  0.00     0.161 C 
ATOM     12  C   UNL     1      46.150 132.000  15.464  1.00  0.00     0.093 C 
ATOM     13  O   UNL     1      43.866 131.369  15.330  1.00  0.00    -0.294 OA
ENDBRANCH   1  11
BRANCH   4  14
ATOM     14  C   UNL     1      44.423 130.818  21.852  1.00  0.00     0.107 A 
ATOM     15  N   UNL     1      44.106 131.902  22.613  1.00  0.00    -0.253 NA
ATOM     16  C   UNL     1      44.639 129.576  22.476  1.00  0.00     0.152 A 
ATOM     17  C   UNL     1      43.995 131.829  23.965  1.00  0.00     0.112 A 
ATOM     18  C   UNL     1      44.545 129.478  23.875  1.00  0.00    -0.012 A 
ATOM     19  C   UNL     1      44.211 130.616  24.621  1.00  0.00     0.026 A 
ATOM     20  F   UNL     1      44.898 128.465  21.736  1.00  0.00    -0.204 F 
ATOM     21  C   UNL     1      44.740 128.155  24.556  1.00  0.00     0.047 C 
ENDBRANCH   4  14
TORSDOF 2
ENDMDL
MODEL 3
REMARK VINA RESULT:      -8.7      2.735      6.166
REMARK SMILES CC(=O)c1ccc(-c2nccc(C)c2F)c2cn[nH]c12
REMARK SMILES IDX 4 1 5 2 6 3 7 4 16 5 17 6 18 7 19 8 20 9 2 11 1 12 3 13 8 14
REMARK SMILES IDX 9 15 14 16 10 17 12 18 11 19 15 20 13 21
REMARK H PARENT 19 10
ROOT
ATOM      1  C   UNL     1      46.465 130.350  15.200  1.00  0.00     0.043 A 
ATOM      2  C   UNL     1      46.905 130.089  16.520  1.00  0.00     0.015 A 
ATOM      3  C   UNL     1      46.117 130.441  17.636  1.00  0.00     0.012 A 
ATOM      4  C   UNL     1      44.860 131.058  17.469  1.00  0.00     0.014 A 
ATOM      5  C   UNL     1      44.447 131.308  16.155  1.00  0.00     0.030 A 
ATOM      6  C   UNL     1      43.282 131.838  15.636  1.00  0.00     0.144 A 
ATOM      7  N   UNL     1      43.361 131.804  14.287  1.00  0.00    -0.183 NA
ATOM      8  N   UNL     1      44.529 131.275  13.946  1.00  0.00    -0.277 N 
ATOM      9  C   UNL     1      45.208 130.967  15.067  1.00  0.00     0.076 A 
ATOM     10  H   UNL     1      44.820 131.112  12.958  1.00  0.00     0.190 HD
ENDROOT
BRANCH   1  11
ATOM     11  C   UNL     1      47.312 129.998  14.033  1.00  0.00     0.161 C 
ATOM     12  C   UNL     1      47.569 130.982  12.932  1.00  0.00     0.093 C 
ATOM     13  O   UNL     1      47.787 128.836  13.923  1.00  0.00    -0.294 OA
ENDBRANCH   1  11
BRANCH   4  14
ATOM     14  C   UNL     1      44.034 131.451  18.634  1.00  0.00     0.107 A 
ATOM     15  N   UNL     1      42.816 132.023  18.421  1.00  0.00    -0.253 NA
ATOM     16  C   UNL     1      44.477 131.246  19.953  1.00  0.00     0.152 A 
ATOM     17  C   UNL     1      42.010 132.411  19.443  1.00  0.00     0.112 A 
ATOM     18  C   UNL     1      43.667 131.652  21.028  1.00  0.00    -0.012 A 
ATOM     19  C   UNL     1      42.419 132.231  20.764  1.00  0.00     0.026 A 
ATOM     20  F   UNL     1      45.661 130.623  20.197  1.00  0.00    -0.204 F 
ATOM     21  C   UNL     1      44.108 131.412  22.442  1.00  0.00     0.047 C 
ENDBRANCH   4  14
TORSDOF 2
ENDMDL
MODEL 4
REMARK VINA RESULT:      -8.5      1.456      1.665
REMARK SMILES CC(=O)c1ccc(-c2nccc(C)c2F)c2cn[nH]c12
REMARK SMILES IDX 4 1 5 2 6 3 7 4 16 5 17 6 18 7 19 8 20 9 2 11 1 12 3 13 8 14
REMARK SMILES IDX 9 15 14 16 10 17 12 18 11 19 15 20 13 21
REMARK H PARENT 19 10
ROOT
ATOM      1  C   UNL     1      44.017 131.538  21.015  1.00  0.00     0.043 A 
ATOM      2  C   UNL     1      45.278 130.917  20.843  1.00  0.00     0.015 A 
ATOM      3  C   UNL     1      45.755 130.576  19.560  1.00  0.00     0.012 A 
ATOM      4  C   UNL     1      44.991 130.850  18.406  1.00  0.00     0.014 A 
ATOM      5  C   UNL     1      43.747 131.461  18.601  1.00  0.00     0.030 A 
ATOM      6  C   UNL     1      42.785 131.906  17.716  1.00  0.00     0.144 A 
ATOM      7  N   UNL     1      41.789 132.486  18.422  1.00  0.00    -0.183 NA
ATOM      8  N   UNL     1      42.092 132.418  19.712  1.00  0.00    -0.277 N 
ATOM      9  C   UNL     1      43.279 131.796  19.846  1.00  0.00     0.076 A 
ATOM     10  H   UNL     1      41.495 132.821  20.465  1.00  0.00     0.190 HD
ENDROOT
BRANCH   1  11
ATOM     11  C   UNL     1      43.513 131.871  22.371  1.00  0.00     0.161 C 
ATOM     12  C   UNL     1      44.358 131.662  23.590  1.00  0.00     0.093 C 
ATOM     13  O   UNL     1      42.333 132.286  22.522  1.00  0.00    -0.294 OA
ENDBRANCH   1  11
BRANCH   4  14
ATOM     14  C   UNL     1      45.473 130.476  17.056  1.00  0.00     0.107 A 
ATOM     15  N   UNL     1      45.395 129.176  16.661  1.00  0.00    -0.253 NA
ATOM     16  C   UNL     1      46.006 131.434  16.174  1.00  0.00     0.152 A 
ATOM     17  C   UNL     1      45.822 128.764  15.439  1.00  0.00     0.112 A 
ATOM     18  C   UNL     1      46.468 131.030  14.910  1.00  0.00    -0.012 A 
ATOM     19  C   UNL     1      46.364 129.683  14.540  1.00  0.00     0.026 A 
ATOM     20  F   UNL     1      46.041 132.749  16.518  1.00  0.00    -0.204 F 
ATOM     21  C   UNL     1      47.010 132.042  13.943  1.00  0.00     0.047 C 
ENDBRANCH   4  14
TORSDOF 2
ENDMDL
MODEL 5
REMARK VINA RESULT:      -8.4      2.113      2.895
REMARK SMILES CC(=O)c1ccc(-c2nccc(C)c2F)c2cn[nH]c12
REMARK SMILES IDX 4 1 5 2 6 3 7 4 16 5 17 6 18 7 19 8 20 9 2 11 1 12 3 13 8 14
REMARK SMILES IDX 9 15 14 16 10 17 12 18 11 19 15 20 13 21
REMARK H PARENT 19 10
ROOT
ATOM      1  C   UNL     1      42.978 132.083  19.750  1.00  0.00     0.043 A 
ATOM      2  C   UNL     1      42.449 132.079  18.438  1.00  0.00     0.015 A 
ATOM      3  C   UNL     1      43.200 131.586  17.349  1.00  0.00     0.012 A 
ATOM      4  C   UNL     1      44.501 131.075  17.538  1.00  0.00     0.014 A 
ATOM      5  C   UNL     1      45.004 131.093  18.845  1.00  0.00     0.030 A 
ATOM      6  C   UNL     1      46.190 130.638  19.386  1.00  0.00     0.144 A 
ATOM      7  N   UNL     1      46.155 130.839  20.723  1.00  0.00    -0.183 NA
ATOM      8  N   UNL     1      44.996 131.404  21.034  1.00  0.00    -0.277 N 
ATOM      9  C   UNL     1      44.278 131.569  19.906  1.00  0.00     0.076 A 
ATOM     10  H   UNL     1      44.712 131.635  22.010  1.00  0.00     0.190 HD
ENDROOT
BRANCH   1  11
ATOM     11  C   UNL     1      42.191 132.626  20.886  1.00  0.00     0.161 C 
ATOM     12  C   UNL     1      42.385 132.120  22.282  1.00  0.00     0.093 C 
ATOM     13  O   UNL     1      41.298 133.491  20.679  1.00  0.00    -0.294 OA
ENDBRANCH   1  11
BRANCH   4  14
ATOM     14  C   UNL     1      45.306 130.576  16.400  1.00  0.00     0.107 A 
ATOM     15  N   UNL     1      45.318 129.241  16.131  1.00  0.00    -0.253 NA
ATOM     16  C   UNL     1      46.056 131.449  15.590  1.00  0.00     0.152 A 
ATOM     17  C   UNL     1      46.037 128.716  15.106  1.00  0.00     0.112 A 
ATOM     18  C   UNL     1      46.819 130.928  14.532  1.00  0.00    -0.012 A 
ATOM     19  C   UNL     1      46.799 129.549  14.286  1.00  0.00     0.026 A 
ATOM     20  F   UNL     1      46.015 132.792  15.797  1.00  0.00    -0.204 F 
ATOM     21  C   UNL     1      47.600 131.846  13.637  1.00  0.00     0.047 C 
ENDBRANCH   4  14
TORSDOF 2
ENDMDL
MODEL 6
REMARK VINA RESULT:      -7.6      1.335      1.859
REMARK SMILES CC(=O)c1ccc(-c2nccc(C)c2F)c2cn[nH]c12
REMARK SMILES IDX 4 1 5 2 6 3 7 4 16 5 17 6 18 7 19 8 20 9 2 11 1 12 3 13 8 14
REMARK SMILES IDX 9 15 14 16 10 17 12 18 11 19 15 20 13 21
REMARK H PARENT 19 10
ROOT
ATOM      1  C   UNL     1      44.249 131.181  21.590  1.00  0.00     0.043 A 
ATOM      2  C   UNL     1      45.447 130.629  21.079  1.00  0.00     0.015 A 
ATOM      3  C   UNL     1      45.701 130.593  19.691  1.00  0.00     0.012 A 
ATOM      4  C   UNL     1      44.769 131.115  18.770  1.00  0.00     0.014 A 
ATOM      5  C   UNL     1      43.589 131.653  19.300  1.00  0.00     0.030 A 
ATOM      6  C   UNL     1      42.510 132.277  18.707  1.00  0.00     0.144 A 
ATOM      7  N   UNL     1      41.657 132.671  19.680  1.00  0.00    -0.183 NA
ATOM      8  N   UNL     1      42.163 132.314  20.853  1.00  0.00    -0.277 N 
ATOM      9  C   UNL     1      43.338 131.691  20.647  1.00  0.00     0.076 A 
ATOM     10  H   UNL     1      41.706 132.530  21.766  1.00  0.00     0.190 HD
ENDROOT
BRANCH   1  11
ATOM     11  C   UNL     1      43.979 131.192  23.050  1.00  0.00     0.161 C 
ATOM     12  C   UNL     1      43.664 129.930  23.794  1.00  0.00     0.093 C 
ATOM     13  O   UNL     1      43.957 132.283  23.681  1.00  0.00    -0.294 OA
ENDBRANCH   1  11
BRANCH   4  14
ATOM     14  C   UNL     1      45.015 131.063  17.311  1.00  0.00     0.107 A 
ATOM     15  N   UNL     1      46.216 130.609  16.857  1.00  0.00    -0.253 NA
ATOM     16  C   UNL     1      44.037 131.469  16.385  1.00  0.00     0.152 A 
ATOM     17  C   UNL     1      46.510 130.539  15.532  1.00  0.00     0.112 A 
ATOM     18  C   UNL     1      44.322 131.419  15.010  1.00  0.00    -0.012 A 
ATOM     19  C   UNL     1      45.568 130.941  14.584  1.00  0.00     0.026 A 
ATOM     20  F   UNL     1      42.808 131.869  16.806  1.00  0.00    -0.204 F 
ATOM     21  C   UNL     1      43.280 131.817  14.005  1.00  0.00     0.047 C 
ENDBRANCH   4  14
TORSDOF 2
ENDMDL
MODEL 7
REMARK VINA RESULT:      -7.6      3.145      6.472
REMARK SMILES CC(=O)c1ccc(-c2nccc(C)c2F)c2cn[nH]c12
REMARK SMILES IDX 4 1 5 2 6 3 7 4 16 5 17 6 18 7 19 8 20 9 2 11 1 12 3 13 8 14
REMARK SMILES IDX 9 15 14 16 10 17 12 18 11 19 15 20 13 21
REMARK H PARENT 19 10
ROOT
ATOM      1  C   UNL     1      46.762 130.904  14.439  1.00  0.00     0.043 A 
ATOM      2  C   UNL     1      46.635 132.201  14.991  1.00  0.00     0.015 A 
ATOM      3  C   UNL     1      45.792 132.446  16.096  1.00  0.00     0.012 A 
ATOM      4  C   UNL     1      45.055 131.400  16.690  1.00  0.00     0.014 A 
ATOM      5  C   UNL     1      45.195 130.126  16.125  1.00  0.00     0.030 A 
ATOM      6  C   UNL     1      44.672 128.897  16.475  1.00  0.00     0.144 A 
ATOM      7  N   UNL     1      45.175 127.965  15.634  1.00  0.00    -0.183 NA
ATOM      8  N   UNL     1      45.986 128.566  14.774  1.00  0.00    -0.277 N 
ATOM      9  C   UNL     1      46.013 129.883  15.052  1.00  0.00     0.076 A 
ATOM     10  H   UNL     1      46.522 128.058  14.037  1.00  0.00     0.190 HD
ENDROOT
BRANCH   1  11
ATOM     11  C   UNL     1      47.633 130.661  13.261  1.00  0.00     0.161 C 
ATOM     12  C   UNL     1      48.674 129.583  13.271  1.00  0.00     0.093 C 
ATOM     13  O   UNL     1      47.544 131.401  12.246  1.00  0.00    -0.294 OA
ENDBRANCH   1  11
BRANCH   4  14
ATOM     14  C   UNL     1      44.150 131.649  17.836  1.00  0.00     0.107 A 
ATOM     15  N   UNL     1      42.863 132.023  17.596  1.00  0.00    -0.253 NA
ATOM     16  C   UNL     1      44.591 131.508  19.165  1.00  0.00     0.152 A 
ATOM     17  C   UNL     1      41.982 132.271  18.600  1.00  0.00     0.112 A 
ATOM     18  C   UNL     1      43.702 131.773  20.221  1.00  0.00    -0.012 A 
ATOM     19  C   UNL     1      42.384 132.149  19.930  1.00  0.00     0.026 A 
ATOM     20  F   UNL     1      45.852 131.078  19.434  1.00  0.00    -0.204 F 
ATOM     21  C   UNL     1      44.143 131.596  21.644  1.00  0.00     0.047 C 
ENDBRANCH   4  14
TORSDOF 2
ENDMDL
MODEL 8
REMARK VINA RESULT:      -7.4      2.719      6.353
REMARK SMILES CC(=O)c1ccc(-c2nccc(C)c2F)c2cn[nH]c12
REMARK SMILES IDX 4 1 5 2 6 3 7 4 16 5 17 6 18 7 19 8 20 9 2 11 1 12 3 13 8 14
REMARK SMILES IDX 9 15 14 16 10 17 12 18 11 19 15 20 13 21
REMARK H PARENT 19 10
ROOT
ATOM      1  C   UNL     1      45.046 130.934  17.627  1.00  0.00     0.043 A 
ATOM      2  C   UNL     1      45.966 130.445  18.585  1.00  0.00     0.015 A 
ATOM      3  C   UNL     1      45.713 130.563  19.968  1.00  0.00     0.012 A 
ATOM      4  C   UNL     1      44.527 131.167  20.438  1.00  0.00     0.014 A 
ATOM      5  C   UNL     1      43.634 131.645  19.471  1.00  0.00     0.030 A 
ATOM      6  C   UNL     1      42.388 132.232  19.573  1.00  0.00     0.144 A 
ATOM      7  N   UNL     1      41.916 132.450  18.324  1.00  0.00    -0.183 NA
ATOM      8  N   UNL     1      42.820 132.025  17.452  1.00  0.00    -0.277 N 
ATOM      9  C   UNL     1      43.876 131.532  18.127  1.00  0.00     0.076 A 
ATOM     10  H   UNL     1      42.681 132.056  16.418  1.00  0.00     0.190 HD
ENDROOT
BRANCH   1  11
ATOM     11  C   UNL     1      45.334 130.828  16.174  1.00  0.00     0.161 C 
ATOM     12  C   UNL     1      45.972 131.955  15.421  1.00  0.00     0.093 C 
ATOM     13  O   UNL     1      44.990 129.797  15.535  1.00  0.00    -0.294 OA
ENDBRANCH   1  11
BRANCH   4  14
ATOM     14  C   UNL     1      44.261 131.316  21.887  1.00  0.00     0.107 A 
ATOM     15  N   UNL     1      44.979 132.224  22.604  1.00  0.00    -0.253 NA
ATOM     16  C   UNL     1      43.282 130.542  22.538  1.00  0.00     0.152 A 
ATOM     17  C   UNL     1      44.788 132.409  23.936  1.00  0.00     0.112 A 
ATOM     18  C   UNL     1      43.077 130.704  23.919  1.00  0.00    -0.012 A 
ATOM     19  C   UNL     1      43.833 131.654  24.618  1.00  0.00     0.026 A 
ATOM     20  F   UNL     1      42.509 129.671  21.837  1.00  0.00    -0.204 F 
ATOM     21  C   UNL     1      42.015 129.912  24.625  1.00  0.00     0.047 C 
ENDBRANCH   4  14
TORSDOF 2
ENDMDL
MODEL 9
REMARK VINA RESULT:      -7.2      2.777      6.263
REMARK SMILES CC(=O)c1ccc(-c2nccc(C)c2F)c2cn[nH]c12
REMARK SMILES IDX 4 1 5 2 6 3 7 4 16 5 17 6 18 7 19 8 20 9 2 11 1 12 3 13 8 14
REMARK SMILES IDX 9 15 14 16 10 17 12 18 11 19 15 20 13 21
REMARK H PARENT 19 10
ROOT
ATOM      1  C   UNL     1      44.971 131.230  17.184  1.00  0.00     0.043 A 
ATOM      2  C   UNL     1      45.997 130.598  17.926  1.00  0.00     0.015 A 
ATOM      3  C   UNL     1      45.855 130.355  19.309  1.00  0.00     0.012 A 
ATOM      4  C   UNL     1      44.679 130.729  19.993  1.00  0.00     0.014 A 
ATOM      5  C   UNL     1      43.679 131.355  19.237  1.00  0.00     0.030 A 
ATOM      6  C   UNL     1      42.413 131.797  19.565  1.00  0.00     0.144 A 
ATOM      7  N   UNL     1      41.823 132.273  18.445  1.00  0.00    -0.183 NA
ATOM      8  N   UNL     1      42.674 132.147  17.435  1.00  0.00    -0.277 N 
ATOM      9  C   UNL     1      43.812 131.592  17.894  1.00  0.00     0.076 A 
ATOM     10  H   UNL     1      42.447 132.417  16.454  1.00  0.00     0.190 HD
ENDROOT
BRANCH   1  11
ATOM     11  C   UNL     1      45.140 131.503  15.734  1.00  0.00     0.161 C 
ATOM     12  C   UNL     1      46.498 131.557  15.104  1.00  0.00     0.093 C 
ATOM     13  O   UNL     1      44.135 131.752  15.016  1.00  0.00    -0.294 OA
ENDBRANCH   1  11
BRANCH   4  14
ATOM     14  C   UNL     1      44.527 130.499  21.448  1.00  0.00     0.107 A 
ATOM     15  N   UNL     1      44.830 129.274  21.961  1.00  0.00    -0.253 NA
ATOM     16  C   UNL     1      44.080 131.516  22.311  1.00  0.00     0.152 A 
ATOM     17  C   UNL     1      44.710 128.994  23.284  1.00  0.00     0.112 A 
ATOM     18  C   UNL     1      43.934 131.246  23.682  1.00  0.00    -0.012 A 
ATOM     19  C   UNL     1      44.262 129.974  24.170  1.00  0.00     0.026 A 
ATOM     20  F   UNL     1      43.828 132.765  21.837  1.00  0.00    -0.204 F 
ATOM     21  C   UNL     1      43.489 132.327  24.624  1.00  0.00     0.047 C 
ENDBRANCH   4  14
TORSDOF 2
ENDMDL


