MODEL 1
REMARK VINA RESULT:      -6.1      0.000      0.000
REMARK SMILES C[C@H]1CC[C@H](C(=O)N(c2cn3ccccc3n2)c2cc3cccc(F)c3[nH]2)S1
REMARK SMILES IDX 6 1 7 2 5 3 2 4 3 5 28 6 4 7 1 8 8 9 9 10 10 11 17 12 11 13
REMARK SMILES IDX 16 14 12 15 15 16 13 17 14 18 18 19 19 20 27 21 20 22 26 23
REMARK SMILES IDX 21 24 24 25 22 26 23 27 25 29
REMARK H PARENT 27 28
ROOT
ATOM      1  C   UNL     1      44.351 124.908  23.631  1.00  0.00     0.247 C 
ATOM      2  O   UNL     1      44.679 124.199  24.622  1.00  0.00    -0.273 OA
ENDROOT
BRANCH   1   3
ATOM      3  C   UNL     1      43.000 124.704  22.994  1.00  0.00     0.137 C 
ATOM      4  C   UNL     1      41.145 122.835  23.007  1.00  0.00     0.044 C 
ATOM      5  C   UNL     1      41.666 123.199  21.619  1.00  0.00     0.016 C 
ATOM      6  S   UNL     1      41.816 124.035  24.206  1.00  0.00    -0.145 SA
ATOM      7  C   UNL     1      43.067 123.745  21.810  1.00  0.00     0.025 C 
ATOM      8  C   UNL     1      39.619 122.822  23.059  1.00  0.00     0.019 C 
ENDBRANCH   1   3
BRANCH   1   9
ATOM      9  N   UNL     1      45.276 125.886  23.120  1.00  0.00    -0.247 N 
BRANCH   9  10
ATOM     10  C   UNL     1      46.597 125.485  22.712  1.00  0.00     0.160 A 
ATOM     11  C   UNL     1      46.893 124.499  21.781  1.00  0.00     0.140 A 
ATOM     12  N   UNL     1      47.733 126.065  23.177  1.00  0.00    -0.211 NA
ATOM     13  N   UNL     1      48.228 124.465  21.675  1.00  0.00    -0.305 N 
ATOM     14  C   UNL     1      48.702 125.404  22.513  1.00  0.00     0.139 A 
ATOM     15  C   UNL     1      49.020 123.683  20.898  1.00  0.00     0.093 A 
ATOM     16  C   UNL     1      50.072 125.628  22.632  1.00  0.00     0.048 A 
ATOM     17  C   UNL     1      50.409 123.863  20.979  1.00  0.00     0.018 A 
ATOM     18  C   UNL     1      50.932 124.840  21.849  1.00  0.00     0.005 A 
ENDBRANCH   9  10
BRANCH   9  19
ATOM     19  C   UNL     1      44.841 127.250  22.966  1.00  0.00     0.119 A 
ATOM     20  C   UNL     1      43.860 127.875  23.738  1.00  0.00     0.056 A 
ATOM     21  N   UNL     1      45.365 128.104  22.054  1.00  0.00    -0.338 N 
ATOM     22  C   UNL     1      43.799 129.162  23.250  1.00  0.00     0.005 A 
ATOM     23  C   UNL     1      44.717 129.267  22.236  1.00  0.00     0.083 A 
ATOM     24  C   UNL     1      43.003 130.239  23.636  1.00  0.00     0.010 A 
ATOM     25  C   UNL     1      44.898 130.459  21.536  1.00  0.00     0.147 A 
ATOM     26  C   UNL     1      43.164 131.454  22.947  1.00  0.00     0.004 A 
ATOM     27  C   UNL     1      44.108 131.565  21.901  1.00  0.00     0.041 A 
ATOM     28  H   UNL     1      46.108 127.901  21.346  1.00  0.00     0.168 HD
ATOM     29  F   UNL     1      45.808 130.554  20.535  1.00  0.00    -0.205 F 
ENDBRANCH   9  19
ENDBRANCH   1   9
TORSDOF 4
ENDMDL
MODEL 2
REMARK VINA RESULT:      -3.7      2.024      5.856
REMARK SMILES C[C@H]1CC[C@H](C(=O)N(c2cn3ccccc3n2)c2cc3cccc(F)c3[nH]2)S1
REMARK SMILES IDX 6 1 7 2 5 3 2 4 3 5 28 6 4 7 1 8 8 9 9 10 10 11 17 12 11 13
REMARK SMILES IDX 16 14 12 15 15 16 13 17 14 18 18 19 19 20 27 21 20 22 26 23
REMARK SMILES IDX 21 24 24 25 22 26 23 27 25 29
REMARK H PARENT 27 28
ROOT
ATOM      1  C   UNL     1      43.028 126.334  23.474  1.00  0.00     0.247 C 
ATOM      2  O   UNL     1      42.596 126.745  24.587  1.00  0.00    -0.273 OA
ENDROOT
BRANCH   1   3
ATOM      3  C   UNL     1      42.265 125.263  22.737  1.00  0.00     0.137 C 
ATOM      4  C   UNL     1      40.872 123.124  23.382  1.00  0.00     0.044 C 
ATOM      5  C   UNL     1      42.030 122.858  22.425  1.00  0.00     0.016 C 
ATOM      6  S   UNL     1      40.675 124.928  23.561  1.00  0.00    -0.145 SA
ATOM      7  C   UNL     1      43.048 123.956  22.659  1.00  0.00     0.025 C 
ATOM      8  C   UNL     1      39.571 122.489  22.894  1.00  0.00     0.019 C 
ENDBRANCH   1   3
BRANCH   1   9
ATOM      9  N   UNL     1      44.247 126.884  22.939  1.00  0.00    -0.247 N 
BRANCH   9  10
ATOM     10  C   UNL     1      44.259 128.218  22.399  1.00  0.00     0.160 A 
ATOM     11  C   UNL     1      43.335 129.215  22.680  1.00  0.00     0.140 A 
ATOM     12  N   UNL     1      45.222 128.678  21.559  1.00  0.00    -0.211 NA
ATOM     13  N   UNL     1      43.727 130.300  22.000  1.00  0.00    -0.305 N 
ATOM     14  C   UNL     1      44.849 129.954  21.344  1.00  0.00     0.139 A 
ATOM     15  C   UNL     1      43.172 131.537  21.938  1.00  0.00     0.093 A 
ATOM     16  C   UNL     1      45.518 130.875  20.540  1.00  0.00     0.048 A 
ATOM     17  C   UNL     1      43.802 132.505  21.143  1.00  0.00     0.018 A 
ATOM     18  C   UNL     1      44.979 132.169  20.443  1.00  0.00     0.005 A 
ENDBRANCH   9  10
BRANCH   9  19
ATOM     19  C   UNL     1      45.458 126.107  23.010  1.00  0.00     0.119 A 
ATOM     20  C   UNL     1      46.238 125.934  24.154  1.00  0.00     0.056 A 
ATOM     21  N   UNL     1      45.968 125.422  21.959  1.00  0.00    -0.338 N 
ATOM     22  C   UNL     1      47.266 125.109  23.753  1.00  0.00     0.005 A 
ATOM     23  C   UNL     1      47.075 124.820  22.426  1.00  0.00     0.083 A 
ATOM     24  C   UNL     1      48.345 124.596  24.470  1.00  0.00     0.010 A 
ATOM     25  C   UNL     1      47.955 123.997  21.724  1.00  0.00     0.147 A 
ATOM     26  C   UNL     1      49.250 123.763  23.788  1.00  0.00     0.004 A 
ATOM     27  C   UNL     1      49.057 123.464  22.419  1.00  0.00     0.041 A 
ATOM     28  H   UNL     1      45.592 125.379  20.984  1.00  0.00     0.168 HD
ATOM     29  F   UNL     1      47.759 123.716  20.412  1.00  0.00    -0.205 F 
ENDBRANCH   9  19
ENDBRANCH   1   9
TORSDOF 4
ENDMDL
MODEL 3
REMARK VINA RESULT:      -3.5      2.098      6.088
REMARK SMILES C[C@H]1CC[C@H](C(=O)N(c2cn3ccccc3n2)c2cc3cccc(F)c3[nH]2)S1
REMARK SMILES IDX 6 1 7 2 5 3 2 4 3 5 28 6 4 7 1 8 8 9 9 10 10 11 17 12 11 13
REMARK SMILES IDX 16 14 12 15 15 16 13 17 14 18 18 19 19 20 27 21 20 22 26 23
REMARK SMILES IDX 21 24 24 25 22 26 23 27 25 29
REMARK H PARENT 27 28
ROOT
ATOM      1  C   UNL     1      46.136 123.902  23.615  1.00  0.00     0.247 C 
ATOM      2  O   UNL     1      46.796 123.507  24.616  1.00  0.00    -0.273 OA
ENDROOT
BRANCH   1   3
ATOM      3  C   UNL     1      44.843 123.210  23.265  1.00  0.00     0.137 C 
ATOM      4  C   UNL     1      42.273 123.702  23.561  1.00  0.00     0.044 C 
ATOM      5  C   UNL     1      42.737 122.377  24.162  1.00  0.00     0.016 C 
ATOM      6  S   UNL     1      43.644 124.401  22.584  1.00  0.00    -0.145 SA
ATOM      7  C   UNL     1      44.210 122.535  24.477  1.00  0.00     0.025 C 
ATOM      8  C   UNL     1      41.029 123.530  22.693  1.00  0.00     0.019 C 
ENDBRANCH   1   3
BRANCH   1   9
ATOM      9  N   UNL     1      46.637 124.993  22.820  1.00  0.00    -0.247 N 
BRANCH   9  10
ATOM     10  C   UNL     1      46.018 126.290  22.903  1.00  0.00     0.160 A 
ATOM     11  C   UNL     1      45.829 127.166  21.843  1.00  0.00     0.140 A 
ATOM     12  N   UNL     1      45.503 126.803  24.049  1.00  0.00    -0.211 NA
ATOM     13  N   UNL     1      45.195 128.235  22.342  1.00  0.00    -0.305 N 
ATOM     14  C   UNL     1      45.014 127.994  23.653  1.00  0.00     0.139 A 
ATOM     15  C   UNL     1      44.777 129.368  21.722  1.00  0.00     0.093 A 
ATOM     16  C   UNL     1      44.370 128.923  24.466  1.00  0.00     0.048 A 
ATOM     17  C   UNL     1      44.123 130.340  22.493  1.00  0.00     0.018 A 
ATOM     18  C   UNL     1      43.920 130.113  23.869  1.00  0.00     0.005 A 
ENDBRANCH   9  10
BRANCH   9  19
ATOM     19  C   UNL     1      47.798 124.784  21.994  1.00  0.00     0.119 A 
ATOM     20  C   UNL     1      47.812 124.083  20.786  1.00  0.00     0.056 A 
ATOM     21  N   UNL     1      49.025 125.277  22.289  1.00  0.00    -0.338 N 
ATOM     22  C   UNL     1      49.117 124.163  20.352  1.00  0.00     0.005 A 
ATOM     23  C   UNL     1      49.821 124.887  21.280  1.00  0.00     0.083 A 
ATOM     24  C   UNL     1      49.721 123.651  19.205  1.00  0.00     0.010 A 
ATOM     25  C   UNL     1      51.182 125.147  21.122  1.00  0.00     0.147 A 
ATOM     26  C   UNL     1      51.094 123.896  19.021  1.00  0.00     0.004 A 
ATOM     27  C   UNL     1      51.823 124.642  19.976  1.00  0.00     0.041 A 
ATOM     28  H   UNL     1      49.300 125.833  23.130  1.00  0.00     0.168 HD
ATOM     29  F   UNL     1      51.871 125.865  22.045  1.00  0.00    -0.205 F 
ENDBRANCH   9  19
ENDBRANCH   1   9
TORSDOF 4
ENDMDL


