MODEL 1
REMARK VINA RESULT:      -4.3      0.000      0.000
REMARK SMILES CC1=CCC=C[C@H]1C(=O)Oc1c(C)c(F)c([NH2+]N)c([O-])c1-n1nc2ccccc2n1
REMARK SMILES IDX 11 1 12 2 13 3 14 4 15 5 16 6 19 7 20 8 21 9 10 10 8 11 9 12
REMARK SMILES IDX 7 13 2 14 3 15 4 16 6 17 5 18 1 19 22 20 23 21 30 22 24 23
REMARK SMILES IDX 29 24 25 25 28 26 26 27 27 28 17 29 18 32
REMARK H PARENT 17 30 17 31 18 33 18 34
ROOT
ATOM      1  C   UNL     1      44.288 130.725  22.011  1.00  0.00     0.164 A 
ATOM      2  C   UNL     1      43.728 130.955  23.284  1.00  0.00     0.036 A 
ATOM      3  C   UNL     1      44.313 130.310  24.512  1.00  0.00     0.052 C 
ATOM      4  C   UNL     1      42.582 131.760  23.400  1.00  0.00     0.191 A 
ATOM      5  F   UNL     1      42.021 131.960  24.621  1.00  0.00    -0.200 F 
ATOM      6  C   UNL     1      42.014 132.365  22.265  1.00  0.00     0.179 A 
ATOM      7  C   UNL     1      42.625 132.187  21.008  1.00  0.00    -0.008 A 
ATOM      8  O   UNL     1      42.110 132.844  19.895  1.00  0.00    -0.867 OA
ATOM      9  C   UNL     1      43.758 131.365  20.876  1.00  0.00     0.127 A 
ENDROOT
BRANCH   1  10
ATOM     10  O   UNL     1      45.373 129.857  21.858  1.00  0.00    -0.423 OA
BRANCH  10  11
ATOM     11  C   UNL     1      45.249 128.466  21.961  1.00  0.00     0.322 C 
ATOM     12  O   UNL     1      45.433 127.728  20.954  1.00  0.00    -0.251 OA
BRANCH  11  13
ATOM     13  C   UNL     1      44.930 127.849  23.288  1.00  0.00     0.147 C 
ATOM     14  C   UNL     1      43.632 127.065  23.195  1.00  0.00    -0.059 C 
ATOM     15  C   UNL     1      43.643 125.726  23.046  1.00  0.00    -0.023 C 
ATOM     16  C   UNL     1      44.931 124.956  22.906  1.00  0.00     0.054 C 
ATOM     17  C   UNL     1      46.089 126.990  23.738  1.00  0.00    -0.012 C 
ATOM     18  C   UNL     1      46.085 125.658  23.571  1.00  0.00    -0.026 C 
ATOM     19  C   UNL     1      42.315 127.793  23.216  1.00  0.00     0.040 C 
ENDBRANCH  11  13
ENDBRANCH  10  11
ENDBRANCH   1  10
BRANCH   9  20
ATOM     20  N   UNL     1      44.361 131.160  19.586  1.00  0.00    -0.147 N 
ATOM     21  N   UNL     1      44.063 131.889  18.509  1.00  0.00    -0.148 NA
ATOM     22  N   UNL     1      45.284 130.230  19.342  1.00  0.00    -0.148 NA
ATOM     23  C   UNL     1      44.840 131.395  17.535  1.00  0.00     0.113 A 
ATOM     24  C   UNL     1      45.588 130.380  18.044  1.00  0.00     0.113 A 
ATOM     25  C   UNL     1      44.925 131.784  16.203  1.00  0.00     0.032 A 
ATOM     26  C   UNL     1      46.497 129.667  17.270  1.00  0.00     0.032 A 
ATOM     27  C   UNL     1      45.835 131.087  15.382  1.00  0.00     0.002 A 
ATOM     28  C   UNL     1      46.619 130.033  15.915  1.00  0.00     0.002 A 
ENDBRANCH   9  20
BRANCH   6  29
ATOM     29  N   UNL     1      40.858 133.221  22.399  1.00  0.00    -0.237 N 
ATOM     30  H   UNL     1      40.053 132.680  22.793  1.00  0.00     0.376 HD
ATOM     31  H   UNL     1      41.050 134.028  23.039  1.00  0.00     0.376 HD
BRANCH  29  32
ATOM     32  N   UNL     1      40.506 133.703  21.123  1.00  0.00    -0.178 NA
ATOM     33  H   UNL     1      41.268 134.343  20.799  1.00  0.00     0.183 HD
ATOM     34  H   UNL     1      40.494 132.897  20.455  1.00  0.00     0.183 HD
ENDBRANCH  29  32
ENDBRANCH   6  29
TORSDOF 6
ENDMDL
MODEL 2
REMARK VINA RESULT:      -2.9      4.578      7.158
REMARK SMILES CC1=CCC=C[C@H]1C(=O)Oc1c(C)c(F)c([NH2+]N)c([O-])c1-n1nc2ccccc2n1
REMARK SMILES IDX 11 1 12 2 13 3 14 4 15 5 16 6 19 7 20 8 21 9 10 10 8 11 9 12
REMARK SMILES IDX 7 13 2 14 3 15 4 16 6 17 5 18 1 19 22 20 23 21 30 22 24 23
REMARK SMILES IDX 29 24 25 25 28 26 26 27 27 28 17 29 18 32
REMARK H PARENT 17 30 17 31 18 33 18 34
ROOT
ATOM      1  C   UNL     1      42.290 126.157  23.180  1.00  0.00     0.164 A 
ATOM      2  C   UNL     1      40.899 126.194  23.405  1.00  0.00     0.036 A 
ATOM      3  C   UNL     1      40.134 127.487  23.296  1.00  0.00     0.052 C 
ATOM      4  C   UNL     1      40.228 125.018  23.779  1.00  0.00     0.191 A 
ATOM      5  F   UNL     1      38.892 125.055  24.026  1.00  0.00    -0.200 F 
ATOM      6  C   UNL     1      40.923 123.802  23.894  1.00  0.00     0.179 A 
ATOM      7  C   UNL     1      42.299 123.762  23.596  1.00  0.00    -0.008 A 
ATOM      8  O   UNL     1      42.977 122.547  23.636  1.00  0.00    -0.867 OA
ATOM      9  C   UNL     1      42.988 124.937  23.244  1.00  0.00     0.127 A 
ENDROOT
BRANCH   1  10
ATOM     10  O   UNL     1      42.996 127.330  22.894  1.00  0.00    -0.423 OA
BRANCH  10  11
ATOM     11  C   UNL     1      44.004 127.828  23.728  1.00  0.00     0.322 C 
ATOM     12  O   UNL     1      44.515 127.100  24.623  1.00  0.00    -0.251 OA
BRANCH  11  13
ATOM     13  C   UNL     1      44.505 129.226  23.529  1.00  0.00     0.147 C 
ATOM     14  C   UNL     1      44.566 129.547  22.045  1.00  0.00    -0.059 C 
ATOM     15  C   UNL     1      43.588 130.260  21.452  1.00  0.00    -0.023 C 
ATOM     16  C   UNL     1      42.370 130.717  22.213  1.00  0.00     0.054 C 
ATOM     17  C   UNL     1      43.626 130.190  24.291  1.00  0.00    -0.012 C 
ATOM     18  C   UNL     1      42.651 130.885  23.683  1.00  0.00    -0.026 C 
ATOM     19  C   UNL     1      45.702 129.019  21.212  1.00  0.00     0.040 C 
ENDBRANCH  11  13
ENDBRANCH  10  11
ENDBRANCH   1  10
BRANCH   9  20
ATOM     20  N   UNL     1      44.400 124.899  22.971  1.00  0.00    -0.147 N 
ATOM     21  N   UNL     1      44.917 124.447  21.828  1.00  0.00    -0.148 NA
ATOM     22  N   UNL     1      45.329 125.323  23.828  1.00  0.00    -0.148 NA
ATOM     23  C   UNL     1      46.242 124.594  21.969  1.00  0.00     0.113 A 
ATOM     24  C   UNL     1      46.494 125.131  23.193  1.00  0.00     0.113 A 
ATOM     25  C   UNL     1      47.258 124.271  21.076  1.00  0.00     0.032 A 
ATOM     26  C   UNL     1      47.785 125.404  23.632  1.00  0.00     0.032 A 
ATOM     27  C   UNL     1      48.582 124.532  21.482  1.00  0.00     0.002 A 
ATOM     28  C   UNL     1      48.845 125.098  22.754  1.00  0.00     0.002 A 
ENDBRANCH   9  20
BRANCH   6  29
ATOM     29  N   UNL     1      40.218 122.591  24.243  1.00  0.00    -0.237 N 
ATOM     30  H   UNL     1      40.260 121.908  23.450  1.00  0.00     0.376 HD
ATOM     31  H   UNL     1      40.636 122.133  25.087  1.00  0.00     0.376 HD
BRANCH  29  32
ATOM     32  N   UNL     1      38.870 122.914  24.499  1.00  0.00    -0.178 NA
ATOM     33  H   UNL     1      38.284 122.090  24.228  1.00  0.00     0.183 HD
ATOM     34  H   UNL     1      38.749 123.034  25.532  1.00  0.00     0.183 HD
ENDBRANCH  29  32
ENDBRANCH   6  29
TORSDOF 6
ENDMDL
MODEL 3
REMARK VINA RESULT:      -2.9      0.330      1.144
REMARK SMILES CC1=CCC=C[C@H]1C(=O)Oc1c(C)c(F)c([NH2+]N)c([O-])c1-n1nc2ccccc2n1
REMARK SMILES IDX 11 1 12 2 13 3 14 4 15 5 16 6 19 7 20 8 21 9 10 10 8 11 9 12
REMARK SMILES IDX 7 13 2 14 3 15 4 16 6 17 5 18 1 19 22 20 23 21 30 22 24 23
REMARK SMILES IDX 29 24 25 25 28 26 26 27 27 28 17 29 18 32
REMARK H PARENT 17 30 17 31 18 33 18 34
ROOT
ATOM      1  C   UNL     1      44.289 130.836  22.084  1.00  0.00     0.164 A 
ATOM      2  C   UNL     1      43.691 131.072  23.339  1.00  0.00     0.036 A 
ATOM      3  C   UNL     1      44.228 130.417  24.584  1.00  0.00     0.052 C 
ATOM      4  C   UNL     1      42.555 131.894  23.420  1.00  0.00     0.191 A 
ATOM      5  F   UNL     1      41.958 132.101  24.623  1.00  0.00    -0.200 F 
ATOM      6  C   UNL     1      42.033 132.510  22.269  1.00  0.00     0.179 A 
ATOM      7  C   UNL     1      42.680 132.325  21.032  1.00  0.00    -0.008 A 
ATOM      8  O   UNL     1      42.212 132.991  19.904  1.00  0.00    -0.867 OA
ATOM      9  C   UNL     1      43.805 131.486  20.934  1.00  0.00     0.127 A 
ENDROOT
BRANCH   1  10
ATOM     10  O   UNL     1      45.365 129.952  21.964  1.00  0.00    -0.423 OA
BRANCH  10  11
ATOM     11  C   UNL     1      45.218 128.564  22.069  1.00  0.00     0.322 C 
ATOM     12  O   UNL     1      45.401 127.821  21.066  1.00  0.00    -0.251 OA
BRANCH  11  13
ATOM     13  C   UNL     1      44.876 127.955  23.394  1.00  0.00     0.147 C 
ATOM     14  C   UNL     1      43.557 127.208  23.295  1.00  0.00    -0.059 C 
ATOM     15  C   UNL     1      43.531 125.869  23.144  1.00  0.00    -0.023 C 
ATOM     16  C   UNL     1      44.798 125.063  23.009  1.00  0.00     0.054 C 
ATOM     17  C   UNL     1      46.009 127.063  23.848  1.00  0.00    -0.012 C 
ATOM     18  C   UNL     1      45.968 125.732  23.681  1.00  0.00    -0.026 C 
ATOM     19  C   UNL     1      42.261 127.972  23.310  1.00  0.00     0.040 C 
ENDBRANCH  11  13
ENDBRANCH  10  11
ENDBRANCH   1  10
BRANCH   9  20
ATOM     20  N   UNL     1      44.445 131.273  19.663  1.00  0.00    -0.147 N 
ATOM     21  N   UNL     1      45.123 130.167  19.356  1.00  0.00    -0.148 NA
ATOM     22  N   UNL     1      44.414 132.156  18.665  1.00  0.00    -0.148 NA
ATOM     23  C   UNL     1      45.541 130.359  18.097  1.00  0.00     0.113 A 
ATOM     24  C   UNL     1      45.106 131.576  17.673  1.00  0.00     0.113 A 
ATOM     25  C   UNL     1      46.300 129.518  17.289  1.00  0.00     0.032 A 
ATOM     26  C   UNL     1      45.383 132.060  16.399  1.00  0.00     0.032 A 
ATOM     27  C   UNL     1      46.603 129.971  15.989  1.00  0.00     0.002 A 
ATOM     28  C   UNL     1      46.145 131.237  15.545  1.00  0.00     0.002 A 
ENDBRANCH   9  20
BRANCH   6  29
ATOM     29  N   UNL     1      40.886 133.383  22.368  1.00  0.00    -0.237 N 
ATOM     30  H   UNL     1      41.154 134.277  22.842  1.00  0.00     0.376 HD
ATOM     31  H   UNL     1      40.501 133.620  21.423  1.00  0.00     0.376 HD
BRANCH  29  32
ATOM     32  N   UNL     1      39.895 132.737  23.134  1.00  0.00    -0.178 NA
ATOM     33  H   UNL     1      39.094 132.511  22.499  1.00  0.00     0.183 HD
ATOM     34  H   UNL     1      40.276 131.819  23.464  1.00  0.00     0.183 HD
ENDBRANCH  29  32
ENDBRANCH   6  29
TORSDOF 6
ENDMDL
MODEL 4
REMARK VINA RESULT:      -2.6      4.489      6.495
REMARK SMILES CC1=CCC=C[C@H]1C(=O)Oc1c(C)c(F)c([NH2+]N)c([O-])c1-n1nc2ccccc2n1
REMARK SMILES IDX 11 1 12 2 13 3 14 4 15 5 16 6 19 7 20 8 21 9 10 10 8 11 9 12
REMARK SMILES IDX 7 13 2 14 3 15 4 16 6 17 5 18 1 19 22 20 23 21 30 22 24 23
REMARK SMILES IDX 29 24 25 25 28 26 26 27 27 28 17 29 18 32
REMARK H PARENT 17 30 17 31 18 33 18 34
ROOT
ATOM      1  C   UNL     1      43.084 125.797  23.700  1.00  0.00     0.164 A 
ATOM      2  C   UNL     1      42.608 124.472  23.635  1.00  0.00     0.036 A 
ATOM      3  C   UNL     1      43.548 123.306  23.791  1.00  0.00     0.052 C 
ATOM      4  C   UNL     1      41.246 124.238  23.379  1.00  0.00     0.191 A 
ATOM      5  F   UNL     1      40.788 122.962  23.287  1.00  0.00    -0.200 F 
ATOM      6  C   UNL     1      40.352 125.311  23.223  1.00  0.00     0.179 A 
ATOM      7  C   UNL     1      40.825 126.631  23.361  1.00  0.00    -0.008 A 
ATOM      8  O   UNL     1      39.931 127.694  23.281  1.00  0.00    -0.867 OA
ATOM      9  C   UNL     1      42.190 126.878  23.594  1.00  0.00     0.127 A 
ENDROOT
BRANCH   1  10
ATOM     10  O   UNL     1      44.448 126.055  23.864  1.00  0.00    -0.423 OA
BRANCH  10  11
ATOM     11  C   UNL     1      45.432 125.080  23.660  1.00  0.00     0.322 C 
ATOM     12  O   UNL     1      45.848 124.377  24.622  1.00  0.00    -0.251 OA
BRANCH  11  13
ATOM     13  C   UNL     1      45.966 124.846  22.280  1.00  0.00     0.147 C 
ATOM     14  C   UNL     1      47.485 124.874  22.303  1.00  0.00    -0.059 C 
ATOM     15  C   UNL     1      48.196 123.729  22.319  1.00  0.00    -0.023 C 
ATOM     16  C   UNL     1      47.524 122.381  22.375  1.00  0.00     0.054 C 
ATOM     17  C   UNL     1      45.422 123.544  21.741  1.00  0.00    -0.012 C 
ATOM     18  C   UNL     1      46.143 122.412  21.775  1.00  0.00    -0.026 C 
ATOM     19  C   UNL     1      48.209 126.192  22.362  1.00  0.00     0.040 C 
ENDBRANCH  11  13
ENDBRANCH  10  11
ENDBRANCH   1  10
BRANCH   9  20
ATOM     20  N   UNL     1      42.676 128.228  23.703  1.00  0.00    -0.147 N 
ATOM     21  N   UNL     1      43.842 128.634  23.198  1.00  0.00    -0.148 NA
ATOM     22  N   UNL     1      42.005 129.208  24.308  1.00  0.00    -0.148 NA
ATOM     23  C   UNL     1      43.910 129.938  23.498  1.00  0.00     0.113 A 
ATOM     24  C   UNL     1      42.785 130.291  24.176  1.00  0.00     0.113 A 
ATOM     25  C   UNL     1      44.922 130.849  23.213  1.00  0.00     0.032 A 
ATOM     26  C   UNL     1      42.565 131.589  24.624  1.00  0.00     0.032 A 
ATOM     27  C   UNL     1      44.738 132.177  23.650  1.00  0.00     0.002 A 
ATOM     28  C   UNL     1      43.563 132.545  24.352  1.00  0.00     0.002 A 
ENDBRANCH   9  20
BRANCH   6  29
ATOM     29  N   UNL     1      38.948 125.061  22.996  1.00  0.00    -0.237 N 
ATOM     30  H   UNL     1      38.389 125.922  23.206  1.00  0.00     0.376 HD
ATOM     31  H   UNL     1      38.762 124.789  22.002  1.00  0.00     0.376 HD
BRANCH  29  32
ATOM     32  N   UNL     1      38.532 124.024  23.855  1.00  0.00    -0.178 NA
ATOM     33  H   UNL     1      39.238 123.254  23.796  1.00  0.00     0.183 HD
ATOM     34  H   UNL     1      38.564 124.377  24.841  1.00  0.00     0.183 HD
ENDBRANCH  29  32
ENDBRANCH   6  29
TORSDOF 6
ENDMDL
MODEL 5
REMARK VINA RESULT:      -2.6      4.728      7.267
REMARK SMILES CC1=CCC=C[C@H]1C(=O)Oc1c(C)c(F)c([NH2+]N)c([O-])c1-n1nc2ccccc2n1
REMARK SMILES IDX 11 1 12 2 13 3 14 4 15 5 16 6 19 7 20 8 21 9 10 10 8 11 9 12
REMARK SMILES IDX 7 13 2 14 3 15 4 16 6 17 5 18 1 19 22 20 23 21 30 22 24 23
REMARK SMILES IDX 29 24 25 25 28 26 26 27 27 28 17 29 18 32
REMARK H PARENT 17 30 17 31 18 33 18 34
ROOT
ATOM      1  C   UNL     1      42.780 126.395  23.561  1.00  0.00     0.164 A 
ATOM      2  C   UNL     1      41.377 126.531  23.531  1.00  0.00     0.036 A 
ATOM      3  C   UNL     1      40.722 127.845  23.869  1.00  0.00     0.052 C 
ATOM      4  C   UNL     1      40.580 125.415  23.225  1.00  0.00     0.191 A 
ATOM      5  F   UNL     1      39.227 125.534  23.223  1.00  0.00    -0.200 F 
ATOM      6  C   UNL     1      41.171 124.178  22.913  1.00  0.00     0.179 A 
ATOM      7  C   UNL     1      42.575 124.072  22.876  1.00  0.00    -0.008 A 
ATOM      8  O   UNL     1      43.164 122.870  22.496  1.00  0.00    -0.867 OA
ATOM      9  C   UNL     1      43.383 125.176  23.203  1.00  0.00     0.127 A 
ENDROOT
BRANCH   1  10
ATOM     10  O   UNL     1      43.590 127.467  23.949  1.00  0.00    -0.423 OA
BRANCH  10  11
ATOM     11  C   UNL     1      43.145 128.794  23.935  1.00  0.00     0.322 C 
ATOM     12  O   UNL     1      42.141 129.143  24.615  1.00  0.00    -0.251 OA
BRANCH  11  13
ATOM     13  C   UNL     1      43.893 129.815  23.134  1.00  0.00     0.147 C 
ATOM     14  C   UNL     1      42.913 130.728  22.416  1.00  0.00    -0.059 C 
ATOM     15  C   UNL     1      42.615 131.946  22.910  1.00  0.00    -0.023 C 
ATOM     16  C   UNL     1      43.189 132.432  24.217  1.00  0.00     0.054 C 
ATOM     17  C   UNL     1      44.833 130.578  24.038  1.00  0.00    -0.012 C 
ATOM     18  C   UNL     1      44.513 131.787  24.528  1.00  0.00    -0.026 C 
ATOM     19  C   UNL     1      42.224 130.251  21.167  1.00  0.00     0.040 C 
ENDBRANCH  11  13
ENDBRANCH  10  11
ENDBRANCH   1  10
BRANCH   9  20
ATOM     20  N   UNL     1      44.816 125.056  23.195  1.00  0.00    -0.147 N 
ATOM     21  N   UNL     1      45.542 124.813  24.288  1.00  0.00    -0.148 NA
ATOM     22  N   UNL     1      45.560 125.163  22.094  1.00  0.00    -0.148 NA
ATOM     23  C   UNL     1      46.809 124.763  23.854  1.00  0.00     0.113 A 
ATOM     24  C   UNL     1      46.820 124.976  22.511  1.00  0.00     0.113 A 
ATOM     25  C   UNL     1      47.974 124.545  24.582  1.00  0.00     0.032 A 
ATOM     26  C   UNL     1      47.998 124.982  21.771  1.00  0.00     0.032 A 
ATOM     27  C   UNL     1      49.190 124.544  23.869  1.00  0.00     0.002 A 
ATOM     28  C   UNL     1      49.202 124.760  22.469  1.00  0.00     0.002 A 
ENDBRANCH   9  20
BRANCH   6  29
ATOM     29  N   UNL     1      40.345 123.046  22.564  1.00  0.00    -0.237 N 
ATOM     30  H   UNL     1      40.945 122.234  22.285  1.00  0.00     0.376 HD
ATOM     31  H   UNL     1      39.747 122.743  23.369  1.00  0.00     0.376 HD
BRANCH  29  32
ATOM     32  N   UNL     1      39.525 123.406  21.476  1.00  0.00    -0.178 NA
ATOM     33  H   UNL     1      38.528 123.317  21.781  1.00  0.00     0.183 HD
ATOM     34  H   UNL     1      39.680 124.420  21.266  1.00  0.00     0.183 HD
ENDBRANCH  29  32
ENDBRANCH   6  29
TORSDOF 6
ENDMDL
MODEL 6
REMARK VINA RESULT:      -2.4      3.348      5.056
REMARK SMILES CC1=CCC=C[C@H]1C(=O)Oc1c(C)c(F)c([NH2+]N)c([O-])c1-n1nc2ccccc2n1
REMARK SMILES IDX 11 1 12 2 13 3 14 4 15 5 16 6 19 7 20 8 21 9 10 10 8 11 9 12
REMARK SMILES IDX 7 13 2 14 3 15 4 16 6 17 5 18 1 19 22 20 23 21 30 22 24 23
REMARK SMILES IDX 29 24 25 25 28 26 26 27 27 28 17 29 18 32
REMARK H PARENT 17 30 17 31 18 33 18 34
ROOT
ATOM      1  C   UNL     1      43.546 126.843  23.219  1.00  0.00     0.164 A 
ATOM      2  C   UNL     1      42.801 125.719  23.631  1.00  0.00     0.036 A 
ATOM      3  C   UNL     1      43.390 124.335  23.561  1.00  0.00     0.052 C 
ATOM      4  C   UNL     1      41.477 125.890  24.069  1.00  0.00     0.191 A 
ATOM      5  F   UNL     1      40.745 124.807  24.439  1.00  0.00    -0.200 F 
ATOM      6  C   UNL     1      40.904 127.173  24.135  1.00  0.00     0.179 A 
ATOM      7  C   UNL     1      41.682 128.295  23.789  1.00  0.00    -0.008 A 
ATOM      8  O   UNL     1      41.144 129.571  23.924  1.00  0.00    -0.867 OA
ATOM      9  C   UNL     1      43.001 128.135  23.327  1.00  0.00     0.127 A 
ENDROOT
BRANCH   1  10
ATOM     10  O   UNL     1      44.833 126.689  22.695  1.00  0.00    -0.423 OA
BRANCH  10  11
ATOM     11  C   UNL     1      45.960 126.495  23.503  1.00  0.00     0.322 C 
ATOM     12  O   UNL     1      46.459 127.455  24.151  1.00  0.00    -0.251 OA
BRANCH  11  13
ATOM     13  C   UNL     1      46.554 125.125  23.625  1.00  0.00     0.147 C 
ATOM     14  C   UNL     1      46.943 124.605  22.251  1.00  0.00    -0.059 C 
ATOM     15  C   UNL     1      48.221 124.665  21.827  1.00  0.00    -0.023 C 
ATOM     16  C   UNL     1      49.304 125.299  22.663  1.00  0.00     0.054 C 
ATOM     17  C   UNL     1      47.726 125.165  24.578  1.00  0.00    -0.012 C 
ATOM     18  C   UNL     1      48.991 125.234  24.135  1.00  0.00    -0.026 C 
ATOM     19  C   UNL     1      45.885 124.066  21.327  1.00  0.00     0.040 C 
ENDBRANCH  11  13
ENDBRANCH  10  11
ENDBRANCH   1  10
BRANCH   9  20
ATOM     20  N   UNL     1      43.782 129.281  22.945  1.00  0.00    -0.147 N 
ATOM     21  N   UNL     1      44.272 129.463  21.718  1.00  0.00    -0.148 NA
ATOM     22  N   UNL     1      44.083 130.279  23.776  1.00  0.00    -0.148 NA
ATOM     23  C   UNL     1      44.914 130.637  21.776  1.00  0.00     0.113 A 
ATOM     24  C   UNL     1      44.798 131.138  23.035  1.00  0.00     0.113 A 
ATOM     25  C   UNL     1      45.614 131.302  20.774  1.00  0.00     0.032 A 
ATOM     26  C   UNL     1      45.363 132.354  23.405  1.00  0.00     0.032 A 
ATOM     27  C   UNL     1      46.203 132.538  21.108  1.00  0.00     0.002 A 
ATOM     28  C   UNL     1      46.077 133.063  22.418  1.00  0.00     0.002 A 
ENDBRANCH   9  20
BRANCH   6  29
ATOM     29  N   UNL     1      39.555 127.342  24.621  1.00  0.00    -0.237 N 
ATOM     30  H   UNL     1      39.405 126.761  25.479  1.00  0.00     0.376 HD
ATOM     31  H   UNL     1      39.359 128.341  24.869  1.00  0.00     0.376 HD
BRANCH  29  32
ATOM     32  N   UNL     1      38.659 126.920  23.619  1.00  0.00    -0.178 NA
ATOM     33  H   UNL     1      38.947 125.960  23.314  1.00  0.00     0.183 HD
ATOM     34  H   UNL     1      37.708 126.821  24.045  1.00  0.00     0.183 HD
ENDBRANCH  29  32
ENDBRANCH   6  29
TORSDOF 6
ENDMDL
MODEL 7
REMARK VINA RESULT:      -1.9      0.833      1.607
REMARK SMILES CC1=CCC=C[C@H]1C(=O)Oc1c(C)c(F)c([NH2+]N)c([O-])c1-n1nc2ccccc2n1
REMARK SMILES IDX 11 1 12 2 13 3 14 4 15 5 16 6 19 7 20 8 21 9 10 10 8 11 9 12
REMARK SMILES IDX 7 13 2 14 3 15 4 16 6 17 5 18 1 19 22 20 23 21 30 22 24 23
REMARK SMILES IDX 29 24 25 25 28 26 26 27 27 28 17 29 18 32
REMARK H PARENT 17 30 17 31 18 33 18 34
ROOT
ATOM      1  C   UNL     1      43.977 130.515  21.939  1.00  0.00     0.164 A 
ATOM      2  C   UNL     1      43.338 130.715  23.180  1.00  0.00     0.036 A 
ATOM      3  C   UNL     1      43.740 129.917  24.392  1.00  0.00     0.052 C 
ATOM      4  C   UNL     1      42.284 131.640  23.274  1.00  0.00     0.191 A 
ATOM      5  F   UNL     1      41.646 131.815  24.460  1.00  0.00    -0.200 F 
ATOM      6  C   UNL     1      41.888 132.390  22.153  1.00  0.00     0.179 A 
ATOM      7  C   UNL     1      42.581 132.234  20.937  1.00  0.00    -0.008 A 
ATOM      8  O   UNL     1      42.242 133.028  19.846  1.00  0.00    -0.867 OA
ATOM      9  C   UNL     1      43.622 131.295  20.824  1.00  0.00     0.127 A 
ENDROOT
BRANCH   1  10
ATOM     10  O   UNL     1      44.967 129.538  21.799  1.00  0.00    -0.423 OA
BRANCH  10  11
ATOM     11  C   UNL     1      45.086 128.452  22.674  1.00  0.00     0.322 C 
ATOM     12  O   UNL     1      45.520 128.615  23.847  1.00  0.00    -0.251 OA
BRANCH  11  13
ATOM     13  C   UNL     1      44.658 127.089  22.222  1.00  0.00     0.147 C 
ATOM     14  C   UNL     1      45.663 126.050  22.690  1.00  0.00    -0.059 C 
ATOM     15  C   UNL     1      45.423 125.302  23.786  1.00  0.00    -0.023 C 
ATOM     16  C   UNL     1      44.187 125.502  24.625  1.00  0.00     0.054 C 
ATOM     17  C   UNL     1      43.261 126.805  22.723  1.00  0.00    -0.012 C 
ATOM     18  C   UNL     1      43.044 126.066  23.822  1.00  0.00    -0.026 C 
ATOM     19  C   UNL     1      46.966 125.885  21.957  1.00  0.00     0.040 C 
ENDBRANCH  11  13
ENDBRANCH  10  11
ENDBRANCH   1  10
BRANCH   9  20
ATOM     20  N   UNL     1      44.307 131.116  19.572  1.00  0.00    -0.147 N 
ATOM     21  N   UNL     1      44.108 131.892  18.505  1.00  0.00    -0.148 NA
ATOM     22  N   UNL     1      45.216 130.165  19.358  1.00  0.00    -0.148 NA
ATOM     23  C   UNL     1      44.936 131.407  17.569  1.00  0.00     0.113 A 
ATOM     24  C   UNL     1      45.615 130.350  18.091  1.00  0.00     0.113 A 
ATOM     25  C   UNL     1      45.126 131.840  16.262  1.00  0.00     0.032 A 
ATOM     26  C   UNL     1      46.554 129.636  17.355  1.00  0.00     0.032 A 
ATOM     27  C   UNL     1      46.070 131.142  15.480  1.00  0.00     0.002 A 
ATOM     28  C   UNL     1      46.782 130.045  16.026  1.00  0.00     0.002 A 
ENDBRANCH   9  20
BRANCH   6  29
ATOM     29  N   UNL     1      40.828 133.364  22.268  1.00  0.00    -0.237 N 
ATOM     30  H   UNL     1      41.229 134.314  22.450  1.00  0.00     0.376 HD
ATOM     31  H   UNL     1      40.257 133.417  21.392  1.00  0.00     0.376 HD
BRANCH  29  32
ATOM     32  N   UNL     1      40.000 133.002  23.350  1.00  0.00    -0.178 NA
ATOM     33  H   UNL     1      39.558 132.081  23.123  1.00  0.00     0.183 HD
ATOM     34  H   UNL     1      40.605 132.839  24.190  1.00  0.00     0.183 HD
ENDBRANCH  29  32
ENDBRANCH   6  29
TORSDOF 6
ENDMDL
MODEL 8
REMARK VINA RESULT:      -1.4      3.662      5.456
REMARK SMILES CC1=CCC=C[C@H]1C(=O)Oc1c(C)c(F)c([NH2+]N)c([O-])c1-n1nc2ccccc2n1
REMARK SMILES IDX 11 1 12 2 13 3 14 4 15 5 16 6 19 7 20 8 21 9 10 10 8 11 9 12
REMARK SMILES IDX 7 13 2 14 3 15 4 16 6 17 5 18 1 19 22 20 23 21 30 22 24 23
REMARK SMILES IDX 29 24 25 25 28 26 26 27 27 28 17 29 18 32
REMARK H PARENT 17 30 17 31 18 33 18 34
ROOT
ATOM      1  C   UNL     1      45.127 132.364  21.390  1.00  0.00     0.164 A 
ATOM      2  C   UNL     1      44.782 132.549  22.745  1.00  0.00     0.036 A 
ATOM      3  C   UNL     1      45.529 133.536  23.603  1.00  0.00     0.052 C 
ATOM      4  C   UNL     1      43.758 131.771  23.310  1.00  0.00     0.191 A 
ATOM      5  F   UNL     1      43.441 131.925  24.622  1.00  0.00    -0.200 F 
ATOM      6  C   UNL     1      43.052 130.839  22.528  1.00  0.00     0.179 A 
ATOM      7  C   UNL     1      43.357 130.714  21.159  1.00  0.00    -0.008 A 
ATOM      8  O   UNL     1      42.613 129.847  20.366  1.00  0.00    -0.867 OA
ATOM      9  C   UNL     1      44.396 131.470  20.587  1.00  0.00     0.127 A 
ENDROOT
BRANCH   1  10
ATOM     10  O   UNL     1      46.201 133.062  20.829  1.00  0.00    -0.423 OA
BRANCH  10  11
ATOM     11  C   UNL     1      47.400 133.284  21.516  1.00  0.00     0.322 C 
ATOM     12  O   UNL     1      48.341 132.446  21.454  1.00  0.00    -0.251 OA
BRANCH  11  13
ATOM     13  C   UNL     1      47.578 134.547  22.302  1.00  0.00     0.147 C 
ATOM     14  C   UNL     1      48.860 134.473  23.115  1.00  0.00    -0.059 C 
ATOM     15  C   UNL     1      49.986 135.077  22.686  1.00  0.00    -0.023 C 
ATOM     16  C   UNL     1      50.042 135.796  21.362  1.00  0.00     0.054 C 
ATOM     17  C   UNL     1      47.559 135.732  21.365  1.00  0.00    -0.012 C 
ATOM     18  C   UNL     1      48.692 136.313  20.941  1.00  0.00    -0.026 C 
ATOM     19  C   UNL     1      48.893 133.674  24.389  1.00  0.00     0.040 C 
ENDBRANCH  11  13
ENDBRANCH  10  11
ENDBRANCH   1  10
BRANCH   9  20
ATOM     20  N   UNL     1      44.726 131.318  19.195  1.00  0.00    -0.147 N 
ATOM     21  N   UNL     1      45.701 130.522  18.752  1.00  0.00    -0.148 NA
ATOM     22  N   UNL     1      44.083 131.946  18.211  1.00  0.00    -0.148 NA
ATOM     23  C   UNL     1      45.671 130.653  17.419  1.00  0.00     0.113 A 
ATOM     24  C   UNL     1      44.680 131.524  17.087  1.00  0.00     0.113 A 
ATOM     25  C   UNL     1      46.480 130.050  16.463  1.00  0.00     0.032 A 
ATOM     26  C   UNL     1      44.402 131.864  15.767  1.00  0.00     0.032 A 
ATOM     27  C   UNL     1      46.233 130.367  15.112  1.00  0.00     0.002 A 
ATOM     28  C   UNL     1      45.196 131.270  14.766  1.00  0.00     0.002 A 
ENDBRANCH   9  20
BRANCH   6  29
ATOM     29  N   UNL     1      41.977 130.070  23.109  1.00  0.00    -0.237 N 
ATOM     30  H   UNL     1      41.617 130.545  23.970  1.00  0.00     0.376 HD
ATOM     31  H   UNL     1      41.177 129.962  22.441  1.00  0.00     0.376 HD
BRANCH  29  32
ATOM     32  N   UNL     1      42.473 128.798  23.461  1.00  0.00    -0.178 NA
ATOM     33  H   UNL     1      43.453 128.724  23.101  1.00  0.00     0.183 HD
ATOM     34  H   UNL     1      42.539 128.746  24.505  1.00  0.00     0.183 HD
ENDBRANCH  29  32
ENDBRANCH   6  29
TORSDOF 6
ENDMDL
MODEL 9
REMARK VINA RESULT:      -1.3      4.001      6.399
REMARK SMILES CC1=CCC=C[C@H]1C(=O)Oc1c(C)c(F)c([NH2+]N)c([O-])c1-n1nc2ccccc2n1
REMARK SMILES IDX 11 1 12 2 13 3 14 4 15 5 16 6 19 7 20 8 21 9 10 10 8 11 9 12
REMARK SMILES IDX 7 13 2 14 3 15 4 16 6 17 5 18 1 19 22 20 23 21 30 22 24 23
REMARK SMILES IDX 29 24 25 25 28 26 26 27 27 28 17 29 18 32
REMARK H PARENT 17 30 17 31 18 33 18 34
ROOT
ATOM      1  C   UNL     1      45.888 125.430  22.627  1.00  0.00     0.164 A 
ATOM      2  C   UNL     1      45.648 124.100  23.030  1.00  0.00     0.036 A 
ATOM      3  C   UNL     1      46.787 123.130  23.207  1.00  0.00     0.052 C 
ATOM      4  C   UNL     1      44.327 123.664  23.226  1.00  0.00     0.191 A 
ATOM      5  F   UNL     1      44.089 122.376  23.586  1.00  0.00    -0.200 F 
ATOM      6  C   UNL     1      43.249 124.551  23.059  1.00  0.00     0.179 A 
ATOM      7  C   UNL     1      43.504 125.895  22.726  1.00  0.00    -0.008 A 
ATOM      8  O   UNL     1      42.446 126.794  22.633  1.00  0.00    -0.867 OA
ATOM      9  C   UNL     1      44.821 126.338  22.505  1.00  0.00     0.127 A 
ENDROOT
BRANCH   1  10
ATOM     10  O   UNL     1      47.186 125.862  22.340  1.00  0.00    -0.423 OA
BRANCH  10  11
ATOM     11  C   UNL     1      48.196 124.991  21.912  1.00  0.00     0.322 C 
ATOM     12  O   UNL     1      48.187 124.524  20.740  1.00  0.00    -0.251 OA
BRANCH  11  13
ATOM     13  C   UNL     1      49.315 124.642  22.845  1.00  0.00     0.147 C 
ATOM     14  C   UNL     1      50.639 125.103  22.259  1.00  0.00    -0.059 C 
ATOM     15  C   UNL     1      51.213 126.251  22.670  1.00  0.00    -0.023 C 
ATOM     16  C   UNL     1      50.546 127.153  23.678  1.00  0.00     0.054 C 
ATOM     17  C   UNL     1      49.046 125.243  24.204  1.00  0.00    -0.012 C 
ATOM     18  C   UNL     1      49.621 126.393  24.591  1.00  0.00    -0.026 C 
ATOM     19  C   UNL     1      51.295 124.301  21.168  1.00  0.00     0.040 C 
ENDBRANCH  11  13
ENDBRANCH  10  11
ENDBRANCH   1  10
BRANCH   9  20
ATOM     20  N   UNL     1      45.077 127.704  22.135  1.00  0.00    -0.147 N 
ATOM     21  N   UNL     1      45.007 128.725  22.990  1.00  0.00    -0.148 NA
ATOM     22  N   UNL     1      45.421 128.083  20.904  1.00  0.00    -0.148 NA
ATOM     23  C   UNL     1      45.324 129.805  22.263  1.00  0.00     0.113 A 
ATOM     24  C   UNL     1      45.579 129.413  20.986  1.00  0.00     0.113 A 
ATOM     25  C   UNL     1      45.396 131.136  22.660  1.00  0.00     0.032 A 
ATOM     26  C   UNL     1      45.938 130.315  19.990  1.00  0.00     0.032 A 
ATOM     27  C   UNL     1      45.758 132.083  21.680  1.00  0.00     0.002 A 
ATOM     28  C   UNL     1      46.029 131.674  20.351  1.00  0.00     0.002 A 
ENDBRANCH   9  20
BRANCH   6  29
ATOM     29  N   UNL     1      41.896 124.104  23.298  1.00  0.00    -0.237 N 
ATOM     30  H   UNL     1      41.897 123.106  23.614  1.00  0.00     0.376 HD
ATOM     31  H   UNL     1      41.427 124.677  24.039  1.00  0.00     0.376 HD
BRANCH  29  32
ATOM     32  N   UNL     1      41.171 124.203  22.094  1.00  0.00    -0.178 NA
ATOM     33  H   UNL     1      41.588 124.979  21.529  1.00  0.00     0.183 HD
ATOM     34  H   UNL     1      41.321 123.325  21.543  1.00  0.00     0.183 HD
ENDBRANCH  29  32
ENDBRANCH   6  29
TORSDOF 6
ENDMDL


