REMARK SMILES CC(=O)c1ccc(-c2cc(N=C=O)c(O)c([NH2+]c3ccc(C)c(F)c3)c2)cn1
REMARK SMILES IDX 14 1 10 2 9 3 8 4 26 5 16 6 15 7 11 9 12 10 13 11 17 12
REMARK SMILES IDX 18 15 19 16 25 17 20 18 23 19 21 20 24 21 22 22 7 23 27 24
REMARK SMILES IDX 6 25 28 26 5 27 4 28 2 29 3 30 1 31
REMARK H PARENT 15 8 17 13 17 14
ROOT
ATOM      1  C   UNL     1      -0.084  -0.247   2.781  1.00  0.00     0.204 A 
ATOM      2  C   UNL     1      -0.769   0.984   2.773  1.00  0.00     0.125 A 
ATOM      3  C   UNL     1      -0.495   1.921   1.758  1.00  0.00     0.042 A 
ATOM      4  C   UNL     1       0.449   1.644   0.758  1.00  0.00    -0.008 A 
ATOM      5  C   UNL     1       1.124   0.415   0.779  1.00  0.00     0.081 A 
ATOM      6  C   UNL     1       0.870  -0.534   1.783  1.00  0.00     0.179 A 
ENDROOT
BRANCH   1   7
ATOM      7  O   UNL     1      -0.339  -1.194   3.776  1.00  0.00    -0.501 OA
ATOM      8  H   UNL     1      -1.014  -1.043   4.516  1.00  0.00     0.293 HD
ENDBRANCH   1   7
BRANCH   2   9
ATOM      9  N   UNL     1      -1.733   1.256   3.806  1.00  0.00    -0.164 NA
BRANCH   9  10
ATOM     10  C   UNL     1      -2.410   2.332   3.889  1.00  0.00     0.240 C 
ATOM     11  O   UNL     1      -3.067   3.377   3.969  1.00  0.00    -0.211 OA
ENDBRANCH   9  10
ENDBRANCH   2   9
BRANCH   6  12
ATOM     12  N   UNL     1       1.552  -1.808   1.753  1.00  0.00    -0.278 N 
ATOM     13  H   UNL     1       1.696  -2.171   2.723  1.00  0.00     0.358 HD
ATOM     14  H   UNL     1       2.508  -1.693   1.340  1.00  0.00     0.358 HD
BRANCH  12  15
ATOM     15  C   UNL     1       0.794  -2.751   0.967  1.00  0.00     0.137 A 
ATOM     16  C   UNL     1      -0.121  -3.621   1.583  1.00  0.00     0.068 A 
ATOM     17  C   UNL     1       0.940  -2.791  -0.431  1.00  0.00     0.107 A 
ATOM     18  C   UNL     1      -0.875  -4.514   0.817  1.00  0.00     0.012 A 
ATOM     19  C   UNL     1       0.185  -3.684  -1.198  1.00  0.00     0.132 A 
ATOM     20  C   UNL     1      -0.737  -4.544  -0.579  1.00  0.00    -0.015 A 
ATOM     21  F   UNL     1       0.353  -3.709  -2.545  1.00  0.00    -0.206 F 
ATOM     22  C   UNL     1      -1.529  -5.520  -1.400  1.00  0.00     0.047 C 
ENDBRANCH  12  15
ENDBRANCH   6  12
BRANCH   4  23
ATOM     23  C   UNL     1       0.728   2.637  -0.312  1.00  0.00     0.000 A 
ATOM     24  C   UNL     1      -0.315   3.365  -0.909  1.00  0.00     0.120 A 
ATOM     25  C   UNL     1       2.039   2.870  -0.755  1.00  0.00     0.013 A 
ATOM     26  N   UNL     1      -0.048   4.268  -1.889  1.00  0.00    -0.253 NA
ATOM     27  C   UNL     1       2.288   3.804  -1.762  1.00  0.00     0.033 A 
ATOM     28  C   UNL     1       1.217   4.510  -2.331  1.00  0.00     0.106 A 
BRANCH  28  29
ATOM     29  C   UNL     1       1.441   5.507  -3.399  1.00  0.00     0.178 C 
ATOM     30  O   UNL     1       2.608   5.739  -3.817  1.00  0.00    -0.293 OA
ATOM     31  C   UNL     1       0.290   6.254  -3.999  1.00  0.00     0.095 C 
ENDBRANCH  28  29
ENDBRANCH   4  23
TORSDOF 7


