REMARK SMILES O=C(OCCOCC(F)(F)F)[N+]1=C(O)c2cc(-c3ccc4[nH]ccc4c3)cnc2C1
REMARK SMILES IDX 4 1 3 2 2 3 12 4 30 5 13 6 29 7 15 8 28 9 16 10 27 11 17 12
REMARK SMILES IDX 1 13 14 14 18 16 19 17 26 18 20 19 25 20 21 21 24 22 22 23
REMARK SMILES IDX 23 24 5 26 6 27 7 28 8 29 9 30 10 31 11 32
REMARK H PARENT 14 15 22 25
ROOT
ATOM      1  C   UNL     1      -4.341   2.762   0.506  1.00  0.00     0.268 C 
ENDROOT
BRANCH   1   2
ATOM      2  O   UNL     1      -3.165   1.970   0.376  1.00  0.00    -0.409 OA
BRANCH   2   3
ATOM      3  C   UNL     1      -2.406   1.555   1.476  1.00  0.00     0.600 C 
ATOM      4  N   UNL     1      -1.228   0.756   1.285  1.00  0.00    -0.083 N 
ATOM      5  C   UNL     1      -0.377   0.280   2.387  1.00  0.00     0.426 C 
ATOM      6  C   UNL     1      -0.760   0.351   0.138  1.00  0.00     0.381 C 
ATOM      7  C   UNL     1       0.678  -0.479   1.661  1.00  0.00     0.123 A 
ATOM      8  C   UNL     1       0.443  -0.434   0.319  1.00  0.00     0.115 A 
ATOM      9  N   UNL     1       1.742  -1.139   2.178  1.00  0.00    -0.253 NA
ATOM     10  C   UNL     1       1.292  -1.066  -0.583  1.00  0.00     0.031 A 
ATOM     11  C   UNL     1       2.611  -1.778   1.340  1.00  0.00     0.120 A 
ATOM     12  C   UNL     1       2.410  -1.760  -0.067  1.00  0.00     0.001 A 
ATOM     13  O   UNL     1      -2.755   1.882   2.643  1.00  0.00    -0.177 OA
BRANCH   6  14
ATOM     14  O   UNL     1      -1.350   0.644  -1.091  1.00  0.00    -0.459 OA
ATOM     15  H   UNL     1      -0.949   0.306  -1.957  1.00  0.00     0.300 HD
ENDBRANCH   6  14
BRANCH  12  16
ATOM     16  C   UNL     1       3.354  -2.455  -0.977  1.00  0.00    -0.016 A 
ATOM     17  C   UNL     1       4.753  -2.423  -0.723  1.00  0.00     0.011 A 
ATOM     18  C   UNL     1       2.871  -3.155  -2.108  1.00  0.00     0.019 A 
ATOM     19  C   UNL     1       5.657  -3.078  -1.579  1.00  0.00     0.027 A 
ATOM     20  C   UNL     1       3.795  -3.792  -2.933  1.00  0.00    -0.000 A 
ATOM     21  C   UNL     1       5.138  -3.756  -2.679  1.00  0.00     0.045 A 
ATOM     22  C   UNL     1       3.611  -4.537  -4.077  1.00  0.00     0.028 A 
ATOM     23  N   UNL     1       5.819  -4.442  -3.611  1.00  0.00    -0.361 N 
ATOM     24  C   UNL     1       4.890  -4.922  -4.469  1.00  0.00     0.083 A 
ATOM     25  H   UNL     1       6.853  -4.580  -3.665  1.00  0.00     0.166 HD
ENDBRANCH  12  16
ENDBRANCH   2   3
ENDBRANCH   1   2
BRANCH   1  26
ATOM     26  C   UNL     1      -4.924   3.038  -0.873  1.00  0.00     0.202 C 
BRANCH  26  27
ATOM     27  O   UNL     1      -6.088   3.823  -0.734  1.00  0.00    -0.368 OA
BRANCH  27  28
ATOM     28  C   UNL     1      -6.636   4.083  -2.009  1.00  0.00     0.275 C 
BRANCH  28  29
ATOM     29  C   UNL     1      -7.893   4.931  -1.856  1.00  0.00     0.411 C 
ATOM     30  F   UNL     1      -7.580   6.130  -1.241  1.00  0.00    -0.168 F 
ATOM     31  F   UNL     1      -8.825   4.256  -1.089  1.00  0.00    -0.168 F 
ATOM     32  F   UNL     1      -8.433   5.190  -3.102  1.00  0.00    -0.168 F 
ENDBRANCH  28  29
ENDBRANCH  27  28
ENDBRANCH  26  27
ENDBRANCH   1  26
TORSDOF 8


