REMARK SMILES Cc1ccc(N[C@H]2CC[C@H]3[N+](C)=NN[C@@]3(N)[C@@H]2O)cc1
REMARK SMILES IDX 7 1 8 2 9 3 10 4 11 5 12 6 13 7 14 8 15 9 17 10 6 12 5 14
REMARK SMILES IDX 2 15 3 16 20 17 4 18 19 19 1 20 18 21 16 23
REMARK H PARENT 14 11 6 13 18 22 16 24 16 25
ROOT
ATOM      1  C   UNL     1      -0.042   0.308  -0.917  1.00  0.00     0.114 C 
ATOM      2  C   UNL     1       1.136  -0.461  -0.254  1.00  0.00     0.032 C 
ATOM      3  C   UNL     1       2.489   0.243  -0.399  1.00  0.00     0.061 C 
ATOM      4  C   UNL     1       2.418   1.672   0.166  1.00  0.00     0.266 C 
ATOM      5  N   UNL     1       3.583   2.454  -0.249  1.00  0.00    -0.163 N 
ATOM      6  C   UNL     1       4.970   2.146   0.083  1.00  0.00     0.319 C 
ATOM      7  N   UNL     1       3.264   3.496  -0.893  1.00  0.00     0.079 NA
ATOM      8  N   UNL     1       1.886   3.613  -1.041  1.00  0.00    -0.156 N 
ATOM      9  C   UNL     1       1.213   2.497  -0.391  1.00  0.00     0.244 C 
ATOM     10  C   UNL     1       0.369   1.709  -1.439  1.00  0.00     0.206 C 
ATOM     11  H   UNL     1       1.422   4.420  -1.513  1.00  0.00     0.337 HD
ENDROOT
BRANCH   1  12
ATOM     12  N   UNL     1      -0.619  -0.489  -2.011  1.00  0.00    -0.379 N 
ATOM     13  H   UNL     1      -0.474  -0.161  -2.994  1.00  0.00     0.160 HD
BRANCH  12  14
ATOM     14  C   UNL     1      -1.408  -1.683  -1.821  1.00  0.00     0.034 A 
ATOM     15  C   UNL     1      -2.945  -4.030  -1.527  1.00  0.00    -0.051 A 
ATOM     16  C   UNL     1      -2.470  -3.350  -0.397  1.00  0.00     0.005 A 
ATOM     17  C   UNL     1      -2.671  -3.519  -2.803  1.00  0.00     0.005 A 
ATOM     18  C   UNL     1      -1.703  -2.190  -0.540  1.00  0.00     0.026 A 
ATOM     19  C   UNL     1      -1.904  -2.360  -2.947  1.00  0.00     0.026 A 
ATOM     20  C   UNL     1      -3.801  -5.252  -1.370  1.00  0.00     0.044 C 
ENDBRANCH  12  14
ENDBRANCH   1  12
BRANCH  10  21
ATOM     21  O   UNL     1      -0.787   2.426  -1.794  1.00  0.00    -0.384 OA
ATOM     22  H   UNL     1      -0.506   3.131  -2.434  1.00  0.00     0.211 HD
ENDBRANCH  10  21
BRANCH   9  23
ATOM     23  N   UNL     1       0.396   3.005   0.718  1.00  0.00    -0.283 NA
ATOM     24  H   UNL     1      -0.086   2.209   1.194  1.00  0.00     0.123 HD
ATOM     25  H   UNL     1      -0.340   3.649   0.348  1.00  0.00     0.123 HD
ENDBRANCH   9  23
TORSDOF 4


