REMARK SMILES CC(=O)c1ccc(-c2nccc(C)c2F)c2c[nH][nH+]c12
REMARK SMILES IDX 4 1 5 2 6 3 7 4 16 5 17 6 18 7 19 8 20 9 2 12 1 13 3 14 8 15
REMARK SMILES IDX 9 16 14 17 10 18 12 19 11 20 15 21 13 22
REMARK H PARENT 18 10 19 11
ROOT
ATOM      1  C   UNL     1      -0.998   0.435   1.300  1.00  0.00     0.092 A 
ATOM      2  C   UNL     1       0.246  -0.009   0.792  1.00  0.00     0.019 A 
ATOM      3  C   UNL     1       0.596   0.191  -0.560  1.00  0.00     0.012 A 
ATOM      4  C   UNL     1      -0.285   0.842  -1.450  1.00  0.00     0.019 A 
ATOM      5  C   UNL     1      -1.515   1.260  -0.929  1.00  0.00     0.080 A 
ATOM      6  C   UNL     1      -2.593   1.904  -1.507  1.00  0.00     0.163 A 
ATOM      7  N   UNL     1      -3.535   2.063  -0.554  1.00  0.00    -0.174 N 
ATOM      8  N   UNL     1      -3.100   1.558   0.592  1.00  0.00    -0.125 N 
ATOM      9  C   UNL     1      -1.860   1.071   0.388  1.00  0.00     0.247 A 
ATOM     10  H   UNL     1      -4.471   2.509  -0.685  1.00  0.00     0.238 HD
ATOM     11  H   UNL     1      -3.660   1.544   1.471  1.00  0.00     0.488 HD
ENDROOT
BRANCH   1  12
ATOM     12  C   UNL     1      -1.345   0.247   2.732  1.00  0.00     0.166 C 
ATOM     13  C   UNL     1      -0.716  -0.841   3.549  1.00  0.00     0.094 C 
ATOM     14  O   UNL     1      -2.139   1.042   3.301  1.00  0.00    -0.294 OA
ENDBRANCH   1  12
BRANCH   4  15
ATOM     15  C   UNL     1       0.063   1.027  -2.877  1.00  0.00     0.107 A 
ATOM     16  N   UNL     1      -0.871   0.752  -3.830  1.00  0.00    -0.253 NA
ATOM     17  C   UNL     1       1.337   1.479  -3.270  1.00  0.00     0.152 A 
ATOM     18  C   UNL     1      -0.616   0.896  -5.156  1.00  0.00     0.112 A 
ATOM     19  C   UNL     1       1.629   1.622  -4.636  1.00  0.00    -0.012 A 
ATOM     20  C   UNL     1       0.637   1.336  -5.584  1.00  0.00     0.026 A 
ATOM     21  F   UNL     1       2.268   1.815  -2.340  1.00  0.00    -0.204 F 
ATOM     22  C   UNL     1       2.970   2.134  -5.075  1.00  0.00     0.047 C 
ENDBRANCH   4  15
TORSDOF 2


