MODEL 1
REMARK VINA RESULT:      -4.7      0.000      0.000
REMARK SMILES CC(=O)c1ccc([C@H]2[C@H](F)[C@H](C)CCN2C(=S)[NH2+]c2[nH+]c3ccccc3s2)cc1F
REMARK SMILES IDX 8 1 9 2 10 3 11 4 12 5 13 6 14 7 15 8 7 9 4 10 5 11 29 12
REMARK SMILES IDX 6 13 28 14 30 15 2 16 1 17 3 18 16 19 17 20 18 21 19 24
REMARK SMILES IDX 20 25 27 26 21 27 26 28 22 29 25 30 23 31 24 32
REMARK H PARENT 18 22 18 23 20 33
ROOT
ATOM      1  C   UNL     1      44.273 131.038  22.786  1.00  0.00     0.153 C 
ATOM      2  C   UNL     1      43.385 132.187  23.323  1.00  0.00     0.196 C 
ATOM      3  F   UNL     1      43.772 132.478  24.625  1.00  0.00    -0.245 F 
ATOM      4  C   UNL     1      41.884 131.856  23.298  1.00  0.00     0.024 C 
ATOM      5  C   UNL     1      41.058 132.998  23.902  1.00  0.00     0.011 C 
ATOM      6  C   UNL     1      41.631 130.550  24.056  1.00  0.00     0.028 C 
ATOM      7  C   UNL     1      42.387 129.387  23.415  1.00  0.00     0.124 C 
ATOM      8  N   UNL     1      43.813 129.692  23.207  1.00  0.00    -0.308 N 
ENDROOT
BRANCH   1   9
ATOM      9  C   UNL     1      44.476 131.117  21.278  1.00  0.00    -0.019 A 
ATOM     10  C   UNL     1      44.762 131.217  18.457  1.00  0.00     0.053 A 
ATOM     11  C   UNL     1      45.784 130.695  19.271  1.00  0.00     0.015 A 
ATOM     12  C   UNL     1      43.584 131.685  19.078  1.00  0.00     0.134 A 
ATOM     13  C   UNL     1      45.645 130.650  20.659  1.00  0.00     0.007 A 
ATOM     14  C   UNL     1      43.449 131.630  20.469  1.00  0.00     0.046 A 
ATOM     15  F   UNL     1      42.543 132.170  18.358  1.00  0.00    -0.206 F 
BRANCH  10  16
ATOM     16  C   UNL     1      44.961 131.255  16.980  1.00  0.00     0.162 C 
ATOM     17  C   UNL     1      45.694 132.365  16.290  1.00  0.00     0.093 C 
ATOM     18  O   UNL     1      44.493 130.325  16.268  1.00  0.00    -0.294 OA
ENDBRANCH  10  16
ENDBRANCH   1   9
BRANCH   8  19
ATOM     19  C   UNL     1      44.759 128.595  23.206  1.00  0.00     0.280 C 
ATOM     20  S   UNL     1      45.039 127.749  24.590  1.00  0.00     0.004 S 
BRANCH  19  21
ATOM     21  N   UNL     1      45.491 128.250  22.012  1.00  0.00    -0.191 N 
ATOM     22  H   UNL     1      46.308 128.887  21.886  1.00  0.00     0.366 HD
ATOM     23  H   UNL     1      44.884 128.345  21.166  1.00  0.00     0.366 HD
BRANCH  21  24
ATOM     24  C   UNL     1      45.940 126.892  22.096  1.00  0.00     0.433 A 
ATOM     25  N   UNL     1      47.228 126.516  21.895  1.00  0.00    -0.146 N 
ATOM     26  S   UNL     1      44.951 125.581  22.519  1.00  0.00    -0.000 S 
ATOM     27  C   UNL     1      47.389 125.181  22.076  1.00  0.00     0.227 A 
ATOM     28  C   UNL     1      46.233 124.497  22.426  1.00  0.00     0.111 A 
ATOM     29  C   UNL     1      48.598 124.495  21.933  1.00  0.00     0.081 A 
ATOM     30  C   UNL     1      46.225 123.122  22.640  1.00  0.00     0.026 A 
ATOM     31  C   UNL     1      48.616 123.107  22.150  1.00  0.00     0.007 A 
ATOM     32  C   UNL     1      47.435 122.423  22.499  1.00  0.00     0.002 A 
ATOM     33  H   UNL     1      47.998 127.173  21.638  1.00  0.00     0.461 HD
ENDBRANCH  21  24
ENDBRANCH  19  21
ENDBRANCH   8  19
TORSDOF 5
ENDMDL
MODEL 2
REMARK VINA RESULT:      -3.2      4.866      6.853
REMARK SMILES CC(=O)c1ccc([C@H]2[C@H](F)[C@H](C)CCN2C(=S)[NH2+]c2[nH+]c3ccccc3s2)cc1F
REMARK SMILES IDX 8 1 9 2 10 3 11 4 12 5 13 6 14 7 15 8 7 9 4 10 5 11 29 12
REMARK SMILES IDX 6 13 28 14 30 15 2 16 1 17 3 18 16 19 17 20 18 21 19 24
REMARK SMILES IDX 20 25 27 26 21 27 26 28 22 29 25 30 23 31 24 32
REMARK H PARENT 18 22 18 23 20 33
ROOT
ATOM      1  C   UNL     1      44.856 131.261  21.659  1.00  0.00     0.153 C 
ATOM      2  C   UNL     1      43.886 131.148  22.860  1.00  0.00     0.196 C 
ATOM      3  F   UNL     1      43.321 129.880  22.860  1.00  0.00    -0.245 F 
ATOM      4  C   UNL     1      42.770 132.205  22.841  1.00  0.00     0.024 C 
ATOM      5  C   UNL     1      41.801 132.005  24.013  1.00  0.00     0.011 C 
ATOM      6  C   UNL     1      42.021 132.139  21.507  1.00  0.00     0.028 C 
ATOM      7  C   UNL     1      42.960 132.415  20.335  1.00  0.00     0.124 C 
ATOM      8  N   UNL     1      44.174 131.582  20.381  1.00  0.00    -0.308 N 
ENDROOT
BRANCH   1   9
ATOM      9  C   UNL     1      46.013 132.213  21.934  1.00  0.00    -0.019 A 
ATOM     10  C   UNL     1      48.101 134.061  22.463  1.00  0.00     0.053 A 
ATOM     11  C   UNL     1      48.104 133.279  21.294  1.00  0.00     0.015 A 
ATOM     12  C   UNL     1      47.026 133.909  23.366  1.00  0.00     0.134 A 
ATOM     13  C   UNL     1      47.080 132.366  21.036  1.00  0.00     0.007 A 
ATOM     14  C   UNL     1      46.000 132.999  23.098  1.00  0.00     0.046 A 
ATOM     15  F   UNL     1      46.936 134.653  24.497  1.00  0.00    -0.206 F 
BRANCH  10  16
ATOM     16  C   UNL     1      49.223 135.013  22.701  1.00  0.00     0.162 C 
ATOM     17  C   UNL     1      49.502 136.177  21.799  1.00  0.00     0.093 C 
ATOM     18  O   UNL     1      49.979 134.842  23.696  1.00  0.00    -0.294 OA
ENDBRANCH  10  16
ENDBRANCH   1   9
BRANCH   8  19
ATOM     19  C   UNL     1      44.832 131.254  19.134  1.00  0.00     0.280 C 
ATOM     20  S   UNL     1      46.032 130.127  19.107  1.00  0.00     0.004 S 
BRANCH  19  21
ATOM     21  N   UNL     1      44.476 131.928  17.910  1.00  0.00    -0.191 N 
ATOM     22  H   UNL     1      44.637 132.956  17.996  1.00  0.00     0.366 HD
ATOM     23  H   UNL     1      43.464 131.785  17.689  1.00  0.00     0.366 HD
BRANCH  21  24
ATOM     24  C   UNL     1      45.252 131.404  16.825  1.00  0.00     0.433 A 
ATOM     25  N   UNL     1      45.774 132.175  15.837  1.00  0.00    -0.146 N 
ATOM     26  S   UNL     1      45.683 129.772  16.657  1.00  0.00    -0.000 S 
ATOM     27  C   UNL     1      46.500 131.434  14.962  1.00  0.00     0.227 A 
ATOM     28  C   UNL     1      46.560 130.079  15.256  1.00  0.00     0.111 A 
ATOM     29  C   UNL     1      47.154 131.941  13.837  1.00  0.00     0.081 A 
ATOM     30  C   UNL     1      47.257 129.180  14.453  1.00  0.00     0.026 A 
ATOM     31  C   UNL     1      47.870 131.054  13.015  1.00  0.00     0.007 A 
ATOM     32  C   UNL     1      47.918 129.679  13.319  1.00  0.00     0.002 A 
ATOM     33  H   UNL     1      45.638 133.207  15.763  1.00  0.00     0.461 HD
ENDBRANCH  21  24
ENDBRANCH  19  21
ENDBRANCH   8  19
TORSDOF 5
ENDMDL
MODEL 3
REMARK VINA RESULT:      -2.7      5.113      6.741
REMARK SMILES CC(=O)c1ccc([C@H]2[C@H](F)[C@H](C)CCN2C(=S)[NH2+]c2[nH+]c3ccccc3s2)cc1F
REMARK SMILES IDX 8 1 9 2 10 3 11 4 12 5 13 6 14 7 15 8 7 9 4 10 5 11 29 12
REMARK SMILES IDX 6 13 28 14 30 15 2 16 1 17 3 18 16 19 17 20 18 21 19 24
REMARK SMILES IDX 20 25 27 26 21 27 26 28 22 29 25 30 23 31 24 32
REMARK H PARENT 18 22 18 23 20 33
ROOT
ATOM      1  C   UNL     1      44.300 131.191  21.206  1.00  0.00     0.153 C 
ATOM      2  C   UNL     1      43.345 131.082  22.419  1.00  0.00     0.196 C 
ATOM      3  F   UNL     1      42.665 129.873  22.344  1.00  0.00    -0.245 F 
ATOM      4  C   UNL     1      42.331 132.234  22.500  1.00  0.00     0.024 C 
ATOM      5  C   UNL     1      41.368 132.040  23.678  1.00  0.00     0.011 C 
ATOM      6  C   UNL     1      41.556 132.332  21.183  1.00  0.00     0.028 C 
ATOM      7  C   UNL     1      42.496 132.605  20.011  1.00  0.00     0.124 C 
ATOM      8  N   UNL     1      43.630 131.664  19.970  1.00  0.00    -0.308 N 
ENDROOT
BRANCH   1   9
ATOM      9  C   UNL     1      45.545 132.012  21.519  1.00  0.00    -0.019 A 
ATOM     10  C   UNL     1      47.805 133.625  22.105  1.00  0.00     0.053 A 
ATOM     11  C   UNL     1      47.814 132.733  21.018  1.00  0.00     0.015 A 
ATOM     12  C   UNL     1      46.639 133.705  22.897  1.00  0.00     0.134 A 
ATOM     13  C   UNL     1      46.704 131.937  20.732  1.00  0.00     0.007 A 
ATOM     14  C   UNL     1      45.528 132.909  22.601  1.00  0.00     0.046 A 
ATOM     15  F   UNL     1      46.543 134.566  23.940  1.00  0.00    -0.206 F 
BRANCH  10  16
ATOM     16  C   UNL     1      49.019 134.447  22.378  1.00  0.00     0.162 C 
ATOM     17  C   UNL     1      49.318 135.718  21.642  1.00  0.00     0.093 C 
ATOM     18  O   UNL     1      49.839 134.067  23.257  1.00  0.00    -0.294 OA
ENDBRANCH  10  16
ENDBRANCH   1   9
BRANCH   8  19
ATOM     19  C   UNL     1      44.233 131.368  18.688  1.00  0.00     0.280 C 
ATOM     20  S   UNL     1      43.509 131.879  17.300  1.00  0.00     0.004 S 
BRANCH  19  21
ATOM     21  N   UNL     1      45.448 130.597  18.602  1.00  0.00    -0.191 N 
ATOM     22  H   UNL     1      45.270 129.601  18.857  1.00  0.00     0.366 HD
ATOM     23  H   UNL     1      46.170 130.968  19.263  1.00  0.00     0.366 HD
BRANCH  21  24
ATOM     24  C   UNL     1      45.976 130.672  17.271  1.00  0.00     0.433 A 
ATOM     25  N   UNL     1      46.688 129.672  16.691  1.00  0.00    -0.146 N 
ATOM     26  S   UNL     1      45.733 131.977  16.217  1.00  0.00    -0.000 S 
ATOM     27  C   UNL     1      47.030 129.983  15.416  1.00  0.00     0.227 A 
ATOM     28  C   UNL     1      46.587 131.224  14.980  1.00  0.00     0.111 A 
ATOM     29  C   UNL     1      47.770 129.159  14.564  1.00  0.00     0.081 A 
ATOM     30  C   UNL     1      46.860 131.698  13.700  1.00  0.00     0.026 A 
ATOM     31  C   UNL     1      48.053 129.613  13.264  1.00  0.00     0.007 A 
ATOM     32  C   UNL     1      47.604 130.878  12.836  1.00  0.00     0.002 A 
ATOM     33  H   UNL     1      46.936 128.776  17.166  1.00  0.00     0.461 HD
ENDBRANCH  21  24
ENDBRANCH  19  21
ENDBRANCH   8  19
TORSDOF 5
ENDMDL
MODEL 4
REMARK VINA RESULT:      -2.5      4.378      6.807
REMARK SMILES CC(=O)c1ccc([C@H]2[C@H](F)[C@H](C)CCN2C(=S)[NH2+]c2[nH+]c3ccccc3s2)cc1F
REMARK SMILES IDX 8 1 9 2 10 3 11 4 12 5 13 6 14 7 15 8 7 9 4 10 5 11 29 12
REMARK SMILES IDX 6 13 28 14 30 15 2 16 1 17 3 18 16 19 17 20 18 21 19 24
REMARK SMILES IDX 20 25 27 26 21 27 26 28 22 29 25 30 23 31 24 32
REMARK H PARENT 18 22 18 23 20 33
ROOT
ATOM      1  C   UNL     1      43.716 131.933  21.683  1.00  0.00     0.153 C 
ATOM      2  C   UNL     1      42.496 131.217  22.310  1.00  0.00     0.196 C 
ATOM      3  F   UNL     1      42.048 131.964  23.392  1.00  0.00    -0.245 F 
ATOM      4  C   UNL     1      42.804 129.784  22.772  1.00  0.00     0.024 C 
ATOM      5  C   UNL     1      41.582 129.147  23.446  1.00  0.00     0.011 C 
ATOM      6  C   UNL     1      44.000 129.796  23.728  1.00  0.00     0.028 C 
ATOM      7  C   UNL     1      45.245 130.355  23.043  1.00  0.00     0.124 C 
ATOM      8  N   UNL     1      44.991 131.649  22.386  1.00  0.00    -0.308 N 
ENDROOT
BRANCH   1   9
ATOM      9  C   UNL     1      43.832 131.679  20.185  1.00  0.00    -0.019 A 
ATOM     10  C   UNL     1      44.136 131.255  17.396  1.00  0.00     0.053 A 
ATOM     11  C   UNL     1      42.955 131.811  17.919  1.00  0.00     0.015 A 
ATOM     12  C   UNL     1      45.173 130.918  18.293  1.00  0.00     0.134 A 
ATOM     13  C   UNL     1      42.804 132.016  19.292  1.00  0.00     0.007 A 
ATOM     14  C   UNL     1      45.017 131.132  19.666  1.00  0.00     0.046 A 
ATOM     15  F   UNL     1      46.353 130.410  17.860  1.00  0.00    -0.206 F 
BRANCH  10  16
ATOM     16  C   UNL     1      44.248 131.044  15.924  1.00  0.00     0.162 C 
ATOM     17  C   UNL     1      45.004 129.898  15.325  1.00  0.00     0.093 C 
ATOM     18  O   UNL     1      43.692 131.860  15.138  1.00  0.00    -0.294 OA
ENDBRANCH  10  16
ENDBRANCH   1   9
BRANCH   8  19
ATOM     19  C   UNL     1      46.093 132.577  22.243  1.00  0.00     0.280 C 
ATOM     20  S   UNL     1      47.149 132.413  20.991  1.00  0.00     0.004 S 
BRANCH  19  21
ATOM     21  N   UNL     1      46.304 133.630  23.205  1.00  0.00    -0.191 N 
ATOM     22  H   UNL     1      46.241 133.257  24.177  1.00  0.00     0.366 HD
ATOM     23  H   UNL     1      45.575 134.374  23.105  1.00  0.00     0.366 HD
BRANCH  21  24
ATOM     24  C   UNL     1      47.590 134.228  22.994  1.00  0.00     0.433 A 
ATOM     25  N   UNL     1      47.833 135.165  22.043  1.00  0.00    -0.146 N 
ATOM     26  S   UNL     1      48.962 133.903  23.936  1.00  0.00    -0.000 S 
ATOM     27  C   UNL     1      49.119 135.594  22.086  1.00  0.00     0.227 A 
ATOM     28  C   UNL     1      49.897 135.004  23.073  1.00  0.00     0.111 A 
ATOM     29  C   UNL     1      49.672 136.549  21.230  1.00  0.00     0.081 A 
ATOM     30  C   UNL     1      51.240 135.326  23.247  1.00  0.00     0.026 A 
ATOM     31  C   UNL     1      51.025 136.896  21.390  1.00  0.00     0.007 A 
ATOM     32  C   UNL     1      51.806 136.285  22.391  1.00  0.00     0.002 A 
ATOM     33  H   UNL     1      47.118 135.515  21.367  1.00  0.00     0.461 HD
ENDBRANCH  21  24
ENDBRANCH  19  21
ENDBRANCH   8  19
TORSDOF 5
ENDMDL
MODEL 5
REMARK VINA RESULT:      -2.5      4.964      6.909
REMARK SMILES CC(=O)c1ccc([C@H]2[C@H](F)[C@H](C)CCN2C(=S)[NH2+]c2[nH+]c3ccccc3s2)cc1F
REMARK SMILES IDX 8 1 9 2 10 3 11 4 12 5 13 6 14 7 15 8 7 9 4 10 5 11 29 12
REMARK SMILES IDX 6 13 28 14 30 15 2 16 1 17 3 18 16 19 17 20 18 21 19 24
REMARK SMILES IDX 20 25 27 26 21 27 26 28 22 29 25 30 23 31 24 32
REMARK H PARENT 18 22 18 23 20 33
ROOT
ATOM      1  C   UNL     1      45.317 131.578  21.536  1.00  0.00     0.153 C 
ATOM      2  C   UNL     1      44.505 131.519  22.853  1.00  0.00     0.196 C 
ATOM      3  F   UNL     1      44.143 130.200  23.095  1.00  0.00    -0.245 F 
ATOM      4  C   UNL     1      43.245 132.398  22.829  1.00  0.00     0.024 C 
ATOM      5  C   UNL     1      42.444 132.250  24.129  1.00  0.00     0.011 C 
ATOM      6  C   UNL     1      42.381 132.028  21.620  1.00  0.00     0.028 C 
ATOM      7  C   UNL     1      43.140 132.248  20.314  1.00  0.00     0.124 C 
ATOM      8  N   UNL     1      44.466 131.605  20.321  1.00  0.00    -0.308 N 
ENDROOT
BRANCH   1   9
ATOM      9  C   UNL     1      46.337 132.709  21.533  1.00  0.00    -0.019 A 
ATOM     10  C   UNL     1      48.244 134.808  21.629  1.00  0.00     0.053 A 
ATOM     11  C   UNL     1      47.021 134.971  20.954  1.00  0.00     0.015 A 
ATOM     12  C   UNL     1      48.498 133.574  22.267  1.00  0.00     0.134 A 
ATOM     13  C   UNL     1      46.085 133.937  20.902  1.00  0.00     0.007 A 
ATOM     14  C   UNL     1      47.553 132.545  22.217  1.00  0.00     0.046 A 
ATOM     15  F   UNL     1      49.639 133.356  22.966  1.00  0.00    -0.206 F 
BRANCH  10  16
ATOM     16  C   UNL     1      49.218 135.937  21.647  1.00  0.00     0.162 C 
ATOM     17  C   UNL     1      49.349 136.912  20.517  1.00  0.00     0.093 C 
ATOM     18  O   UNL     1      49.972 136.088  22.647  1.00  0.00    -0.294 OA
ENDBRANCH  10  16
ENDBRANCH   1   9
BRANCH   8  19
ATOM     19  C   UNL     1      45.034 131.183  19.058  1.00  0.00     0.280 C 
ATOM     20  S   UNL     1      46.376 130.231  19.035  1.00  0.00     0.004 S 
BRANCH  19  21
ATOM     21  N   UNL     1      44.460 131.615  17.807  1.00  0.00    -0.191 N 
ATOM     22  H   UNL     1      44.385 132.655  17.778  1.00  0.00     0.366 HD
ATOM     23  H   UNL     1      43.496 131.226  17.688  1.00  0.00     0.366 HD
BRANCH  21  24
ATOM     24  C   UNL     1      45.269 131.154  16.718  1.00  0.00     0.433 A 
ATOM     25  N   UNL     1      45.779 131.975  15.765  1.00  0.00    -0.146 N 
ATOM     26  S   UNL     1      45.758 129.544  16.503  1.00  0.00    -0.000 S 
ATOM     27  C   UNL     1      46.542 131.289  14.877  1.00  0.00     0.227 A 
ATOM     28  C   UNL     1      46.645 129.928  15.127  1.00  0.00     0.111 A 
ATOM     29  C   UNL     1      47.196 131.856  13.780  1.00  0.00     0.081 A 
ATOM     30  C   UNL     1      47.384 129.080  14.306  1.00  0.00     0.026 A 
ATOM     31  C   UNL     1      47.953 131.022  12.941  1.00  0.00     0.007 A 
ATOM     32  C   UNL     1      48.044 129.640  13.200  1.00  0.00     0.002 A 
ATOM     33  H   UNL     1      45.608 133.004  15.724  1.00  0.00     0.461 HD
ENDBRANCH  21  24
ENDBRANCH  19  21
ENDBRANCH   8  19
TORSDOF 5
ENDMDL
MODEL 6
REMARK VINA RESULT:      -2.3      4.436      6.749
REMARK SMILES CC(=O)c1ccc([C@H]2[C@H](F)[C@H](C)CCN2C(=S)[NH2+]c2[nH+]c3ccccc3s2)cc1F
REMARK SMILES IDX 8 1 9 2 10 3 11 4 12 5 13 6 14 7 15 8 7 9 4 10 5 11 29 12
REMARK SMILES IDX 6 13 28 14 30 15 2 16 1 17 3 18 16 19 17 20 18 21 19 24
REMARK SMILES IDX 20 25 27 26 21 27 26 28 22 29 25 30 23 31 24 32
REMARK H PARENT 18 22 18 23 20 33
ROOT
ATOM      1  C   UNL     1      43.947 132.020  21.531  1.00  0.00     0.153 C 
ATOM      2  C   UNL     1      42.673 131.344  22.092  1.00  0.00     0.196 C 
ATOM      3  F   UNL     1      42.140 132.152  23.087  1.00  0.00    -0.245 F 
ATOM      4  C   UNL     1      42.932 129.938  22.659  1.00  0.00     0.024 C 
ATOM      5  C   UNL     1      41.653 129.343  23.262  1.00  0.00     0.011 C 
ATOM      6  C   UNL     1      44.042 130.004  23.711  1.00  0.00     0.028 C 
ATOM      7  C   UNL     1      45.345 130.520  23.103  1.00  0.00     0.124 C 
ATOM      8  N   UNL     1      45.155 131.775  22.355  1.00  0.00    -0.308 N 
ENDROOT
BRANCH   1   9
ATOM      9  C   UNL     1      44.187 131.680  20.065  1.00  0.00    -0.019 A 
ATOM     10  C   UNL     1      44.540 131.007  17.331  1.00  0.00     0.053 A 
ATOM     11  C   UNL     1      45.484 130.622  18.300  1.00  0.00     0.015 A 
ATOM     12  C   UNL     1      43.405 131.732  17.754  1.00  0.00     0.134 A 
ATOM     13  C   UNL     1      45.313 130.957  19.644  1.00  0.00     0.007 A 
ATOM     14  C   UNL     1      43.236 132.058  19.103  1.00  0.00     0.046 A 
ATOM     15  F   UNL     1      42.434 132.107  16.883  1.00  0.00    -0.206 F 
BRANCH  10  16
ATOM     16  C   UNL     1      44.771 130.636  15.905  1.00  0.00     0.162 C 
ATOM     17  C   UNL     1      45.398 129.337  15.498  1.00  0.00     0.093 C 
ATOM     18  O   UNL     1      44.436 131.441  14.994  1.00  0.00    -0.294 OA
ENDBRANCH  10  16
ENDBRANCH   1   9
BRANCH   8  19
ATOM     19  C   UNL     1      46.272 132.691  22.252  1.00  0.00     0.280 C 
ATOM     20  S   UNL     1      47.341 132.551  21.009  1.00  0.00     0.004 S 
BRANCH  19  21
ATOM     21  N   UNL     1      46.485 133.712  23.248  1.00  0.00    -0.191 N 
ATOM     22  H   UNL     1      46.377 133.317  24.208  1.00  0.00     0.366 HD
ATOM     23  H   UNL     1      45.786 134.483  23.144  1.00  0.00     0.366 HD
BRANCH  21  24
ATOM     24  C   UNL     1      47.797 134.270  23.097  1.00  0.00     0.433 A 
ATOM     25  N   UNL     1      48.097 135.242  22.198  1.00  0.00    -0.146 N 
ATOM     26  S   UNL     1      49.133 133.848  24.052  1.00  0.00    -0.000 S 
ATOM     27  C   UNL     1      49.397 135.619  22.292  1.00  0.00     0.227 A 
ATOM     28  C   UNL     1      50.128 134.953  23.266  1.00  0.00     0.111 A 
ATOM     29  C   UNL     1      50.006 136.593  21.497  1.00  0.00     0.081 A 
ATOM     30  C   UNL     1      51.477 135.215  23.485  1.00  0.00     0.026 A 
ATOM     31  C   UNL     1      51.366 136.880  21.704  1.00  0.00     0.007 A 
ATOM     32  C   UNL     1      52.099 136.192  22.691  1.00  0.00     0.002 A 
ATOM     33  H   UNL     1      47.412 135.651  21.524  1.00  0.00     0.461 HD
ENDBRANCH  21  24
ENDBRANCH  19  21
ENDBRANCH   8  19
TORSDOF 5
ENDMDL
MODEL 7
REMARK VINA RESULT:      -2.0      4.920      6.817
REMARK SMILES CC(=O)c1ccc([C@H]2[C@H](F)[C@H](C)CCN2C(=S)[NH2+]c2[nH+]c3ccccc3s2)cc1F
REMARK SMILES IDX 8 1 9 2 10 3 11 4 12 5 13 6 14 7 15 8 7 9 4 10 5 11 29 12
REMARK SMILES IDX 6 13 28 14 30 15 2 16 1 17 3 18 16 19 17 20 18 21 19 24
REMARK SMILES IDX 20 25 27 26 21 27 26 28 22 29 25 30 23 31 24 32
REMARK H PARENT 18 22 18 23 20 33
ROOT
ATOM      1  C   UNL     1      45.394 131.552  21.813  1.00  0.00     0.153 C 
ATOM      2  C   UNL     1      44.689 131.463  23.188  1.00  0.00     0.196 C 
ATOM      3  F   UNL     1      44.410 130.130  23.461  1.00  0.00    -0.245 F 
ATOM      4  C   UNL     1      43.389 132.281  23.259  1.00  0.00     0.024 C 
ATOM      5  C   UNL     1      42.698 132.102  24.616  1.00  0.00     0.011 C 
ATOM      6  C   UNL     1      42.454 131.862  22.120  1.00  0.00     0.028 C 
ATOM      7  C   UNL     1      43.101 132.110  20.759  1.00  0.00     0.124 C 
ATOM      8  N   UNL     1      44.453 131.531  20.667  1.00  0.00    -0.308 N 
ENDROOT
BRANCH   1   9
ATOM      9  C   UNL     1      46.355 132.731  21.729  1.00  0.00    -0.019 A 
ATOM     10  C   UNL     1      48.114 134.957  21.666  1.00  0.00     0.053 A 
ATOM     11  C   UNL     1      47.229 134.703  20.603  1.00  0.00     0.015 A 
ATOM     12  C   UNL     1      48.103 134.079  22.772  1.00  0.00     0.134 A 
ATOM     13  C   UNL     1      46.366 133.606  20.632  1.00  0.00     0.007 A 
ATOM     14  C   UNL     1      47.231 132.986  22.798  1.00  0.00     0.046 A 
ATOM     15  F   UNL     1      48.903 134.279  23.848  1.00  0.00    -0.206 F 
BRANCH  10  16
ATOM     16  C   UNL     1      49.025 136.135  21.585  1.00  0.00     0.162 C 
ATOM     17  C   UNL     1      48.751 137.311  20.698  1.00  0.00     0.093 C 
ATOM     18  O   UNL     1      50.076 136.154  22.283  1.00  0.00    -0.294 OA
ENDBRANCH  10  16
ENDBRANCH   1   9
BRANCH   8  19
ATOM     19  C   UNL     1      44.942 131.130  19.365  1.00  0.00     0.280 C 
ATOM     20  S   UNL     1      46.291 130.194  19.245  1.00  0.00     0.004 S 
BRANCH  19  21
ATOM     21  N   UNL     1      44.283 131.567  18.159  1.00  0.00    -0.191 N 
ATOM     22  H   UNL     1      44.045 132.582  18.218  1.00  0.00     0.366 HD
ATOM     23  H   UNL     1      43.390 131.042  18.013  1.00  0.00     0.366 HD
BRANCH  21  24
ATOM     24  C   UNL     1      45.134 131.332  17.029  1.00  0.00     0.433 A 
ATOM     25  N   UNL     1      45.602 130.104  16.689  1.00  0.00    -0.146 N 
ATOM     26  S   UNL     1      45.620 132.528  15.930  1.00  0.00    -0.000 S 
ATOM     27  C   UNL     1      46.348 130.155  15.557  1.00  0.00     0.227 A 
ATOM     28  C   UNL     1      46.469 131.418  14.995  1.00  0.00     0.111 A 
ATOM     29  C   UNL     1      46.970 129.056  14.960  1.00  0.00     0.081 A 
ATOM     30  C   UNL     1      47.208 131.644  13.837  1.00  0.00     0.026 A 
ATOM     31  C   UNL     1      47.716 129.257  13.786  1.00  0.00     0.007 A 
ATOM     32  C   UNL     1      47.838 130.546  13.229  1.00  0.00     0.002 A 
ATOM     33  H   UNL     1      45.407 129.231  17.227  1.00  0.00     0.461 HD
ENDBRANCH  21  24
ENDBRANCH  19  21
ENDBRANCH   8  19
TORSDOF 5
ENDMDL
MODEL 8
REMARK VINA RESULT:      -1.8      4.751      6.729
REMARK SMILES CC(=O)c1ccc([C@H]2[C@H](F)[C@H](C)CCN2C(=S)[NH2+]c2[nH+]c3ccccc3s2)cc1F
REMARK SMILES IDX 8 1 9 2 10 3 11 4 12 5 13 6 14 7 15 8 7 9 4 10 5 11 29 12
REMARK SMILES IDX 6 13 28 14 30 15 2 16 1 17 3 18 16 19 17 20 18 21 19 24
REMARK SMILES IDX 20 25 27 26 21 27 26 28 22 29 25 30 23 31 24 32
REMARK H PARENT 18 22 18 23 20 33
ROOT
ATOM      1  C   UNL     1      45.099 131.331  21.042  1.00  0.00     0.153 C 
ATOM      2  C   UNL     1      45.008 130.522  22.359  1.00  0.00     0.196 C 
ATOM      3  F   UNL     1      44.689 129.206  22.053  1.00  0.00    -0.245 F 
ATOM      4  C   UNL     1      43.970 131.083  23.344  1.00  0.00     0.024 C 
ATOM      5  C   UNL     1      43.872 130.207  24.599  1.00  0.00     0.011 C 
ATOM      6  C   UNL     1      42.607 131.187  22.654  1.00  0.00     0.028 C 
ATOM      7  C   UNL     1      42.672 132.121  21.447  1.00  0.00     0.124 C 
ATOM      8  N   UNL     1      43.780 131.784  20.536  1.00  0.00    -0.308 N 
ENDROOT
BRANCH   1   9
ATOM      9  C   UNL     1      46.091 132.483  21.136  1.00  0.00    -0.019 A 
ATOM     10  C   UNL     1      47.942 134.616  21.412  1.00  0.00     0.053 A 
ATOM     11  C   UNL     1      46.743 134.785  20.696  1.00  0.00     0.015 A 
ATOM     12  C   UNL     1      48.200 133.358  21.998  1.00  0.00     0.134 A 
ATOM     13  C   UNL     1      45.835 133.735  20.556  1.00  0.00     0.007 A 
ATOM     14  C   UNL     1      47.283 132.312  21.860  1.00  0.00     0.046 A 
ATOM     15  F   UNL     1      49.318 133.130  22.732  1.00  0.00    -0.206 F 
BRANCH  10  16
ATOM     16  C   UNL     1      48.887 135.764  21.525  1.00  0.00     0.162 C 
ATOM     17  C   UNL     1      48.643 137.083  20.857  1.00  0.00     0.093 C 
ATOM     18  O   UNL     1      49.942 135.633  22.204  1.00  0.00    -0.294 OA
ENDBRANCH  10  16
ENDBRANCH   1   9
BRANCH   8  19
ATOM     19  C   UNL     1      43.641 132.110  19.133  1.00  0.00     0.280 C 
ATOM     20  S   UNL     1      42.320 131.597  18.295  1.00  0.00     0.004 S 
BRANCH  19  21
ATOM     21  N   UNL     1      44.665 132.854  18.441  1.00  0.00    -0.191 N 
ATOM     22  H   UNL     1      45.390 133.191  19.111  1.00  0.00     0.366 HD
ATOM     23  H   UNL     1      44.257 133.694  17.969  1.00  0.00     0.366 HD
BRANCH  21  24
ATOM     24  C   UNL     1      45.273 132.025  17.441  1.00  0.00     0.433 A 
ATOM     25  N   UNL     1      45.641 132.480  16.216  1.00  0.00    -0.146 N 
ATOM     26  S   UNL     1      45.677 130.394  17.666  1.00  0.00    -0.000 S 
ATOM     27  C   UNL     1      46.230 131.503  15.482  1.00  0.00     0.227 A 
ATOM     28  C   UNL     1      46.336 130.276  16.123  1.00  0.00     0.111 A 
ATOM     29  C   UNL     1      46.710 131.661  14.180  1.00  0.00     0.081 A 
ATOM     30  C   UNL     1      46.909 129.167  15.506  1.00  0.00     0.026 A 
ATOM     31  C   UNL     1      47.297 130.558  13.538  1.00  0.00     0.007 A 
ATOM     32  C   UNL     1      47.393 129.315  14.197  1.00  0.00     0.002 A 
ATOM     33  H   UNL     1      45.493 133.458  15.884  1.00  0.00     0.461 HD
ENDBRANCH  21  24
ENDBRANCH  19  21
ENDBRANCH   8  19
TORSDOF 5
ENDMDL


