REMARK SMILES C=C1CC[C@@H](Nc2cccc(/N=C(O)/C(C)=C/C)c2O)C[C@H]1F
REMARK SMILES IDX 12 1 13 2 14 3 15 5 16 6 17 7 18 8 11 9 10 10 19 11 9 12
REMARK SMILES IDX 7 13 8 14 20 15 6 17 5 19 4 20 21 21 3 22 22 23 2 24 23 25
REMARK SMILES IDX 1 26
REMARK H PARENT 14 4 20 16 6 18
ROOT
ATOM      1  N   UNL     1      -1.896  -1.175  -0.963  1.00  0.00    -0.210 NA
ENDROOT
BRANCH   1   2
ATOM      2  C   UNL     1      -2.621  -1.595   0.036  1.00  0.00     0.214 C 
BRANCH   2   3
ATOM      3  O   UNL     1      -3.142  -0.704   0.982  1.00  0.00    -0.493 OA
ATOM      4  H   UNL     1      -2.885   0.273   1.024  1.00  0.00     0.295 HD
ENDBRANCH   2   3
BRANCH   2   5
ATOM      5  C   UNL     1      -2.866  -3.053   0.200  1.00  0.00     0.007 C 
ATOM      6  C   UNL     1      -2.398  -4.019  -0.867  1.00  0.00     0.050 C 
BRANCH   5   7
ATOM      7  C   UNL     1      -3.445  -3.507   1.330  1.00  0.00    -0.022 C 
ATOM      8  C   UNL     1      -3.688  -4.960   1.612  1.00  0.00     0.036 C 
ENDBRANCH   5   7
ENDBRANCH   2   5
ENDBRANCH   1   2
BRANCH   1   9
ATOM      9  C   UNL     1      -1.642   0.190  -1.324  1.00  0.00     0.111 A 
ATOM     10  C   UNL     1      -2.702   1.102  -1.457  1.00  0.00     0.032 A 
ATOM     11  C   UNL     1      -0.335   0.590  -1.671  1.00  0.00     0.164 A 
ATOM     12  C   UNL     1      -2.460   2.409  -1.882  1.00  0.00     0.005 A 
ATOM     13  C   UNL     1      -0.090   1.921  -2.068  1.00  0.00     0.079 A 
ATOM     14  C   UNL     1      -1.162   2.817  -2.186  1.00  0.00     0.030 A 
BRANCH  11  15
ATOM     15  O   UNL     1       0.719  -0.326  -1.645  1.00  0.00    -0.504 OA
ATOM     16  H   UNL     1       0.596  -1.292  -1.369  1.00  0.00     0.293 HD
ENDBRANCH  11  15
BRANCH  13  17
ATOM     17  N   UNL     1       1.232   2.367  -2.401  1.00  0.00    -0.379 N 
ATOM     18  H   UNL     1       1.335   3.046  -3.190  1.00  0.00     0.160 HD
BRANCH  17  19
ATOM     19  C   UNL     1       2.363   2.220  -1.480  1.00  0.00     0.082 C 
ATOM     20  C   UNL     1       2.703   3.584  -0.857  1.00  0.00     0.029 C 
ATOM     21  C   UNL     1       3.579   1.666  -2.240  1.00  0.00     0.067 C 
ATOM     22  C   UNL     1       3.886   3.476   0.111  1.00  0.00     0.035 C 
ATOM     23  C   UNL     1       4.793   1.502  -1.317  1.00  0.00     0.194 C 
ATOM     24  C   UNL     1       5.058   2.779  -0.542  1.00  0.00    -0.043 C 
ATOM     25  F   UNL     1       5.888   1.139  -2.086  1.00  0.00    -0.243 F 
ATOM     26  C   UNL     1       6.311   3.174  -0.262  1.00  0.00     0.011 C 
ENDBRANCH  17  19
ENDBRANCH  13  17
ENDBRANCH   1   9
TORSDOF 8


