MODEL 1
REMARK VINA RESULT:     -10.5      0.000      0.000
REMARK SMILES O=C(CCc1c(F)cc2ncccc2c1F)c1ccccc1
REMARK SMILES IDX 3 1 2 2 1 3 17 4 18 5 22 6 19 7 21 8 20 9 4 10 5 11 6 12
REMARK SMILES IDX 15 13 8 14 14 15 9 16 13 17 10 18 12 19 11 20 7 21 16 22
REMARK H PARENT
ROOT
ATOM      1  C   UNL     1      45.265 132.058  16.737  1.00  0.00     0.086 C 
ENDROOT
BRANCH   1   2
ATOM      2  C   UNL     1      45.083 131.482  15.353  1.00  0.00     0.163 C 
ATOM      3  O   UNL     1      43.964 131.635  14.790  1.00  0.00    -0.294 OA
BRANCH   2   4
ATOM      4  C   UNL     1      46.189 130.830  14.599  1.00  0.00     0.017 A 
ATOM      5  C   UNL     1      46.642 129.532  14.915  1.00  0.00     0.012 A 
ATOM      6  C   UNL     1      46.837 131.537  13.568  1.00  0.00     0.012 A 
ATOM      7  C   UNL     1      47.733 128.978  14.239  1.00  0.00     0.001 A 
ATOM      8  C   UNL     1      47.926 130.977  12.895  1.00  0.00     0.001 A 
ATOM      9  C   UNL     1      48.378 129.701  13.234  1.00  0.00     0.000 A 
ENDBRANCH   2   4
ENDBRANCH   1   2
BRANCH   1  10
ATOM     10  C   UNL     1      45.291 130.965  17.819  1.00  0.00     0.050 C 
BRANCH  10  11
ATOM     11  C   UNL     1      44.500 131.363  19.044  1.00  0.00     0.025 A 
ATOM     12  C   UNL     1      43.189 131.856  18.907  1.00  0.00     0.131 A 
ATOM     13  C   UNL     1      45.031 131.156  20.335  1.00  0.00     0.138 A 
ATOM     14  C   UNL     1      42.411 132.121  20.037  1.00  0.00     0.068 A 
ATOM     15  C   UNL     1      44.240 131.403  21.469  1.00  0.00     0.036 A 
ATOM     16  C   UNL     1      42.922 131.887  21.314  1.00  0.00     0.076 A 
ATOM     17  C   UNL     1      44.721 131.160  22.764  1.00  0.00     0.015 A 
ATOM     18  N   UNL     1      42.147 132.114  22.409  1.00  0.00    -0.256 NA
ATOM     19  C   UNL     1      43.900 131.401  23.868  1.00  0.00     0.021 A 
ATOM     20  C   UNL     1      42.605 131.884  23.669  1.00  0.00     0.112 A 
ATOM     21  F   UNL     1      42.653 132.055  17.676  1.00  0.00    -0.207 F 
ATOM     22  F   UNL     1      46.293 130.672  20.480  1.00  0.00    -0.206 F 
ENDBRANCH  10  11
ENDBRANCH   1  10
TORSDOF 4
ENDMDL
MODEL 2
REMARK VINA RESULT:     -10.4      1.129      2.097
REMARK SMILES O=C(CCc1c(F)cc2ncccc2c1F)c1ccccc1
REMARK SMILES IDX 3 1 2 2 1 3 17 4 18 5 22 6 19 7 21 8 20 9 4 10 5 11 6 12
REMARK SMILES IDX 15 13 8 14 14 15 9 16 13 17 10 18 12 19 11 20 7 21 16 22
REMARK H PARENT
ROOT
ATOM      1  C   UNL     1      43.985 130.794  16.177  1.00  0.00     0.086 C 
ENDROOT
BRANCH   1   2
ATOM      2  C   UNL     1      44.461 131.025  14.762  1.00  0.00     0.163 C 
ATOM      3  O   UNL     1      43.725 131.700  13.992  1.00  0.00    -0.294 OA
BRANCH   2   4
ATOM      4  C   UNL     1      45.793 130.571  14.277  1.00  0.00     0.017 A 
ATOM      5  C   UNL     1      46.438 129.440  14.817  1.00  0.00     0.012 A 
ATOM      6  C   UNL     1      46.457 131.313  13.279  1.00  0.00     0.012 A 
ATOM      7  C   UNL     1      47.722 129.084  14.393  1.00  0.00     0.001 A 
ATOM      8  C   UNL     1      47.740 130.952  12.859  1.00  0.00     0.001 A 
ATOM      9  C   UNL     1      48.375 129.842  13.419  1.00  0.00     0.000 A 
ENDBRANCH   2   4
ENDBRANCH   1   2
BRANCH   1  10
ATOM     10  C   UNL     1      44.448 131.906  17.132  1.00  0.00     0.050 C 
BRANCH  10  11
ATOM     11  C   UNL     1      44.456 131.449  18.572  1.00  0.00     0.025 A 
ATOM     12  C   UNL     1      45.513 130.652  19.052  1.00  0.00     0.131 A 
ATOM     13  C   UNL     1      43.462 131.894  19.468  1.00  0.00     0.138 A 
ATOM     14  C   UNL     1      45.588 130.318  20.407  1.00  0.00     0.068 A 
ATOM     15  C   UNL     1      43.550 131.574  20.833  1.00  0.00     0.036 A 
ATOM     16  C   UNL     1      44.623 130.782  21.301  1.00  0.00     0.076 A 
ATOM     17  C   UNL     1      42.605 132.042  21.758  1.00  0.00     0.015 A 
ATOM     18  N   UNL     1      44.720 130.482  22.624  1.00  0.00    -0.256 NA
ATOM     19  C   UNL     1      42.735 131.718  23.110  1.00  0.00     0.021 A 
ATOM     20  C   UNL     1      43.808 130.929  23.528  1.00  0.00     0.112 A 
ATOM     21  F   UNL     1      46.487 130.220  18.211  1.00  0.00    -0.207 F 
ATOM     22  F   UNL     1      42.442 132.672  19.018  1.00  0.00    -0.206 F 
ENDBRANCH  10  11
ENDBRANCH   1  10
TORSDOF 4
ENDMDL
MODEL 3
REMARK VINA RESULT:     -10.4      1.076      2.305
REMARK SMILES O=C(CCc1c(F)cc2ncccc2c1F)c1ccccc1
REMARK SMILES IDX 3 1 2 2 1 3 17 4 18 5 22 6 19 7 21 8 20 9 4 10 5 11 6 12
REMARK SMILES IDX 15 13 8 14 14 15 9 16 13 17 10 18 12 19 11 20 7 21 16 22
REMARK H PARENT
ROOT
ATOM      1  C   UNL     1      44.083 130.849  16.453  1.00  0.00     0.086 C 
ENDROOT
BRANCH   1   2
ATOM      2  C   UNL     1      44.518 131.126  15.033  1.00  0.00     0.163 C 
ATOM      3  O   UNL     1      43.751 131.810  14.302  1.00  0.00    -0.294 OA
BRANCH   2   4
ATOM      4  C   UNL     1      45.844 130.709  14.500  1.00  0.00     0.017 A 
ATOM      5  C   UNL     1      46.516 131.452  13.509  1.00  0.00     0.012 A 
ATOM      6  C   UNL     1      46.431 129.514  14.961  1.00  0.00     0.012 A 
ATOM      7  C   UNL     1      47.723 130.992  12.973  1.00  0.00     0.001 A 
ATOM      8  C   UNL     1      47.638 129.060  14.423  1.00  0.00     0.001 A 
ATOM      9  C   UNL     1      48.281 129.795  13.426  1.00  0.00     0.000 A 
ENDBRANCH   2   4
ENDBRANCH   1   2
BRANCH   1  10
ATOM     10  C   UNL     1      44.579 131.927  17.430  1.00  0.00     0.050 C 
BRANCH  10  11
ATOM     11  C   UNL     1      44.508 131.465  18.868  1.00  0.00     0.025 A 
ATOM     12  C   UNL     1      45.533 130.661  19.400  1.00  0.00     0.131 A 
ATOM     13  C   UNL     1      43.469 131.911  19.711  1.00  0.00     0.138 A 
ATOM     14  C   UNL     1      45.534 130.322  20.755  1.00  0.00     0.068 A 
ATOM     15  C   UNL     1      43.482 131.586  21.078  1.00  0.00     0.036 A 
ATOM     16  C   UNL     1      44.525 130.787  21.598  1.00  0.00     0.076 A 
ATOM     17  C   UNL     1      42.491 132.055  21.952  1.00  0.00     0.015 A 
ATOM     18  N   UNL     1      44.550 130.482  22.924  1.00  0.00    -0.256 NA
ATOM     19  C   UNL     1      42.547 131.726  23.308  1.00  0.00     0.021 A 
ATOM     20  C   UNL     1      43.592 130.929  23.780  1.00  0.00     0.112 A 
ATOM     21  F   UNL     1      46.549 130.227  18.610  1.00  0.00    -0.207 F 
ATOM     22  F   UNL     1      42.478 132.696  19.210  1.00  0.00    -0.206 F 
ENDBRANCH  10  11
ENDBRANCH   1  10
TORSDOF 4
ENDMDL
MODEL 4
REMARK VINA RESULT:     -10.0      0.593      1.201
REMARK SMILES O=C(CCc1c(F)cc2ncccc2c1F)c1ccccc1
REMARK SMILES IDX 3 1 2 2 1 3 17 4 18 5 22 6 19 7 21 8 20 9 4 10 5 11 6 12
REMARK SMILES IDX 15 13 8 14 14 15 9 16 13 17 10 18 12 19 11 20 7 21 16 22
REMARK H PARENT
ROOT
ATOM      1  C   UNL     1      44.023 130.801  16.397  1.00  0.00     0.086 C 
ENDROOT
BRANCH   1   2
ATOM      2  C   UNL     1      44.461 131.027  14.969  1.00  0.00     0.163 C 
ATOM      3  O   UNL     1      43.674 131.643  14.200  1.00  0.00    -0.294 OA
BRANCH   2   4
ATOM      4  C   UNL     1      45.806 130.637  14.468  1.00  0.00     0.017 A 
ATOM      5  C   UNL     1      46.523 131.438  13.556  1.00  0.00     0.012 A 
ATOM      6  C   UNL     1      46.370 129.411  14.875  1.00  0.00     0.012 A 
ATOM      7  C   UNL     1      47.750 131.007  13.043  1.00  0.00     0.001 A 
ATOM      8  C   UNL     1      47.598 128.987  14.361  1.00  0.00     0.001 A 
ATOM      9  C   UNL     1      48.285 129.780  13.442  1.00  0.00     0.000 A 
ENDBRANCH   2   4
ENDBRANCH   1   2
BRANCH   1  10
ATOM     10  C   UNL     1      44.907 131.562  17.400  1.00  0.00     0.050 C 
BRANCH  10  11
ATOM     11  C   UNL     1      44.230 131.727  18.741  1.00  0.00     0.025 A 
ATOM     12  C   UNL     1      42.901 132.186  18.807  1.00  0.00     0.131 A 
ATOM     13  C   UNL     1      44.886 131.333  19.925  1.00  0.00     0.138 A 
ATOM     14  C   UNL     1      42.229 132.235  20.031  1.00  0.00     0.068 A 
ATOM     15  C   UNL     1      44.203 131.363  21.153  1.00  0.00     0.036 A 
ATOM     16  C   UNL     1      42.866 131.817  21.200  1.00  0.00     0.076 A 
ATOM     17  C   UNL     1      44.811 130.932  22.341  1.00  0.00     0.015 A 
ATOM     18  N   UNL     1      42.195 131.834  22.384  1.00  0.00    -0.256 NA
ATOM     19  C   UNL     1      44.095 130.960  23.539  1.00  0.00     0.021 A 
ATOM     20  C   UNL     1      42.777 131.421  23.542  1.00  0.00     0.112 A 
ATOM     21  F   UNL     1      42.245 132.562  17.679  1.00  0.00    -0.207 F 
ATOM     22  F   UNL     1      46.166 130.879  19.873  1.00  0.00    -0.206 F 
ENDBRANCH  10  11
ENDBRANCH   1  10
TORSDOF 4
ENDMDL
MODEL 5
REMARK VINA RESULT:      -9.9      1.398      1.871
REMARK SMILES O=C(CCc1c(F)cc2ncccc2c1F)c1ccccc1
REMARK SMILES IDX 3 1 2 2 1 3 17 4 18 5 22 6 19 7 21 8 20 9 4 10 5 11 6 12
REMARK SMILES IDX 15 13 8 14 14 15 9 16 13 17 10 18 12 19 11 20 7 21 16 22
REMARK H PARENT
ROOT
ATOM      1  C   UNL     1      45.224 130.642  17.804  1.00  0.00     0.086 C 
ENDROOT
BRANCH   1   2
ATOM      2  C   UNL     1      45.065 130.992  16.343  1.00  0.00     0.163 C 
ATOM      3  O   UNL     1      44.028 131.619  15.993  1.00  0.00    -0.294 OA
BRANCH   2   4
ATOM      4  C   UNL     1      46.117 130.710  15.328  1.00  0.00     0.017 A 
ATOM      5  C   UNL     1      46.523 131.678  14.387  1.00  0.00     0.012 A 
ATOM      6  C   UNL     1      46.698 129.428  15.269  1.00  0.00     0.012 A 
ATOM      7  C   UNL     1      47.458 131.358  13.398  1.00  0.00     0.001 A 
ATOM      8  C   UNL     1      47.633 129.115  14.279  1.00  0.00     0.001 A 
ATOM      9  C   UNL     1      48.009 130.077  13.340  1.00  0.00     0.000 A 
ENDBRANCH   2   4
ENDBRANCH   1   2
BRANCH   1  10
ATOM     10  C   UNL     1      45.035 131.867  18.715  1.00  0.00     0.050 C 
BRANCH  10  11
ATOM     11  C   UNL     1      44.435 131.492  20.050  1.00  0.00     0.025 A 
ATOM     12  C   UNL     1      43.257 132.121  20.494  1.00  0.00     0.131 A 
ATOM     13  C   UNL     1      44.994 130.448  20.816  1.00  0.00     0.138 A 
ATOM     14  C   UNL     1      42.632 131.704  21.672  1.00  0.00     0.068 A 
ATOM     15  C   UNL     1      44.354 130.017  21.991  1.00  0.00     0.036 A 
ATOM     16  C   UNL     1      43.166 130.651  22.416  1.00  0.00     0.076 A 
ATOM     17  C   UNL     1      44.857 128.949  22.748  1.00  0.00     0.015 A 
ATOM     18  N   UNL     1      42.535 130.226  23.544  1.00  0.00    -0.256 NA
ATOM     19  C   UNL     1      44.185 128.536  23.900  1.00  0.00     0.021 A 
ATOM     20  C   UNL     1      43.016 129.193  24.287  1.00  0.00     0.112 A 
ATOM     21  F   UNL     1      42.695 133.122  19.768  1.00  0.00    -0.207 F 
ATOM     22  F   UNL     1      46.127 129.828  20.394  1.00  0.00    -0.206 F 
ENDBRANCH  10  11
ENDBRANCH   1  10
TORSDOF 4
ENDMDL
MODEL 6
REMARK VINA RESULT:      -9.4      1.376      2.263
REMARK SMILES O=C(CCc1c(F)cc2ncccc2c1F)c1ccccc1
REMARK SMILES IDX 3 1 2 2 1 3 17 4 18 5 22 6 19 7 21 8 20 9 4 10 5 11 6 12
REMARK SMILES IDX 15 13 8 14 14 15 9 16 13 17 10 18 12 19 11 20 7 21 16 22
REMARK H PARENT
ROOT
ATOM      1  C   UNL     1      44.061 131.060  16.270  1.00  0.00     0.086 C 
ENDROOT
BRANCH   1   2
ATOM      2  C   UNL     1      44.983 129.923  15.897  1.00  0.00     0.163 C 
ATOM      3  O   UNL     1      44.788 128.801  16.438  1.00  0.00    -0.294 OA
BRANCH   2   4
ATOM      4  C   UNL     1      46.040 130.051  14.857  1.00  0.00     0.017 A 
ATOM      5  C   UNL     1      47.103 129.129  14.756  1.00  0.00     0.012 A 
ATOM      6  C   UNL     1      46.013 131.146  13.971  1.00  0.00     0.012 A 
ATOM      7  C   UNL     1      48.122 129.320  13.819  1.00  0.00     0.001 A 
ATOM      8  C   UNL     1      47.034 131.330  13.035  1.00  0.00     0.001 A 
ATOM      9  C   UNL     1      48.091 130.422  12.963  1.00  0.00     0.000 A 
ENDBRANCH   2   4
ENDBRANCH   1   2
BRANCH   1  10
ATOM     10  C   UNL     1      44.709 132.021  17.281  1.00  0.00     0.050 C 
BRANCH  10  11
ATOM     11  C   UNL     1      44.614 131.502  18.697  1.00  0.00     0.025 A 
ATOM     12  C   UNL     1      45.636 130.687  19.219  1.00  0.00     0.131 A 
ATOM     13  C   UNL     1      43.554 131.906  19.535  1.00  0.00     0.138 A 
ATOM     14  C   UNL     1      45.614 130.296  20.560  1.00  0.00     0.068 A 
ATOM     15  C   UNL     1      43.543 131.528  20.888  1.00  0.00     0.036 A 
ATOM     16  C   UNL     1      44.582 130.719  21.399  1.00  0.00     0.076 A 
ATOM     17  C   UNL     1      42.529 131.953  21.760  1.00  0.00     0.015 A 
ATOM     18  N   UNL     1      44.584 130.362  22.712  1.00  0.00    -0.256 NA
ATOM     19  C   UNL     1      42.561 131.572  23.103  1.00  0.00     0.021 A 
ATOM     20  C   UNL     1      43.605 130.767  23.565  1.00  0.00     0.112 A 
ATOM     21  F   UNL     1      46.672 130.294  18.434  1.00  0.00    -0.207 F 
ATOM     22  F   UNL     1      42.565 132.700  19.045  1.00  0.00    -0.206 F 
ENDBRANCH  10  11
ENDBRANCH   1  10
TORSDOF 4
ENDMDL
MODEL 7
REMARK VINA RESULT:      -9.2      1.192      1.656
REMARK SMILES O=C(CCc1c(F)cc2ncccc2c1F)c1ccccc1
REMARK SMILES IDX 3 1 2 2 1 3 17 4 18 5 22 6 19 7 21 8 20 9 4 10 5 11 6 12
REMARK SMILES IDX 15 13 8 14 14 15 9 16 13 17 10 18 12 19 11 20 7 21 16 22
REMARK H PARENT
ROOT
ATOM      1  C   UNL     1      44.166 130.887  15.863  1.00  0.00     0.086 C 
ENDROOT
BRANCH   1   2
ATOM      2  C   UNL     1      45.087 129.777  15.415  1.00  0.00     0.163 C 
ATOM      3  O   UNL     1      44.786 128.593  15.731  1.00  0.00    -0.294 OA
BRANCH   2   4
ATOM      4  C   UNL     1      46.272 130.015  14.546  1.00  0.00     0.017 A 
ATOM      5  C   UNL     1      46.318 131.079  13.623  1.00  0.00     0.012 A 
ATOM      6  C   UNL     1      47.367 129.130  14.608  1.00  0.00     0.012 A 
ATOM      7  C   UNL     1      47.413 131.230  12.766  1.00  0.00     0.001 A 
ATOM      8  C   UNL     1      48.459 129.287  13.751  1.00  0.00     0.001 A 
ATOM      9  C   UNL     1      48.480 130.332  12.827  1.00  0.00     0.000 A 
ENDBRANCH   2   4
ENDBRANCH   1   2
BRANCH   1  10
ATOM     10  C   UNL     1      44.847 131.835  16.863  1.00  0.00     0.050 C 
BRANCH  10  11
ATOM     11  C   UNL     1      44.275 131.697  18.255  1.00  0.00     0.025 A 
ATOM     12  C   UNL     1      42.939 132.063  18.506  1.00  0.00     0.131 A 
ATOM     13  C   UNL     1      45.039 131.114  19.287  1.00  0.00     0.138 A 
ATOM     14  C   UNL     1      42.367 131.834  19.761  1.00  0.00     0.068 A 
ATOM     15  C   UNL     1      44.457 130.867  20.541  1.00  0.00     0.036 A 
ATOM     16  C   UNL     1      43.112 131.230  20.774  1.00  0.00     0.076 A 
ATOM     17  C   UNL     1      45.176 130.244  21.572  1.00  0.00     0.015 A 
ATOM     18  N   UNL     1      42.539 130.979  21.982  1.00  0.00    -0.256 NA
ATOM     19  C   UNL     1      44.558 129.998  22.800  1.00  0.00     0.021 A 
ATOM     20  C   UNL     1      43.228 130.378  22.990  1.00  0.00     0.112 A 
ATOM     21  F   UNL     1      42.180 132.616  17.526  1.00  0.00    -0.207 F 
ATOM     22  F   UNL     1      46.328 130.749  19.053  1.00  0.00    -0.206 F 
ENDBRANCH  10  11
ENDBRANCH   1  10
TORSDOF 4
ENDMDL
MODEL 8
REMARK VINA RESULT:      -9.1      1.270      1.476
REMARK SMILES O=C(CCc1c(F)cc2ncccc2c1F)c1ccccc1
REMARK SMILES IDX 3 1 2 2 1 3 17 4 18 5 22 6 19 7 21 8 20 9 4 10 5 11 6 12
REMARK SMILES IDX 15 13 8 14 14 15 9 16 13 17 10 18 12 19 11 20 7 21 16 22
REMARK H PARENT
ROOT
ATOM      1  C   UNL     1      44.126 130.823  15.796  1.00  0.00     0.086 C 
ENDROOT
BRANCH   1   2
ATOM      2  C   UNL     1      45.172 129.765  15.534  1.00  0.00     0.163 C 
ATOM      3  O   UNL     1      45.047 128.652  16.115  1.00  0.00    -0.294 OA
BRANCH   2   4
ATOM      4  C   UNL     1      46.277 129.950  14.555  1.00  0.00     0.017 A 
ATOM      5  C   UNL     1      47.412 129.113  14.544  1.00  0.00     0.012 A 
ATOM      6  C   UNL     1      46.220 131.018  13.637  1.00  0.00     0.012 A 
ATOM      7  C   UNL     1      48.469 129.360  13.663  1.00  0.00     0.001 A 
ATOM      8  C   UNL     1      47.279 131.260  12.759  1.00  0.00     0.001 A 
ATOM      9  C   UNL     1      48.405 130.436  12.775  1.00  0.00     0.000 A 
ENDBRANCH   2   4
ENDBRANCH   1   2
BRANCH   1  10
ATOM     10  C   UNL     1      44.643 131.927  16.733  1.00  0.00     0.050 C 
BRANCH  10  11
ATOM     11  C   UNL     1      44.148 131.746  18.149  1.00  0.00     0.025 A 
ATOM     12  C   UNL     1      42.828 132.102  18.485  1.00  0.00     0.131 A 
ATOM     13  C   UNL     1      44.967 131.133  19.120  1.00  0.00     0.138 A 
ATOM     14  C   UNL     1      42.325 131.835  19.761  1.00  0.00     0.068 A 
ATOM     15  C   UNL     1      44.454 130.847  20.396  1.00  0.00     0.036 A 
ATOM     16  C   UNL     1      43.124 131.201  20.713  1.00  0.00     0.076 A 
ATOM     17  C   UNL     1      45.228 130.194  21.367  1.00  0.00     0.015 A 
ATOM     18  N   UNL     1      42.619 130.913  21.943  1.00  0.00    -0.256 NA
ATOM     19  C   UNL     1      44.678 129.910  22.619  1.00  0.00     0.021 A 
ATOM     20  C   UNL     1      43.361 130.282  22.892  1.00  0.00     0.112 A 
ATOM     21  F   UNL     1      42.017 132.685  17.565  1.00  0.00    -0.207 F 
ATOM     22  F   UNL     1      46.241 130.776  18.805  1.00  0.00    -0.206 F 
ENDBRANCH  10  11
ENDBRANCH   1  10
TORSDOF 4
ENDMDL
MODEL 9
REMARK VINA RESULT:      -8.8      1.306      1.441
REMARK SMILES O=C(CCc1c(F)cc2ncccc2c1F)c1ccccc1
REMARK SMILES IDX 3 1 2 2 1 3 17 4 18 5 22 6 19 7 21 8 20 9 4 10 5 11 6 12
REMARK SMILES IDX 15 13 8 14 14 15 9 16 13 17 10 18 12 19 11 20 7 21 16 22
REMARK H PARENT
ROOT
ATOM      1  C   UNL     1      44.959 132.090  17.769  1.00  0.00     0.086 C 
ENDROOT
BRANCH   1   2
ATOM      2  C   UNL     1      44.606 131.564  16.398  1.00  0.00     0.163 C 
ATOM      3  O   UNL     1      43.413 131.685  16.007  1.00  0.00    -0.294 OA
BRANCH   2   4
ATOM      4  C   UNL     1      45.620 131.000  15.466  1.00  0.00     0.017 A 
ATOM      5  C   UNL     1      45.888 129.618  15.403  1.00  0.00     0.012 A 
ATOM      6  C   UNL     1      46.370 131.869  14.649  1.00  0.00     0.012 A 
ATOM      7  C   UNL     1      46.900 129.127  14.573  1.00  0.00     0.001 A 
ATOM      8  C   UNL     1      47.380 131.373  13.820  1.00  0.00     0.001 A 
ATOM      9  C   UNL     1      47.649 130.004  13.786  1.00  0.00     0.000 A 
ENDBRANCH   2   4
ENDBRANCH   1   2
BRANCH   1  10
ATOM     10  C   UNL     1      45.445 130.974  18.709  1.00  0.00     0.050 C 
BRANCH  10  11
ATOM     11  C   UNL     1      44.729 131.002  20.040  1.00  0.00     0.025 A 
ATOM     12  C   UNL     1      43.608 131.834  20.219  1.00  0.00     0.131 A 
ATOM     13  C   UNL     1      45.117 130.129  21.077  1.00  0.00     0.138 A 
ATOM     14  C   UNL     1      42.872 131.784  21.406  1.00  0.00     0.068 A 
ATOM     15  C   UNL     1      44.365 130.066  22.262  1.00  0.00     0.036 A 
ATOM     16  C   UNL     1      43.236 130.900  22.422  1.00  0.00     0.076 A 
ATOM     17  C   UNL     1      44.695 129.174  23.293  1.00  0.00     0.015 A 
ATOM     18  N   UNL     1      42.495 130.831  23.561  1.00  0.00    -0.256 NA
ATOM     19  C   UNL     1      43.913 129.126  24.449  1.00  0.00     0.021 A 
ATOM     20  C   UNL     1      42.808 129.971  24.568  1.00  0.00     0.112 A 
ATOM     21  F   UNL     1      43.209 132.675  19.231  1.00  0.00    -0.207 F 
ATOM     22  F   UNL     1      46.193 129.315  20.913  1.00  0.00    -0.206 F 
ENDBRANCH  10  11
ENDBRANCH   1  10
TORSDOF 4
ENDMDL


