REMARK SMILES F[C@@]12CC=N[C@@H]1CC[C@@H](c1cnc3ocnc3c1)[C@H]2Cl
REMARK SMILES IDX 1 1 2 2 3 3 4 4 5 5 6 6 7 7 8 8 9 9 19 10 20 11 10 12 11 13
REMARK SMILES IDX 18 14 12 15 17 16 13 17 16 18 14 19 15 20
REMARK H PARENT
ROOT
ATOM      1  F   UNL     1       0.941  -2.181   0.036  1.00  0.00    -0.239 F 
ATOM      2  C   UNL     1       2.042  -1.346  -0.091  1.00  0.00     0.154 C 
ATOM      3  C   UNL     1       3.295  -2.125   0.359  1.00  0.00     0.092 C 
ATOM      4  C   UNL     1       4.040  -2.329  -0.907  1.00  0.00     0.081 C 
ATOM      5  N   UNL     1       3.506  -1.764  -1.918  1.00  0.00    -0.291 NA
ATOM      6  C   UNL     1       2.294  -1.062  -1.597  1.00  0.00     0.144 C 
ATOM      7  C   UNL     1       2.462   0.432  -1.918  1.00  0.00     0.031 C 
ATOM      8  C   UNL     1       1.251   1.240  -1.432  1.00  0.00     0.012 C 
ATOM      9  C   UNL     1       0.876   0.967   0.057  1.00  0.00     0.042 C 
ATOM     10  C   UNL     1       1.822  -0.058   0.746  1.00  0.00     0.128 C 
ATOM     11  Cl  UNL     1       1.292  -0.456   2.413  1.00  0.00    -0.119 Cl
ENDROOT
BRANCH   9  12
ATOM     12  C   UNL     1      -0.603   0.632   0.232  1.00  0.00    -0.022 A 
ATOM     13  C   UNL     1      -1.254  -0.356  -0.566  1.00  0.00     0.119 A 
ATOM     14  C   UNL     1      -1.353   1.293   1.235  1.00  0.00     0.040 A 
ATOM     15  N   UNL     1      -2.574  -0.656  -0.372  1.00  0.00    -0.219 NA
ATOM     16  C   UNL     1      -2.688   0.942   1.381  1.00  0.00     0.129 A 
ATOM     17  C   UNL     1      -3.256  -0.000   0.596  1.00  0.00     0.246 A 
ATOM     18  N   UNL     1      -3.593   1.420   2.251  1.00  0.00    -0.215 NA
ATOM     19  O   UNL     1      -4.506  -0.149   0.929  1.00  0.00    -0.425 OA
ATOM     20  C   UNL     1      -4.705   0.705   1.923  1.00  0.00     0.311 A 
ENDBRANCH   9  12
TORSDOF 1


