REMARK SMILES C=CCC[C@H](O)Cn1cc(F)cc(N)/c1=N\c1c[n-]c2nccc-2c1
REMARK SMILES IDX 5 1 6 2 7 4 8 5 9 6 15 7 10 8 13 9 12 10 11 11 16 12 17 13
REMARK SMILES IDX 18 14 25 15 19 16 24 17 20 18 23 19 21 20 22 21 14 22 4 25
REMARK SMILES IDX 3 26 2 27 1 28
REMARK H PARENT 6 3 14 23 14 24
ROOT
ATOM      1  C   UNL     1      -0.261   0.028   3.328  1.00  0.00     0.134 C 
ENDROOT
BRANCH   1   2
ATOM      2  O   UNL     1      -1.373  -0.480   4.018  1.00  0.00    -0.391 OA
ATOM      3  H   UNL     1      -1.510   0.101   4.811  1.00  0.00     0.211 HD
ENDBRANCH   1   2
BRANCH   1   4
ATOM      4  C   UNL     1      -0.640   1.322   2.577  1.00  0.00     0.155 C 
BRANCH   4   5
ATOM      5  N   UNL     1      -1.759   1.110   1.632  1.00  0.00    -0.326 N 
ATOM      6  C   UNL     1      -3.032   1.227   2.121  1.00  0.00     0.127 A 
ATOM      7  C   UNL     1      -1.537   0.832   0.297  1.00  0.00     0.156 A 
ATOM      8  C   UNL     1      -4.136   1.048   1.296  1.00  0.00     0.141 A 
ATOM      9  C   UNL     1      -2.653   0.527  -0.539  1.00  0.00     0.078 A 
ATOM     10  C   UNL     1      -3.944   0.688  -0.029  1.00  0.00     0.070 A 
ATOM     11  F   UNL     1      -5.390   1.175   1.795  1.00  0.00    -0.205 F 
BRANCH   7  12
ATOM     12  N   UNL     1      -0.305   0.869  -0.150  1.00  0.00    -0.229 NA
BRANCH  12  13
ATOM     13  C   UNL     1       0.188   0.875  -1.496  1.00  0.00     0.062 A 
ATOM     14  C   UNL     1       1.293   0.046  -1.827  1.00  0.00     0.006 A 
ATOM     15  C   UNL     1      -0.332   1.777  -2.452  1.00  0.00     0.036 A 
ATOM     16  N   UNL     1       1.841   0.056  -3.080  1.00  0.00    -0.440 NA
ATOM     17  C   UNL     1       0.238   1.762  -3.714  1.00  0.00    -0.025 A 
ATOM     18  C   UNL     1       1.322   0.888  -4.011  1.00  0.00    -0.052 A 
ATOM     19  C   UNL     1      -0.001   2.470  -4.863  1.00  0.00     0.003 A 
ATOM     20  N   UNL     1       1.745   1.036  -5.276  1.00  0.00    -0.442 NA
ATOM     21  C   UNL     1       0.933   1.998  -5.789  1.00  0.00    -0.022 A 
ENDBRANCH  12  13
ENDBRANCH   7  12
BRANCH   9  22
ATOM     22  N   UNL     1      -2.517  -0.085  -1.828  1.00  0.00    -0.396 N 
ATOM     23  H   UNL     1      -1.713  -0.714  -2.045  1.00  0.00     0.156 HD
ATOM     24  H   UNL     1      -3.323  -0.102  -2.492  1.00  0.00     0.156 HD
ENDBRANCH   9  22
ENDBRANCH   4   5
ENDBRANCH   1   4
BRANCH   1  25
ATOM     25  C   UNL     1       0.293  -1.049   2.375  1.00  0.00     0.038 C 
BRANCH  25  26
ATOM     26  C   UNL     1       0.816  -2.288   3.117  1.00  0.00     0.029 C 
BRANCH  26  27
ATOM     27  C   UNL     1       2.070  -1.983   3.891  1.00  0.00    -0.035 C 
ATOM     28  C   UNL     1       2.086  -1.952   5.226  1.00  0.00     0.004 C 
ENDBRANCH  26  27
ENDBRANCH  25  26
ENDBRANCH   1  25
TORSDOF 9


