REMARK SMILES Cc1ccc([NH2+]c2ccc([C@@H]3O[C@H]3c3ccccc3)c(N)c2[O-])cc1F
REMARK SMILES IDX 7 1 8 2 9 3 10 4 20 5 22 6 23 7 6 8 5 11 2 12 3 13 25 14
REMARK SMILES IDX 4 15 24 16 1 17 26 18 21 19 11 22 12 23 13 24 14 25 15 26
REMARK SMILES IDX 19 27 16 28 18 29 17 30
REMARK H PARENT 6 9 6 10 21 20 21 21
ROOT
ATOM      1  C   UNL     1       0.104   1.204  -1.516  1.00  0.00     0.128 A 
ATOM      2  C   UNL     1      -0.525   0.055  -2.018  1.00  0.00     0.068 A 
ATOM      3  C   UNL     1      -0.912  -0.973  -1.161  1.00  0.00     0.015 A 
ATOM      4  C   UNL     1      -0.691  -0.876   0.220  1.00  0.00     0.007 A 
ATOM      5  C   UNL     1      -0.028   0.261   0.740  1.00  0.00     0.035 A 
ATOM      6  C   UNL     1       0.357   1.299  -0.132  1.00  0.00    -0.021 A 
ATOM      7  O   UNL     1       0.994   2.426   0.378  1.00  0.00    -0.867 OA
ENDROOT
BRANCH   1   8
ATOM      8  N   UNL     1       0.524   2.247  -2.423  1.00  0.00    -0.282 N 
ATOM      9  H   UNL     1       0.479   3.182  -1.955  1.00  0.00     0.358 HD
ATOM     10  H   UNL     1      -0.129   2.297  -3.240  1.00  0.00     0.358 HD
BRANCH   8  11
ATOM     11  C   UNL     1       1.863   1.981  -2.889  1.00  0.00     0.137 A 
ATOM     12  C   UNL     1       4.482   1.405  -3.761  1.00  0.00    -0.015 A 
ATOM     13  C   UNL     1       3.377   0.844  -4.419  1.00  0.00     0.012 A 
ATOM     14  C   UNL     1       4.272   2.269  -2.675  1.00  0.00     0.132 A 
ATOM     15  C   UNL     1       2.079   1.125  -3.983  1.00  0.00     0.068 A 
ATOM     16  C   UNL     1       2.973   2.550  -2.239  1.00  0.00     0.107 A 
ATOM     17  C   UNL     1       5.876   1.123  -4.244  1.00  0.00     0.047 C 
ATOM     18  F   UNL     1       5.324   2.841  -2.036  1.00  0.00    -0.206 F 
ENDBRANCH   8  11
ENDBRANCH   1   8
BRANCH   5  19
ATOM     19  N   UNL     1       0.268   0.368   2.141  1.00  0.00    -0.399 N 
ATOM     20  H   UNL     1       0.064  -0.406   2.808  1.00  0.00     0.156 HD
ATOM     21  H   UNL     1       0.726   1.220   2.534  1.00  0.00     0.156 HD
ENDBRANCH   5  19
BRANCH   4  22
ATOM     22  C   UNL     1      -1.117  -2.019   1.104  1.00  0.00     0.185 C 
ATOM     23  O   UNL     1      -2.436  -2.424   0.808  1.00  0.00    -0.359 OA
ATOM     24  C   UNL     1      -2.250  -1.751   2.030  1.00  0.00     0.183 C 
BRANCH  24  25
ATOM     25  C   UNL     1      -2.425  -2.696   3.182  1.00  0.00    -0.016 A 
ATOM     26  C   UNL     1      -3.659  -3.336   3.377  1.00  0.00     0.006 A 
ATOM     27  C   UNL     1      -1.384  -2.911   4.101  1.00  0.00     0.006 A 
ATOM     28  C   UNL     1      -3.842  -4.197   4.464  1.00  0.00     0.000 A 
ATOM     29  C   UNL     1      -1.571  -3.773   5.186  1.00  0.00     0.000 A 
ATOM     30  C   UNL     1      -2.798  -4.417   5.367  1.00  0.00     0.000 A 
ENDBRANCH  24  25
ENDBRANCH   4  22
TORSDOF 5


