REMARK SMILES Cn1n[nH+]c2cc(/N=C(\O)c3cc(F)c[nH]3)ccc21
REMARK SMILES IDX 9 1 10 2 8 4 7 5 17 6 6 7 18 8 5 9 19 10 4 11 2 12 3 13 1 15
REMARK SMILES IDX 11 16 12 17 16 18 13 19 15 20 14 22
REMARK H PARENT 10 3 4 14 16 21
ROOT
ATOM      1  C   UNL     1       1.239   0.069  -1.957  1.00  0.00     0.235 C 
ENDROOT
BRANCH   1   2
ATOM      2  O   UNL     1       2.071  -0.195  -0.865  1.00  0.00    -0.492 OA
ATOM      3  H   UNL     1       1.750  -0.655  -0.024  1.00  0.00     0.295 HD
ENDBRANCH   1   2
BRANCH   1   4
ATOM      4  N   UNL     1      -0.052  -0.098  -1.900  1.00  0.00    -0.212 NA
BRANCH   4   5
ATOM      5  C   UNL     1      -0.821  -0.420  -0.733  1.00  0.00     0.072 A 
ATOM      6  C   UNL     1      -1.857  -1.384  -0.841  1.00  0.00     0.033 A 
ATOM      7  C   UNL     1      -0.638   0.286   0.482  1.00  0.00     0.086 A 
ATOM      8  C   UNL     1      -2.676  -1.691   0.264  1.00  0.00     0.061 A 
ATOM      9  C   UNL     1      -1.466  -0.049   1.548  1.00  0.00     0.197 A 
ATOM     10  C   UNL     1      -2.436  -0.997   1.447  1.00  0.00     0.197 A 
ATOM     11  N   UNL     1      -1.510   0.464   2.789  1.00  0.00    -0.143 N 
ATOM     12  N   UNL     1      -3.063  -1.060   2.635  1.00  0.00    -0.133 N 
ATOM     13  N   UNL     1      -2.492  -0.163   3.433  1.00  0.00     0.088 NA
ATOM     14  H   UNL     1      -0.909   1.216   3.192  1.00  0.00     0.342 HD
ATOM     15  C   UNL     1      -4.202  -1.893   3.000  1.00  0.00     0.327 C 
ENDBRANCH   4   5
ENDBRANCH   1   4
BRANCH   1  16
ATOM     16  C   UNL     1       1.850   0.511  -3.220  1.00  0.00     0.104 A 
ATOM     17  C   UNL     1       3.204   0.711  -3.426  1.00  0.00     0.072 A 
ATOM     18  N   UNL     1       1.158   0.781  -4.348  1.00  0.00    -0.355 N 
ATOM     19  C   UNL     1       3.321   1.118  -4.738  1.00  0.00     0.141 A 
ATOM     20  C   UNL     1       2.054   1.153  -5.280  1.00  0.00     0.122 A 
ATOM     21  H   UNL     1       0.124   0.716  -4.481  1.00  0.00     0.166 HD
ATOM     22  F   UNL     1       4.473   1.429  -5.379  1.00  0.00    -0.205 F 
ENDBRANCH   1  16
TORSDOF 4


