REMARK SMILES CC(=O)c1ccc([C@H]2[C@H](F)[C@H](C)CCN2C(=S)[NH2+]c2[nH+]c3ccccc3s2)cc1F
REMARK SMILES IDX 8 1 9 2 10 3 11 4 12 5 13 6 14 7 15 8 7 9 4 10 5 11 29 12
REMARK SMILES IDX 6 13 28 14 30 15 2 16 1 17 3 18 16 19 17 20 18 21 19 24
REMARK SMILES IDX 20 25 27 26 21 27 26 28 22 29 25 30 23 31 24 32
REMARK H PARENT 18 22 18 23 20 33
ROOT
ATOM      1  C   UNL     1       2.732   0.211   0.985  1.00  0.00     0.153 C 
ATOM      2  C   UNL     1       3.650  -0.981   0.628  1.00  0.00     0.196 C 
ATOM      3  F   UNL     1       3.880  -1.754   1.757  1.00  0.00    -0.245 F 
ATOM      4  C   UNL     1       4.986  -0.506   0.010  1.00  0.00     0.024 C 
ATOM      5  C   UNL     1       5.934   0.086   1.071  1.00  0.00     0.011 C 
ATOM      6  C   UNL     1       4.777   0.493  -1.166  1.00  0.00     0.028 C 
ATOM      7  C   UNL     1       3.309   0.877  -1.397  1.00  0.00     0.124 C 
ATOM      8  N   UNL     1       2.665   1.198  -0.114  1.00  0.00    -0.308 N 
ENDROOT
BRANCH   1   9
ATOM      9  C   UNL     1       1.341  -0.273   1.348  1.00  0.00    -0.019 A 
ATOM     10  C   UNL     1      -1.237  -1.215   2.057  1.00  0.00     0.053 A 
ATOM     11  C   UNL     1      -0.426  -0.542   2.992  1.00  0.00     0.015 A 
ATOM     12  C   UNL     1      -0.734  -1.402   0.749  1.00  0.00     0.134 A 
ATOM     13  C   UNL     1       0.845  -0.082   2.644  1.00  0.00     0.007 A 
ATOM     14  C   UNL     1       0.534  -0.924   0.403  1.00  0.00     0.046 A 
ATOM     15  F   UNL     1      -1.450  -2.042  -0.208  1.00  0.00    -0.206 F 
BRANCH  10  16
ATOM     16  C   UNL     1      -2.582  -1.706   2.483  1.00  0.00     0.162 C 
ATOM     17  C   UNL     1      -3.503  -2.461   1.571  1.00  0.00     0.093 C 
ATOM     18  O   UNL     1      -2.975  -1.484   3.662  1.00  0.00    -0.294 OA
ENDBRANCH  10  16
ENDBRANCH   1   9
BRANCH   8  19
ATOM     19  C   UNL     1       2.040   2.489   0.100  1.00  0.00     0.280 C 
ATOM     20  S   UNL     1       2.207   3.252   1.550  1.00  0.00     0.004 S 
BRANCH  19  21
ATOM     21  N   UNL     1       1.216   3.097  -0.914  1.00  0.00    -0.191 N 
ATOM     22  H   UNL     1       1.740   3.206  -1.809  1.00  0.00     0.366 HD
ATOM     23  H   UNL     1       0.913   4.054  -0.618  1.00  0.00     0.366 HD
BRANCH  21  24
ATOM     24  C   UNL     1       0.043   2.301  -1.123  1.00  0.00     0.433 A 
ATOM     25  N   UNL     1      -0.078   1.391  -2.120  1.00  0.00    -0.146 N 
ATOM     26  S   UNL     1      -1.339   2.361  -0.142  1.00  0.00    -0.000 S 
ATOM     27  C   UNL     1      -1.287   0.775  -2.086  1.00  0.00     0.227 A 
ATOM     28  C   UNL     1      -2.121   1.186  -1.056  1.00  0.00     0.111 A 
ATOM     29  C   UNL     1      -1.710  -0.202  -2.991  1.00  0.00     0.081 A 
ATOM     30  C   UNL     1      -3.397   0.657  -0.884  1.00  0.00     0.026 A 
ATOM     31  C   UNL     1      -2.996  -0.750  -2.840  1.00  0.00     0.007 A 
ATOM     32  C   UNL     1      -3.836  -0.320  -1.793  1.00  0.00     0.002 A 
ATOM     33  H   UNL     1       0.662   1.193  -2.830  1.00  0.00     0.461 HD
ENDBRANCH  21  24
ENDBRANCH  19  21
ENDBRANCH   8  19
TORSDOF 5


