REMARK SMILES NCC[C@H]1CC[C@]([S-])(c2cnc3ccnn3c2)CC1
REMARK SMILES IDX 2 1 1 2 3 5 4 6 5 7 19 8 6 9 18 10 7 11 8 12 9 13 10 14
REMARK SMILES IDX 17 15 11 16 16 17 12 18 15 19 13 20 14 21
REMARK H PARENT 1 3 1 4
ROOT
ATOM      1  C   UNL     1      -3.555   2.743  -0.393  1.00  0.00     0.078 C 
ENDROOT
BRANCH   1   2
ATOM      2  N   UNL     1      -4.840   3.286  -0.822  1.00  0.00    -0.330 NA
ATOM      3  H   UNL     1      -4.963   4.216  -0.359  1.00  0.00     0.118 HD
ATOM      4  H   UNL     1      -5.598   2.668  -0.449  1.00  0.00     0.118 HD
ENDBRANCH   1   2
BRANCH   1   5
ATOM      5  C   UNL     1      -3.257   1.437  -1.143  1.00  0.00     0.018 C 
BRANCH   5   6
ATOM      6  C   UNL     1      -1.989   0.720  -0.625  1.00  0.00    -0.010 C 
ATOM      7  C   UNL     1      -0.707   1.500  -0.977  1.00  0.00     0.002 C 
ATOM      8  C   UNL     1      -1.915  -0.699  -1.218  1.00  0.00     0.002 C 
ATOM      9  C   UNL     1       0.546   0.754  -0.492  1.00  0.00    -0.014 C 
ATOM     10  C   UNL     1      -0.660  -1.449  -0.745  1.00  0.00    -0.014 C 
ATOM     11  C   UNL     1       0.659  -0.690  -1.056  1.00  0.00    -0.123 C 
ATOM     12  S   UNL     1       0.912  -0.599  -2.834  1.00  0.00    -0.781 S 
BRANCH  11  13
ATOM     13  C   UNL     1       1.845  -1.471  -0.464  1.00  0.00    -0.029 A 
ATOM     14  C   UNL     1       2.086  -2.813  -0.879  1.00  0.00     0.117 A 
ATOM     15  C   UNL     1       2.751  -0.918   0.478  1.00  0.00     0.119 A 
ATOM     16  N   UNL     1       3.130  -3.533  -0.378  1.00  0.00    -0.237 NA
ATOM     17  N   UNL     1       3.762  -1.694   0.932  1.00  0.00    -0.222 N 
ATOM     18  C   UNL     1       3.947  -2.950   0.527  1.00  0.00     0.154 A 
ATOM     19  N   UNL     1       4.695  -1.356   1.805  1.00  0.00    -0.175 NA
ATOM     20  C   UNL     1       5.047  -3.487   1.149  1.00  0.00     0.071 A 
ATOM     21  C   UNL     1       5.494  -2.442   1.953  1.00  0.00     0.138 A 
ENDBRANCH  11  13
ENDBRANCH   5   6
ENDBRANCH   1   5
TORSDOF 4


