REMARK SMILES CC(C)(C)c1cccc(N/C(O)=N/C(=O)c2ccc(-c3cc(F)cc(F)c3O)cc2)c1
REMARK SMILES IDX 13 1 11 2 10 3 12 5 9 7 8 8 31 9 7 10 5 11 6 12 2 13 1 14
REMARK SMILES IDX 3 15 4 16 14 17 15 18 16 19 17 20 30 21 18 22 29 23 19 24
REMARK SMILES IDX 20 25 21 26 27 27 22 28 25 29 24 30 23 31 26 32 28 33
REMARK H PARENT 10 4 12 6 28 34
ROOT
ATOM      1  N   UNL     1      -0.213   0.063   3.048  1.00  0.00    -0.156 NA
ENDROOT
BRANCH   1   2
ATOM      2  C   UNL     1      -0.516  -1.181   3.280  1.00  0.00     0.294 C 
ATOM      3  N   UNL     1       0.482  -2.085   3.778  1.00  0.00    -0.310 N 
ATOM      4  H   UNL     1       0.154  -2.934   4.291  1.00  0.00     0.171 HD
BRANCH   2   5
ATOM      5  O   UNL     1      -1.821  -1.636   3.100  1.00  0.00    -0.480 OA
ATOM      6  H   UNL     1      -2.068  -2.600   3.286  1.00  0.00     0.296 HD
ENDBRANCH   2   5
BRANCH   3   7
ATOM      7  C   UNL     1       1.899  -1.860   3.670  1.00  0.00     0.043 A 
ATOM      8  C   UNL     1       2.748  -2.339   4.672  1.00  0.00     0.026 A 
ATOM      9  C   UNL     1       2.452  -1.218   2.548  1.00  0.00     0.030 A 
ATOM     10  C   UNL     1       4.125  -2.143   4.579  1.00  0.00     0.002 A 
ATOM     11  C   UNL     1       3.844  -1.001   2.435  1.00  0.00    -0.041 A 
ATOM     12  C   UNL     1       4.671  -1.479   3.479  1.00  0.00     0.004 A 
BRANCH  11  13
ATOM     13  C   UNL     1       4.401  -0.276   1.192  1.00  0.00    -0.013 C 
ATOM     14  C   UNL     1       4.069  -1.096  -0.073  1.00  0.00     0.016 C 
ATOM     15  C   UNL     1       3.759   1.124   1.080  1.00  0.00     0.016 C 
ATOM     16  C   UNL     1       5.936  -0.084   1.240  1.00  0.00     0.016 C 
ENDBRANCH  11  13
ENDBRANCH   3   7
ENDBRANCH   1   2
BRANCH   1  17
ATOM     17  C   UNL     1      -1.106   1.043   2.500  1.00  0.00     0.281 C 
ATOM     18  O   UNL     1      -1.082   2.211   2.973  1.00  0.00    -0.267 OA
BRANCH  17  19
ATOM     19  C   UNL     1      -2.001   0.740   1.358  1.00  0.00     0.042 A 
ATOM     20  C   UNL     1      -3.198   1.454   1.190  1.00  0.00     0.014 A 
ATOM     21  C   UNL     1      -1.645  -0.229   0.405  1.00  0.00     0.014 A 
ATOM     22  C   UNL     1      -4.039   1.184   0.106  1.00  0.00     0.010 A 
ATOM     23  C   UNL     1      -2.485  -0.499  -0.679  1.00  0.00     0.010 A 
ATOM     24  C   UNL     1      -3.695   0.198  -0.833  1.00  0.00    -0.014 A 
BRANCH  24  25
ATOM     25  C   UNL     1      -4.580  -0.085  -1.989  1.00  0.00     0.029 A 
ATOM     26  C   UNL     1      -4.037  -0.124  -3.286  1.00  0.00     0.052 A 
ATOM     27  C   UNL     1      -5.960  -0.323  -1.812  1.00  0.00     0.159 A 
ATOM     28  C   UNL     1      -4.854  -0.378  -4.390  1.00  0.00     0.127 A 
ATOM     29  C   UNL     1      -6.774  -0.574  -2.930  1.00  0.00     0.168 A 
ATOM     30  C   UNL     1      -6.220  -0.600  -4.212  1.00  0.00     0.082 A 
ATOM     31  F   UNL     1      -4.320  -0.405  -5.636  1.00  0.00    -0.207 F 
ATOM     32  F   UNL     1      -8.103  -0.801  -2.776  1.00  0.00    -0.203 F 
BRANCH  27  33
ATOM     33  O   UNL     1      -6.511  -0.330  -0.530  1.00  0.00    -0.504 OA
ATOM     34  H   UNL     1      -7.496  -0.502  -0.369  1.00  0.00     0.293 HD
ENDBRANCH  27  33
ENDBRANCH  24  25
ENDBRANCH  17  19
ENDBRANCH   1  17
TORSDOF 8


