MODEL 1
REMARK VINA RESULT:      -6.4      0.000      0.000
REMARK SMILES Cc1ccc([C@H]2CC[C@@H](N)[C@@]3(C=O)CC=N[C@@H]23)cc1F
REMARK SMILES IDX 6 1 7 2 8 3 9 4 11 5 14 6 15 7 16 8 17 9 5 10 2 11 3 12
REMARK SMILES IDX 19 13 4 14 18 15 1 16 20 17 12 18 13 19 10 20
REMARK H PARENT 10 21 10 22
ROOT
ATOM      1  C   UNL     1      44.544 131.794  17.874  1.00  0.00     0.045 C 
ATOM      2  C   UNL     1      43.200 131.061  18.001  1.00  0.00     0.012 C 
ATOM      3  C   UNL     1      42.357 131.593  19.174  1.00  0.00     0.020 C 
ATOM      4  C   UNL     1      43.156 132.380  20.248  1.00  0.00     0.066 C 
ATOM      5  C   UNL     1      44.603 131.818  20.483  1.00  0.00     0.069 C 
ATOM      6  C   UNL     1      44.569 130.409  21.132  1.00  0.00     0.066 C 
ATOM      7  C   UNL     1      45.475 129.616  20.267  1.00  0.00     0.079 C 
ATOM      8  N   UNL     1      45.890 130.245  19.237  1.00  0.00    -0.292 NA
ATOM      9  C   UNL     1      45.398 131.595  19.150  1.00  0.00     0.127 C 
ENDROOT
BRANCH   1  10
ATOM     10  C   UNL     1      45.310 131.418  16.613  1.00  0.00    -0.040 A 
ATOM     11  C   UNL     1      46.791 130.778  14.295  1.00  0.00    -0.015 A 
ATOM     12  C   UNL     1      46.624 132.114  14.683  1.00  0.00     0.007 A 
ATOM     13  C   UNL     1      46.242 129.758  15.088  1.00  0.00     0.126 A 
ATOM     14  C   UNL     1      45.892 132.431  15.831  1.00  0.00     0.004 A 
ATOM     15  C   UNL     1      45.509 130.075  16.236  1.00  0.00     0.043 A 
ATOM     16  C   UNL     1      47.604 130.437  13.080  1.00  0.00     0.047 C 
ATOM     17  F   UNL     1      46.422 128.455  14.756  1.00  0.00    -0.207 F 
ENDBRANCH   1  10
BRANCH   5  18
ATOM     18  C   UNL     1      45.393 132.777  21.364  1.00  0.00     0.235 C 
ATOM     19  O   UNL     1      46.611 132.833  21.291  1.00  0.00    -0.303 OA
ENDBRANCH   5  18
BRANCH   4  20
ATOM     20  N   UNL     1      42.388 132.400  21.499  1.00  0.00    -0.327 NA
ATOM     21  H   UNL     1      43.035 132.651  22.283  1.00  0.00     0.119 HD
ATOM     22  H   UNL     1      42.052 131.435  21.716  1.00  0.00     0.119 HD
ENDBRANCH   4  20
TORSDOF 3
ENDMDL
MODEL 2
REMARK VINA RESULT:      -5.9      1.871      2.801
REMARK SMILES Cc1ccc([C@H]2CC[C@@H](N)[C@@]3(C=O)CC=N[C@@H]23)cc1F
REMARK SMILES IDX 6 1 7 2 8 3 9 4 11 5 14 6 15 7 16 8 17 9 5 10 2 11 3 12
REMARK SMILES IDX 19 13 4 14 18 15 1 16 20 17 12 18 13 19 10 20
REMARK H PARENT 10 21 10 22
ROOT
ATOM      1  C   UNL     1      45.186 131.115  19.529  1.00  0.00     0.045 C 
ATOM      2  C   UNL     1      45.749 132.418  20.118  1.00  0.00     0.012 C 
ATOM      3  C   UNL     1      45.741 132.409  21.658  1.00  0.00     0.020 C 
ATOM      4  C   UNL     1      44.784 131.369  22.300  1.00  0.00     0.066 C 
ATOM      5  C   UNL     1      43.459 131.156  21.486  1.00  0.00     0.069 C 
ATOM      6  C   UNL     1      42.561 132.421  21.514  1.00  0.00     0.066 C 
ATOM      7  C   UNL     1      42.233 132.637  20.084  1.00  0.00     0.079 C 
ATOM      8  N   UNL     1      42.847 131.850  19.288  1.00  0.00    -0.292 NA
ATOM      9  C   UNL     1      43.712 130.913  19.957  1.00  0.00     0.127 C 
ENDROOT
BRANCH   1  10
ATOM     10  C   UNL     1      45.357 131.023  18.019  1.00  0.00    -0.040 A 
ATOM     11  C   UNL     1      45.731 130.919  15.221  1.00  0.00    -0.015 A 
ATOM     12  C   UNL     1      45.584 132.152  15.872  1.00  0.00     0.007 A 
ATOM     13  C   UNL     1      45.723 129.737  15.979  1.00  0.00     0.126 A 
ATOM     14  C   UNL     1      45.399 132.203  17.256  1.00  0.00     0.004 A 
ATOM     15  C   UNL     1      45.539 129.789  17.364  1.00  0.00     0.043 A 
ATOM     16  C   UNL     1      45.960 130.866  13.739  1.00  0.00     0.047 C 
ATOM     17  F   UNL     1      45.902 128.533  15.379  1.00  0.00    -0.207 F 
ENDBRANCH   1  10
BRANCH   5  18
ATOM     18  C   UNL     1      42.694 129.963  22.045  1.00  0.00     0.235 C 
ATOM     19  O   UNL     1      43.165 129.286  22.946  1.00  0.00    -0.303 OA
ENDBRANCH   5  18
BRANCH   4  20
ATOM     20  N   UNL     1      44.493 131.772  23.682  1.00  0.00    -0.327 NA
ATOM     21  H   UNL     1      43.811 132.565  23.661  1.00  0.00     0.119 HD
ATOM     22  H   UNL     1      45.359 132.162  24.119  1.00  0.00     0.119 HD
ENDBRANCH   4  20
TORSDOF 3
ENDMDL
MODEL 3
REMARK VINA RESULT:      -5.8      1.038      1.494
REMARK SMILES Cc1ccc([C@H]2CC[C@@H](N)[C@@]3(C=O)CC=N[C@@H]23)cc1F
REMARK SMILES IDX 6 1 7 2 8 3 9 4 11 5 14 6 15 7 16 8 17 9 5 10 2 11 3 12
REMARK SMILES IDX 19 13 4 14 18 15 1 16 20 17 12 18 13 19 10 20
REMARK H PARENT 10 21 10 22
ROOT
ATOM      1  C   UNL     1      44.709 131.637  17.723  1.00  0.00     0.045 C 
ATOM      2  C   UNL     1      43.327 130.969  17.784  1.00  0.00     0.012 C 
ATOM      3  C   UNL     1      42.401 131.646  18.812  1.00  0.00     0.020 C 
ATOM      4  C   UNL     1      43.128 132.506  19.879  1.00  0.00     0.066 C 
ATOM      5  C   UNL     1      44.518 131.919  20.311  1.00  0.00     0.069 C 
ATOM      6  C   UNL     1      44.358 130.584  21.085  1.00  0.00     0.066 C 
ATOM      7  C   UNL     1      45.306 129.676  20.395  1.00  0.00     0.079 C 
ATOM      8  N   UNL     1      45.846 130.184  19.356  1.00  0.00    -0.292 NA
ATOM      9  C   UNL     1      45.427 131.536  19.091  1.00  0.00     0.127 C 
ENDROOT
BRANCH   1  10
ATOM     10  C   UNL     1      45.575 131.109  16.587  1.00  0.00    -0.040 A 
ATOM     11  C   UNL     1      47.120 130.070  14.464  1.00  0.00    -0.015 A 
ATOM     12  C   UNL     1      46.496 129.207  15.376  1.00  0.00     0.007 A 
ATOM     13  C   UNL     1      46.944 131.456  14.598  1.00  0.00     0.126 A 
ATOM     14  C   UNL     1      45.730 129.722  16.426  1.00  0.00     0.004 A 
ATOM     15  C   UNL     1      46.178 131.970  15.649  1.00  0.00     0.043 A 
ATOM     16  C   UNL     1      47.916 129.516  13.319  1.00  0.00     0.047 C 
ATOM     17  F   UNL     1      47.506 132.311  13.707  1.00  0.00    -0.207 F 
ENDBRANCH   1  10
BRANCH   5  18
ATOM     18  C   UNL     1      45.263 132.932  21.170  1.00  0.00     0.235 C 
ATOM     19  O   UNL     1      46.482 132.905  21.253  1.00  0.00    -0.303 OA
ENDBRANCH   5  18
BRANCH   4  20
ATOM     20  N   UNL     1      42.245 132.679  21.040  1.00  0.00    -0.327 NA
ATOM     21  H   UNL     1      41.761 133.602  20.955  1.00  0.00     0.119 HD
ATOM     22  H   UNL     1      42.823 132.747  21.908  1.00  0.00     0.119 HD
ENDBRANCH   4  20
TORSDOF 3
ENDMDL
MODEL 4
REMARK VINA RESULT:      -5.7      2.237      3.262
REMARK SMILES Cc1ccc([C@H]2CC[C@@H](N)[C@@]3(C=O)CC=N[C@@H]23)cc1F
REMARK SMILES IDX 6 1 7 2 8 3 9 4 11 5 14 6 15 7 16 8 17 9 5 10 2 11 3 12
REMARK SMILES IDX 19 13 4 14 18 15 1 16 20 17 12 18 13 19 10 20
REMARK H PARENT 10 21 10 22
ROOT
ATOM      1  C   UNL     1      44.999 131.116  19.726  1.00  0.00     0.045 C 
ATOM      2  C   UNL     1      45.602 132.402  20.312  1.00  0.00     0.012 C 
ATOM      3  C   UNL     1      45.646 132.373  21.851  1.00  0.00     0.020 C 
ATOM      4  C   UNL     1      44.695 131.339  22.512  1.00  0.00     0.066 C 
ATOM      5  C   UNL     1      43.340 131.157  21.740  1.00  0.00     0.069 C 
ATOM      6  C   UNL     1      42.464 132.436  21.816  1.00  0.00     0.066 C 
ATOM      7  C   UNL     1      42.091 132.676  20.401  1.00  0.00     0.079 C 
ATOM      8  N   UNL     1      42.665 131.891  19.574  1.00  0.00    -0.292 NA
ATOM      9  C   UNL     1      43.537 130.931  20.201  1.00  0.00     0.127 C 
ENDROOT
BRANCH   1  10
ATOM     10  C   UNL     1      45.117 131.042  18.210  1.00  0.00    -0.040 A 
ATOM     11  C   UNL     1      45.360 130.822  15.404  1.00  0.00    -0.015 A 
ATOM     12  C   UNL     1      46.319 130.243  16.247  1.00  0.00     0.007 A 
ATOM     13  C   UNL     1      44.260 131.485  15.969  1.00  0.00     0.126 A 
ATOM     14  C   UNL     1      46.199 130.351  17.635  1.00  0.00     0.004 A 
ATOM     15  C   UNL     1      44.139 131.594  17.358  1.00  0.00     0.043 A 
ATOM     16  C   UNL     1      45.473 130.678  13.915  1.00  0.00     0.047 C 
ATOM     17  F   UNL     1      43.297 132.021  15.177  1.00  0.00    -0.207 F 
ENDBRANCH   1  10
BRANCH   5  18
ATOM     18  C   UNL     1      42.576 129.969  22.310  1.00  0.00     0.235 C 
ATOM     19  O   UNL     1      43.056 129.288  23.203  1.00  0.00    -0.303 OA
ENDBRANCH   5  18
BRANCH   4  20
ATOM     20  N   UNL     1      44.458 131.727  23.908  1.00  0.00    -0.327 NA
ATOM     21  H   UNL     1      45.030 131.108  24.527  1.00  0.00     0.119 HD
ATOM     22  H   UNL     1      43.464 131.529  24.160  1.00  0.00     0.119 HD
ENDBRANCH   4  20
TORSDOF 3
ENDMDL
MODEL 5
REMARK VINA RESULT:      -5.6      3.303      6.372
REMARK SMILES Cc1ccc([C@H]2CC[C@@H](N)[C@@]3(C=O)CC=N[C@@H]23)cc1F
REMARK SMILES IDX 6 1 7 2 8 3 9 4 11 5 14 6 15 7 16 8 17 9 5 10 2 11 3 12
REMARK SMILES IDX 19 13 4 14 18 15 1 16 20 17 12 18 13 19 10 20
REMARK H PARENT 10 21 10 22
ROOT
ATOM      1  C   UNL     1      45.443 130.742  17.086  1.00  0.00     0.045 C 
ATOM      2  C   UNL     1      45.095 129.295  16.703  1.00  0.00     0.012 C 
ATOM      3  C   UNL     1      46.151 128.671  15.771  1.00  0.00     0.020 C 
ATOM      4  C   UNL     1      47.059 129.694  15.037  1.00  0.00     0.066 C 
ATOM      5  C   UNL     1      46.313 131.017  14.640  1.00  0.00     0.069 C 
ATOM      6  C   UNL     1      45.238 130.761  13.551  1.00  0.00     0.066 C 
ATOM      7  C   UNL     1      44.031 131.421  14.105  1.00  0.00     0.079 C 
ATOM      8  N   UNL     1      44.182 131.865  15.292  1.00  0.00    -0.292 NA
ATOM      9  C   UNL     1      45.500 131.641  15.827  1.00  0.00     0.127 C 
ENDROOT
BRANCH   1  10
ATOM     10  C   UNL     1      44.519 131.314  18.152  1.00  0.00    -0.040 A 
ATOM     11  C   UNL     1      42.739 132.326  20.098  1.00  0.00    -0.015 A 
ATOM     12  C   UNL     1      42.328 132.184  18.765  1.00  0.00     0.007 A 
ATOM     13  C   UNL     1      44.036 131.929  20.462  1.00  0.00     0.126 A 
ATOM     14  C   UNL     1      43.208 131.683  17.802  1.00  0.00     0.004 A 
ATOM     15  C   UNL     1      44.916 131.427  19.499  1.00  0.00     0.043 A 
ATOM     16  C   UNL     1      41.784 132.835  21.137  1.00  0.00     0.047 C 
ATOM     17  F   UNL     1      44.447 132.020  21.753  1.00  0.00    -0.207 F 
ENDBRANCH   1  10
BRANCH   5  18
ATOM     18  C   UNL     1      47.319 132.049  14.147  1.00  0.00     0.235 C 
ATOM     19  O   UNL     1      48.053 131.803  13.201  1.00  0.00    -0.303 OA
ENDBRANCH   5  18
BRANCH   4  20
ATOM     20  N   UNL     1      47.653 129.049  13.859  1.00  0.00    -0.327 NA
ATOM     21  H   UNL     1      46.920 128.975  13.116  1.00  0.00     0.119 HD
ATOM     22  H   UNL     1      47.910 128.064  14.094  1.00  0.00     0.119 HD
ENDBRANCH   4  20
TORSDOF 3
ENDMDL
MODEL 6
REMARK VINA RESULT:      -5.3      3.173      6.328
REMARK SMILES Cc1ccc([C@H]2CC[C@@H](N)[C@@]3(C=O)CC=N[C@@H]23)cc1F
REMARK SMILES IDX 6 1 7 2 8 3 9 4 11 5 14 6 15 7 16 8 17 9 5 10 2 11 3 12
REMARK SMILES IDX 19 13 4 14 18 15 1 16 20 17 12 18 13 19 10 20
REMARK H PARENT 10 21 10 22
ROOT
ATOM      1  C   UNL     1      45.742 130.531  17.369  1.00  0.00     0.045 C 
ATOM      2  C   UNL     1      45.335 129.143  16.852  1.00  0.00     0.012 C 
ATOM      3  C   UNL     1      46.213 128.681  15.675  1.00  0.00     0.020 C 
ATOM      4  C   UNL     1      46.980 129.818  14.948  1.00  0.00     0.066 C 
ATOM      5  C   UNL     1      46.176 131.164  14.874  1.00  0.00     0.069 C 
ATOM      6  C   UNL     1      44.928 131.034  13.960  1.00  0.00     0.066 C 
ATOM      7  C   UNL     1      43.835 131.580  14.800  1.00  0.00     0.079 C 
ATOM      8  N   UNL     1      44.189 131.860  15.993  1.00  0.00    -0.292 NA
ATOM      9  C   UNL     1      45.580 131.597  16.258  1.00  0.00     0.127 C 
ENDROOT
BRANCH   1  10
ATOM     10  C   UNL     1      45.016 130.927  18.647  1.00  0.00    -0.040 A 
ATOM     11  C   UNL     1      43.744 131.685  21.052  1.00  0.00    -0.015 A 
ATOM     12  C   UNL     1      44.962 130.992  21.082  1.00  0.00     0.007 A 
ATOM     13  C   UNL     1      43.177 132.027  19.814  1.00  0.00     0.126 A 
ATOM     14  C   UNL     1      45.592 130.618  19.892  1.00  0.00     0.004 A 
ATOM     15  C   UNL     1      43.808 131.652  18.623  1.00  0.00     0.043 A 
ATOM     16  C   UNL     1      43.084 132.114  22.330  1.00  0.00     0.047 C 
ATOM     17  F   UNL     1      42.018 132.730  19.757  1.00  0.00    -0.207 F 
ENDBRANCH   1  10
BRANCH   5  18
ATOM     18  C   UNL     1      47.080 132.279  14.365  1.00  0.00     0.235 C 
ATOM     19  O   UNL     1      47.905 132.064  13.491  1.00  0.00    -0.303 OA
ENDBRANCH   5  18
BRANCH   4  20
ATOM     20  N   UNL     1      47.362 129.358  13.606  1.00  0.00    -0.327 NA
ATOM     21  H   UNL     1      46.495 129.263  13.028  1.00  0.00     0.119 HD
ATOM     22  H   UNL     1      47.759 128.393  13.670  1.00  0.00     0.119 HD
ENDBRANCH   4  20
TORSDOF 3
ENDMDL
MODEL 7
REMARK VINA RESULT:      -4.9      1.334      1.434
REMARK SMILES Cc1ccc([C@H]2CC[C@@H](N)[C@@]3(C=O)CC=N[C@@H]23)cc1F
REMARK SMILES IDX 6 1 7 2 8 3 9 4 11 5 14 6 15 7 16 8 17 9 5 10 2 11 3 12
REMARK SMILES IDX 19 13 4 14 18 15 1 16 20 17 12 18 13 19 10 20
REMARK H PARENT 10 21 10 22
ROOT
ATOM      1  C   UNL     1      44.141 131.905  18.439  1.00  0.00     0.045 C 
ATOM      2  C   UNL     1      42.842 131.132  18.714  1.00  0.00     0.012 C 
ATOM      3  C   UNL     1      42.205 131.527  20.059  1.00  0.00     0.020 C 
ATOM      4  C   UNL     1      43.167 132.224  21.057  1.00  0.00     0.066 C 
ATOM      5  C   UNL     1      44.637 131.677  20.991  1.00  0.00     0.069 C 
ATOM      6  C   UNL     1      44.722 130.211  21.492  1.00  0.00     0.066 C 
ATOM      7  C   UNL     1      45.476 129.527  20.414  1.00  0.00     0.079 C 
ATOM      8  N   UNL     1      45.707 130.263  19.397  1.00  0.00    -0.292 NA
ATOM      9  C   UNL     1      45.198 131.603  19.528  1.00  0.00     0.127 C 
ENDROOT
BRANCH   1  10
ATOM     10  C   UNL     1      44.686 131.672  17.037  1.00  0.00    -0.040 A 
ATOM     11  C   UNL     1      45.750 131.176  14.468  1.00  0.00    -0.015 A 
ATOM     12  C   UNL     1      46.592 131.226  15.587  1.00  0.00     0.007 A 
ATOM     13  C   UNL     1      44.366 131.344  14.641  1.00  0.00     0.126 A 
ATOM     14  C   UNL     1      46.066 131.470  16.858  1.00  0.00     0.004 A 
ATOM     15  C   UNL     1      43.840 131.588  15.913  1.00  0.00     0.043 A 
ATOM     16  C   UNL     1      46.312 130.882  13.107  1.00  0.00     0.047 C 
ATOM     17  F   UNL     1      43.525 131.262  13.580  1.00  0.00    -0.207 F 
ENDBRANCH   1  10
BRANCH   5  18
ATOM     18  C   UNL     1      45.557 132.564  21.819  1.00  0.00     0.235 C 
ATOM     19  O   UNL     1      46.615 132.967  21.361  1.00  0.00    -0.303 OA
ENDBRANCH   5  18
BRANCH   4  20
ATOM     20  N   UNL     1      42.620 132.104  22.415  1.00  0.00    -0.327 NA
ATOM     21  H   UNL     1      42.921 131.185  22.815  1.00  0.00     0.119 HD
ATOM     22  H   UNL     1      41.577 132.057  22.366  1.00  0.00     0.119 HD
ENDBRANCH   4  20
TORSDOF 3
ENDMDL
MODEL 8
REMARK VINA RESULT:      -4.5      6.098      8.585
REMARK SMILES Cc1ccc([C@H]2CC[C@@H](N)[C@@]3(C=O)CC=N[C@@H]23)cc1F
REMARK SMILES IDX 6 1 7 2 8 3 9 4 11 5 14 6 15 7 16 8 17 9 5 10 2 11 3 12
REMARK SMILES IDX 19 13 4 14 18 15 1 16 20 17 12 18 13 19 10 20
REMARK H PARENT 10 21 10 22
ROOT
ATOM      1  C   UNL     1      45.098 126.557  22.481  1.00  0.00     0.045 C 
ATOM      2  C   UNL     1      46.332 126.014  23.219  1.00  0.00     0.012 C 
ATOM      3  C   UNL     1      46.778 124.646  22.673  1.00  0.00     0.020 C 
ATOM      4  C   UNL     1      45.695 123.880  21.866  1.00  0.00     0.066 C 
ATOM      5  C   UNL     1      44.241 124.093  22.417  1.00  0.00     0.069 C 
ATOM      6  C   UNL     1      44.061 123.447  23.816  1.00  0.00     0.066 C 
ATOM      7  C   UNL     1      43.457 124.538  24.619  1.00  0.00     0.079 C 
ATOM      8  N   UNL     1      43.384 125.654  24.004  1.00  0.00    -0.292 NA
ATOM      9  C   UNL     1      43.892 125.603  22.657  1.00  0.00     0.127 C 
ENDROOT
BRANCH   1  10
ATOM     10  C   UNL     1      44.753 127.988  22.874  1.00  0.00    -0.040 A 
ATOM     11  C   UNL     1      44.164 130.632  23.671  1.00  0.00    -0.015 A 
ATOM     12  C   UNL     1      44.186 129.595  24.614  1.00  0.00     0.007 A 
ATOM     13  C   UNL     1      44.469 130.349  22.330  1.00  0.00     0.126 A 
ATOM     14  C   UNL     1      44.478 128.287  24.219  1.00  0.00     0.004 A 
ATOM     15  C   UNL     1      44.762 129.039  21.936  1.00  0.00     0.043 A 
ATOM     16  C   UNL     1      43.880 132.042  24.101  1.00  0.00     0.047 C 
ATOM     17  F   UNL     1      44.492 131.341  21.405  1.00  0.00    -0.207 F 
ENDBRANCH   1  10
BRANCH   5  18
ATOM     18  C   UNL     1      43.228 123.511  21.441  1.00  0.00     0.235 C 
ATOM     19  O   UNL     1      42.104 123.982  21.351  1.00  0.00    -0.303 OA
ENDBRANCH   5  18
BRANCH   4  20
ATOM     20  N   UNL     1      46.042 122.453  21.830  1.00  0.00    -0.327 NA
ATOM     21  H   UNL     1      47.066 122.365  21.634  1.00  0.00     0.119 HD
ATOM     22  H   UNL     1      45.564 122.000  21.019  1.00  0.00     0.119 HD
ENDBRANCH   4  20
TORSDOF 3
ENDMDL
MODEL 9
REMARK VINA RESULT:      -4.4      1.777      2.499
REMARK SMILES Cc1ccc([C@H]2CC[C@@H](N)[C@@]3(C=O)CC=N[C@@H]23)cc1F
REMARK SMILES IDX 6 1 7 2 8 3 9 4 11 5 14 6 15 7 16 8 17 9 5 10 2 11 3 12
REMARK SMILES IDX 19 13 4 14 18 15 1 16 20 17 12 18 13 19 10 20
REMARK H PARENT 10 21 10 22
ROOT
ATOM      1  C   UNL     1      44.966 130.414  19.096  1.00  0.00     0.045 C 
ATOM      2  C   UNL     1      45.999 129.698  19.980  1.00  0.00     0.012 C 
ATOM      3  C   UNL     1      45.406 129.272  21.336  1.00  0.00     0.020 C 
ATOM      4  C   UNL     1      44.107 130.017  21.743  1.00  0.00     0.066 C 
ATOM      5  C   UNL     1      44.081 131.519  21.289  1.00  0.00     0.069 C 
ATOM      6  C   UNL     1      45.141 132.362  22.047  1.00  0.00     0.066 C 
ATOM      7  C   UNL     1      45.847 133.078  20.957  1.00  0.00     0.079 C 
ATOM      8  N   UNL     1      45.490 132.721  19.785  1.00  0.00    -0.292 NA
ATOM      9  C   UNL     1      44.465 131.709  19.780  1.00  0.00     0.127 C 
ENDROOT
BRANCH   1  10
ATOM     10  C   UNL     1      45.472 130.676  17.684  1.00  0.00    -0.040 A 
ATOM     11  C   UNL     1      46.431 131.242  15.089  1.00  0.00    -0.015 A 
ATOM     12  C   UNL     1      45.638 132.175  15.771  1.00  0.00     0.007 A 
ATOM     13  C   UNL     1      46.771 130.035  15.721  1.00  0.00     0.126 A 
ATOM     14  C   UNL     1      45.164 131.895  17.056  1.00  0.00     0.004 A 
ATOM     15  C   UNL     1      46.297 129.756  17.006  1.00  0.00     0.043 A 
ATOM     16  C   UNL     1      46.966 131.557  13.722  1.00  0.00     0.047 C 
ATOM     17  F   UNL     1      47.569 129.132  15.097  1.00  0.00    -0.207 F 
ENDBRANCH   1  10
BRANCH   5  18
ATOM     18  C   UNL     1      42.693 132.104  21.513  1.00  0.00     0.235 C 
ATOM     19  O   UNL     1      42.115 132.702  20.618  1.00  0.00    -0.303 OA
ENDBRANCH   5  18
BRANCH   4  20
ATOM     20  N   UNL     1      43.923 129.902  23.196  1.00  0.00    -0.327 NA
ATOM     21  H   UNL     1      43.231 130.625  23.501  1.00  0.00     0.119 HD
ATOM     22  H   UNL     1      44.815 130.151  23.679  1.00  0.00     0.119 HD
ENDBRANCH   4  20
TORSDOF 3
ENDMDL


