REMARK SMILES Cc1ccc(-c2ccc(O)cc2)c2cn[nH]c12
REMARK SMILES IDX 6 1 7 2 8 3 9 4 11 5 12 6 5 7 2 8 3 9 17 10 4 11 16 12 13 13
REMARK SMILES IDX 15 14 14 15 1 16 10 18
REMARK H PARENT 16 17 10 19
ROOT
ATOM      1  C   UNL     1       0.164  -0.993   1.302  1.00  0.00    -0.017 A 
ATOM      2  C   UNL     1       1.081  -2.058   1.356  1.00  0.00     0.012 A 
ATOM      3  C   UNL     1       0.946  -3.058   2.324  1.00  0.00     0.047 A 
ATOM      4  C   UNL     1      -0.110  -3.010   3.244  1.00  0.00     0.115 A 
ATOM      5  C   UNL     1      -1.030  -1.959   3.189  1.00  0.00     0.047 A 
ATOM      6  C   UNL     1      -0.898  -0.957   2.222  1.00  0.00     0.012 A 
ENDROOT
BRANCH   1   7
ATOM      7  C   UNL     1       0.304   0.059   0.269  1.00  0.00    -0.007 A 
ATOM      8  C   UNL     1       0.559   2.087  -1.730  1.00  0.00    -0.025 A 
ATOM      9  C   UNL     1       0.643   0.721  -2.074  1.00  0.00     0.006 A 
ATOM     10  C   UNL     1       0.358   2.395  -0.381  1.00  0.00     0.069 A 
ATOM     11  C   UNL     1       0.519  -0.281  -1.086  1.00  0.00     0.010 A 
ATOM     12  N   UNL     1       0.284   3.606   0.197  1.00  0.00    -0.278 N 
ATOM     13  C   UNL     1       0.234   1.425   0.576  1.00  0.00     0.028 A 
ATOM     14  N   UNL     1       0.127   3.440   1.505  1.00  0.00    -0.183 NA
ATOM     15  C   UNL     1       0.095   2.112   1.768  1.00  0.00     0.144 A 
ATOM     16  C   UNL     1       0.706   3.163  -2.765  1.00  0.00     0.046 C 
ATOM     17  H   UNL     1       0.351   4.535  -0.274  1.00  0.00     0.190 HD
ENDBRANCH   1   7
BRANCH   4  18
ATOM     18  O   UNL     1      -0.254  -4.000   4.213  1.00  0.00    -0.508 OA
ATOM     19  H   UNL     1       0.396  -4.775   4.279  1.00  0.00     0.293 HD
ENDBRANCH   4  18
TORSDOF 2


