MODEL 1
REMARK VINA RESULT:     -10.3      0.000      0.000
REMARK SMILES Nc1c(C(=O)[N-]Cc2ccc[nH]2)ccc2cc[nH]c12
REMARK SMILES IDX 4 1 5 2 3 3 2 4 19 5 13 6 18 7 15 8 14 9 17 10 16 11 1 13
REMARK SMILES IDX 6 16 7 17 8 18 9 19 12 20 10 21 11 22
REMARK H PARENT 18 12 1 14 1 15 12 23
ROOT
ATOM      1  C   UNL     1      44.376 131.517  17.281  1.00  0.00     0.084 C 
ATOM      2  O   UNL     1      43.345 131.786  16.606  1.00  0.00    -0.315 OA
ENDROOT
BRANCH   1   3
ATOM      3  C   UNL     1      44.317 131.496  18.760  1.00  0.00     0.024 A 
ATOM      4  C   UNL     1      43.174 131.952  19.484  1.00  0.00     0.065 A 
ATOM      5  C   UNL     1      43.189 131.805  20.880  1.00  0.00     0.069 A 
ATOM      6  C   UNL     1      45.424 130.959  19.468  1.00  0.00     0.013 A 
ATOM      7  N   UNL     1      42.238 132.164  21.764  1.00  0.00    -0.359 N 
ATOM      8  C   UNL     1      44.266 131.271  21.537  1.00  0.00     0.002 A 
ATOM      9  C   UNL     1      45.404 130.843  20.866  1.00  0.00     0.011 A 
ATOM     10  C   UNL     1      42.719 131.843  22.986  1.00  0.00     0.083 A 
ATOM     11  C   UNL     1      43.986 131.282  22.885  1.00  0.00     0.028 A 
ATOM     12  H   UNL     1      41.314 132.606  21.570  1.00  0.00     0.166 HD
BRANCH   4  13
ATOM     13  N   UNL     1      42.068 132.595  18.832  1.00  0.00    -0.396 N 
ATOM     14  H   UNL     1      41.812 132.376  17.845  1.00  0.00     0.156 HD
ATOM     15  H   UNL     1      41.546 133.372  19.289  1.00  0.00     0.156 HD
ENDBRANCH   4  13
ENDBRANCH   1   3
BRANCH   1  16
ATOM     16  N   UNL     1      45.598 131.180  16.615  1.00  0.00    -0.644 NA
BRANCH  16  17
ATOM     17  C   UNL     1      45.845 129.889  15.986  1.00  0.00    -0.062 C 
BRANCH  17  18
ATOM     18  C   UNL     1      46.722 130.059  14.784  1.00  0.00    -0.003 A 
ATOM     19  C   UNL     1      46.691 131.133  13.916  1.00  0.00     0.021 A 
ATOM     20  N   UNL     1      47.701 129.204  14.436  1.00  0.00    -0.366 N 
ATOM     21  C   UNL     1      47.693 130.911  12.993  1.00  0.00     0.019 A 
ATOM     22  C   UNL     1      48.294 129.717  13.343  1.00  0.00     0.082 A 
ATOM     23  H   UNL     1      47.962 128.317  14.922  1.00  0.00     0.166 HD
ENDBRANCH  17  18
ENDBRANCH  16  17
ENDBRANCH   1  16
TORSDOF 5
ENDMDL
MODEL 2
REMARK VINA RESULT:      -9.7      1.460      1.964
REMARK SMILES Nc1c(C(=O)[N-]Cc2ccc[nH]2)ccc2cc[nH]c12
REMARK SMILES IDX 4 1 5 2 3 3 2 4 19 5 13 6 18 7 15 8 14 9 17 10 16 11 1 13
REMARK SMILES IDX 6 16 7 17 8 18 9 19 12 20 10 21 11 22
REMARK H PARENT 18 12 1 14 1 15 12 23
ROOT
ATOM      1  C   UNL     1      44.885 131.532  16.901  1.00  0.00     0.084 C 
ATOM      2  O   UNL     1      45.693 132.437  16.555  1.00  0.00    -0.315 OA
ENDROOT
BRANCH   1   3
ATOM      3  C   UNL     1      44.275 131.549  18.249  1.00  0.00     0.024 A 
ATOM      4  C   UNL     1      45.005 131.187  19.421  1.00  0.00     0.065 A 
ATOM      5  C   UNL     1      44.355 131.324  20.658  1.00  0.00     0.069 A 
ATOM      6  C   UNL     1      42.929 131.988  18.371  1.00  0.00     0.013 A 
ATOM      7  N   UNL     1      44.835 131.042  21.884  1.00  0.00    -0.359 N 
ATOM      8  C   UNL     1      43.060 131.763  20.747  1.00  0.00     0.002 A 
ATOM      9  C   UNL     1      42.313 132.097  19.626  1.00  0.00     0.011 A 
ATOM     10  C   UNL     1      43.834 131.314  22.753  1.00  0.00     0.083 A 
ATOM     11  C   UNL     1      42.708 131.767  22.078  1.00  0.00     0.028 A 
ATOM     12  H   UNL     1      45.780 130.681  22.138  1.00  0.00     0.166 HD
BRANCH   4  13
ATOM     13  N   UNL     1      46.332 130.644  19.352  1.00  0.00    -0.396 N 
ATOM     14  H   UNL     1      47.142 131.216  19.031  1.00  0.00     0.156 HD
ATOM     15  H   UNL     1      46.513 129.632  19.526  1.00  0.00     0.156 HD
ENDBRANCH   4  13
ENDBRANCH   1   3
BRANCH   1  16
ATOM     16  N   UNL     1      44.517 130.511  15.967  1.00  0.00    -0.644 NA
BRANCH  16  17
ATOM     17  C   UNL     1      45.366 129.373  15.638  1.00  0.00    -0.062 C 
BRANCH  17  18
ATOM     18  C   UNL     1      46.387 129.768  14.616  1.00  0.00    -0.003 A 
ATOM     19  C   UNL     1      46.299 130.864  13.779  1.00  0.00     0.021 A 
ATOM     20  N   UNL     1      47.557 129.130  14.431  1.00  0.00    -0.366 N 
ATOM     21  C   UNL     1      47.469 130.882  13.046  1.00  0.00     0.019 A 
ATOM     22  C   UNL     1      48.219 129.803  13.472  1.00  0.00     0.082 A 
ATOM     23  H   UNL     1      47.896 128.282  14.937  1.00  0.00     0.166 HD
ENDBRANCH  17  18
ENDBRANCH  16  17
ENDBRANCH   1  16
TORSDOF 5
ENDMDL
MODEL 3
REMARK VINA RESULT:      -9.6      1.569      2.099
REMARK SMILES Nc1c(C(=O)[N-]Cc2ccc[nH]2)ccc2cc[nH]c12
REMARK SMILES IDX 4 1 5 2 3 3 2 4 19 5 13 6 18 7 15 8 14 9 17 10 16 11 1 13
REMARK SMILES IDX 6 16 7 17 8 18 9 19 12 20 10 21 11 22
REMARK H PARENT 18 12 1 14 1 15 12 23
ROOT
ATOM      1  C   UNL     1      45.225 131.275  17.398  1.00  0.00     0.084 C 
ATOM      2  O   UNL     1      45.316 132.270  16.627  1.00  0.00    -0.315 OA
ENDROOT
BRANCH   1   3
ATOM      3  C   UNL     1      44.512 131.392  18.690  1.00  0.00     0.024 A 
ATOM      4  C   UNL     1      45.121 131.037  19.931  1.00  0.00     0.065 A 
ATOM      5  C   UNL     1      44.386 131.271  21.104  1.00  0.00     0.069 A 
ATOM      6  C   UNL     1      43.194 131.921  18.684  1.00  0.00     0.013 A 
ATOM      7  N   UNL     1      44.748 131.014  22.376  1.00  0.00    -0.359 N 
ATOM      8  C   UNL     1      43.121 131.796  21.070  1.00  0.00     0.002 A 
ATOM      9  C   UNL     1      42.490 132.126  19.879  1.00  0.00     0.011 A 
ATOM     10  C   UNL     1      43.702 131.389  23.148  1.00  0.00     0.083 A 
ATOM     11  C   UNL     1      42.666 131.882  22.367  1.00  0.00     0.028 A 
ATOM     12  H   UNL     1      45.643 130.605  22.721  1.00  0.00     0.166 HD
BRANCH   4  13
ATOM     13  N   UNL     1      46.409 130.406  19.993  1.00  0.00    -0.396 N 
ATOM     14  H   UNL     1      47.279 130.954  20.172  1.00  0.00     0.156 HD
ATOM     15  H   UNL     1      46.531 129.397  19.763  1.00  0.00     0.156 HD
ENDBRANCH   4  13
ENDBRANCH   1   3
BRANCH   1  16
ATOM     16  N   UNL     1      45.770 130.012  16.999  1.00  0.00    -0.644 NA
BRANCH  16  17
ATOM     17  C   UNL     1      45.498 129.385  15.712  1.00  0.00    -0.062 C 
BRANCH  17  18
ATOM     18  C   UNL     1      46.468 129.878  14.683  1.00  0.00    -0.003 A 
ATOM     19  C   UNL     1      47.619 129.224  14.289  1.00  0.00     0.021 A 
ATOM     20  N   UNL     1      46.300 131.003  13.964  1.00  0.00    -0.366 N 
ATOM     21  C   UNL     1      48.178 129.996  13.292  1.00  0.00     0.019 A 
ATOM     22  C   UNL     1      47.343 131.082  13.117  1.00  0.00     0.082 A 
ATOM     23  H   UNL     1      45.512 131.683  14.038  1.00  0.00     0.166 HD
ENDBRANCH  17  18
ENDBRANCH  16  17
ENDBRANCH   1  16
TORSDOF 5
ENDMDL
MODEL 4
REMARK VINA RESULT:      -9.5      1.057      1.210
REMARK SMILES Nc1c(C(=O)[N-]Cc2ccc[nH]2)ccc2cc[nH]c12
REMARK SMILES IDX 4 1 5 2 3 3 2 4 19 5 13 6 18 7 15 8 14 9 17 10 16 11 1 13
REMARK SMILES IDX 6 16 7 17 8 18 9 19 12 20 10 21 11 22
REMARK H PARENT 18 12 1 14 1 15 12 23
ROOT
ATOM      1  C   UNL     1      45.058 131.441  16.909  1.00  0.00     0.084 C 
ATOM      2  O   UNL     1      45.677 132.406  16.382  1.00  0.00    -0.315 OA
ENDROOT
BRANCH   1   3
ATOM      3  C   UNL     1      44.856 131.392  18.374  1.00  0.00     0.024 A 
ATOM      4  C   UNL     1      43.622 131.767  18.987  1.00  0.00     0.065 A 
ATOM      5  C   UNL     1      43.510 131.597  20.376  1.00  0.00     0.069 A 
ATOM      6  C   UNL     1      45.920 130.910  19.182  1.00  0.00     0.013 A 
ATOM      7  N   UNL     1      42.457 131.883  21.166  1.00  0.00    -0.359 N 
ATOM      8  C   UNL     1      44.549 131.116  21.130  1.00  0.00     0.002 A 
ATOM      9  C   UNL     1      45.770 130.769  20.570  1.00  0.00     0.011 A 
ATOM     10  C   UNL     1      42.836 131.571  22.427  1.00  0.00     0.083 A 
ATOM     11  C   UNL     1      44.138 131.089  22.444  1.00  0.00     0.028 A 
ATOM     12  H   UNL     1      41.531 132.272  20.888  1.00  0.00     0.166 HD
BRANCH   4  13
ATOM     13  N   UNL     1      42.548 132.353  18.237  1.00  0.00    -0.396 N 
ATOM     14  H   UNL     1      42.290 133.358  18.343  1.00  0.00     0.156 HD
ATOM     15  H   UNL     1      41.927 131.772  17.635  1.00  0.00     0.156 HD
ENDBRANCH   4  13
ENDBRANCH   1   3
BRANCH   1  16
ATOM     16  N   UNL     1      44.502 130.413  16.081  1.00  0.00    -0.644 NA
BRANCH  16  17
ATOM     17  C   UNL     1      45.281 129.312  15.529  1.00  0.00    -0.062 C 
BRANCH  17  18
ATOM     18  C   UNL     1      46.311 129.835  14.576  1.00  0.00    -0.003 A 
ATOM     19  C   UNL     1      47.562 129.285  14.368  1.00  0.00     0.021 A 
ATOM     20  N   UNL     1      46.117 130.881  13.752  1.00  0.00    -0.366 N 
ATOM     21  C   UNL     1      48.154 130.043  13.378  1.00  0.00     0.019 A 
ATOM     22  C   UNL     1      47.239 131.014  13.022  1.00  0.00     0.082 A 
ATOM     23  H   UNL     1      45.260 131.473  13.682  1.00  0.00     0.166 HD
ENDBRANCH  17  18
ENDBRANCH  16  17
ENDBRANCH   1  16
TORSDOF 5
ENDMDL
MODEL 5
REMARK VINA RESULT:      -9.1      1.502      2.038
REMARK SMILES Nc1c(C(=O)[N-]Cc2ccc[nH]2)ccc2cc[nH]c12
REMARK SMILES IDX 4 1 5 2 3 3 2 4 19 5 13 6 18 7 15 8 14 9 17 10 16 11 1 13
REMARK SMILES IDX 6 16 7 17 8 18 9 19 12 20 10 21 11 22
REMARK H PARENT 18 12 1 14 1 15 12 23
ROOT
ATOM      1  C   UNL     1      44.559 131.359  16.962  1.00  0.00     0.084 C 
ATOM      2  O   UNL     1      43.922 130.665  16.123  1.00  0.00    -0.315 OA
ENDROOT
BRANCH   1   3
ATOM      3  C   UNL     1      44.089 131.458  18.362  1.00  0.00     0.024 A 
ATOM      4  C   UNL     1      44.910 131.085  19.469  1.00  0.00     0.065 A 
ATOM      5  C   UNL     1      44.397 131.303  20.758  1.00  0.00     0.069 A 
ATOM      6  C   UNL     1      42.793 131.988  18.599  1.00  0.00     0.013 A 
ATOM      7  N   UNL     1      44.979 131.028  21.941  1.00  0.00    -0.359 N 
ATOM      8  C   UNL     1      43.148 131.829  20.958  1.00  0.00     0.002 A 
ATOM      9  C   UNL     1      42.314 132.177  19.903  1.00  0.00     0.011 A 
ATOM     10  C   UNL     1      44.090 131.393  22.893  1.00  0.00     0.083 A 
ATOM     11  C   UNL     1      42.932 131.898  22.316  1.00  0.00     0.028 A 
ATOM     12  H   UNL     1      45.920 130.613  22.114  1.00  0.00     0.166 HD
BRANCH   4  13
ATOM     13  N   UNL     1      46.186 130.453  19.291  1.00  0.00    -0.396 N 
ATOM     14  H   UNL     1      46.431 129.953  18.409  1.00  0.00     0.156 HD
ATOM     15  H   UNL     1      46.872 130.387  20.073  1.00  0.00     0.156 HD
ENDBRANCH   4  13
ENDBRANCH   1   3
BRANCH   1  16
ATOM     16  N   UNL     1      45.771 132.013  16.571  1.00  0.00    -0.644 NA
BRANCH  16  17
ATOM     17  C   UNL     1      46.117 132.315  15.188  1.00  0.00    -0.062 C 
BRANCH  17  18
ATOM     18  C   UNL     1      46.862 131.167  14.580  1.00  0.00    -0.003 A 
ATOM     19  C   UNL     1      47.496 131.184  13.352  1.00  0.00     0.021 A 
ATOM     20  N   UNL     1      47.059 129.985  15.192  1.00  0.00    -0.366 N 
ATOM     21  C   UNL     1      48.095 129.949  13.213  1.00  0.00     0.019 A 
ATOM     22  C   UNL     1      47.807 129.238  14.361  1.00  0.00     0.082 A 
ATOM     23  H   UNL     1      46.709 129.701  16.134  1.00  0.00     0.166 HD
ENDBRANCH  17  18
ENDBRANCH  16  17
ENDBRANCH   1  16
TORSDOF 5
ENDMDL
MODEL 6
REMARK VINA RESULT:      -9.0      1.237      1.257
REMARK SMILES Nc1c(C(=O)[N-]Cc2ccc[nH]2)ccc2cc[nH]c12
REMARK SMILES IDX 4 1 5 2 3 3 2 4 19 5 13 6 18 7 15 8 14 9 17 10 16 11 1 13
REMARK SMILES IDX 6 16 7 17 8 18 9 19 12 20 10 21 11 22
REMARK H PARENT 18 12 1 14 1 15 12 23
ROOT
ATOM      1  C   UNL     1      45.586 130.666  17.463  1.00  0.00     0.084 C 
ATOM      2  O   UNL     1      46.118 129.543  17.246  1.00  0.00    -0.315 OA
ENDROOT
BRANCH   1   3
ATOM      3  C   UNL     1      45.047 130.992  18.802  1.00  0.00     0.024 A 
ATOM      4  C   UNL     1      43.764 131.591  18.982  1.00  0.00     0.065 A 
ATOM      5  C   UNL     1      43.314 131.775  20.299  1.00  0.00     0.069 A 
ATOM      6  C   UNL     1      45.825 130.650  19.940  1.00  0.00     0.013 A 
ATOM      7  N   UNL     1      42.152 132.320  20.711  1.00  0.00    -0.359 N 
ATOM      8  C   UNL     1      44.080 131.423  21.379  1.00  0.00     0.002 A 
ATOM      9  C   UNL     1      45.343 130.864  21.239  1.00  0.00     0.011 A 
ATOM     10  C   UNL     1      42.187 132.301  22.064  1.00  0.00     0.083 A 
ATOM     11  C   UNL     1      43.377 131.748  22.518  1.00  0.00     0.028 A 
ATOM     12  H   UNL     1      41.373 132.692  20.128  1.00  0.00     0.166 HD
BRANCH   4  13
ATOM     13  N   UNL     1      42.976 132.048  17.873  1.00  0.00    -0.396 N 
ATOM     14  H   UNL     1      42.247 131.446  17.433  1.00  0.00     0.156 HD
ATOM     15  H   UNL     1      43.175 132.959  17.406  1.00  0.00     0.156 HD
ENDBRANCH   4  13
ENDBRANCH   1   3
BRANCH   1  16
ATOM     16  N   UNL     1      45.548 131.649  16.423  1.00  0.00    -0.644 NA
BRANCH  16  17
ATOM     17  C   UNL     1      45.204 131.348  15.039  1.00  0.00    -0.062 C 
BRANCH  17  18
ATOM     18  C   UNL     1      46.376 130.734  14.337  1.00  0.00    -0.003 A 
ATOM     19  C   UNL     1      47.195 131.379  13.430  1.00  0.00     0.021 A 
ATOM     20  N   UNL     1      46.816 129.481  14.557  1.00  0.00    -0.366 N 
ATOM     21  C   UNL     1      48.169 130.467  13.077  1.00  0.00     0.019 A 
ATOM     22  C   UNL     1      47.907 129.313  13.788  1.00  0.00     0.082 A 
ATOM     23  H   UNL     1      46.400 128.775  15.204  1.00  0.00     0.166 HD
ENDBRANCH  17  18
ENDBRANCH  16  17
ENDBRANCH   1  16
TORSDOF 5
ENDMDL
MODEL 7
REMARK VINA RESULT:      -8.8      1.511      7.047
REMARK SMILES Nc1c(C(=O)[N-]Cc2ccc[nH]2)ccc2cc[nH]c12
REMARK SMILES IDX 4 1 5 2 3 3 2 4 19 5 13 6 18 7 15 8 14 9 17 10 16 11 1 13
REMARK SMILES IDX 6 16 7 17 8 18 9 19 12 20 10 21 11 22
REMARK H PARENT 18 12 1 14 1 15 12 23
ROOT
ATOM      1  C   UNL     1      43.444 131.701  18.210  1.00  0.00     0.084 C 
ATOM      2  O   UNL     1      42.207 131.894  18.063  1.00  0.00    -0.315 OA
ENDROOT
BRANCH   1   3
ATOM      3  C   UNL     1      44.297 131.389  17.041  1.00  0.00     0.024 A 
ATOM      4  C   UNL     1      45.511 130.646  17.159  1.00  0.00     0.065 A 
ATOM      5  C   UNL     1      46.196 130.331  15.974  1.00  0.00     0.069 A 
ATOM      6  C   UNL     1      43.858 131.811  15.758  1.00  0.00     0.013 A 
ATOM      7  N   UNL     1      47.351 129.652  15.838  1.00  0.00    -0.359 N 
ATOM      8  C   UNL     1      45.741 130.739  14.748  1.00  0.00     0.002 A 
ATOM      9  C   UNL     1      44.580 131.486  14.600  1.00  0.00     0.011 A 
ATOM     10  C   UNL     1      47.619 129.627  14.513  1.00  0.00     0.083 A 
ATOM     11  C   UNL     1      46.635 130.297  13.798  1.00  0.00     0.028 A 
ATOM     12  H   UNL     1      47.940 129.228  16.587  1.00  0.00     0.166 HD
BRANCH   4  13
ATOM     13  N   UNL     1      46.056 130.279  18.435  1.00  0.00    -0.396 N 
ATOM     14  H   UNL     1      47.054 130.463  18.677  1.00  0.00     0.156 HD
ATOM     15  H   UNL     1      45.501 129.728  19.124  1.00  0.00     0.156 HD
ENDBRANCH   4  13
ENDBRANCH   1   3
BRANCH   1  16
ATOM     16  N   UNL     1      44.037 131.833  19.506  1.00  0.00    -0.644 NA
BRANCH  16  17
ATOM     17  C   UNL     1      43.271 132.054  20.726  1.00  0.00    -0.062 C 
BRANCH  17  18
ATOM     18  C   UNL     1      43.485 130.921  21.682  1.00  0.00    -0.003 A 
ATOM     19  C   UNL     1      44.669 130.231  21.855  1.00  0.00     0.021 A 
ATOM     20  N   UNL     1      42.553 130.474  22.544  1.00  0.00    -0.366 N 
ATOM     21  C   UNL     1      44.438 129.317  22.862  1.00  0.00     0.019 A 
ATOM     22  C   UNL     1      43.128 129.493  23.263  1.00  0.00     0.082 A 
ATOM     23  H   UNL     1      41.574 130.823  22.646  1.00  0.00     0.166 HD
ENDBRANCH  17  18
ENDBRANCH  16  17
ENDBRANCH   1  16
TORSDOF 5
ENDMDL
MODEL 8
REMARK VINA RESULT:      -8.4      1.307      7.283
REMARK SMILES Nc1c(C(=O)[N-]Cc2ccc[nH]2)ccc2cc[nH]c12
REMARK SMILES IDX 4 1 5 2 3 3 2 4 19 5 13 6 18 7 15 8 14 9 17 10 16 11 1 13
REMARK SMILES IDX 6 16 7 17 8 18 9 19 12 20 10 21 11 22
REMARK H PARENT 18 12 1 14 1 15 12 23
ROOT
ATOM      1  C   UNL     1      44.556 131.538  17.684  1.00  0.00     0.084 C 
ATOM      2  O   UNL     1      43.305 131.480  17.530  1.00  0.00    -0.315 OA
ENDROOT
BRANCH   1   3
ATOM      3  C   UNL     1      45.461 131.389  16.523  1.00  0.00     0.024 A 
ATOM      4  C   UNL     1      46.107 130.154  16.214  1.00  0.00     0.065 A 
ATOM      5  C   UNL     1      46.874 130.100  15.039  1.00  0.00     0.069 A 
ATOM      6  C   UNL     1      45.647 132.508  15.669  1.00  0.00     0.013 A 
ATOM      7  N   UNL     1      47.573 129.057  14.550  1.00  0.00    -0.359 N 
ATOM      8  C   UNL     1      47.025 131.192  14.225  1.00  0.00     0.002 A 
ATOM      9  C   UNL     1      46.433 132.414  14.511  1.00  0.00     0.011 A 
ATOM     10  C   UNL     1      48.161 129.497  13.414  1.00  0.00     0.083 A 
ATOM     11  C   UNL     1      47.842 130.828  13.178  1.00  0.00     0.028 A 
ATOM     12  H   UNL     1      47.662 128.098  14.950  1.00  0.00     0.166 HD
BRANCH   4  13
ATOM     13  N   UNL     1      46.038 129.019  17.090  1.00  0.00    -0.396 N 
ATOM     14  H   UNL     1      45.614 128.116  16.785  1.00  0.00     0.156 HD
ATOM     15  H   UNL     1      46.318 129.090  18.092  1.00  0.00     0.156 HD
ENDBRANCH   4  13
ENDBRANCH   1   3
BRANCH   1  16
ATOM     16  N   UNL     1      45.102 131.800  18.982  1.00  0.00    -0.644 NA
BRANCH  16  17
ATOM     17  C   UNL     1      45.297 130.774  19.998  1.00  0.00    -0.062 C 
BRANCH  17  18
ATOM     18  C   UNL     1      44.478 131.088  21.212  1.00  0.00    -0.003 A 
ATOM     19  C   UNL     1      43.196 131.602  21.203  1.00  0.00     0.021 A 
ATOM     20  N   UNL     1      44.876 130.845  22.475  1.00  0.00    -0.366 N 
ATOM     21  C   UNL     1      42.805 131.683  22.523  1.00  0.00     0.019 A 
ATOM     22  C   UNL     1      43.861 131.210  23.278  1.00  0.00     0.082 A 
ATOM     23  H   UNL     1      45.791 130.444  22.778  1.00  0.00     0.166 HD
ENDBRANCH  17  18
ENDBRANCH  16  17
ENDBRANCH   1  16
TORSDOF 5
ENDMDL
MODEL 9
REMARK VINA RESULT:      -8.1      1.486      7.237
REMARK SMILES Nc1c(C(=O)[N-]Cc2ccc[nH]2)ccc2cc[nH]c12
REMARK SMILES IDX 4 1 5 2 3 3 2 4 19 5 13 6 18 7 15 8 14 9 17 10 16 11 1 13
REMARK SMILES IDX 6 16 7 17 8 18 9 19 12 20 10 21 11 22
REMARK H PARENT 18 12 1 14 1 15 12 23
ROOT
ATOM      1  C   UNL     1      43.863 131.493  18.018  1.00  0.00     0.084 C 
ATOM      2  O   UNL     1      42.680 131.926  17.951  1.00  0.00    -0.315 OA
ENDROOT
BRANCH   1   3
ATOM      3  C   UNL     1      44.651 131.274  16.784  1.00  0.00     0.024 A 
ATOM      4  C   UNL     1      45.863 130.520  16.778  1.00  0.00     0.065 A 
ATOM      5  C   UNL     1      46.483 130.299  15.537  1.00  0.00     0.069 A 
ATOM      6  C   UNL     1      44.148 131.799  15.564  1.00  0.00     0.013 A 
ATOM      7  N   UNL     1      47.624 129.629  15.286  1.00  0.00    -0.359 N 
ATOM      8  C   UNL     1      45.967 130.806  14.373  1.00  0.00     0.002 A 
ATOM      9  C   UNL     1      44.806 131.566  14.348  1.00  0.00     0.011 A 
ATOM     10  C   UNL     1      47.822 129.710  13.950  1.00  0.00     0.083 A 
ATOM     11  C   UNL     1      46.807 130.439  13.345  1.00  0.00     0.028 A 
ATOM     12  H   UNL     1      48.248 129.144  15.965  1.00  0.00     0.166 HD
BRANCH   4  13
ATOM     13  N   UNL     1      46.472 130.049  17.989  1.00  0.00    -0.396 N 
ATOM     14  H   UNL     1      45.908 129.844  18.842  1.00  0.00     0.156 HD
ATOM     15  H   UNL     1      47.509 129.992  18.088  1.00  0.00     0.156 HD
ENDBRANCH   4  13
ENDBRANCH   1   3
BRANCH   1  16
ATOM     16  N   UNL     1      44.466 131.260  19.296  1.00  0.00    -0.644 NA
BRANCH  16  17
ATOM     17  C   UNL     1      44.376 132.192  20.413  1.00  0.00    -0.062 C 
BRANCH  17  18
ATOM     18  C   UNL     1      44.017 131.459  21.669  1.00  0.00    -0.003 A 
ATOM     19  C   UNL     1      42.835 131.602  22.369  1.00  0.00     0.021 A 
ATOM     20  N   UNL     1      44.788 130.515  22.239  1.00  0.00    -0.366 N 
ATOM     21  C   UNL     1      42.900 130.709  23.419  1.00  0.00     0.019 A 
ATOM     22  C   UNL     1      44.112 130.057  23.309  1.00  0.00     0.082 A 
ATOM     23  H   UNL     1      45.725 130.189  21.914  1.00  0.00     0.166 HD
ENDBRANCH  17  18
ENDBRANCH  16  17
ENDBRANCH   1  16
TORSDOF 5
ENDMDL


