REMARK SMILES Cn1c[nH+]c2cc(-c3ccc4cc[nH]c4c3)c[nH+]c21
REMARK SMILES IDX 1 1 2 2 3 3 4 4 5 5 6 6 7 7 17 8 18 9 19 10 8 13 9 14 16 15
REMARK SMILES IDX 10 16 15 17 11 18 14 19 12 20 13 21
REMARK H PARENT 4 11 18 12 14 22
ROOT
ATOM      1  C   UNL     1      -3.265   0.544   3.763  1.00  0.00     0.300 C 
ATOM      2  N   UNL     1      -1.920   0.046   3.501  1.00  0.00    -0.199 N 
ATOM      3  C   UNL     1      -1.073  -0.552   4.377  1.00  0.00     0.405 A 
ATOM      4  N   UNL     1       0.124  -0.856   3.813  1.00  0.00    -0.240 N 
ATOM      5  C   UNL     1       0.014  -0.423   2.545  1.00  0.00     0.215 A 
ATOM      6  C   UNL     1       0.951  -0.463   1.522  1.00  0.00     0.073 A 
ATOM      7  C   UNL     1       0.578   0.088   0.272  1.00  0.00     0.025 A 
ATOM      8  C   UNL     1      -0.723   0.651   0.129  1.00  0.00     0.206 A 
ATOM      9  N   UNL     1      -1.602   0.662   1.177  1.00  0.00    -0.243 N 
ATOM     10  C   UNL     1      -1.215   0.123   2.360  1.00  0.00     0.329 A 
ATOM     11  H   UNL     1       0.947  -1.312   4.267  1.00  0.00     0.312 HD
ATOM     12  H   UNL     1      -2.553   1.078   1.061  1.00  0.00     0.312 HD
ENDROOT
BRANCH   7  13
ATOM     13  C   UNL     1       1.529   0.082  -0.868  1.00  0.00    -0.013 A 
ATOM     14  C   UNL     1       2.364  -1.045  -1.101  1.00  0.00     0.009 A 
ATOM     15  C   UNL     1       1.615   1.200  -1.733  1.00  0.00     0.035 A 
ATOM     16  C   UNL     1       3.270  -1.062  -2.177  1.00  0.00     0.011 A 
ATOM     17  C   UNL     1       2.524   1.149  -2.788  1.00  0.00     0.046 A 
ATOM     18  C   UNL     1       3.321   0.058  -3.001  1.00  0.00    -0.001 A 
ATOM     19  N   UNL     1       2.758   2.097  -3.709  1.00  0.00    -0.361 N 
ATOM     20  C   UNL     1       4.097   0.322  -4.108  1.00  0.00     0.028 A 
ATOM     21  C   UNL     1       3.719   1.597  -4.519  1.00  0.00     0.083 A 
ATOM     22  H   UNL     1       2.296   3.030  -3.788  1.00  0.00     0.166 HD
ENDBRANCH   7  13
TORSDOF 1


