REMARK SMILES C=Cc1ccc(-c2c[nH+]c3ocnc3c2)c(N=[N+]=[N-])c1F
REMARK SMILES IDX 3 1 4 2 5 3 6 4 16 5 20 6 21 7 2 8 1 9 17 10 18 11 19 12
REMARK SMILES IDX 7 13 15 14 8 15 14 16 9 17 13 18 10 19 12 20 11 21
REMARK H PARENT 9 22
ROOT
ATOM      1  C   UNL     1       2.247   0.665   1.211  1.00  0.00     0.010 A 
ATOM      2  C   UNL     1       1.456   0.009   2.170  1.00  0.00     0.012 A 
ATOM      3  C   UNL     1       0.194  -0.478   1.834  1.00  0.00     0.010 A 
ATOM      4  C   UNL     1      -0.310  -0.329   0.534  1.00  0.00     0.000 A 
ATOM      5  C   UNL     1       0.481   0.301  -0.453  1.00  0.00     0.082 A 
ATOM      6  C   UNL     1       1.760   0.796  -0.103  1.00  0.00     0.140 A 
ATOM      7  F   UNL     1       2.533   1.413  -1.034  1.00  0.00    -0.206 F 
ENDROOT
BRANCH   1   8
ATOM      8  C   UNL     1       3.599   1.186   1.539  1.00  0.00     0.003 C 
ATOM      9  C   UNL     1       3.995   1.503   2.772  1.00  0.00     0.009 C 
ENDBRANCH   1   8
BRANCH   5  10
ATOM     10  N   UNL     1      -0.025   0.387  -1.798  1.00  0.00    -0.057 NA
BRANCH  10  11
ATOM     11  N   UNL     1       0.595   0.911  -2.724  1.00  0.00     0.005 N 
ATOM     12  N   UNL     1       1.210   1.433  -3.654  1.00  0.00    -0.003 NA
ENDBRANCH  10  11
ENDBRANCH   5  10
BRANCH   4  13
ATOM     13  C   UNL     1      -1.664  -0.849   0.225  1.00  0.00     0.049 A 
ATOM     14  C   UNL     1      -2.006  -2.182   0.551  1.00  0.00     0.054 A 
ATOM     15  C   UNL     1      -2.644  -0.010  -0.376  1.00  0.00     0.318 A 
ATOM     16  C   UNL     1      -3.294  -2.604   0.247  1.00  0.00     0.179 A 
ATOM     17  N   UNL     1      -3.897  -0.486  -0.650  1.00  0.00    -0.177 N 
ATOM     18  N   UNL     1      -3.854  -3.808   0.449  1.00  0.00    -0.209 NA
ATOM     19  C   UNL     1      -4.189  -1.771  -0.332  1.00  0.00     0.399 A 
ATOM     20  C   UNL     1      -5.110  -3.623  -0.042  1.00  0.00     0.316 A 
ATOM     21  O   UNL     1      -5.316  -2.401  -0.512  1.00  0.00    -0.391 OA
ATOM     22  H   UNL     1      -4.616   0.129  -1.091  1.00  0.00     0.457 HD
ENDBRANCH   4  13
TORSDOF 4


