REMARK SMILES O=C(N[C@H]1CCCOC1)N1C[NH2+]C[C@H](F)[C@H]1c1cc2ccc(F)cc2[nH]1
REMARK SMILES IDX 10 1 11 2 12 3 13 4 14 5 15 6 16 7 2 10 3 11 1 12 4 14 5 15
REMARK SMILES IDX 9 16 6 17 8 18 7 19 17 20 18 21 26 22 19 23 25 24 20 25
REMARK SMILES IDX 24 26 21 27 22 28 23 30
REMARK H PARENT 12 8 12 9 3 13 26 29
ROOT
ATOM      1  N   UNL     1      -0.123  -1.748   0.582  1.00  0.00    -0.266 N 
ATOM      2  C   UNL     1       0.504  -2.369   1.770  1.00  0.00     0.393 C 
ATOM      3  N   UNL     1      -0.455  -3.023   2.669  1.00  0.00    -0.327 N 
ATOM      4  C   UNL     1      -1.456  -3.780   1.922  1.00  0.00     0.302 C 
ATOM      5  C   UNL     1      -2.361  -2.807   1.190  1.00  0.00     0.250 C 
ATOM      6  F   UNL     1      -3.324  -3.512   0.487  1.00  0.00    -0.238 F 
ATOM      7  C   UNL     1      -1.556  -1.913   0.225  1.00  0.00     0.179 C 
ATOM      8  H   UNL     1       0.067  -3.682   3.294  1.00  0.00     0.347 HD
ATOM      9  H   UNL     1      -0.918  -2.306   3.276  1.00  0.00     0.347 HD
ENDROOT
BRANCH   1  10
ATOM     10  C   UNL     1       0.730  -1.047  -0.362  1.00  0.00     0.322 C 
ATOM     11  N   UNL     1       2.114  -0.775  -0.070  1.00  0.00    -0.333 N 
ATOM     12  O   UNL     1       0.252  -0.658  -1.464  1.00  0.00    -0.248 OA
ATOM     13  H   UNL     1       2.588  -1.272   0.715  1.00  0.00     0.165 HD
BRANCH  11  14
ATOM     14  C   UNL     1       2.904   0.164  -0.878  1.00  0.00     0.109 C 
ATOM     15  C   UNL     1       2.447   1.611  -0.626  1.00  0.00     0.030 C 
ATOM     16  C   UNL     1       4.404   0.041  -0.546  1.00  0.00     0.185 C 
ATOM     17  C   UNL     1       2.884   2.081   0.764  1.00  0.00     0.031 C 
ATOM     18  O   UNL     1       4.666   0.428   0.792  1.00  0.00    -0.379 OA
ATOM     19  C   UNL     1       4.379   1.803   0.965  1.00  0.00     0.160 C 
ENDBRANCH  11  14
ENDBRANCH   1  10
BRANCH   7  20
ATOM     20  C   UNL     1      -2.224  -0.565   0.118  1.00  0.00     0.042 A 
ATOM     21  C   UNL     1      -2.077   0.480   1.030  1.00  0.00     0.034 A 
ATOM     22  N   UNL     1      -3.095  -0.235  -0.864  1.00  0.00    -0.356 N 
ATOM     23  C   UNL     1      -2.893   1.482   0.553  1.00  0.00    -0.000 A 
ATOM     24  C   UNL     1      -3.492   1.018  -0.589  1.00  0.00     0.049 A 
ATOM     25  C   UNL     1      -3.147   2.758   1.052  1.00  0.00     0.013 A 
ATOM     26  C   UNL     1      -4.391   1.800  -1.314  1.00  0.00     0.065 A 
ATOM     27  C   UNL     1      -4.049   3.571   0.341  1.00  0.00     0.040 A 
ATOM     28  C   UNL     1      -4.669   3.095  -0.837  1.00  0.00     0.125 A 
ATOM     29  H   UNL     1      -3.400  -0.832  -1.666  1.00  0.00     0.166 HD
ATOM     30  F   UNL     1      -5.537   3.889  -1.510  1.00  0.00    -0.207 F 
ENDBRANCH   7  20
TORSDOF 3


