REMARK SMILES C=Cc1cccc(-c2ccc3c(c2)[C@H](N)CC3)c1
REMARK SMILES IDX 8 1 9 2 10 3 11 4 12 5 13 6 14 7 16 8 17 9 7 10 3 11 4 12
REMARK SMILES IDX 18 13 5 14 6 15 2 16 1 17 15 18
REMARK H PARENT 15 19 15 20
ROOT
ATOM      1  C   UNL     1       0.914   0.555   0.114  1.00  0.00    -0.018 A 
ATOM      2  C   UNL     1       1.897   0.477   1.129  1.00  0.00     0.009 A 
ATOM      3  C   UNL     1       2.397  -0.766   1.544  1.00  0.00     0.005 A 
ATOM      4  C   UNL     1       1.910  -1.924   0.939  1.00  0.00    -0.043 A 
ATOM      5  C   UNL     1       0.953  -1.863  -0.040  1.00  0.00    -0.027 A 
ATOM      6  C   UNL     1       0.441  -0.637  -0.475  1.00  0.00     0.014 A 
ATOM      7  C   UNL     1       0.571  -3.217  -0.529  1.00  0.00     0.081 C 
ATOM      8  C   UNL     1       1.556  -4.160   0.200  1.00  0.00     0.028 C 
ATOM      9  C   UNL     1       2.311  -3.317   1.244  1.00  0.00     0.038 C 
ENDROOT
BRANCH   1  10
ATOM     10  C   UNL     1       0.387   1.872  -0.325  1.00  0.00    -0.018 A 
ATOM     11  C   UNL     1      -0.386   4.136   0.206  1.00  0.00    -0.026 A 
ATOM     12  C   UNL     1      -0.626   4.357  -1.159  1.00  0.00     0.008 A 
ATOM     13  C   UNL     1       0.111   2.881   0.617  1.00  0.00     0.016 A 
ATOM     14  C   UNL     1      -0.354   3.360  -2.098  1.00  0.00     0.001 A 
ATOM     15  C   UNL     1       0.152   2.127  -1.687  1.00  0.00     0.009 A 
BRANCH  11  16
ATOM     16  C   UNL     1      -0.700   5.223   1.165  1.00  0.00     0.000 C 
ATOM     17  C   UNL     1      -0.211   5.293   2.404  1.00  0.00     0.009 C 
ENDBRANCH  11  16
ENDBRANCH   1  10
BRANCH   7  18
ATOM     18  N   UNL     1      -0.815  -3.539  -0.180  1.00  0.00    -0.324 NA
ATOM     19  H   UNL     1      -1.450  -2.900  -0.712  1.00  0.00     0.119 HD
ATOM     20  H   UNL     1      -0.971  -3.357   0.840  1.00  0.00     0.119 HD
ENDBRANCH   7  18
TORSDOF 3


