REMARK SMILES Cc1ccc(-c2ccc(N)c(C=O)c2)c2c[n-]nc12
REMARK SMILES IDX 6 1 7 2 8 3 9 4 11 5 14 6 5 7 2 8 3 9 19 10 4 11 18 12 15 13
REMARK SMILES IDX 17 14 16 15 1 16 12 17 13 18 10 19
REMARK H PARENT 10 20 10 21
ROOT
ATOM      1  C   UNL     1      -0.135   0.575   0.681  1.00  0.00    -0.017 A 
ATOM      2  C   UNL     1      -1.095   1.551   0.977  1.00  0.00     0.011 A 
ATOM      3  C   UNL     1      -1.305   1.957   2.295  1.00  0.00     0.027 A 
ATOM      4  C   UNL     1      -0.556   1.405   3.344  1.00  0.00     0.042 A 
ATOM      5  C   UNL     1       0.455   0.454   3.051  1.00  0.00     0.038 A 
ATOM      6  C   UNL     1       0.639   0.037   1.721  1.00  0.00     0.022 A 
ENDROOT
BRANCH   1   7
ATOM      7  C   UNL     1       0.090   0.141  -0.718  1.00  0.00    -0.011 A 
ATOM      8  C   UNL     1       0.520  -0.678  -3.422  1.00  0.00    -0.027 A 
ATOM      9  C   UNL     1       1.607  -0.330  -2.593  1.00  0.00     0.006 A 
ATOM     10  C   UNL     1      -0.757  -0.628  -2.857  1.00  0.00     0.050 A 
ATOM     11  C   UNL     1       1.395   0.077  -1.257  1.00  0.00     0.010 A 
ATOM     12  N   UNL     1      -1.926  -0.963  -3.432  1.00  0.00    -0.367 NA
ATOM     13  C   UNL     1      -0.964  -0.231  -1.565  1.00  0.00    -0.014 A 
ATOM     14  N   UNL     1      -2.879  -0.791  -2.522  1.00  0.00    -0.581 NA
ATOM     15  C   UNL     1      -2.323  -0.349  -1.371  1.00  0.00    -0.113 A 
ATOM     16  C   UNL     1       0.735  -1.157  -4.827  1.00  0.00     0.046 C 
ENDBRANCH   1   7
BRANCH   5  17
ATOM     17  C   UNL     1       1.366  -0.106   4.074  1.00  0.00     0.262 C 
ATOM     18  O   UNL     1       1.633   0.515   5.135  1.00  0.00    -0.298 OA
ENDBRANCH   5  17
BRANCH   4  19
ATOM     19  N   UNL     1      -0.880   1.784   4.689  1.00  0.00    -0.398 N 
ATOM     20  H   UNL     1      -0.627   1.191   5.508  1.00  0.00     0.156 HD
ATOM     21  H   UNL     1      -1.523   2.588   4.869  1.00  0.00     0.156 HD
ENDBRANCH   4  19
TORSDOF 3


