REMARK SMILES [O-]c1ccc(Nc2cc3[nH]ccc3cc2F)c(F)c1
REMARK SMILES IDX 6 1 5 3 2 4 3 5 19 6 4 7 17 8 1 9 18 10 7 11 8 12 15 13 9 14
REMARK SMILES IDX 14 15 10 16 13 17 11 18 12 19 16 20
REMARK H PARENT 6 2 10 21
ROOT
ATOM      1  N   UNL     1      -0.187   0.453   1.919  1.00  0.00    -0.351 N 
ATOM      2  H   UNL     1       0.121   1.227   2.550  1.00  0.00     0.167 HD
ENDROOT
BRANCH   1   3
ATOM      3  C   UNL     1      -0.464  -0.824   2.517  1.00  0.00     0.075 A 
ATOM      4  C   UNL     1      -0.996  -3.289   3.753  1.00  0.00    -0.106 A 
ATOM      5  C   UNL     1       0.061  -2.494   4.204  1.00  0.00    -0.006 A 
ATOM      6  C   UNL     1      -1.799  -2.850   2.697  1.00  0.00     0.033 A 
ATOM      7  C   UNL     1       0.320  -1.262   3.595  1.00  0.00     0.028 A 
ATOM      8  C   UNL     1      -1.544  -1.619   2.083  1.00  0.00     0.146 A 
ATOM      9  O   UNL     1      -1.252  -4.513   4.359  1.00  0.00    -0.872 OA
ATOM     10  F   UNL     1      -2.370  -1.189   1.097  1.00  0.00    -0.205 F 
ENDBRANCH   1   3
BRANCH   1  11
ATOM     11  C   UNL     1      -0.221   0.705   0.503  1.00  0.00     0.077 A 
ATOM     12  C   UNL     1       0.038  -0.331  -0.427  1.00  0.00     0.055 A 
ATOM     13  C   UNL     1      -0.463   2.023   0.033  1.00  0.00     0.147 A 
ATOM     14  C   UNL     1       0.016  -0.018  -1.784  1.00  0.00     0.048 A 
ATOM     15  C   UNL     1      -0.477   2.302  -1.346  1.00  0.00     0.051 A 
ATOM     16  N   UNL     1       0.230  -0.849  -2.817  1.00  0.00    -0.361 N 
ATOM     17  C   UNL     1      -0.234   1.252  -2.226  1.00  0.00     0.002 A 
ATOM     18  C   UNL     1       0.110  -0.092  -3.931  1.00  0.00     0.083 A 
ATOM     19  C   UNL     1      -0.180   1.229  -3.602  1.00  0.00     0.028 A 
ATOM     20  F   UNL     1      -0.698   3.029   0.913  1.00  0.00    -0.205 F 
ATOM     21  H   UNL     1       0.445  -1.870  -2.773  1.00  0.00     0.166 HD
ENDBRANCH   1  11
TORSDOF 2


