REMARK SMILES C[C@H]1CC[C@H]2C=C[NH2+][C@@]2(C)C1
REMARK SMILES IDX 1 1 2 2 3 3 4 4 5 5 6 6 7 7 8 8 9 9 10 10 11 11
REMARK H PARENT 8 12 8 13
ROOT
ATOM      1  C   UNL     1       0.714  -1.250  -2.498  1.00  0.00     0.008 C 
ATOM      2  C   UNL     1       0.742  -0.886  -1.008  1.00  0.00    -0.008 C 
ATOM      3  C   UNL     1       1.112   0.608  -0.804  1.00  0.00     0.004 C 
ATOM      4  C   UNL     1      -0.085   1.451  -0.360  1.00  0.00     0.015 C 
ATOM      5  C   UNL     1      -0.630   0.934   0.985  1.00  0.00     0.079 C 
ATOM      6  C   UNL     1      -1.998   1.444   1.233  1.00  0.00     0.042 C 
ATOM      7  C   UNL     1      -2.820   0.452   1.511  1.00  0.00     0.216 C 
ATOM      8  N   UNL     1      -2.215  -0.842   1.513  1.00  0.00    -0.315 N 
ATOM      9  C   UNL     1      -0.816  -0.617   1.055  1.00  0.00     0.104 C 
ATOM     10  C   UNL     1       0.179  -1.231   2.071  1.00  0.00     0.080 C 
ATOM     11  C   UNL     1      -0.603  -1.274  -0.342  1.00  0.00     0.072 C 
ATOM     12  H   UNL     1      -2.267  -1.218   2.488  1.00  0.00     0.352 HD
ATOM     13  H   UNL     1      -2.760  -1.470   0.879  1.00  0.00     0.352 HD
ENDROOT
TORSDOF 0


