REMARK SMILES C=Cc1cc(-c2ccc3c(c2)[C@@H](N)CC3)c(F)cc1N
REMARK SMILES IDX 6 1 7 2 8 3 9 4 10 5 11 6 12 7 14 8 15 9 5 10 3 11 4 12
REMARK SMILES IDX 19 13 18 14 16 15 17 16 2 17 1 18 20 19 13 22
REMARK H PARENT 20 20 20 21 13 23 13 24
ROOT
ATOM      1  C   UNL     1      -0.188   0.248   0.128  1.00  0.00    -0.015 A 
ATOM      2  C   UNL     1      -0.604   1.122  -0.903  1.00  0.00     0.009 A 
ATOM      3  C   UNL     1      -1.968   1.302  -1.176  1.00  0.00     0.005 A 
ATOM      4  C   UNL     1      -2.905   0.603  -0.416  1.00  0.00    -0.043 A 
ATOM      5  C   UNL     1      -2.514  -0.245   0.588  1.00  0.00    -0.027 A 
ATOM      6  C   UNL     1      -1.161  -0.447   0.876  1.00  0.00     0.014 A 
ATOM      7  C   UNL     1      -3.674  -0.883   1.264  1.00  0.00     0.081 C 
ATOM      8  C   UNL     1      -4.888  -0.403   0.433  1.00  0.00     0.028 C 
ATOM      9  C   UNL     1      -4.377   0.658  -0.560  1.00  0.00     0.038 C 
ENDROOT
BRANCH   1  10
ATOM     10  C   UNL     1       1.256   0.054   0.405  1.00  0.00     0.018 A 
ATOM     11  C   UNL     1       3.524  -0.367  -0.422  1.00  0.00    -0.002 A 
ATOM     12  C   UNL     1       2.148  -0.174  -0.655  1.00  0.00     0.022 A 
ATOM     13  C   UNL     1       4.007  -0.333   0.909  1.00  0.00     0.042 A 
ATOM     14  C   UNL     1       3.111  -0.108   1.963  1.00  0.00     0.066 A 
ATOM     15  C   UNL     1       1.751   0.087   1.719  1.00  0.00     0.133 A 
ATOM     16  F   UNL     1       0.927   0.346   2.766  1.00  0.00    -0.206 F 
BRANCH  11  17
ATOM     17  C   UNL     1       4.432  -0.668  -1.557  1.00  0.00     0.002 C 
ATOM     18  C   UNL     1       4.288  -0.120  -2.763  1.00  0.00     0.009 C 
ENDBRANCH  11  17
BRANCH  13  19
ATOM     19  N   UNL     1       5.402  -0.481   1.211  1.00  0.00    -0.398 N 
ATOM     20  H   UNL     1       6.136  -0.486   0.471  1.00  0.00     0.156 HD
ATOM     21  H   UNL     1       5.727  -0.514   2.203  1.00  0.00     0.156 HD
ENDBRANCH  13  19
ENDBRANCH   1  10
BRANCH   7  22
ATOM     22  N   UNL     1      -3.774  -0.419   2.648  1.00  0.00    -0.324 NA
ATOM     23  H   UNL     1      -4.603  -0.883   3.085  1.00  0.00     0.119 HD
ATOM     24  H   UNL     1      -2.941  -0.772   3.173  1.00  0.00     0.119 HD
ENDBRANCH   7  22
TORSDOF 4


