REMARK SMILES C=CCn1cc(N(c2ccc3[nH]ccc3c2)c2cccc3c2CCC3)cn1
REMARK SMILES IDX 4 1 5 2 6 3 26 4 27 5 3 6 2 7 1 8 7 9 8 10 9 11 16 12 10 13
REMARK SMILES IDX 15 14 11 15 14 16 12 17 13 18 17 20 18 21 22 22 19 23 21 24
REMARK SMILES IDX 23 25 20 26 25 27 24 28
REMARK H PARENT 12 19
ROOT
ATOM      1  N   UNL     1       1.534   2.828  -1.224  1.00  0.00    -0.267 N 
ATOM      2  C   UNL     1       0.984   1.599  -1.226  1.00  0.00     0.135 A 
ATOM      3  C   UNL     1       0.740   1.252   0.085  1.00  0.00     0.084 A 
ATOM      4  C   UNL     1       1.161   2.329   0.844  1.00  0.00     0.161 A 
ATOM      5  N   UNL     1       1.635   3.283   0.017  1.00  0.00    -0.179 NA
ENDROOT
BRANCH   1   6
ATOM      6  C   UNL     1       1.859   3.619  -2.407  1.00  0.00     0.171 C 
BRANCH   6   7
ATOM      7  C   UNL     1       0.713   4.523  -2.760  1.00  0.00    -0.011 C 
ATOM      8  C   UNL     1      -0.446   4.039  -3.216  1.00  0.00     0.006 C 
ENDBRANCH   6   7
ENDBRANCH   1   6
BRANCH   3   9
ATOM      9  N   UNL     1       0.076   0.064   0.556  1.00  0.00    -0.307 N 
BRANCH   9  10
ATOM     10  C   UNL     1       0.275  -0.414   1.901  1.00  0.00     0.047 A 
ATOM     11  C   UNL     1       1.573  -0.419   2.480  1.00  0.00     0.029 A 
ATOM     12  C   UNL     1      -0.822  -0.907   2.647  1.00  0.00     0.037 A 
ATOM     13  C   UNL     1       1.776  -0.895   3.787  1.00  0.00     0.029 A 
ATOM     14  C   UNL     1      -0.583  -1.370   3.938  1.00  0.00     0.001 A 
ATOM     15  C   UNL     1       0.669  -1.364   4.489  1.00  0.00     0.045 A 
ATOM     16  C   UNL     1      -1.445  -1.892   4.877  1.00  0.00     0.028 A 
ATOM     17  N   UNL     1       0.643  -1.859   5.738  1.00  0.00    -0.361 N 
ATOM     18  C   UNL     1      -0.648  -2.183   5.979  1.00  0.00     0.083 A 
ATOM     19  H   UNL     1       1.450  -1.973   6.390  1.00  0.00     0.166 HD
ENDBRANCH   9  10
BRANCH   9  20
ATOM     20  C   UNL     1      -0.773  -0.677  -0.337  1.00  0.00     0.050 A 
ATOM     21  C   UNL     1      -0.474  -2.015  -0.654  1.00  0.00     0.027 A 
ATOM     22  C   UNL     1      -1.928  -0.100  -0.894  1.00  0.00    -0.021 A 
ATOM     23  C   UNL     1      -1.308  -2.743  -1.520  1.00  0.00     0.002 A 
ATOM     24  C   UNL     1      -2.743  -0.820  -1.733  1.00  0.00    -0.043 A 
ATOM     25  C   UNL     1      -2.466   1.262  -0.645  1.00  0.00     0.038 C 
ATOM     26  C   UNL     1      -2.451  -2.144  -2.067  1.00  0.00     0.004 A 
ATOM     27  C   UNL     1      -3.919  -0.040  -2.181  1.00  0.00     0.036 C 
ATOM     28  C   UNL     1      -3.798   1.290  -1.417  1.00  0.00     0.010 C 
ENDBRANCH   9  20
ENDBRANCH   3   9
TORSDOF 5


