REMARK SMILES c1cc2cc(-c3ncc4c(n3)CCCC4)ccc2[nH]1
REMARK SMILES IDX 1 1 2 2 3 3 4 4 5 5 16 6 17 7 18 8 19 9 6 11 7 12 11 13 8 14
REMARK SMILES IDX 10 15 9 16 12 17 15 18 13 19 14 20
REMARK H PARENT 19 10
ROOT
ATOM      1  C   UNL     1      -1.700  -5.678   1.071  1.00  0.00     0.083 A 
ATOM      2  C   UNL     1      -2.238  -4.405   0.916  1.00  0.00     0.028 A 
ATOM      3  C   UNL     1      -1.151  -3.563   0.831  1.00  0.00     0.000 A 
ATOM      4  C   UNL     1      -1.085  -2.181   0.670  1.00  0.00     0.022 A 
ATOM      5  C   UNL     1       0.193  -1.572   0.614  1.00  0.00     0.020 A 
ATOM      6  C   UNL     1       1.355  -2.386   0.723  1.00  0.00     0.014 A 
ATOM      7  C   UNL     1       1.248  -3.779   0.884  1.00  0.00     0.027 A 
ATOM      8  C   UNL     1      -0.027  -4.334   0.934  1.00  0.00     0.045 A 
ATOM      9  N   UNL     1      -0.348  -5.630   1.082  1.00  0.00    -0.361 N 
ATOM     10  H   UNL     1       0.307  -6.437   1.183  1.00  0.00     0.166 HD
ENDROOT
BRANCH   5  11
ATOM     11  C   UNL     1       0.316  -0.104   0.444  1.00  0.00     0.159 A 
ATOM     12  N   UNL     1       1.542   0.482   0.390  1.00  0.00    -0.236 NA
ATOM     13  N   UNL     1      -0.798   0.671   0.340  1.00  0.00    -0.233 NA
ATOM     14  C   UNL     1       1.679   1.822   0.228  1.00  0.00     0.119 A 
ATOM     15  C   UNL     1      -0.718   2.020   0.191  1.00  0.00     0.048 A 
ATOM     16  C   UNL     1       0.547   2.634   0.105  1.00  0.00    -0.008 A 
ATOM     17  C   UNL     1      -1.991   2.806   0.015  1.00  0.00     0.056 C 
ATOM     18  C   UNL     1       0.702   4.132   0.003  1.00  0.00     0.039 C 
ATOM     19  C   UNL     1      -1.795   4.304   0.269  1.00  0.00     0.007 C 
ATOM     20  C   UNL     1      -0.574   4.820  -0.495  1.00  0.00     0.005 C 
ENDBRANCH   5  11
TORSDOF 1


