MODEL 1
REMARK VINA RESULT:      -8.5      0.000      0.000
REMARK SMILES C=Cc1cc(-c2cccc3[nH+]coc23)cc(C#N)c1F
REMARK SMILES IDX 3 1 4 2 5 3 15 4 16 5 19 6 20 7 2 8 1 9 6 10 7 11 14 12 8 13
REMARK SMILES IDX 13 14 10 15 9 16 12 17 11 18 17 20 18 21
REMARK H PARENT 11 19
ROOT
ATOM      1  C   UNL     1      46.513 130.188  15.460  1.00  0.00     0.012 A 
ATOM      2  C   UNL     1      46.284 130.339  16.843  1.00  0.00     0.020 A 
ATOM      3  C   UNL     1      45.104 130.935  17.317  1.00  0.00    -0.012 A 
ATOM      4  C   UNL     1      44.152 131.398  16.395  1.00  0.00     0.031 A 
ATOM      5  C   UNL     1      44.376 131.271  15.021  1.00  0.00     0.089 A 
ATOM      6  C   UNL     1      45.552 130.672  14.553  1.00  0.00     0.148 A 
ATOM      7  F   UNL     1      45.755 130.548  13.214  1.00  0.00    -0.205 F 
ENDROOT
BRANCH   1   8
ATOM      8  C   UNL     1      47.757 129.571  14.935  1.00  0.00     0.003 C 
ATOM      9  C   UNL     1      48.182 129.709  13.679  1.00  0.00     0.009 C 
ENDBRANCH   1   8
BRANCH   3  10
ATOM     10  C   UNL     1      44.868 131.083  18.776  1.00  0.00     0.032 A 
ATOM     11  C   UNL     1      45.826 130.652  19.726  1.00  0.00     0.013 A 
ATOM     12  C   UNL     1      43.696 131.660  19.280  1.00  0.00     0.212 A 
ATOM     13  C   UNL     1      45.587 130.799  21.112  1.00  0.00     0.008 A 
ATOM     14  O   UNL     1      42.670 132.157  18.631  1.00  0.00    -0.403 OA
ATOM     15  C   UNL     1      43.472 131.798  20.619  1.00  0.00     0.249 A 
ATOM     16  C   UNL     1      44.392 131.380  21.574  1.00  0.00     0.083 A 
ATOM     17  C   UNL     1      41.824 132.591  19.551  1.00  0.00     0.521 A 
ATOM     18  N   UNL     1      42.282 132.387  20.809  1.00  0.00    -0.176 N 
ATOM     19  H   UNL     1      41.820 132.637  21.711  1.00  0.00     0.457 HD
ENDBRANCH   3  10
BRANCH   5  20
ATOM     20  C   UNL     1      43.387 131.754  14.090  1.00  0.00     0.102 C 
ATOM     21  N   UNL     1      42.592 132.141  13.343  1.00  0.00    -0.192 NA
ENDBRANCH   5  20
TORSDOF 3
ENDMDL
MODEL 2
REMARK VINA RESULT:      -7.7      1.538      2.772
REMARK SMILES C=Cc1cc(-c2cccc3[nH+]coc23)cc(C#N)c1F
REMARK SMILES IDX 3 1 4 2 5 3 15 4 16 5 19 6 20 7 2 8 1 9 6 10 7 11 14 12 8 13
REMARK SMILES IDX 13 14 10 15 9 16 12 17 11 18 17 20 18 21
REMARK H PARENT 11 19
ROOT
ATOM      1  C   UNL     1      44.285 131.536  14.942  1.00  0.00     0.012 A 
ATOM      2  C   UNL     1      44.119 131.559  16.341  1.00  0.00     0.020 A 
ATOM      3  C   UNL     1      45.098 131.020  17.192  1.00  0.00    -0.012 A 
ATOM      4  C   UNL     1      46.246 130.437  16.633  1.00  0.00     0.031 A 
ATOM      5  C   UNL     1      46.414 130.392  15.245  1.00  0.00     0.089 A 
ATOM      6  C   UNL     1      45.437 130.935  14.401  1.00  0.00     0.148 A 
ATOM      7  F   UNL     1      45.615 130.891  13.054  1.00  0.00    -0.205 F 
ENDROOT
BRANCH   1   8
ATOM      8  C   UNL     1      43.260 132.091  14.022  1.00  0.00     0.003 C 
ATOM      9  C   UNL     1      42.471 131.342  13.250  1.00  0.00     0.009 C 
ENDBRANCH   1   8
BRANCH   3  10
ATOM     10  C   UNL     1      44.917 131.055  18.665  1.00  0.00     0.032 A 
ATOM     11  C   UNL     1      45.890 130.517  19.542  1.00  0.00     0.013 A 
ATOM     12  C   UNL     1      43.782 131.624  19.258  1.00  0.00     0.212 A 
ATOM     13  C   UNL     1      45.704 130.555  20.943  1.00  0.00     0.008 A 
ATOM     14  O   UNL     1      42.753 132.205  18.689  1.00  0.00    -0.403 OA
ATOM     15  C   UNL     1      43.608 131.657  20.611  1.00  0.00     0.249 A 
ATOM     16  C   UNL     1      44.546 131.133  21.494  1.00  0.00     0.083 A 
ATOM     17  C   UNL     1      41.953 132.587  19.672  1.00  0.00     0.521 A 
ATOM     18  N   UNL     1      42.447 132.265  20.892  1.00  0.00    -0.176 N 
ATOM     19  H   UNL     1      42.024 132.453  21.827  1.00  0.00     0.457 HD
ENDBRANCH   3  10
BRANCH   5  20
ATOM     20  C   UNL     1      47.599 129.789  14.690  1.00  0.00     0.102 C 
ATOM     21  N   UNL     1      48.551 129.305  14.245  1.00  0.00    -0.192 NA
ENDBRANCH   5  20
TORSDOF 3
ENDMDL
MODEL 3
REMARK VINA RESULT:      -6.1      2.444      5.834
REMARK SMILES C=Cc1cc(-c2cccc3[nH+]coc23)cc(C#N)c1F
REMARK SMILES IDX 3 1 4 2 5 3 15 4 16 5 19 6 20 7 2 8 1 9 6 10 7 11 14 12 8 13
REMARK SMILES IDX 13 14 10 15 9 16 12 17 11 18 17 20 18 21
REMARK H PARENT 11 19
ROOT
ATOM      1  C   UNL     1      44.885 130.288  20.774  1.00  0.00     0.012 A 
ATOM      2  C   UNL     1      45.369 130.112  19.462  1.00  0.00     0.020 A 
ATOM      3  C   UNL     1      44.825 130.837  18.389  1.00  0.00    -0.012 A 
ATOM      4  C   UNL     1      43.772 131.734  18.632  1.00  0.00     0.031 A 
ATOM      5  C   UNL     1      43.270 131.904  19.927  1.00  0.00     0.089 A 
ATOM      6  C   UNL     1      43.821 131.182  20.994  1.00  0.00     0.148 A 
ATOM      7  F   UNL     1      43.328 131.361  22.248  1.00  0.00    -0.205 F 
ENDROOT
BRANCH   1   8
ATOM      8  C   UNL     1      45.438 129.527  21.922  1.00  0.00     0.003 C 
ATOM      9  C   UNL     1      45.222 128.227  22.124  1.00  0.00     0.009 C 
ENDBRANCH   1   8
BRANCH   3  10
ATOM     10  C   UNL     1      45.346 130.650  17.012  1.00  0.00     0.032 A 
ATOM     11  C   UNL     1      46.591 130.019  16.773  1.00  0.00     0.013 A 
ATOM     12  C   UNL     1      44.633 131.081  15.886  1.00  0.00     0.212 A 
ATOM     13  C   UNL     1      47.076 129.849  15.455  1.00  0.00     0.008 A 
ATOM     14  O   UNL     1      43.460 131.666  15.822  1.00  0.00    -0.403 OA
ATOM     15  C   UNL     1      45.106 130.915  14.617  1.00  0.00     0.249 A 
ATOM     16  C   UNL     1      46.326 130.302  14.354  1.00  0.00     0.083 A 
ATOM     17  C   UNL     1      43.214 131.863  14.536  1.00  0.00     0.521 A 
ATOM     18  N   UNL     1      44.216 131.409  13.745  1.00  0.00    -0.176 N 
ATOM     19  H   UNL     1      44.275 131.435  12.704  1.00  0.00     0.457 HD
ENDBRANCH   3  10
BRANCH   5  20
ATOM     20  C   UNL     1      42.189 132.829  20.156  1.00  0.00     0.102 C 
ATOM     21  N   UNL     1      41.321 133.572  20.340  1.00  0.00    -0.192 NA
ENDBRANCH   5  20
TORSDOF 3
ENDMDL
MODEL 4
REMARK VINA RESULT:      -6.0      2.748      6.177
REMARK SMILES C=Cc1cc(-c2cccc3[nH+]coc23)cc(C#N)c1F
REMARK SMILES IDX 3 1 4 2 5 3 15 4 16 5 19 6 20 7 2 8 1 9 6 10 7 11 14 12 8 13
REMARK SMILES IDX 13 14 10 15 9 16 12 17 11 18 17 20 18 21
REMARK H PARENT 11 19
ROOT
ATOM      1  C   UNL     1      44.891 130.680  20.208  1.00  0.00     0.012 A 
ATOM      2  C   UNL     1      45.069 130.608  18.813  1.00  0.00     0.020 A 
ATOM      3  C   UNL     1      44.218 131.304  17.939  1.00  0.00    -0.012 A 
ATOM      4  C   UNL     1      43.166 132.067  18.472  1.00  0.00     0.031 A 
ATOM      5  C   UNL     1      42.966 132.131  19.855  1.00  0.00     0.089 A 
ATOM      6  C   UNL     1      43.822 131.439  20.721  1.00  0.00     0.148 A 
ATOM      7  F   UNL     1      43.622 131.515  22.064  1.00  0.00    -0.205 F 
ENDROOT
BRANCH   1   8
ATOM      8  C   UNL     1      45.772 129.945  21.150  1.00  0.00     0.003 C 
ATOM      9  C   UNL     1      45.427 128.810  21.759  1.00  0.00     0.009 C 
ENDBRANCH   1   8
BRANCH   3  10
ATOM     10  C   UNL     1      44.418 131.228  16.470  1.00  0.00     0.032 A 
ATOM     11  C   UNL     1      43.477 131.780  15.567  1.00  0.00     0.013 A 
ATOM     12  C   UNL     1      45.544 130.613  15.909  1.00  0.00     0.212 A 
ATOM     13  C   UNL     1      43.680 131.698  14.170  1.00  0.00     0.008 A 
ATOM     14  O   UNL     1      46.566 130.050  16.508  1.00  0.00    -0.403 OA
ATOM     15  C   UNL     1      45.734 130.537  14.560  1.00  0.00     0.249 A 
ATOM     16  C   UNL     1      44.825 131.067  13.650  1.00  0.00     0.083 A 
ATOM     17  C   UNL     1      47.373 129.627  15.546  1.00  0.00     0.521 A 
ATOM     18  N   UNL     1      46.893 129.909  14.311  1.00  0.00    -0.176 N 
ATOM     19  H   UNL     1      47.327 129.694  13.388  1.00  0.00     0.457 HD
ENDBRANCH   3  10
BRANCH   5  20
ATOM     20  C   UNL     1      41.880 132.918  20.382  1.00  0.00     0.102 C 
ATOM     21  N   UNL     1      41.008 133.550  20.805  1.00  0.00    -0.192 NA
ENDBRANCH   5  20
TORSDOF 3
ENDMDL
MODEL 5
REMARK VINA RESULT:      -5.6      5.567      8.071
REMARK SMILES C=Cc1cc(-c2cccc3[nH+]coc23)cc(C#N)c1F
REMARK SMILES IDX 3 1 4 2 5 3 15 4 16 5 19 6 20 7 2 8 1 9 6 10 7 11 14 12 8 13
REMARK SMILES IDX 13 14 10 15 9 16 12 17 11 18 17 20 18 21
REMARK H PARENT 11 19
ROOT
ATOM      1  C   UNL     1      43.805 125.192  23.219  1.00  0.00     0.012 A 
ATOM      2  C   UNL     1      43.471 126.560  23.225  1.00  0.00     0.020 A 
ATOM      3  C   UNL     1      44.434 127.539  22.926  1.00  0.00    -0.012 A 
ATOM      4  C   UNL     1      45.749 127.140  22.637  1.00  0.00     0.031 A 
ATOM      5  C   UNL     1      46.097 125.786  22.646  1.00  0.00     0.089 A 
ATOM      6  C   UNL     1      45.132 124.814  22.939  1.00  0.00     0.148 A 
ATOM      7  F   UNL     1      45.481 123.500  22.938  1.00  0.00    -0.205 F 
ENDROOT
BRANCH   1   8
ATOM      8  C   UNL     1      42.807 124.140  23.540  1.00  0.00     0.003 C 
ATOM      9  C   UNL     1      41.699 123.927  22.831  1.00  0.00     0.009 C 
ENDBRANCH   1   8
BRANCH   3  10
ATOM     10  C   UNL     1      44.071 128.978  22.929  1.00  0.00     0.032 A 
ATOM     11  C   UNL     1      43.111 129.497  23.831  1.00  0.00     0.013 A 
ATOM     12  C   UNL     1      44.662 129.891  22.046  1.00  0.00     0.212 A 
ATOM     13  C   UNL     1      42.774 130.870  23.821  1.00  0.00     0.008 A 
ATOM     14  O   UNL     1      45.584 129.686  21.135  1.00  0.00    -0.403 OA
ATOM     15  C   UNL     1      44.332 131.215  22.040  1.00  0.00     0.249 A 
ATOM     16  C   UNL     1      43.391 131.750  22.913  1.00  0.00     0.083 A 
ATOM     17  C   UNL     1      45.817 130.861  20.572  1.00  0.00     0.521 A 
ATOM     18  N   UNL     1      45.057 131.847  21.106  1.00  0.00    -0.176 N 
ATOM     19  H   UNL     1      45.045 132.859  20.852  1.00  0.00     0.457 HD
ENDBRANCH   3  10
BRANCH   5  20
ATOM     20  C   UNL     1      47.452 125.396  22.347  1.00  0.00     0.102 C 
ATOM     21  N   UNL     1      48.540 125.083  22.105  1.00  0.00    -0.192 NA
ENDBRANCH   5  20
TORSDOF 3
ENDMDL
MODEL 6
REMARK VINA RESULT:      -5.6      1.366      2.117
REMARK SMILES C=Cc1cc(-c2cccc3[nH+]coc23)cc(C#N)c1F
REMARK SMILES IDX 3 1 4 2 5 3 15 4 16 5 19 6 20 7 2 8 1 9 6 10 7 11 14 12 8 13
REMARK SMILES IDX 13 14 10 15 9 16 12 17 11 18 17 20 18 21
REMARK H PARENT 11 19
ROOT
ATOM      1  C   UNL     1      46.119 130.435  15.852  1.00  0.00     0.012 A 
ATOM      2  C   UNL     1      45.681 130.659  17.172  1.00  0.00     0.020 A 
ATOM      3  C   UNL     1      44.427 131.239  17.428  1.00  0.00    -0.012 A 
ATOM      4  C   UNL     1      43.613 131.614  16.347  1.00  0.00     0.031 A 
ATOM      5  C   UNL     1      44.045 131.414  15.032  1.00  0.00     0.089 A 
ATOM      6  C   UNL     1      45.294 130.830  14.783  1.00  0.00     0.148 A 
ATOM      7  F   UNL     1      45.699 130.636  13.500  1.00  0.00    -0.205 F 
ENDROOT
BRANCH   1   8
ATOM      8  C   UNL     1      47.444 129.832  15.558  1.00  0.00     0.003 C 
ATOM      9  C   UNL     1      47.849 129.491  14.334  1.00  0.00     0.009 C 
ENDBRANCH   1   8
BRANCH   3  10
ATOM     10  C   UNL     1      43.972 131.465  18.823  1.00  0.00     0.032 A 
ATOM     11  C   UNL     1      42.851 132.281  19.110  1.00  0.00     0.013 A 
ATOM     12  C   UNL     1      44.621 130.880  19.917  1.00  0.00     0.212 A 
ATOM     13  C   UNL     1      42.429 132.489  20.444  1.00  0.00     0.008 A 
ATOM     14  O   UNL     1      45.656 130.073  19.932  1.00  0.00    -0.403 OA
ATOM     15  C   UNL     1      44.210 131.085  21.201  1.00  0.00     0.249 A 
ATOM     16  C   UNL     1      43.115 131.884  21.513  1.00  0.00     0.083 A 
ATOM     17  C   UNL     1      45.884 129.787  21.205  1.00  0.00     0.521 A 
ATOM     18  N   UNL     1      45.004 130.398  22.035  1.00  0.00    -0.176 N 
ATOM     19  H   UNL     1      44.956 130.340  23.075  1.00  0.00     0.457 HD
ENDBRANCH   3  10
BRANCH   5  20
ATOM     20  C   UNL     1      43.195 131.807  13.936  1.00  0.00     0.102 C 
ATOM     21  N   UNL     1      42.514 132.122  13.056  1.00  0.00    -0.192 NA
ENDBRANCH   5  20
TORSDOF 3
ENDMDL


