REMARK SMILES NC(=O)c1ccc(C2CC2)c(F)c1CCC(=O)c1ccccc1
REMARK SMILES IDX 14 1 13 2 4 3 5 4 6 5 11 6 7 7 12 8 2 9 1 10 3 13 8 14 9 15
REMARK SMILES IDX 10 16 15 17 16 18 17 19 18 20 19 21 23 22 20 23 22 24 21 25
REMARK H PARENT 1 11 1 12
ROOT
ATOM      1  C   UNL     1      -1.988   0.058   1.303  1.00  0.00     0.047 C 
ENDROOT
BRANCH   1   2
ATOM      2  C   UNL     1      -1.138  -0.469   0.160  1.00  0.00     0.001 A 
ATOM      3  C   UNL     1      -0.552  -1.766   0.174  1.00  0.00     0.045 A 
ATOM      4  C   UNL     1       0.339  -2.128  -0.847  1.00  0.00     0.014 A 
ATOM      5  C   UNL     1       0.650  -1.240  -1.874  1.00  0.00     0.008 A 
ATOM      6  C   UNL     1      -0.827   0.411  -0.899  1.00  0.00     0.130 A 
ATOM      7  C   UNL     1       0.088   0.040  -1.897  1.00  0.00    -0.009 A 
ATOM      8  F   UNL     1      -1.390   1.648  -0.939  1.00  0.00    -0.206 F 
BRANCH   3   9
ATOM      9  C   UNL     1      -0.853  -2.775   1.215  1.00  0.00     0.249 C 
ATOM     10  N   UNL     1       0.204  -3.496   1.850  1.00  0.00    -0.366 N 
ATOM     11  H   UNL     1      -0.013  -4.222   2.568  1.00  0.00     0.159 HD
ATOM     12  H   UNL     1       1.203  -3.300   1.618  1.00  0.00     0.159 HD
ATOM     13  O   UNL     1      -2.047  -3.051   1.504  1.00  0.00    -0.270 OA
ENDBRANCH   3   9
BRANCH   7  14
ATOM     14  C   UNL     1       0.409   0.982  -3.028  1.00  0.00     0.022 C 
ATOM     15  C   UNL     1       1.894   1.231  -3.268  1.00  0.00     0.009 C 
ATOM     16  C   UNL     1       1.046   2.301  -2.608  1.00  0.00     0.009 C 
ENDBRANCH   7  14
ENDBRANCH   1   2
BRANCH   1  17
ATOM     17  C   UNL     1      -1.189   0.962   2.255  1.00  0.00     0.086 C 
BRANCH  17  18
ATOM     18  C   UNL     1      -0.104   0.203   2.980  1.00  0.00     0.163 C 
ATOM     19  O   UNL     1      -0.409  -0.347   4.074  1.00  0.00    -0.294 OA
BRANCH  18  20
ATOM     20  C   UNL     1       1.274   0.019   2.436  1.00  0.00     0.017 A 
ATOM     21  C   UNL     1       1.751   0.755   1.330  1.00  0.00     0.012 A 
ATOM     22  C   UNL     1       2.132  -0.931   3.026  1.00  0.00     0.012 A 
ATOM     23  C   UNL     1       3.031   0.524   0.819  1.00  0.00     0.001 A 
ATOM     24  C   UNL     1       3.412  -1.155   2.512  1.00  0.00     0.001 A 
ATOM     25  C   UNL     1       3.859  -0.432   1.406  1.00  0.00     0.000 A 
ENDBRANCH  18  20
ENDBRANCH  17  18
ENDBRANCH   1  17
TORSDOF 6


