REMARK SMILES CCC[C@H](C)/N=C(\O)N(c1ccc(C)cc1)c1ccc2cc[nH]c2c1[O-]
REMARK SMILES IDX 6 1 7 2 8 3 9 5 10 6 11 7 16 8 12 9 15 10 13 11 14 12 17 13
REMARK SMILES IDX 18 14 25 15 19 16 24 17 20 18 23 19 21 20 22 21 26 22 4 24
REMARK SMILES IDX 5 25 3 26 2 27 1 28
REMARK H PARENT 8 4 23 23
ROOT
ATOM      1  N   UNL     1      -0.649   1.000   0.238  1.00  0.00    -0.232 NA
ENDROOT
BRANCH   1   2
ATOM      2  C   UNL     1      -0.132   1.054  -0.958  1.00  0.00     0.294 C 
BRANCH   2   3
ATOM      3  O   UNL     1       0.414   2.237  -1.468  1.00  0.00    -0.480 OA
ATOM      4  H   UNL     1       0.462   3.103  -0.948  1.00  0.00     0.296 HD
ENDBRANCH   2   3
BRANCH   2   5
ATOM      5  N   UNL     1      -0.112  -0.137  -1.770  1.00  0.00    -0.266 N 
BRANCH   5   6
ATOM      6  C   UNL     1       0.745  -0.217  -2.928  1.00  0.00     0.051 A 
ATOM      7  C   UNL     1       2.087   0.193  -2.853  1.00  0.00     0.027 A 
ATOM      8  C   UNL     1       0.257  -0.743  -4.136  1.00  0.00     0.027 A 
ATOM      9  C   UNL     1       2.920   0.096  -3.972  1.00  0.00     0.005 A 
ATOM     10  C   UNL     1       1.090  -0.840  -5.253  1.00  0.00     0.005 A 
ATOM     11  C   UNL     1       2.422  -0.405  -5.183  1.00  0.00    -0.051 A 
ATOM     12  C   UNL     1       3.327  -0.548  -6.371  1.00  0.00     0.044 C 
ENDBRANCH   5   6
BRANCH   5  13
ATOM     13  C   UNL     1      -0.960  -1.254  -1.433  1.00  0.00     0.045 A 
ATOM     14  C   UNL     1      -2.355  -1.058  -1.262  1.00  0.00     0.027 A 
ATOM     15  C   UNL     1      -0.410  -2.548  -1.266  1.00  0.00    -0.059 A 
ATOM     16  C   UNL     1      -3.197  -2.134  -0.930  1.00  0.00     0.012 A 
ATOM     17  C   UNL     1      -1.275  -3.593  -0.940  1.00  0.00     0.039 A 
ATOM     18  C   UNL     1      -2.619  -3.390  -0.778  1.00  0.00    -0.001 A 
ATOM     19  N   UNL     1      -0.961  -4.883  -0.735  1.00  0.00    -0.362 N 
ATOM     20  C   UNL     1      -3.185  -4.604  -0.458  1.00  0.00     0.028 A 
ATOM     21  C   UNL     1      -2.126  -5.505  -0.440  1.00  0.00     0.083 A 
ATOM     22  O   UNL     1       0.955  -2.778  -1.404  1.00  0.00    -0.870 OA
ATOM     23  H   UNL     1      -0.015  -5.322  -0.789  1.00  0.00     0.166 HD
ENDBRANCH   5  13
ENDBRANCH   2   5
ENDBRANCH   1   2
BRANCH   1  24
ATOM     24  C   UNL     1      -0.758   2.092   1.205  1.00  0.00     0.108 C 
ATOM     25  C   UNL     1      -1.916   3.017   0.807  1.00  0.00     0.033 C 
BRANCH  24  26
ATOM     26  C   UNL     1      -1.014   1.506   2.608  1.00  0.00     0.027 C 
BRANCH  26  27
ATOM     27  C   UNL     1       0.218   0.817   3.225  1.00  0.00    -0.001 C 
ATOM     28  C   UNL     1       0.538  -0.538   2.591  1.00  0.00     0.004 C 
ENDBRANCH  26  27
ENDBRANCH  24  26
ENDBRANCH   1  24
TORSDOF 8


