MODEL 1
REMARK VINA RESULT:      -8.9      0.000      0.000
REMARK SMILES C=Cc1ccc(-c2cnc3ocnc3c2C)c(Cl)c1F
REMARK SMILES IDX 3 1 4 2 5 3 6 4 17 5 18 6 19 7 20 8 2 9 1 10 7 11 8 12 15 13
REMARK SMILES IDX 9 14 14 15 10 16 13 17 11 18 12 19 16 20
REMARK H PARENT
ROOT
ATOM      1  C   UNL     1      45.339 131.039  15.541  1.00  0.00     0.011 A 
ATOM      2  C   UNL     1      46.149 130.686  16.638  1.00  0.00     0.012 A 
ATOM      3  C   UNL     1      45.680 130.840  17.944  1.00  0.00     0.011 A 
ATOM      4  C   UNL     1      44.396 131.343  18.183  1.00  0.00     0.005 A 
ATOM      5  C   UNL     1      43.568 131.677  17.095  1.00  0.00     0.085 A 
ATOM      6  Cl  UNL     1      41.927 132.266  17.352  1.00  0.00    -0.080 Cl
ATOM      7  C   UNL     1      44.039 131.522  15.783  1.00  0.00     0.149 A 
ATOM      8  F   UNL     1      43.229 131.853  14.744  1.00  0.00    -0.205 F 
ENDROOT
BRANCH   1   9
ATOM      9  C   UNL     1      45.801 130.879  14.138  1.00  0.00     0.003 C 
ATOM     10  C   UNL     1      47.081 130.932  13.765  1.00  0.00     0.009 C 
ENDBRANCH   1   9
BRANCH   4  11
ATOM     11  C   UNL     1      43.934 131.503  19.575  1.00  0.00     0.007 A 
ATOM     12  C   UNL     1      42.760 132.261  19.827  1.00  0.00     0.124 A 
ATOM     13  C   UNL     1      44.635 130.912  20.662  1.00  0.00    -0.010 A 
ATOM     14  N   UNL     1      42.312 132.450  21.105  1.00  0.00    -0.219 NA
ATOM     15  C   UNL     1      44.126 131.157  21.941  1.00  0.00     0.133 A 
ATOM     16  C   UNL     1      43.006 131.897  22.126  1.00  0.00     0.246 A 
ATOM     17  N   UNL     1      44.595 130.744  23.131  1.00  0.00    -0.214 NA
ATOM     18  O   UNL     1      42.738 131.974  23.399  1.00  0.00    -0.425 OA
ATOM     19  C   UNL     1      43.694 131.281  23.999  1.00  0.00     0.311 A 
ATOM     20  C   UNL     1      45.885 130.098  20.467  1.00  0.00     0.047 C 
ENDBRANCH   4  11
TORSDOF 2
ENDMDL
MODEL 2
REMARK VINA RESULT:      -8.7      1.921      2.458
REMARK SMILES C=Cc1ccc(-c2cnc3ocnc3c2C)c(Cl)c1F
REMARK SMILES IDX 3 1 4 2 5 3 6 4 17 5 18 6 19 7 20 8 2 9 1 10 7 11 8 12 15 13
REMARK SMILES IDX 9 14 14 15 10 16 13 17 11 18 12 19 16 20
REMARK H PARENT
ROOT
ATOM      1  C   UNL     1      46.732 131.099  14.289  1.00  0.00     0.011 A 
ATOM      2  C   UNL     1      46.532 132.364  14.875  1.00  0.00     0.012 A 
ATOM      3  C   UNL     1      45.752 132.497  16.026  1.00  0.00     0.011 A 
ATOM      4  C   UNL     1      45.160 131.373  16.616  1.00  0.00     0.005 A 
ATOM      5  C   UNL     1      45.372 130.101  16.053  1.00  0.00     0.085 A 
ATOM      6  Cl  UNL     1      44.686 128.656  16.794  1.00  0.00    -0.080 Cl
ATOM      7  C   UNL     1      46.155 129.969  14.897  1.00  0.00     0.149 A 
ATOM      8  F   UNL     1      46.346 128.734  14.363  1.00  0.00    -0.205 F 
ENDROOT
BRANCH   1   9
ATOM      9  C   UNL     1      47.563 130.920  13.071  1.00  0.00     0.003 C 
ATOM     10  C   UNL     1      48.518 129.995  12.950  1.00  0.00     0.009 C 
ENDBRANCH   1   9
BRANCH   4  11
ATOM     11  C   UNL     1      44.334 131.548  17.826  1.00  0.00     0.007 A 
ATOM     12  C   UNL     1      42.982 131.958  17.681  1.00  0.00     0.124 A 
ATOM     13  C   UNL     1      44.860 131.311  19.126  1.00  0.00    -0.010 A 
ATOM     14  N   UNL     1      42.189 132.152  18.778  1.00  0.00    -0.219 NA
ATOM     15  C   UNL     1      43.997 131.541  20.201  1.00  0.00     0.133 A 
ATOM     16  C   UNL     1      42.717 131.942  20.006  1.00  0.00     0.246 A 
ATOM     17  N   UNL     1      44.235 131.418  21.518  1.00  0.00    -0.214 NA
ATOM     18  O   UNL     1      42.123 132.081  21.158  1.00  0.00    -0.425 OA
ATOM     19  C   UNL     1      43.037 131.766  22.062  1.00  0.00     0.311 A 
ATOM     20  C   UNL     1      46.283 130.877  19.351  1.00  0.00     0.047 C 
ENDBRANCH   4  11
TORSDOF 2
ENDMDL
MODEL 3
REMARK VINA RESULT:      -8.7      1.088      1.232
REMARK SMILES C=Cc1ccc(-c2cnc3ocnc3c2C)c(Cl)c1F
REMARK SMILES IDX 3 1 4 2 5 3 6 4 17 5 18 6 19 7 20 8 2 9 1 10 7 11 8 12 15 13
REMARK SMILES IDX 9 14 14 15 10 16 13 17 11 18 12 19 16 20
REMARK H PARENT
ROOT
ATOM      1  C   UNL     1      46.364 130.365  15.091  1.00  0.00     0.011 A 
ATOM      2  C   UNL     1      46.866 130.033  16.365  1.00  0.00     0.012 A 
ATOM      3  C   UNL     1      46.144 130.351  17.516  1.00  0.00     0.011 A 
ATOM      4  C   UNL     1      44.908 131.001  17.422  1.00  0.00     0.005 A 
ATOM      5  C   UNL     1      44.384 131.317  16.155  1.00  0.00     0.085 A 
ATOM      6  Cl  UNL     1      42.808 132.090  15.992  1.00  0.00    -0.080 Cl
ATOM      7  C   UNL     1      45.110 130.997  14.998  1.00  0.00     0.149 A 
ATOM      8  F   UNL     1      44.593 131.313  13.782  1.00  0.00    -0.205 F 
ENDROOT
BRANCH   1   9
ATOM      9  C   UNL     1      47.100 130.033  13.844  1.00  0.00     0.003 C 
ATOM     10  C   UNL     1      47.585 130.947  13.000  1.00  0.00     0.009 C 
ENDBRANCH   1   9
BRANCH   4  11
ATOM     11  C   UNL     1      44.174 131.332  18.659  1.00  0.00     0.007 A 
ATOM     12  C   UNL     1      42.879 131.906  18.557  1.00  0.00     0.124 A 
ATOM     13  C   UNL     1      44.733 131.086  19.943  1.00  0.00    -0.010 A 
ATOM     14  N   UNL     1      42.175 132.247  19.679  1.00  0.00    -0.219 NA
ATOM     15  C   UNL     1      43.963 131.470  21.044  1.00  0.00     0.133 A 
ATOM     16  C   UNL     1      42.735 132.023  20.890  1.00  0.00     0.246 A 
ATOM     17  N   UNL     1      44.252 131.373  22.354  1.00  0.00    -0.214 NA
ATOM     18  O   UNL     1      42.224 132.286  22.060  1.00  0.00    -0.425 OA
ATOM     19  C   UNL     1      43.138 131.895  22.935  1.00  0.00     0.311 A 
ATOM     20  C   UNL     1      46.099 130.482  20.124  1.00  0.00     0.047 C 
ENDBRANCH   4  11
TORSDOF 2
ENDMDL
MODEL 4
REMARK VINA RESULT:      -8.1      3.970      6.747
REMARK SMILES C=Cc1ccc(-c2cnc3ocnc3c2C)c(Cl)c1F
REMARK SMILES IDX 3 1 4 2 5 3 6 4 17 5 18 6 19 7 20 8 2 9 1 10 7 11 8 12 15 13
REMARK SMILES IDX 9 14 14 15 10 16 13 17 11 18 12 19 16 20
REMARK H PARENT
ROOT
ATOM      1  C   UNL     1      43.610 131.682  20.382  1.00  0.00     0.011 A 
ATOM      2  C   UNL     1      44.909 131.137  20.395  1.00  0.00     0.012 A 
ATOM      3  C   UNL     1      45.543 130.787  19.202  1.00  0.00     0.011 A 
ATOM      4  C   UNL     1      44.898 130.975  17.974  1.00  0.00     0.005 A 
ATOM      5  C   UNL     1      43.610 131.540  17.945  1.00  0.00     0.085 A 
ATOM      6  Cl  UNL     1      42.784 131.839  16.417  1.00  0.00    -0.080 Cl
ATOM      7  C   UNL     1      42.974 131.892  19.145  1.00  0.00     0.149 A 
ATOM      8  F   UNL     1      41.728 132.432  19.101  1.00  0.00    -0.205 F 
ENDROOT
BRANCH   1   9
ATOM      9  C   UNL     1      42.910 132.076  21.632  1.00  0.00     0.003 C 
ATOM     10  C   UNL     1      43.232 131.617  22.843  1.00  0.00     0.009 C 
ENDBRANCH   1   9
BRANCH   4  11
ATOM     11  C   UNL     1      45.592 130.584  16.730  1.00  0.00     0.007 A 
ATOM     12  C   UNL     1      45.772 129.204  16.449  1.00  0.00     0.124 A 
ATOM     13  C   UNL     1      46.075 131.557  15.813  1.00  0.00    -0.010 A 
ATOM     14  N   UNL     1      46.427 128.802  15.319  1.00  0.00    -0.219 NA
ATOM     15  C   UNL     1      46.746 131.074  14.686  1.00  0.00     0.133 A 
ATOM     16  C   UNL     1      46.898 129.744  14.470  1.00  0.00     0.246 A 
ATOM     17  N   UNL     1      47.315 131.762  13.681  1.00  0.00    -0.214 NA
ATOM     18  O   UNL     1      47.549 129.554  13.357  1.00  0.00    -0.425 OA
ATOM     19  C   UNL     1      47.797 130.767  12.887  1.00  0.00     0.311 A 
ATOM     20  C   UNL     1      45.920 133.035  16.050  1.00  0.00     0.047 C 
ENDBRANCH   4  11
TORSDOF 2
ENDMDL
MODEL 5
REMARK VINA RESULT:      -8.0      1.992      2.580
REMARK SMILES C=Cc1ccc(-c2cnc3ocnc3c2C)c(Cl)c1F
REMARK SMILES IDX 3 1 4 2 5 3 6 4 17 5 18 6 19 7 20 8 2 9 1 10 7 11 8 12 15 13
REMARK SMILES IDX 9 14 14 15 10 16 13 17 11 18 12 19 16 20
REMARK H PARENT
ROOT
ATOM      1  C   UNL     1      46.871 129.981  14.401  1.00  0.00     0.011 A 
ATOM      2  C   UNL     1      46.139 129.040  15.152  1.00  0.00     0.012 A 
ATOM      3  C   UNL     1      45.330 129.453  16.212  1.00  0.00     0.011 A 
ATOM      4  C   UNL     1      45.232 130.810  16.543  1.00  0.00     0.005 A 
ATOM      5  C   UNL     1      45.939 131.762  15.787  1.00  0.00     0.085 A 
ATOM      6  Cl  UNL     1      45.803 133.484  16.139  1.00  0.00    -0.080 Cl
ATOM      7  C   UNL     1      46.751 131.347  14.721  1.00  0.00     0.149 A 
ATOM      8  F   UNL     1      47.431 132.278  14.003  1.00  0.00    -0.205 F 
ENDROOT
BRANCH   1   9
ATOM      9  C   UNL     1      47.732 129.579  13.260  1.00  0.00     0.003 C 
ATOM     10  C   UNL     1      48.986 129.140  13.392  1.00  0.00     0.009 C 
ENDBRANCH   1   9
BRANCH   4  11
ATOM     11  C   UNL     1      44.377 131.213  17.677  1.00  0.00     0.007 A 
ATOM     12  C   UNL     1      43.070 131.702  17.411  1.00  0.00     0.124 A 
ATOM     13  C   UNL     1      44.831 131.117  19.021  1.00  0.00    -0.010 A 
ATOM     14  N   UNL     1      42.255 132.106  18.432  1.00  0.00    -0.219 NA
ATOM     15  C   UNL     1      43.949 131.558  20.011  1.00  0.00     0.133 A 
ATOM     16  C   UNL     1      42.715 132.026  19.701  1.00  0.00     0.246 A 
ATOM     17  N   UNL     1      44.125 131.600  21.343  1.00  0.00    -0.214 NA
ATOM     18  O   UNL     1      42.090 132.368  20.793  1.00  0.00    -0.425 OA
ATOM     19  C   UNL     1      42.940 132.111  21.776  1.00  0.00     0.311 A 
ATOM     20  C   UNL     1      46.203 130.610  19.373  1.00  0.00     0.047 C 
ENDBRANCH   4  11
TORSDOF 2
ENDMDL
MODEL 6
REMARK VINA RESULT:      -7.7      4.261      6.960
REMARK SMILES C=Cc1ccc(-c2cnc3ocnc3c2C)c(Cl)c1F
REMARK SMILES IDX 3 1 4 2 5 3 6 4 17 5 18 6 19 7 20 8 2 9 1 10 7 11 8 12 15 13
REMARK SMILES IDX 9 14 14 15 10 16 13 17 11 18 12 19 16 20
REMARK H PARENT
ROOT
ATOM      1  C   UNL     1      42.888 132.141  19.904  1.00  0.00     0.011 A 
ATOM      2  C   UNL     1      42.356 132.084  18.601  1.00  0.00     0.012 A 
ATOM      3  C   UNL     1      43.132 131.615  17.538  1.00  0.00     0.011 A 
ATOM      4  C   UNL     1      44.449 131.192  17.753  1.00  0.00     0.005 A 
ATOM      5  C   UNL     1      44.984 131.222  19.054  1.00  0.00     0.085 A 
ATOM      6  Cl  UNL     1      46.621 130.651  19.375  1.00  0.00    -0.080 Cl
ATOM      7  C   UNL     1      44.204 131.692  20.121  1.00  0.00     0.149 A 
ATOM      8  F   UNL     1      44.738 131.719  21.371  1.00  0.00    -0.205 F 
ENDROOT
BRANCH   1   9
ATOM      9  C   UNL     1      42.089 132.623  21.059  1.00  0.00     0.003 C 
ATOM     10  C   UNL     1      42.147 132.088  22.280  1.00  0.00     0.009 C 
ENDBRANCH   1   9
BRANCH   4  11
ATOM     11  C   UNL     1      45.245 130.712  16.607  1.00  0.00     0.007 A 
ATOM     12  C   UNL     1      45.346 129.314  16.377  1.00  0.00     0.124 A 
ATOM     13  C   UNL     1      45.907 131.617  15.732  1.00  0.00    -0.010 A 
ATOM     14  N   UNL     1      46.091 128.829  15.339  1.00  0.00    -0.219 NA
ATOM     15  C   UNL     1      46.660 131.050  14.700  1.00  0.00     0.133 A 
ATOM     16  C   UNL     1      46.729 129.707  14.531  1.00  0.00     0.246 A 
ATOM     17  N   UNL     1      47.393 131.661  13.753  1.00  0.00    -0.214 NA
ATOM     18  O   UNL     1      47.485 129.434  13.505  1.00  0.00    -0.425 OA
ATOM     19  C   UNL     1      47.881 130.609  13.041  1.00  0.00     0.311 A 
ATOM     20  C   UNL     1      45.844 133.108  15.918  1.00  0.00     0.047 C 
ENDBRANCH   4  11
TORSDOF 2
ENDMDL
MODEL 7
REMARK VINA RESULT:      -7.5      3.895      6.542
REMARK SMILES C=Cc1ccc(-c2cnc3ocnc3c2C)c(Cl)c1F
REMARK SMILES IDX 3 1 4 2 5 3 6 4 17 5 18 6 19 7 20 8 2 9 1 10 7 11 8 12 15 13
REMARK SMILES IDX 9 14 14 15 10 16 13 17 11 18 12 19 16 20
REMARK H PARENT
ROOT
ATOM      1  C   UNL     1      43.518 131.590  20.674  1.00  0.00     0.011 A 
ATOM      2  C   UNL     1      44.905 131.357  20.604  1.00  0.00     0.012 A 
ATOM      3  C   UNL     1      45.555 131.310  19.369  1.00  0.00     0.011 A 
ATOM      4  C   UNL     1      44.838 131.498  18.182  1.00  0.00     0.005 A 
ATOM      5  C   UNL     1      43.455 131.756  18.239  1.00  0.00     0.085 A 
ATOM      6  Cl  UNL     1      42.526 132.048  16.771  1.00  0.00    -0.080 Cl
ATOM      7  C   UNL     1      42.803 131.803  19.480  1.00  0.00     0.149 A 
ATOM      8  F   UNL     1      41.467 132.048  19.518  1.00  0.00    -0.205 F 
ENDROOT
BRANCH   1   9
ATOM      9  C   UNL     1      42.796 131.657  21.970  1.00  0.00     0.003 C 
ATOM     10  C   UNL     1      43.399 131.786  23.153  1.00  0.00     0.009 C 
ENDBRANCH   1   9
BRANCH   4  11
ATOM     11  C   UNL     1      45.552 131.432  16.892  1.00  0.00     0.007 A 
ATOM     12  C   UNL     1      45.758 132.630  16.158  1.00  0.00     0.124 A 
ATOM     13  C   UNL     1      46.040 130.201  16.375  1.00  0.00    -0.010 A 
ATOM     14  N   UNL     1      46.396 132.609  14.950  1.00  0.00    -0.219 NA
ATOM     15  C   UNL     1      46.672 130.252  15.130  1.00  0.00     0.133 A 
ATOM     16  C   UNL     1      46.833 131.423  14.467  1.00  0.00     0.246 A 
ATOM     17  N   UNL     1      47.202 129.249  14.409  1.00  0.00    -0.214 NA
ATOM     18  O   UNL     1      47.451 131.206  13.340  1.00  0.00    -0.425 OA
ATOM     19  C   UNL     1      47.670 129.900  13.309  1.00  0.00     0.311 A 
ATOM     20  C   UNL     1      45.856 128.894  17.099  1.00  0.00     0.047 C 
ENDBRANCH   4  11
TORSDOF 2
ENDMDL
MODEL 8
REMARK VINA RESULT:      -7.3      1.910      2.716
REMARK SMILES C=Cc1ccc(-c2cnc3ocnc3c2C)c(Cl)c1F
REMARK SMILES IDX 3 1 4 2 5 3 6 4 17 5 18 6 19 7 20 8 2 9 1 10 7 11 8 12 15 13
REMARK SMILES IDX 9 14 14 15 10 16 13 17 11 18 12 19 16 20
REMARK H PARENT
ROOT
ATOM      1  C   UNL     1      46.202 131.211  14.665  1.00  0.00     0.011 A 
ATOM      2  C   UNL     1      45.960 132.447  15.295  1.00  0.00     0.012 A 
ATOM      3  C   UNL     1      45.584 132.497  16.639  1.00  0.00     0.011 A 
ATOM      4  C   UNL     1      45.446 131.318  17.381  1.00  0.00     0.005 A 
ATOM      5  C   UNL     1      45.708 130.078  16.770  1.00  0.00     0.085 A 
ATOM      6  Cl  UNL     1      45.595 128.574  17.683  1.00  0.00    -0.080 Cl
ATOM      7  C   UNL     1      46.086 130.029  15.420  1.00  0.00     0.149 A 
ATOM      8  F   UNL     1      46.331 128.823  14.843  1.00  0.00    -0.205 F 
ENDROOT
BRANCH   1   9
ATOM      9  C   UNL     1      46.614 131.121  13.241  1.00  0.00     0.003 C 
ATOM     10  C   UNL     1      47.877 130.966  12.839  1.00  0.00     0.009 C 
ENDBRANCH   1   9
BRANCH   4  11
ATOM     11  C   UNL     1      45.037 131.403  18.797  1.00  0.00     0.007 A 
ATOM     12  C   UNL     1      46.002 131.151  19.807  1.00  0.00     0.124 A 
ATOM     13  C   UNL     1      43.705 131.737  19.166  1.00  0.00    -0.010 A 
ATOM     14  N   UNL     1      45.658 131.199  21.130  1.00  0.00    -0.219 NA
ATOM     15  C   UNL     1      43.422 131.756  20.535  1.00  0.00     0.133 A 
ATOM     16  C   UNL     1      44.380 131.497  21.458  1.00  0.00     0.246 A 
ATOM     17  N   UNL     1      42.257 132.016  21.154  1.00  0.00    -0.214 NA
ATOM     18  O   UNL     1      43.869 131.582  22.654  1.00  0.00    -0.425 OA
ATOM     19  C   UNL     1      42.595 131.893  22.467  1.00  0.00     0.311 A 
ATOM     20  C   UNL     1      42.633 132.015  18.148  1.00  0.00     0.047 C 
ENDBRANCH   4  11
TORSDOF 2
ENDMDL
MODEL 9
REMARK VINA RESULT:      -7.3      3.541      6.365
REMARK SMILES C=Cc1ccc(-c2cnc3ocnc3c2C)c(Cl)c1F
REMARK SMILES IDX 3 1 4 2 5 3 6 4 17 5 18 6 19 7 20 8 2 9 1 10 7 11 8 12 15 13
REMARK SMILES IDX 9 14 14 15 10 16 13 17 11 18 12 19 16 20
REMARK H PARENT
ROOT
ATOM      1  C   UNL     1      43.370 131.699  21.915  1.00  0.00     0.011 A 
ATOM      2  C   UNL     1      44.606 131.140  21.535  1.00  0.00     0.012 A 
ATOM      3  C   UNL     1      44.943 131.018  20.186  1.00  0.00     0.011 A 
ATOM      4  C   UNL     1      44.060 131.453  19.191  1.00  0.00     0.005 A 
ATOM      5  C   UNL     1      42.832 132.035  19.558  1.00  0.00     0.085 A 
ATOM      6  Cl  UNL     1      41.715 132.641  18.337  1.00  0.00    -0.080 Cl
ATOM      7  C   UNL     1      42.494 132.158  20.913  1.00  0.00     0.149 A 
ATOM      8  F   UNL     1      41.303 132.718  21.252  1.00  0.00    -0.205 F 
ENDROOT
BRANCH   1   9
ATOM      9  C   UNL     1      42.982 131.854  23.341  1.00  0.00     0.003 C 
ATOM     10  C   UNL     1      43.772 131.532  24.367  1.00  0.00     0.009 C 
ENDBRANCH   1   9
BRANCH   4  11
ATOM     11  C   UNL     1      44.442 131.301  17.773  1.00  0.00     0.007 A 
ATOM     12  C   UNL     1      43.603 131.856  16.771  1.00  0.00     0.124 A 
ATOM     13  C   UNL     1      45.630 130.617  17.394  1.00  0.00    -0.010 A 
ATOM     14  N   UNL     1      43.911 131.718  15.447  1.00  0.00    -0.219 NA
ATOM     15  C   UNL     1      45.875 130.504  16.023  1.00  0.00     0.133 A 
ATOM     16  C   UNL     1      45.034 131.045  15.108  1.00  0.00     0.246 A 
ATOM     17  N   UNL     1      46.897 129.899  15.393  1.00  0.00    -0.214 NA
ATOM     18  O   UNL     1      45.484 130.808  13.907  1.00  0.00    -0.425 OA
ATOM     19  C   UNL     1      46.602 130.120  14.083  1.00  0.00     0.311 A 
ATOM     20  C   UNL     1      46.563 130.003  18.402  1.00  0.00     0.047 C 
ENDBRANCH   4  11
TORSDOF 2
ENDMDL


