REMARK SMILES Cc1cc(N)c([NH2+]c2cc(F)c(C)[nH+]c2F)cc1F
REMARK SMILES IDX 1 1 2 2 3 3 4 4 6 5 17 6 18 7 19 8 5 9 7 12 8 15 9 16 15 17
REMARK SMILES IDX 10 18 14 19 12 20 16 21 11 22 13 24
REMARK H PARENT 5 10 5 11 7 13 7 14 14 23
ROOT
ATOM      1  C   UNL     1      -0.635  -0.102  -4.161  1.00  0.00     0.047 C 
ATOM      2  C   UNL     1       0.035   0.004  -2.821  1.00  0.00    -0.013 A 
ATOM      3  C   UNL     1      -0.646   0.564  -1.732  1.00  0.00     0.038 A 
ATOM      4  C   UNL     1      -0.024   0.693  -0.479  1.00  0.00     0.094 A 
ATOM      5  C   UNL     1       1.317   0.255  -0.315  1.00  0.00     0.161 A 
ATOM      6  C   UNL     1       1.992  -0.292  -1.423  1.00  0.00     0.110 A 
ATOM      7  C   UNL     1       1.363  -0.412  -2.662  1.00  0.00     0.132 A 
ATOM      8  F   UNL     1       2.050  -0.937  -3.708  1.00  0.00    -0.206 F 
ENDROOT
BRANCH   4   9
ATOM      9  N   UNL     1      -0.770   1.270   0.601  1.00  0.00    -0.394 N 
ATOM     10  H   UNL     1      -1.762   1.565   0.459  1.00  0.00     0.156 HD
ATOM     11  H   UNL     1      -0.361   1.432   1.543  1.00  0.00     0.156 HD
ENDBRANCH   4   9
BRANCH   5  12
ATOM     12  N   UNL     1       1.999   0.338   0.960  1.00  0.00    -0.272 N 
ATOM     13  H   UNL     1       1.873   1.299   1.351  1.00  0.00     0.358 HD
ATOM     14  H   UNL     1       3.030   0.212   0.835  1.00  0.00     0.358 HD
BRANCH  12  15
ATOM     15  C   UNL     1       1.535  -0.685   1.872  1.00  0.00     0.242 A 
ATOM     16  C   UNL     1       1.590  -2.043   1.514  1.00  0.00     0.124 A 
ATOM     17  C   UNL     1       1.111  -0.360   3.176  1.00  0.00     0.421 A 
ATOM     18  C   UNL     1       1.173  -3.028   2.408  1.00  0.00     0.195 A 
ATOM     19  N   UNL     1       0.709  -1.339   4.034  1.00  0.00    -0.176 N 
ATOM     20  C   UNL     1       0.710  -2.655   3.677  1.00  0.00     0.215 A 
ATOM     21  F   UNL     1       1.113   0.929   3.601  1.00  0.00    -0.131 F 
ATOM     22  F   UNL     1       1.229  -4.334   2.043  1.00  0.00    -0.200 F 
ATOM     23  H   UNL     1       0.398  -1.061   4.992  1.00  0.00     0.457 HD
ATOM     24  C   UNL     1       0.285  -3.705   4.662  1.00  0.00     0.127 C 
ENDBRANCH  12  15
ENDBRANCH   5  12
TORSDOF 3


