MODEL 1
REMARK VINA RESULT:     -10.1      0.000      0.000
REMARK SMILES [O-]c1cc(-c2cccc3[nH+]coc23)cc(F)c1F
REMARK SMILES IDX 5 1 6 2 7 3 8 4 9 5 10 6 11 7 12 8 13 9 4 11 2 12 3 13 17 14
REMARK SMILES IDX 15 15 14 16 1 17 18 18 16 19
REMARK H PARENT 10 10
ROOT
ATOM      1  C   UNL     1      44.769 131.163  18.743  1.00  0.00     0.032 A 
ATOM      2  C   UNL     1      45.721 130.670  19.668  1.00  0.00     0.013 A 
ATOM      3  C   UNL     1      45.488 130.750  21.060  1.00  0.00     0.008 A 
ATOM      4  C   UNL     1      44.304 131.322  21.555  1.00  0.00     0.083 A 
ATOM      5  C   UNL     1      43.386 131.801  20.626  1.00  0.00     0.249 A 
ATOM      6  N   UNL     1      42.206 132.397  20.849  1.00  0.00    -0.176 N 
ATOM      7  C   UNL     1      41.746 132.672  19.606  1.00  0.00     0.521 A 
ATOM      8  O   UNL     1      42.585 132.274  18.661  1.00  0.00    -0.403 OA
ATOM      9  C   UNL     1      43.604 131.729  19.282  1.00  0.00     0.212 A 
ATOM     10  H   UNL     1      41.749 132.607  21.765  1.00  0.00     0.457 HD
ENDROOT
BRANCH   1  11
ATOM     11  C   UNL     1      44.999 131.086  17.279  1.00  0.00    -0.012 A 
ATOM     12  C   UNL     1      46.386 130.413  15.394  1.00  0.00    -0.068 A 
ATOM     13  C   UNL     1      46.168 130.488  16.774  1.00  0.00     0.003 A 
ATOM     14  C   UNL     1      45.438 130.930  14.506  1.00  0.00     0.151 A 
ATOM     15  C   UNL     1      44.270 131.522  14.997  1.00  0.00     0.158 A 
ATOM     16  C   UNL     1      44.050 131.599  16.377  1.00  0.00     0.051 A 
ATOM     17  O   UNL     1      47.548 129.826  14.908  1.00  0.00    -0.870 OA
ATOM     18  F   UNL     1      45.647 130.856  13.168  1.00  0.00    -0.204 F 
ATOM     19  F   UNL     1      43.346 132.016  14.138  1.00  0.00    -0.204 F 
ENDBRANCH   1  11
TORSDOF 1
ENDMDL
MODEL 2
REMARK VINA RESULT:     -10.0      1.306      1.966
REMARK SMILES [O-]c1cc(-c2cccc3[nH+]coc23)cc(F)c1F
REMARK SMILES IDX 5 1 6 2 7 3 8 4 9 5 10 6 11 7 12 8 13 9 4 11 2 12 3 13 17 14
REMARK SMILES IDX 15 15 14 16 1 17 18 18 16 19
REMARK H PARENT 10 10
ROOT
ATOM      1  C   UNL     1      44.769 131.153  18.765  1.00  0.00     0.032 A 
ATOM      2  C   UNL     1      45.711 130.666  19.704  1.00  0.00     0.013 A 
ATOM      3  C   UNL     1      45.463 130.758  21.093  1.00  0.00     0.008 A 
ATOM      4  C   UNL     1      44.274 131.337  21.570  1.00  0.00     0.083 A 
ATOM      5  C   UNL     1      43.368 131.810  20.627  1.00  0.00     0.249 A 
ATOM      6  N   UNL     1      42.187 132.410  20.833  1.00  0.00    -0.176 N 
ATOM      7  C   UNL     1      41.741 132.676  19.581  1.00  0.00     0.521 A 
ATOM      8  O   UNL     1      42.589 132.268  18.650  1.00  0.00    -0.403 OA
ATOM      9  C   UNL     1      43.600 131.726  19.286  1.00  0.00     0.212 A 
ATOM     10  H   UNL     1      41.721 132.630  21.741  1.00  0.00     0.457 HD
ENDROOT
BRANCH   1  11
ATOM     11  C   UNL     1      45.015 131.062  17.304  1.00  0.00    -0.012 A 
ATOM     12  C   UNL     1      44.282 131.446  15.014  1.00  0.00    -0.068 A 
ATOM     13  C   UNL     1      44.051 131.528  16.392  1.00  0.00     0.003 A 
ATOM     14  C   UNL     1      45.477 130.901  14.534  1.00  0.00     0.151 A 
ATOM     15  C   UNL     1      46.444 130.440  15.434  1.00  0.00     0.158 A 
ATOM     16  C   UNL     1      46.216 130.520  16.811  1.00  0.00     0.051 A 
ATOM     17  O   UNL     1      43.319 131.904  14.123  1.00  0.00    -0.870 OA
ATOM     18  F   UNL     1      45.702 130.822  13.199  1.00  0.00    -0.204 F 
ATOM     19  F   UNL     1      47.607 129.919  14.971  1.00  0.00    -0.204 F 
ENDBRANCH   1  11
TORSDOF 1
ENDMDL
MODEL 3
REMARK VINA RESULT:      -8.8      1.297      2.175
REMARK SMILES [O-]c1cc(-c2cccc3[nH+]coc23)cc(F)c1F
REMARK SMILES IDX 5 1 6 2 7 3 8 4 9 5 10 6 11 7 12 8 13 9 4 11 2 12 3 13 17 14
REMARK SMILES IDX 15 15 14 16 1 17 18 18 16 19
REMARK H PARENT 10 10
ROOT
ATOM      1  C   UNL     1      43.808 131.615  18.299  1.00  0.00     0.032 A 
ATOM      2  C   UNL     1      42.495 132.116  18.473  1.00  0.00     0.013 A 
ATOM      3  C   UNL     1      41.977 132.355  19.767  1.00  0.00     0.008 A 
ATOM      4  C   UNL     1      42.757 132.098  20.908  1.00  0.00     0.083 A 
ATOM      5  C   UNL     1      44.041 131.604  20.709  1.00  0.00     0.249 A 
ATOM      6  N   UNL     1      44.958 131.270  21.628  1.00  0.00    -0.176 N 
ATOM      7  C   UNL     1      46.006 130.833  20.890  1.00  0.00     0.521 A 
ATOM      8  O   UNL     1      45.762 130.889  19.590  1.00  0.00    -0.403 OA
ATOM      9  C   UNL     1      44.548 131.369  19.465  1.00  0.00     0.212 A 
ATOM     10  H   UNL     1      44.883 131.325  22.669  1.00  0.00     0.457 HD
ENDROOT
BRANCH   1  11
ATOM     11  C   UNL     1      44.366 131.359  16.948  1.00  0.00    -0.012 A 
ATOM     12  C   UNL     1      46.171 130.545  15.530  1.00  0.00    -0.068 A 
ATOM     13  C   UNL     1      45.644 130.788  16.803  1.00  0.00     0.003 A 
ATOM     14  C   UNL     1      45.427 130.865  14.390  1.00  0.00     0.151 A 
ATOM     15  C   UNL     1      44.154 131.428  14.524  1.00  0.00     0.158 A 
ATOM     16  C   UNL     1      43.624 131.673  15.795  1.00  0.00     0.051 A 
ATOM     17  O   UNL     1      47.437 129.986  15.401  1.00  0.00    -0.870 OA
ATOM     18  F   UNL     1      45.936 130.627  13.156  1.00  0.00    -0.204 F 
ATOM     19  F   UNL     1      43.427 131.732  13.420  1.00  0.00    -0.204 F 
ENDBRANCH   1  11
TORSDOF 1
ENDMDL
MODEL 4
REMARK VINA RESULT:      -8.8      1.882      2.917
REMARK SMILES [O-]c1cc(-c2cccc3[nH+]coc23)cc(F)c1F
REMARK SMILES IDX 5 1 6 2 7 3 8 4 9 5 10 6 11 7 12 8 13 9 4 11 2 12 3 13 17 14
REMARK SMILES IDX 15 15 14 16 1 17 18 18 16 19
REMARK H PARENT 10 10
ROOT
ATOM      1  C   UNL     1      43.805 131.665  18.401  1.00  0.00     0.032 A 
ATOM      2  C   UNL     1      42.545 132.264  18.639  1.00  0.00     0.013 A 
ATOM      3  C   UNL     1      42.070 132.450  19.958  1.00  0.00     0.008 A 
ATOM      4  C   UNL     1      42.840 132.042  21.060  1.00  0.00     0.083 A 
ATOM      5  C   UNL     1      44.073 131.453  20.798  1.00  0.00     0.249 A 
ATOM      6  N   UNL     1      44.970 130.972  21.671  1.00  0.00    -0.176 N 
ATOM      7  C   UNL     1      45.964 130.502  20.880  1.00  0.00     0.521 A 
ATOM      8  O   UNL     1      45.707 130.677  19.593  1.00  0.00    -0.403 OA
ATOM      9  C   UNL     1      44.538 131.269  19.529  1.00  0.00     0.212 A 
ATOM     10  H   UNL     1      44.916 130.956  22.713  1.00  0.00     0.457 HD
ENDROOT
BRANCH   1  11
ATOM     11  C   UNL     1      44.318 131.463  17.023  1.00  0.00    -0.012 A 
ATOM     12  C   UNL     1      43.959 131.478  14.614  1.00  0.00    -0.068 A 
ATOM     13  C   UNL     1      43.476 131.666  15.914  1.00  0.00     0.003 A 
ATOM     14  C   UNL     1      45.286 131.089  14.408  1.00  0.00     0.151 A 
ATOM     15  C   UNL     1      46.133 130.890  15.504  1.00  0.00     0.158 A 
ATOM     16  C   UNL     1      45.653 131.076  16.805  1.00  0.00     0.051 A 
ATOM     17  O   UNL     1      43.115 131.676  13.528  1.00  0.00    -0.870 OA
ATOM     18  F   UNL     1      45.755 130.909  13.149  1.00  0.00    -0.204 F 
ATOM     19  F   UNL     1      47.422 130.520  15.306  1.00  0.00    -0.204 F 
ENDBRANCH   1  11
TORSDOF 1
ENDMDL
MODEL 5
REMARK VINA RESULT:      -8.3      1.292      1.320
REMARK SMILES [O-]c1cc(-c2cccc3[nH+]coc23)cc(F)c1F
REMARK SMILES IDX 5 1 6 2 7 3 8 4 9 5 10 6 11 7 12 8 13 9 4 11 2 12 3 13 17 14
REMARK SMILES IDX 15 15 14 16 1 17 18 18 16 19
REMARK H PARENT 10 10
ROOT
ATOM      1  C   UNL     1      44.838 131.171  18.966  1.00  0.00     0.032 A 
ATOM      2  C   UNL     1      45.694 130.812  20.035  1.00  0.00     0.013 A 
ATOM      3  C   UNL     1      45.299 131.013  21.378  1.00  0.00     0.008 A 
ATOM      4  C   UNL     1      44.046 131.576  21.678  1.00  0.00     0.083 A 
ATOM      5  C   UNL     1      43.225 131.921  20.609  1.00  0.00     0.249 A 
ATOM      6  N   UNL     1      42.008 132.481  20.639  1.00  0.00    -0.176 N 
ATOM      7  C   UNL     1      41.685 132.615  19.331  1.00  0.00     0.521 A 
ATOM      8  O   UNL     1      42.640 132.168  18.530  1.00  0.00    -0.403 OA
ATOM      9  C   UNL     1      43.600 131.731  19.312  1.00  0.00     0.212 A 
ATOM     10  H   UNL     1      41.441 132.757  21.473  1.00  0.00     0.457 HD
ENDROOT
BRANCH   1  11
ATOM     11  C   UNL     1      45.237 130.965  17.552  1.00  0.00    -0.012 A 
ATOM     12  C   UNL     1      45.497 129.500  15.624  1.00  0.00    -0.068 A 
ATOM     13  C   UNL     1      45.122 129.695  16.958  1.00  0.00     0.003 A 
ATOM     14  C   UNL     1      45.987 130.570  14.869  1.00  0.00     0.151 A 
ATOM     15  C   UNL     1      46.101 131.838  15.449  1.00  0.00     0.158 A 
ATOM     16  C   UNL     1      45.728 132.036  16.782  1.00  0.00     0.051 A 
ATOM     17  O   UNL     1      45.383 128.239  15.051  1.00  0.00    -0.870 OA
ATOM     18  F   UNL     1      46.349 130.383  13.576  1.00  0.00    -0.204 F 
ATOM     19  F   UNL     1      46.569 132.879  14.717  1.00  0.00    -0.204 F 
ENDBRANCH   1  11
TORSDOF 1
ENDMDL
MODEL 6
REMARK VINA RESULT:      -8.2      1.386      1.637
REMARK SMILES [O-]c1cc(-c2cccc3[nH+]coc23)cc(F)c1F
REMARK SMILES IDX 5 1 6 2 7 3 8 4 9 5 10 6 11 7 12 8 13 9 4 11 2 12 3 13 17 14
REMARK SMILES IDX 15 15 14 16 1 17 18 18 16 19
REMARK H PARENT 10 10
ROOT
ATOM      1  C   UNL     1      44.872 131.108  18.823  1.00  0.00     0.032 A 
ATOM      2  C   UNL     1      45.725 130.799  19.910  1.00  0.00     0.013 A 
ATOM      3  C   UNL     1      45.324 131.056  21.241  1.00  0.00     0.008 A 
ATOM      4  C   UNL     1      44.068 131.627  21.512  1.00  0.00     0.083 A 
ATOM      5  C   UNL     1      43.251 131.923  20.426  1.00  0.00     0.249 A 
ATOM      6  N   UNL     1      42.031 132.480  20.427  1.00  0.00    -0.176 N 
ATOM      7  C   UNL     1      41.714 132.557  19.113  1.00  0.00     0.521 A 
ATOM      8  O   UNL     1      42.674 132.079  18.336  1.00  0.00    -0.403 OA
ATOM      9  C   UNL     1      43.631 131.679  19.139  1.00  0.00     0.212 A 
ATOM     10  H   UNL     1      41.461 132.789  21.246  1.00  0.00     0.457 HD
ENDROOT
BRANCH   1  11
ATOM     11  C   UNL     1      45.278 130.844  17.420  1.00  0.00    -0.012 A 
ATOM     12  C   UNL     1      46.216 131.624  15.312  1.00  0.00    -0.068 A 
ATOM     13  C   UNL     1      45.831 131.872  16.635  1.00  0.00     0.003 A 
ATOM     14  C   UNL     1      46.057 130.348  14.763  1.00  0.00     0.151 A 
ATOM     15  C   UNL     1      45.514 129.318  15.538  1.00  0.00     0.158 A 
ATOM     16  C   UNL     1      45.127 129.563  16.859  1.00  0.00     0.051 A 
ATOM     17  O   UNL     1      46.755 132.649  14.545  1.00  0.00    -0.870 OA
ATOM     18  F   UNL     1      46.432 130.106  13.483  1.00  0.00    -0.204 F 
ATOM     19  F   UNL     1      45.366 128.078  15.010  1.00  0.00    -0.204 F 
ENDBRANCH   1  11
TORSDOF 1
ENDMDL
MODEL 7
REMARK VINA RESULT:      -8.1      3.299      5.514
REMARK SMILES [O-]c1cc(-c2cccc3[nH+]coc23)cc(F)c1F
REMARK SMILES IDX 5 1 6 2 7 3 8 4 9 5 10 6 11 7 12 8 13 9 4 11 2 12 3 13 17 14
REMARK SMILES IDX 15 15 14 16 1 17 18 18 16 19
REMARK H PARENT 10 10
ROOT
ATOM      1  C   UNL     1      45.024 130.885  17.052  1.00  0.00     0.032 A 
ATOM      2  C   UNL     1      46.252 130.181  17.085  1.00  0.00     0.013 A 
ATOM      3  C   UNL     1      46.897 129.795  15.887  1.00  0.00     0.008 A 
ATOM      4  C   UNL     1      46.330 130.101  14.638  1.00  0.00     0.083 A 
ATOM      5  C   UNL     1      45.122 130.791  14.635  1.00  0.00     0.249 A 
ATOM      6  N   UNL     1      44.385 131.179  13.584  1.00  0.00    -0.176 N 
ATOM      7  C   UNL     1      43.314 131.783  14.150  1.00  0.00     0.521 A 
ATOM      8  O   UNL     1      43.374 131.776  15.472  1.00  0.00    -0.403 OA
ATOM      9  C   UNL     1      44.493 131.166  15.786  1.00  0.00     0.212 A 
ATOM     10  H   UNL     1      44.584 131.042  12.568  1.00  0.00     0.457 HD
ENDROOT
BRANCH   1  11
ATOM     11  C   UNL     1      44.336 131.298  18.300  1.00  0.00    -0.012 A 
ATOM     12  C   UNL     1      44.332 131.556  20.722  1.00  0.00    -0.068 A 
ATOM     13  C   UNL     1      44.980 131.165  19.545  1.00  0.00     0.003 A 
ATOM     14  C   UNL     1      43.039 132.085  20.669  1.00  0.00     0.151 A 
ATOM     15  C   UNL     1      42.393 132.225  19.437  1.00  0.00     0.158 A 
ATOM     16  C   UNL     1      43.037 131.835  18.258  1.00  0.00     0.051 A 
ATOM     17  O   UNL     1      44.977 131.414  21.945  1.00  0.00    -0.870 OA
ATOM     18  F   UNL     1      42.412 132.465  21.810  1.00  0.00    -0.204 F 
ATOM     19  F   UNL     1      41.142 132.745  19.383  1.00  0.00    -0.204 F 
ENDBRANCH   1  11
TORSDOF 1
ENDMDL
MODEL 8
REMARK VINA RESULT:      -8.0      1.885      2.695
REMARK SMILES [O-]c1cc(-c2cccc3[nH+]coc23)cc(F)c1F
REMARK SMILES IDX 5 1 6 2 7 3 8 4 9 5 10 6 11 7 12 8 13 9 4 11 2 12 3 13 17 14
REMARK SMILES IDX 15 15 14 16 1 17 18 18 16 19
REMARK H PARENT 10 10
ROOT
ATOM      1  C   UNL     1      44.019 131.476  18.013  1.00  0.00     0.032 A 
ATOM      2  C   UNL     1      42.706 131.979  17.850  1.00  0.00     0.013 A 
ATOM      3  C   UNL     1      41.957 132.422  18.964  1.00  0.00     0.008 A 
ATOM      4  C   UNL     1      42.502 132.369  20.259  1.00  0.00     0.083 A 
ATOM      5  C   UNL     1      43.793 131.868  20.391  1.00  0.00     0.249 A 
ATOM      6  N   UNL     1      44.513 131.704  21.510  1.00  0.00    -0.176 N 
ATOM      7  C   UNL     1      45.675 131.167  21.066  1.00  0.00     0.521 A 
ATOM      8  O   UNL     1      45.682 131.004  19.752  1.00  0.00    -0.403 OA
ATOM      9  C   UNL     1      44.521 131.438  19.321  1.00  0.00     0.212 A 
ATOM     10  H   UNL     1      44.244 131.930  22.493  1.00  0.00     0.457 HD
ENDROOT
BRANCH   1  11
ATOM     11  C   UNL     1      44.819 131.008  16.853  1.00  0.00    -0.012 A 
ATOM     12  C   UNL     1      46.370 131.474  15.034  1.00  0.00    -0.068 A 
ATOM     13  C   UNL     1      45.614 131.914  16.127  1.00  0.00     0.003 A 
ATOM     14  C   UNL     1      46.342 130.128  14.658  1.00  0.00     0.151 A 
ATOM     15  C   UNL     1      45.558 129.219  15.376  1.00  0.00     0.158 A 
ATOM     16  C   UNL     1      44.801 129.655  16.469  1.00  0.00     0.051 A 
ATOM     17  O   UNL     1      47.146 132.380  14.321  1.00  0.00    -0.870 OA
ATOM     18  F   UNL     1      47.075 129.701  13.600  1.00  0.00    -0.204 F 
ATOM     19  F   UNL     1      45.535 127.912  15.018  1.00  0.00    -0.204 F 
ENDBRANCH   1  11
TORSDOF 1
ENDMDL
MODEL 9
REMARK VINA RESULT:      -7.9      3.561      5.825
REMARK SMILES [O-]c1cc(-c2cccc3[nH+]coc23)cc(F)c1F
REMARK SMILES IDX 5 1 6 2 7 3 8 4 9 5 10 6 11 7 12 8 13 9 4 11 2 12 3 13 17 14
REMARK SMILES IDX 15 15 14 16 1 17 18 18 16 19
REMARK H PARENT 10 10
ROOT
ATOM      1  C   UNL     1      45.131 130.789  17.026  1.00  0.00     0.032 A 
ATOM      2  C   UNL     1      46.352 130.076  16.944  1.00  0.00     0.013 A 
ATOM      3  C   UNL     1      46.907 129.732  15.690  1.00  0.00     0.008 A 
ATOM      4  C   UNL     1      46.256 130.091  14.497  1.00  0.00     0.083 A 
ATOM      5  C   UNL     1      45.057 130.788  14.606  1.00  0.00     0.249 A 
ATOM      6  N   UNL     1      44.251 131.220  13.625  1.00  0.00    -0.176 N 
ATOM      7  C   UNL     1      43.228 131.809  14.288  1.00  0.00     0.521 A 
ATOM      8  O   UNL     1      43.382 131.750  15.602  1.00  0.00    -0.403 OA
ATOM      9  C   UNL     1      44.515 131.122  15.811  1.00  0.00     0.212 A 
ATOM     10  H   UNL     1      44.376 131.121  12.593  1.00  0.00     0.457 HD
ENDROOT
BRANCH   1  11
ATOM     11  C   UNL     1      44.536 131.157  18.334  1.00  0.00    -0.012 A 
ATOM     12  C   UNL     1      42.744 132.188  19.622  1.00  0.00    -0.068 A 
ATOM     13  C   UNL     1      43.307 131.841  18.389  1.00  0.00     0.003 A 
ATOM     14  C   UNL     1      43.399 131.853  20.811  1.00  0.00     0.151 A 
ATOM     15  C   UNL     1      44.619 131.170  20.768  1.00  0.00     0.158 A 
ATOM     16  C   UNL     1      45.185 130.822  19.537  1.00  0.00     0.051 A 
ATOM     17  O   UNL     1      41.533 132.867  19.662  1.00  0.00    -0.870 OA
ATOM     18  F   UNL     1      42.853 132.187  22.007  1.00  0.00    -0.204 F 
ATOM     19  F   UNL     1      45.252 130.838  21.919  1.00  0.00    -0.204 F 
ENDBRANCH   1  11
TORSDOF 1
ENDMDL


