REMARK SMILES C=Cc1ccc([C@H]2CCC[C@]3(Cl)C=CO[C@H]23)nc1
REMARK SMILES IDX 3 1 4 2 5 3 6 4 17 5 18 6 2 7 1 8 7 9 8 10 16 11 9 12 15 13
REMARK SMILES IDX 11 14 10 15 14 16 13 17 12 18
REMARK H PARENT
ROOT
ATOM      1  C   UNL     1       1.141   1.751   3.018  1.00  0.00    -0.008 A 
ATOM      2  C   UNL     1       1.798   0.559   2.659  1.00  0.00     0.011 A 
ATOM      3  C   UNL     1       1.273  -0.258   1.656  1.00  0.00     0.025 A 
ATOM      4  C   UNL     1       0.081   0.108   1.018  1.00  0.00     0.047 A 
ATOM      5  N   UNL     1      -0.543   1.263   1.381  1.00  0.00    -0.260 NA
ATOM      6  C   UNL     1      -0.052   2.075   2.354  1.00  0.00     0.119 A 
ENDROOT
BRANCH   1   7
ATOM      7  C   UNL     1       1.638   2.661   4.080  1.00  0.00     0.002 C 
ATOM      8  C   UNL     1       2.872   2.626   4.583  1.00  0.00     0.009 C 
ENDBRANCH   1   7
BRANCH   4   9
ATOM      9  C   UNL     1      -0.498  -0.746  -0.088  1.00  0.00     0.081 C 
ATOM     10  C   UNL     1      -1.973  -1.087   0.192  1.00  0.00     0.014 C 
ATOM     11  C   UNL     1      -0.373  -0.028  -1.448  1.00  0.00     0.206 C 
ATOM     12  C   UNL     1      -2.614  -1.958  -0.914  1.00  0.00     0.003 C 
ATOM     13  O   UNL     1       0.983  -0.006  -1.873  1.00  0.00    -0.495 OA
ATOM     14  C   UNL     1      -1.125  -0.753  -2.605  1.00  0.00     0.103 C 
ATOM     15  C   UNL     1      -1.749  -2.098  -2.179  1.00  0.00     0.031 C 
ATOM     16  C   UNL     1       1.117  -0.552  -3.135  1.00  0.00     0.185 C 
ATOM     17  C   UNL     1      -0.036  -0.980  -3.604  1.00  0.00     0.038 C 
ATOM     18  Cl  UNL     1      -2.372   0.308  -3.332  1.00  0.00    -0.111 Cl
ENDBRANCH   4   9
TORSDOF 2


