MODEL 1
REMARK VINA RESULT:      -9.3      0.000      0.000
REMARK SMILES Cc1c(F)c(F)c(CCC([O-])=C2CCC2)c(N)c1Nc1ccc(F)cc1
REMARK SMILES IDX 1 1 2 2 3 3 4 4 5 5 6 6 7 7 16 8 18 9 19 10 20 12 21 13
REMARK SMILES IDX 26 14 22 15 25 16 23 17 24 18 17 19 8 22 9 23 10 24 11 25
REMARK SMILES IDX 12 26 13 27 15 28 14 29
REMARK H PARENT 19 11 17 20 17 21
ROOT
ATOM      1  C   UNL     1      42.289 131.877  22.377  1.00  0.00     0.050 C 
ATOM      2  C   UNL     1      43.099 131.699  21.117  1.00  0.00     0.013 A 
ATOM      3  C   UNL     1      42.567 132.124  19.893  1.00  0.00     0.164 A 
ATOM      4  F   UNL     1      41.330 132.680  19.834  1.00  0.00    -0.203 F 
ATOM      5  C   UNL     1      43.305 131.993  18.717  1.00  0.00     0.164 A 
ATOM      6  F   UNL     1      42.758 132.432  17.554  1.00  0.00    -0.203 F 
ATOM      7  C   UNL     1      44.592 131.425  18.731  1.00  0.00     0.016 A 
ATOM      8  C   UNL     1      45.118 130.930  19.956  1.00  0.00     0.062 A 
ATOM      9  C   UNL     1      44.362 131.068  21.144  1.00  0.00     0.068 A 
ENDROOT
BRANCH   9  10
ATOM     10  N   UNL     1      44.896 130.587  22.387  1.00  0.00    -0.354 N 
ATOM     11  H   UNL     1      45.624 131.173  22.856  1.00  0.00     0.167 HD
BRANCH  10  12
ATOM     12  C   UNL     1      44.575 129.299  22.944  1.00  0.00     0.039 A 
ATOM     13  C   UNL     1      45.116 128.142  22.361  1.00  0.00     0.029 A 
ATOM     14  C   UNL     1      43.715 129.168  24.051  1.00  0.00     0.029 A 
ATOM     15  C   UNL     1      44.813 126.879  22.878  1.00  0.00     0.041 A 
ATOM     16  C   UNL     1      43.414 127.903  24.566  1.00  0.00     0.041 A 
ATOM     17  C   UNL     1      43.962 126.759  23.980  1.00  0.00     0.123 A 
ATOM     18  F   UNL     1      43.668 125.534  24.479  1.00  0.00    -0.207 F 
ENDBRANCH  10  12
ENDBRANCH   9  10
BRANCH   8  19
ATOM     19  N   UNL     1      46.393 130.264  20.011  1.00  0.00    -0.397 N 
ATOM     20  H   UNL     1      46.994 130.255  20.860  1.00  0.00     0.156 HD
ATOM     21  H   UNL     1      46.805 129.804  19.172  1.00  0.00     0.156 HD
ENDBRANCH   8  19
BRANCH   7  22
ATOM     22  C   UNL     1      45.348 131.343  17.417  1.00  0.00     0.044 C 
BRANCH  22  23
ATOM     23  C   UNL     1      44.483 130.772  16.283  1.00  0.00     0.023 C 
BRANCH  23  24
ATOM     24  C   UNL     1      45.224 129.754  15.463  1.00  0.00    -0.133 C 
ATOM     25  O   UNL     1      44.920 128.407  15.613  1.00  0.00    -0.875 OA
BRANCH  24  26
ATOM     26  C   UNL     1      46.160 130.119  14.589  1.00  0.00    -0.082 C 
ATOM     27  C   UNL     1      46.396 131.240  13.593  1.00  0.00     0.030 C 
ATOM     28  C   UNL     1      47.511 129.604  14.138  1.00  0.00     0.030 C 
ATOM     29  C   UNL     1      47.735 130.726  13.177  1.00  0.00     0.009 C 
ENDBRANCH  24  26
ENDBRANCH  23  24
ENDBRANCH  22  23
ENDBRANCH   7  22
TORSDOF 7
ENDMDL
MODEL 2
REMARK VINA RESULT:      -7.8      2.753      7.790
REMARK SMILES Cc1c(F)c(F)c(CCC([O-])=C2CCC2)c(N)c1Nc1ccc(F)cc1
REMARK SMILES IDX 1 1 2 2 3 3 4 4 5 5 6 6 7 7 16 8 18 9 19 10 20 12 21 13
REMARK SMILES IDX 26 14 22 15 25 16 23 17 24 18 17 19 8 22 9 23 10 24 11 25
REMARK SMILES IDX 12 26 13 27 15 28 14 29
REMARK H PARENT 19 11 17 20 17 21
ROOT
ATOM      1  C   UNL     1      43.891 130.878  15.694  1.00  0.00     0.050 C 
ATOM      2  C   UNL     1      44.034 131.136  17.173  1.00  0.00     0.013 A 
ATOM      3  C   UNL     1      43.053 131.883  17.839  1.00  0.00     0.164 A 
ATOM      4  F   UNL     1      41.988 132.383  17.161  1.00  0.00    -0.203 F 
ATOM      5  C   UNL     1      43.149 132.114  19.210  1.00  0.00     0.164 A 
ATOM      6  F   UNL     1      42.168 132.830  19.818  1.00  0.00    -0.203 F 
ATOM      7  C   UNL     1      44.232 131.613  19.954  1.00  0.00     0.016 A 
ATOM      8  C   UNL     1      45.268 130.909  19.280  1.00  0.00     0.062 A 
ATOM      9  C   UNL     1      45.162 130.679  17.888  1.00  0.00     0.068 A 
ENDROOT
BRANCH   9  10
ATOM     10  N   UNL     1      46.196 129.952  17.206  1.00  0.00    -0.354 N 
ATOM     11  H   UNL     1      46.703 129.216  17.748  1.00  0.00     0.167 HD
BRANCH  10  12
ATOM     12  C   UNL     1      46.645 130.269  15.876  1.00  0.00     0.039 A 
ATOM     13  C   UNL     1      46.507 131.582  15.398  1.00  0.00     0.029 A 
ATOM     14  C   UNL     1      47.203 129.290  15.032  1.00  0.00     0.029 A 
ATOM     15  C   UNL     1      46.927 131.914  14.106  1.00  0.00     0.041 A 
ATOM     16  C   UNL     1      47.622 129.625  13.741  1.00  0.00     0.041 A 
ATOM     17  C   UNL     1      47.484 130.936  13.278  1.00  0.00     0.123 A 
ATOM     18  F   UNL     1      47.890 131.260  12.025  1.00  0.00    -0.207 F 
ENDBRANCH  10  12
ENDBRANCH   9  10
BRANCH   8  19
ATOM     19  N   UNL     1      46.440 130.448  19.978  1.00  0.00    -0.397 N 
ATOM     20  H   UNL     1      47.403 130.765  19.745  1.00  0.00     0.156 HD
ATOM     21  H   UNL     1      46.381 129.720  20.722  1.00  0.00     0.156 HD
ENDBRANCH   8  19
BRANCH   7  22
ATOM     22  C   UNL     1      44.254 131.879  21.448  1.00  0.00     0.044 C 
BRANCH  22  23
ATOM     23  C   UNL     1      42.943 131.465  22.132  1.00  0.00     0.023 C 
BRANCH  23  24
ATOM     24  C   UNL     1      43.184 130.704  23.405  1.00  0.00    -0.133 C 
ATOM     25  O   UNL     1      43.050 131.356  24.624  1.00  0.00    -0.875 OA
BRANCH  24  26
ATOM     26  C   UNL     1      43.513 129.414  23.387  1.00  0.00    -0.082 C 
ATOM     27  C   UNL     1      44.716 128.563  23.025  1.00  0.00     0.030 C 
ATOM     28  C   UNL     1      42.849 128.100  23.745  1.00  0.00     0.030 C 
ATOM     29  C   UNL     1      44.050 127.280  23.401  1.00  0.00     0.009 C 
ENDBRANCH  24  26
ENDBRANCH  23  24
ENDBRANCH  22  23
ENDBRANCH   7  22
TORSDOF 7
ENDMDL
MODEL 3
REMARK VINA RESULT:      -7.7      1.642      2.227
REMARK SMILES Cc1c(F)c(F)c(CCC([O-])=C2CCC2)c(N)c1Nc1ccc(F)cc1
REMARK SMILES IDX 1 1 2 2 3 3 4 4 5 5 6 6 7 7 16 8 18 9 19 10 20 12 21 13
REMARK SMILES IDX 26 14 22 15 25 16 23 17 24 18 17 19 8 22 9 23 10 24 11 25
REMARK SMILES IDX 12 26 13 27 15 28 14 29
REMARK H PARENT 19 11 17 20 17 21
ROOT
ATOM      1  C   UNL     1      42.441 130.211  24.109  1.00  0.00     0.050 C 
ATOM      2  C   UNL     1      43.183 130.596  22.853  1.00  0.00     0.013 A 
ATOM      3  C   UNL     1      42.685 131.631  22.051  1.00  0.00     0.164 A 
ATOM      4  F   UNL     1      41.540 132.277  22.390  1.00  0.00    -0.203 F 
ATOM      5  C   UNL     1      43.364 132.023  20.899  1.00  0.00     0.164 A 
ATOM      6  F   UNL     1      42.855 133.041  20.158  1.00  0.00    -0.203 F 
ATOM      7  C   UNL     1      44.557 131.385  20.510  1.00  0.00     0.016 A 
ATOM      8  C   UNL     1      45.039 130.291  21.279  1.00  0.00     0.062 A 
ATOM      9  C   UNL     1      44.343 129.901  22.447  1.00  0.00     0.068 A 
ENDROOT
BRANCH   9  10
ATOM     10  N   UNL     1      44.835 128.808  23.238  1.00  0.00    -0.354 N 
ATOM     11  H   UNL     1      45.560 129.025  23.959  1.00  0.00     0.167 HD
BRANCH  10  12
ATOM     12  C   UNL     1      44.478 127.433  23.003  1.00  0.00     0.039 A 
ATOM     13  C   UNL     1      45.356 126.607  22.284  1.00  0.00     0.029 A 
ATOM     14  C   UNL     1      43.259 126.899  23.461  1.00  0.00     0.029 A 
ATOM     15  C   UNL     1      45.029 125.270  22.035  1.00  0.00     0.041 A 
ATOM     16  C   UNL     1      42.934 125.562  23.211  1.00  0.00     0.041 A 
ATOM     17  C   UNL     1      43.818 124.748  22.498  1.00  0.00     0.123 A 
ATOM     18  F   UNL     1      43.501 123.452  22.255  1.00  0.00    -0.207 F 
ENDBRANCH  10  12
ENDBRANCH   9  10
BRANCH   8  19
ATOM     19  N   UNL     1      46.206 129.549  20.880  1.00  0.00    -0.397 N 
ATOM     20  H   UNL     1      46.779 129.793  20.046  1.00  0.00     0.156 HD
ATOM     21  H   UNL     1      46.502 128.685  21.382  1.00  0.00     0.156 HD
ENDBRANCH   8  19
BRANCH   7  22
ATOM     22  C   UNL     1      45.258 131.886  19.260  1.00  0.00     0.044 C 
BRANCH  22  23
ATOM     23  C   UNL     1      45.308 130.822  18.155  1.00  0.00     0.023 C 
BRANCH  23  24
ATOM     24  C   UNL     1      44.603 131.269  16.905  1.00  0.00    -0.133 C 
ATOM     25  O   UNL     1      43.332 131.822  17.001  1.00  0.00    -0.875 OA
BRANCH  24  26
ATOM     26  C   UNL     1      45.177 131.156  15.710  1.00  0.00    -0.082 C 
ATOM     27  C   UNL     1      44.798 130.690  14.316  1.00  0.00     0.030 C 
ATOM     28  C   UNL     1      46.532 131.459  15.103  1.00  0.00     0.030 C 
ATOM     29  C   UNL     1      46.134 131.014  13.733  1.00  0.00     0.009 C 
ENDBRANCH  24  26
ENDBRANCH  23  24
ENDBRANCH  22  23
ENDBRANCH   7  22
TORSDOF 7
ENDMDL


