REMARK SMILES Cc1ccc(CCC(C#N)=C2CCC2)c(C)c1
REMARK SMILES IDX 7 1 6 2 5 3 2 4 3 5 17 6 4 7 15 8 1 9 16 10 8 11 9 12 10 13
REMARK SMILES IDX 11 14 12 15 14 16 13 17
REMARK H PARENT
ROOT
ATOM      1  C   UNL     1      -0.138   1.052  -0.206  1.00  0.00     0.052 C 
ENDROOT
BRANCH   1   2
ATOM      2  C   UNL     1      -0.337  -0.136  -1.161  1.00  0.00     0.041 C 
BRANCH   2   3
ATOM      3  C   UNL     1      -0.820  -1.375  -0.433  1.00  0.00    -0.045 A 
ATOM      4  C   UNL     1      -1.816  -3.588   1.008  1.00  0.00    -0.051 A 
ATOM      5  C   UNL     1      -2.638  -2.487   0.748  1.00  0.00     0.004 A 
ATOM      6  C   UNL     1      -0.502  -3.598   0.520  1.00  0.00     0.007 A 
ATOM      7  C   UNL     1      -2.144  -1.392   0.040  1.00  0.00     0.004 A 
ATOM      8  C   UNL     1       0.012  -2.500  -0.194  1.00  0.00    -0.048 A 
ATOM      9  C   UNL     1      -2.360  -4.782   1.736  1.00  0.00     0.044 C 
ATOM     10  C   UNL     1       1.427  -2.569  -0.707  1.00  0.00     0.044 C 
ENDBRANCH   2   3
ENDBRANCH   1   2
BRANCH   1  11
ATOM     11  C   UNL     1       0.955   0.797   0.797  1.00  0.00     0.029 C 
BRANCH  11  12
ATOM     12  C   UNL     1       0.613   0.408   2.141  1.00  0.00     0.095 C 
ATOM     13  N   UNL     1       0.337   0.093   3.220  1.00  0.00    -0.193 NA
ENDBRANCH  11  12
BRANCH  11  14
ATOM     14  C   UNL     1       2.238   0.937   0.464  1.00  0.00    -0.057 C 
ATOM     15  C   UNL     1       3.587   0.782   1.140  1.00  0.00     0.032 C 
ATOM     16  C   UNL     1       3.041   1.318  -0.766  1.00  0.00     0.032 C 
ATOM     17  C   UNL     1       4.360   1.160  -0.082  1.00  0.00     0.009 C 
ENDBRANCH  11  14
ENDBRANCH   1  11
TORSDOF 5


