REMARK SMILES Fc1ccc2cc(-c3ncncc3F)[nH]c2c1
REMARK SMILES IDX 1 1 2 2 3 3 4 4 5 5 6 6 7 7 15 8 16 9 17 10 8 12 9 13 13 14
REMARK SMILES IDX 10 15 12 16 11 17 14 18
REMARK H PARENT 15 11
ROOT
ATOM      1  F   UNL     1       2.121  -4.537   3.234  1.00  0.00    -0.207 F 
ATOM      2  C   UNL     1       1.793  -3.720   2.203  1.00  0.00     0.125 A 
ATOM      3  C   UNL     1       2.216  -4.037   0.892  1.00  0.00     0.040 A 
ATOM      4  C   UNL     1       1.883  -3.197  -0.187  1.00  0.00     0.013 A 
ATOM      5  C   UNL     1       1.130  -2.057   0.086  1.00  0.00     0.000 A 
ATOM      6  C   UNL     1       0.664  -1.069  -0.753  1.00  0.00     0.038 A 
ATOM      7  C   UNL     1      -0.031  -0.179   0.076  1.00  0.00     0.068 A 
ATOM      8  N   UNL     1       0.013  -0.608   1.363  1.00  0.00    -0.353 N 
ATOM      9  C   UNL     1       0.720  -1.749   1.354  1.00  0.00     0.049 A 
ATOM     10  C   UNL     1       1.034  -2.560   2.444  1.00  0.00     0.066 A 
ATOM     11  H   UNL     1      -0.416  -0.150   2.199  1.00  0.00     0.167 HD
ENDROOT
BRANCH   7  12
ATOM     12  C   UNL     1      -0.733   1.067  -0.325  1.00  0.00     0.126 A 
ATOM     13  N   UNL     1      -1.351   1.794   0.647  1.00  0.00    -0.232 NA
ATOM     14  C   UNL     1      -0.791   1.533  -1.654  1.00  0.00     0.169 A 
ATOM     15  C   UNL     1      -2.015   2.945   0.367  1.00  0.00     0.222 A 
ATOM     16  C   UNL     1      -1.479   2.718  -1.918  1.00  0.00     0.154 A 
ATOM     17  N   UNL     1      -2.076   3.401  -0.909  1.00  0.00    -0.242 NA
ATOM     18  F   UNL     1      -0.206   0.876  -2.683  1.00  0.00    -0.203 F 
ENDBRANCH   7  12
TORSDOF 1


