REMARK SMILES C=C[C@H]1CCC[C@@H](c2ccc(C(C)=O)cc2)C1=C
REMARK SMILES IDX 3 1 4 2 5 3 6 4 7 5 17 6 18 7 2 8 1 9 8 10 9 11 16 12 10 13
REMARK SMILES IDX 15 14 11 15 12 16 13 17 14 18
REMARK H PARENT
ROOT
ATOM      1  C   UNL     1       2.038   2.572  -0.919  1.00  0.00     0.037 C 
ATOM      2  C   UNL     1       2.074   3.110   0.526  1.00  0.00     0.012 C 
ATOM      3  C   UNL     1       2.622   2.078   1.505  1.00  0.00     0.002 C 
ATOM      4  C   UNL     1       1.667   0.892   1.554  1.00  0.00     0.013 C 
ATOM      5  C   UNL     1       1.577   0.168   0.194  1.00  0.00     0.045 C 
ATOM      6  C   UNL     1       1.732   1.078  -1.027  1.00  0.00    -0.063 C 
ATOM      7  C   UNL     1       1.762   0.506  -2.246  1.00  0.00     0.009 C 
ENDROOT
BRANCH   1   8
ATOM      8  C   UNL     1       1.052   3.379  -1.734  1.00  0.00    -0.027 C 
ATOM      9  C   UNL     1       1.332   4.620  -2.143  1.00  0.00     0.004 C 
ENDBRANCH   1   8
BRANCH   5  10
ATOM     10  C   UNL     1       0.288  -0.630   0.124  1.00  0.00    -0.041 A 
ATOM     11  C   UNL     1       0.309  -2.025   0.278  1.00  0.00     0.005 A 
ATOM     12  C   UNL     1      -0.946   0.017  -0.062  1.00  0.00     0.005 A 
ATOM     13  C   UNL     1      -0.878  -2.762   0.228  1.00  0.00     0.012 A 
ATOM     14  C   UNL     1      -2.132  -0.719  -0.112  1.00  0.00     0.012 A 
ATOM     15  C   UNL     1      -2.115  -2.119   0.031  1.00  0.00     0.017 A 
BRANCH  15  16
ATOM     16  C   UNL     1      -3.387  -2.889  -0.025  1.00  0.00     0.159 C 
ATOM     17  C   UNL     1      -3.418  -4.381   0.121  1.00  0.00     0.093 C 
ATOM     18  O   UNL     1      -4.479  -2.282  -0.200  1.00  0.00    -0.295 OA
ENDBRANCH  15  16
ENDBRANCH   5  10
TORSDOF 3


