REMARK SMILES CC(=O)c1ncc(N2CC[C@@H](C)[C@H](c3cc4cc(F)ccc4[nH]3)[C@H]2F)[n-]1
REMARK SMILES IDX 8 1 9 2 10 3 11 4 12 5 13 6 24 7 25 8 7 9 4 10 5 11 26 12
REMARK SMILES IDX 6 13 2 14 1 15 3 16 14 17 15 18 23 19 16 20 22 21 17 22
REMARK SMILES IDX 21 23 18 24 20 25 19 27
REMARK H PARENT 23 26
ROOT
ATOM      1  N   UNL     1      -0.162   0.180  -2.615  1.00  0.00    -0.398 N 
ATOM      2  C   UNL     1       1.176  -0.126  -3.147  1.00  0.00     0.044 C 
ATOM      3  C   UNL     1       2.193   0.972  -2.812  1.00  0.00     0.010 C 
ATOM      4  C   UNL     1       2.062   1.369  -1.332  1.00  0.00    -0.001 C 
ATOM      5  C   UNL     1       3.142   2.390  -0.953  1.00  0.00     0.008 C 
ATOM      6  C   UNL     1       0.634   1.908  -1.001  1.00  0.00     0.079 C 
ATOM      7  C   UNL     1      -0.438   1.510  -2.047  1.00  0.00     0.213 C 
ATOM      8  F   UNL     1      -0.455   2.439  -3.075  1.00  0.00    -0.239 F 
ENDROOT
BRANCH   1   9
ATOM      9  C   UNL     1      -1.220  -0.792  -2.744  1.00  0.00     0.005 A 
ATOM     10  C   UNL     1      -3.098  -1.762  -2.608  1.00  0.00     0.054 A 
ATOM     11  N   UNL     1      -2.306  -2.656  -3.239  1.00  0.00    -0.365 NA
ATOM     12  N   UNL     1      -2.472  -0.609  -2.288  1.00  0.00    -0.356 NA
ATOM     13  C   UNL     1      -1.115  -2.039  -3.323  1.00  0.00     0.034 A 
BRANCH  10  14
ATOM     14  C   UNL     1      -4.511  -2.017  -2.293  1.00  0.00     0.165 C 
ATOM     15  C   UNL     1      -5.155  -3.314  -2.669  1.00  0.00     0.094 C 
ATOM     16  O   UNL     1      -5.187  -1.135  -1.700  1.00  0.00    -0.294 OA
ENDBRANCH  10  14
ENDBRANCH   1   9
BRANCH   6  17
ATOM     17  C   UNL     1       0.220   1.467   0.383  1.00  0.00     0.023 A 
ATOM     18  C   UNL     1      -0.125   0.165   0.751  1.00  0.00     0.032 A 
ATOM     19  N   UNL     1       0.183   2.297   1.453  1.00  0.00    -0.358 N 
ATOM     20  C   UNL     1      -0.388   0.236   2.101  1.00  0.00     0.003 A 
ATOM     21  C   UNL     1      -0.193   1.535   2.492  1.00  0.00     0.046 A 
ATOM     22  C   UNL     1      -0.776  -0.754   3.001  1.00  0.00     0.049 A 
ATOM     23  C   UNL     1      -0.372   1.935   3.815  1.00  0.00     0.029 A 
ATOM     24  C   UNL     1      -0.968  -0.380   4.344  1.00  0.00     0.123 A 
ATOM     25  C   UNL     1      -0.766   0.959   4.749  1.00  0.00     0.041 A 
ATOM     26  H   UNL     1       0.407   3.317   1.469  1.00  0.00     0.166 HD
ATOM     27  F   UNL     1      -1.347  -1.310   5.255  1.00  0.00    -0.207 F 
ENDBRANCH   6  17
TORSDOF 3


