MODEL 1
REMARK VINA RESULT:      -4.9      0.000      0.000
REMARK SMILES CC/N=C(\O)C(=O)N1CC[C@@H](C)[C@H](F)[C@H]1c1ccc(C(C)=O)c(F)c1
REMARK SMILES IDX 6 1 7 2 4 3 5 4 3 6 2 7 1 8 8 9 9 10 15 11 10 12 13 13 11 14
REMARK SMILES IDX 14 15 12 16 16 17 17 18 25 19 18 20 23 21 19 22 24 23 20 24
REMARK SMILES IDX 22 25 21 26
REMARK H PARENT 5 5
ROOT
ATOM      1  C   UNL     1      42.865 124.036  23.410  1.00  0.00     0.309 C 
ATOM      2  O   UNL     1      42.633 123.791  24.624  1.00  0.00    -0.264 OA
ENDROOT
BRANCH   1   3
ATOM      3  C   UNL     1      41.794 124.567  22.549  1.00  0.00     0.273 C 
BRANCH   3   4
ATOM      4  O   UNL     1      41.954 124.601  21.163  1.00  0.00    -0.490 OA
ATOM      5  H   UNL     1      41.597 123.865  20.566  1.00  0.00     0.295 HD
ENDBRANCH   3   4
BRANCH   3   6
ATOM      6  N   UNL     1      40.691 124.986  23.093  1.00  0.00    -0.247 NA
BRANCH   6   7
ATOM      7  C   UNL     1      39.464 124.198  23.181  1.00  0.00     0.143 C 
ATOM      8  C   UNL     1      39.778 122.708  23.097  1.00  0.00     0.029 C 
ENDBRANCH   6   7
ENDBRANCH   3   6
ENDBRANCH   1   3
BRANCH   1   9
ATOM      9  N   UNL     1      44.187 123.834  22.882  1.00  0.00    -0.325 N 
ATOM     10  C   UNL     1      44.574 122.442  22.614  1.00  0.00     0.121 C 
ATOM     11  C   UNL     1      45.247 124.821  23.179  1.00  0.00     0.150 C 
ATOM     12  C   UNL     1      45.693 122.376  21.574  1.00  0.00     0.028 C 
ATOM     13  C   UNL     1      46.412 124.711  22.169  1.00  0.00     0.196 C 
ATOM     14  C   UNL     1      46.877 123.252  22.006  1.00  0.00     0.024 C 
ATOM     15  F   UNL     1      47.469 125.490  22.610  1.00  0.00    -0.245 F 
ATOM     16  C   UNL     1      48.014 123.150  20.980  1.00  0.00     0.011 C 
BRANCH  11  17
ATOM     17  C   UNL     1      44.704 126.241  23.162  1.00  0.00    -0.020 A 
ATOM     18  C   UNL     1      43.558 126.570  23.902  1.00  0.00     0.007 A 
ATOM     19  C   UNL     1      45.335 127.242  22.406  1.00  0.00     0.046 A 
ATOM     20  C   UNL     1      43.047 127.869  23.876  1.00  0.00     0.015 A 
ATOM     21  C   UNL     1      44.828 128.544  22.375  1.00  0.00     0.134 A 
ATOM     22  C   UNL     1      43.673 128.877  23.118  1.00  0.00     0.053 A 
ATOM     23  F   UNL     1      45.452 129.454  21.587  1.00  0.00    -0.206 F 
BRANCH  22  24
ATOM     24  C   UNL     1      43.095 130.249  23.119  1.00  0.00     0.162 C 
ATOM     25  O   UNL     1      42.922 130.848  22.022  1.00  0.00    -0.294 OA
ATOM     26  C   UNL     1      42.713 130.961  24.380  1.00  0.00     0.093 C 
ENDBRANCH  22  24
ENDBRANCH  11  17
ENDBRANCH   1   9
TORSDOF 7
ENDMDL
MODEL 2
REMARK VINA RESULT:      -3.5      6.292      9.163
REMARK SMILES CC/N=C(\O)C(=O)N1CC[C@@H](C)[C@H](F)[C@H]1c1ccc(C(C)=O)c(F)c1
REMARK SMILES IDX 6 1 7 2 4 3 5 4 3 6 2 7 1 8 8 9 9 10 15 11 10 12 13 13 11 14
REMARK SMILES IDX 14 15 12 16 16 17 17 18 25 19 18 20 23 21 19 22 24 23 20 24
REMARK SMILES IDX 22 25 21 26
REMARK H PARENT 5 5
ROOT
ATOM      1  C   UNL     1      46.303 133.311  21.542  1.00  0.00     0.309 C 
ATOM      2  O   UNL     1      45.874 133.991  20.571  1.00  0.00    -0.264 OA
ENDROOT
BRANCH   1   3
ATOM      3  C   UNL     1      47.707 133.440  21.966  1.00  0.00     0.273 C 
BRANCH   3   4
ATOM      4  O   UNL     1      48.646 132.474  21.601  1.00  0.00    -0.490 OA
ATOM      5  H   UNL     1      49.535 132.386  22.079  1.00  0.00     0.295 HD
ENDBRANCH   3   4
BRANCH   3   6
ATOM      6  N   UNL     1      48.067 134.472  22.669  1.00  0.00    -0.247 NA
BRANCH   6   7
ATOM      7  C   UNL     1      49.247 135.287  22.391  1.00  0.00     0.143 C 
ATOM      8  C   UNL     1      49.035 136.128  21.137  1.00  0.00     0.029 C 
ENDBRANCH   6   7
ENDBRANCH   3   6
ENDBRANCH   1   3
BRANCH   1   9
ATOM      9  N   UNL     1      45.405 132.444  22.255  1.00  0.00    -0.325 N 
ATOM     10  C   UNL     1      45.317 132.653  23.706  1.00  0.00     0.121 C 
ATOM     11  C   UNL     1      45.100 131.105  21.710  1.00  0.00     0.150 C 
ATOM     12  C   UNL     1      43.993 132.123  24.256  1.00  0.00     0.028 C 
ATOM     13  C   UNL     1      43.797 130.537  22.316  1.00  0.00     0.196 C 
ATOM     14  C   UNL     1      43.793 130.656  23.850  1.00  0.00     0.024 C 
ATOM     15  F   UNL     1      43.669 129.206  21.951  1.00  0.00    -0.245 F 
ATOM     16  C   UNL     1      42.482 130.117  24.440  1.00  0.00     0.011 C 
BRANCH  11  17
ATOM     17  C   UNL     1      44.976 131.136  20.194  1.00  0.00    -0.020 A 
ATOM     18  C   UNL     1      46.003 130.626  19.388  1.00  0.00     0.007 A 
ATOM     19  C   UNL     1      43.835 131.679  19.580  1.00  0.00     0.046 A 
ATOM     20  C   UNL     1      45.899 130.669  17.996  1.00  0.00     0.015 A 
ATOM     21  C   UNL     1      43.725 131.726  18.187  1.00  0.00     0.134 A 
ATOM     22  C   UNL     1      44.761 131.214  17.374  1.00  0.00     0.053 A 
ATOM     23  F   UNL     1      42.623 132.307  17.652  1.00  0.00    -0.206 F 
BRANCH  22  24
ATOM     24  C   UNL     1      44.691 131.239  15.887  1.00  0.00     0.162 C 
ATOM     25  O   UNL     1      43.595 130.987  15.315  1.00  0.00    -0.294 OA
ATOM     26  C   UNL     1      45.880 131.547  15.030  1.00  0.00     0.093 C 
ENDBRANCH  22  24
ENDBRANCH  11  17
ENDBRANCH   1   9
TORSDOF 7
ENDMDL
MODEL 3
REMARK VINA RESULT:      -3.4      6.423      9.273
REMARK SMILES CC/N=C(\O)C(=O)N1CC[C@@H](C)[C@H](F)[C@H]1c1ccc(C(C)=O)c(F)c1
REMARK SMILES IDX 6 1 7 2 4 3 5 4 3 6 2 7 1 8 8 9 9 10 15 11 10 12 13 13 11 14
REMARK SMILES IDX 14 15 12 16 16 17 17 18 25 19 18 20 23 21 19 22 24 23 20 24
REMARK SMILES IDX 22 25 21 26
REMARK H PARENT 5 5
ROOT
ATOM      1  C   UNL     1      46.472 133.429  21.468  1.00  0.00     0.309 C 
ATOM      2  O   UNL     1      46.059 133.913  20.380  1.00  0.00    -0.264 OA
ENDROOT
BRANCH   1   3
ATOM      3  C   UNL     1      47.814 133.777  21.964  1.00  0.00     0.273 C 
BRANCH   3   4
ATOM      4  O   UNL     1      48.773 132.782  22.164  1.00  0.00    -0.490 OA
ATOM      5  H   UNL     1      49.019 132.123  21.435  1.00  0.00     0.295 HD
ENDBRANCH   3   4
BRANCH   3   6
ATOM      6  N   UNL     1      48.103 135.023  22.197  1.00  0.00    -0.247 NA
BRANCH   6   7
ATOM      7  C   UNL     1      49.354 135.666  21.801  1.00  0.00     0.143 C 
ATOM      8  C   UNL     1      49.081 136.835  20.861  1.00  0.00     0.029 C 
ENDBRANCH   6   7
ENDBRANCH   3   6
ENDBRANCH   1   3
BRANCH   1   9
ATOM      9  N   UNL     1      45.611 132.574  22.239  1.00  0.00    -0.325 N 
ATOM     10  C   UNL     1      45.623 132.781  23.693  1.00  0.00     0.121 C 
ATOM     11  C   UNL     1      45.254 131.239  21.714  1.00  0.00     0.150 C 
ATOM     12  C   UNL     1      44.331 132.269  24.329  1.00  0.00     0.028 C 
ATOM     13  C   UNL     1      43.985 130.688  22.404  1.00  0.00     0.196 C 
ATOM     14  C   UNL     1      44.084 130.805  23.936  1.00  0.00     0.024 C 
ATOM     15  F   UNL     1      43.816 129.360  22.048  1.00  0.00    -0.245 F 
ATOM     16  C   UNL     1      42.809 130.283  24.610  1.00  0.00     0.011 C 
BRANCH  11  17
ATOM     17  C   UNL     1      45.030 131.274  20.210  1.00  0.00    -0.020 A 
ATOM     18  C   UNL     1      43.915 131.937  19.675  1.00  0.00     0.007 A 
ATOM     19  C   UNL     1      45.930 130.643  19.336  1.00  0.00     0.046 A 
ATOM     20  C   UNL     1      43.698 131.957  18.296  1.00  0.00     0.015 A 
ATOM     21  C   UNL     1      45.717 130.658  17.954  1.00  0.00     0.134 A 
ATOM     22  C   UNL     1      44.594 131.324  17.414  1.00  0.00     0.053 A 
ATOM     23  F   UNL     1      46.594 129.989  17.165  1.00  0.00    -0.206 F 
BRANCH  22  24
ATOM     24  C   UNL     1      44.324 131.370  15.951  1.00  0.00     0.162 C 
ATOM     25  O   UNL     1      43.156 131.619  15.544  1.00  0.00    -0.294 OA
ATOM     26  C   UNL     1      45.390 131.122  14.927  1.00  0.00     0.093 C 
ENDBRANCH  22  24
ENDBRANCH  11  17
ENDBRANCH   1   9
TORSDOF 7
ENDMDL
MODEL 4
REMARK VINA RESULT:      -2.9      2.079      2.653
REMARK SMILES CC/N=C(\O)C(=O)N1CC[C@@H](C)[C@H](F)[C@H]1c1ccc(C(C)=O)c(F)c1
REMARK SMILES IDX 6 1 7 2 4 3 5 4 3 6 2 7 1 8 8 9 9 10 15 11 10 12 13 13 11 14
REMARK SMILES IDX 14 15 12 16 16 17 17 18 25 19 18 20 23 21 19 22 24 23 20 24
REMARK SMILES IDX 22 25 21 26
REMARK H PARENT 5 5
ROOT
ATOM      1  C   UNL     1      42.271 126.286  23.297  1.00  0.00     0.309 C 
ATOM      2  O   UNL     1      42.131 127.304  22.567  1.00  0.00    -0.264 OA
ENDROOT
BRANCH   1   3
ATOM      3  C   UNL     1      41.086 125.532  23.741  1.00  0.00     0.273 C 
BRANCH   3   4
ATOM      4  O   UNL     1      40.172 126.108  24.625  1.00  0.00    -0.490 OA
ATOM      5  H   UNL     1      40.391 126.949  25.146  1.00  0.00     0.295 HD
ENDBRANCH   3   4
BRANCH   3   6
ATOM      6  N   UNL     1      40.891 124.330  23.287  1.00  0.00    -0.247 NA
BRANCH   6   7
ATOM      7  C   UNL     1      41.319 123.868  21.969  1.00  0.00     0.143 C 
ATOM      8  C   UNL     1      41.634 122.376  22.001  1.00  0.00     0.029 C 
ENDBRANCH   6   7
ENDBRANCH   3   6
ENDBRANCH   1   3
BRANCH   1   9
ATOM      9  N   UNL     1      43.590 125.844  23.656  1.00  0.00    -0.325 N 
ATOM     10  C   UNL     1      43.696 124.476  24.180  1.00  0.00     0.121 C 
ATOM     11  C   UNL     1      44.607 126.839  24.057  1.00  0.00     0.150 C 
ATOM     12  C   UNL     1      45.110 123.925  23.990  1.00  0.00     0.028 C 
ATOM     13  C   UNL     1      46.035 126.262  23.931  1.00  0.00     0.196 C 
ATOM     14  C   UNL     1      46.144 124.881  24.602  1.00  0.00     0.024 C 
ATOM     15  F   UNL     1      46.932 127.139  24.520  1.00  0.00    -0.245 F 
ATOM     16  C   UNL     1      47.557 124.304  24.446  1.00  0.00     0.011 C 
BRANCH  11  17
ATOM     17  C   UNL     1      44.504 128.107  23.222  1.00  0.00    -0.020 A 
ATOM     18  C   UNL     1      43.607 129.123  23.585  1.00  0.00     0.007 A 
ATOM     19  C   UNL     1      45.298 128.277  22.077  1.00  0.00     0.046 A 
ATOM     20  C   UNL     1      43.498 130.280  22.811  1.00  0.00     0.015 A 
ATOM     21  C   UNL     1      45.193 129.433  21.298  1.00  0.00     0.134 A 
ATOM     22  C   UNL     1      44.289 130.457  21.661  1.00  0.00     0.053 A 
ATOM     23  F   UNL     1      45.950 129.519  20.176  1.00  0.00    -0.206 F 
BRANCH  22  24
ATOM     24  C   UNL     1      44.141 131.706  20.865  1.00  0.00     0.162 C 
ATOM     25  O   UNL     1      45.139 132.167  20.245  1.00  0.00    -0.294 OA
ATOM     26  C   UNL     1      42.845 132.454  20.772  1.00  0.00     0.093 C 
ENDBRANCH  22  24
ENDBRANCH  11  17
ENDBRANCH   1   9
TORSDOF 7
ENDMDL
MODEL 5
REMARK VINA RESULT:      -2.8      5.512      8.351
REMARK SMILES CC/N=C(\O)C(=O)N1CC[C@@H](C)[C@H](F)[C@H]1c1ccc(C(C)=O)c(F)c1
REMARK SMILES IDX 6 1 7 2 4 3 5 4 3 6 2 7 1 8 8 9 9 10 15 11 10 12 13 13 11 14
REMARK SMILES IDX 14 15 12 16 16 17 17 18 25 19 18 20 23 21 19 22 24 23 20 24
REMARK SMILES IDX 22 25 21 26
REMARK H PARENT 5 5
ROOT
ATOM      1  C   UNL     1      45.726 130.277  20.693  1.00  0.00     0.309 C 
ATOM      2  O   UNL     1      46.810 130.725  20.232  1.00  0.00    -0.264 OA
ENDROOT
BRANCH   1   3
ATOM      3  C   UNL     1      45.705 128.986  21.400  1.00  0.00     0.273 C 
BRANCH   3   4
ATOM      4  O   UNL     1      46.342 127.871  20.853  1.00  0.00    -0.490 OA
ATOM      5  H   UNL     1      46.364 126.979  21.334  1.00  0.00     0.295 HD
ENDBRANCH   3   4
BRANCH   3   6
ATOM      6  N   UNL     1      45.104 128.900  22.550  1.00  0.00    -0.247 NA
BRANCH   6   7
ATOM      7  C   UNL     1      44.917 127.654  23.290  1.00  0.00     0.143 C 
ATOM      8  C   UNL     1      43.443 127.262  23.313  1.00  0.00     0.029 C 
ENDBRANCH   6   7
ENDBRANCH   3   6
ENDBRANCH   1   3
BRANCH   1   9
ATOM      9  N   UNL     1      44.522 131.052  20.561  1.00  0.00    -0.325 N 
ATOM     10  C   UNL     1      43.849 131.425  21.813  1.00  0.00     0.121 C 
ATOM     11  C   UNL     1      43.716 130.939  19.327  1.00  0.00     0.150 C 
ATOM     12  C   UNL     1      42.971 132.660  21.615  1.00  0.00     0.028 C 
ATOM     13  C   UNL     1      42.777 132.155  19.160  1.00  0.00     0.196 C 
ATOM     14  C   UNL     1      41.992 132.441  20.453  1.00  0.00     0.024 C 
ATOM     15  F   UNL     1      41.891 131.905  18.124  1.00  0.00    -0.245 F 
ATOM     16  C   UNL     1      41.085 133.667  20.285  1.00  0.00     0.011 C 
BRANCH  11  17
ATOM     17  C   UNL     1      44.599 130.815  18.095  1.00  0.00    -0.020 A 
ATOM     18  C   UNL     1      45.066 129.559  17.682  1.00  0.00     0.007 A 
ATOM     19  C   UNL     1      44.963 131.953  17.357  1.00  0.00     0.046 A 
ATOM     20  C   UNL     1      45.891 129.444  16.561  1.00  0.00     0.015 A 
ATOM     21  C   UNL     1      45.790 131.845  16.235  1.00  0.00     0.134 A 
ATOM     22  C   UNL     1      46.262 130.580  15.818  1.00  0.00     0.053 A 
ATOM     23  F   UNL     1      46.148 132.984  15.593  1.00  0.00    -0.206 F 
BRANCH  22  24
ATOM     24  C   UNL     1      47.143 130.413  14.630  1.00  0.00     0.162 C 
ATOM     25  O   UNL     1      48.071 129.558  14.662  1.00  0.00    -0.294 OA
ATOM     26  C   UNL     1      46.980 131.230  13.384  1.00  0.00     0.093 C 
ENDBRANCH  22  24
ENDBRANCH  11  17
ENDBRANCH   1   9
TORSDOF 7
ENDMDL
MODEL 6
REMARK VINA RESULT:      -2.7      6.710      9.289
REMARK SMILES CC/N=C(\O)C(=O)N1CC[C@@H](C)[C@H](F)[C@H]1c1ccc(C(C)=O)c(F)c1
REMARK SMILES IDX 6 1 7 2 4 3 5 4 3 6 2 7 1 8 8 9 9 10 15 11 10 12 13 13 11 14
REMARK SMILES IDX 14 15 12 16 16 17 17 18 25 19 18 20 23 21 19 22 24 23 20 24
REMARK SMILES IDX 22 25 21 26
REMARK H PARENT 5 5
ROOT
ATOM      1  C   UNL     1      46.914 132.821  21.774  1.00  0.00     0.309 C 
ATOM      2  O   UNL     1      47.258 132.240  20.710  1.00  0.00    -0.264 OA
ENDROOT
BRANCH   1   3
ATOM      3  C   UNL     1      47.719 133.939  22.295  1.00  0.00     0.273 C 
BRANCH   3   4
ATOM      4  O   UNL     1      47.290 135.256  22.128  1.00  0.00    -0.490 OA
ATOM      5  H   UNL     1      47.770 135.900  21.510  1.00  0.00     0.295 HD
ENDBRANCH   3   4
BRANCH   3   6
ATOM      6  N   UNL     1      48.825 133.685  22.930  1.00  0.00    -0.247 NA
BRANCH   6   7
ATOM      7  C   UNL     1      49.353 134.497  24.023  1.00  0.00     0.143 C 
ATOM      8  C   UNL     1      50.731 135.046  23.665  1.00  0.00     0.029 C 
ENDBRANCH   6   7
ENDBRANCH   3   6
ENDBRANCH   1   3
BRANCH   1   9
ATOM      9  N   UNL     1      45.713 132.413  22.451  1.00  0.00    -0.325 N 
ATOM     10  C   UNL     1      45.667 132.661  23.898  1.00  0.00     0.121 C 
ATOM     11  C   UNL     1      44.902 131.311  21.893  1.00  0.00     0.150 C 
ATOM     12  C   UNL     1      44.224 132.734  24.395  1.00  0.00     0.028 C 
ATOM     13  C   UNL     1      43.460 131.342  22.446  1.00  0.00     0.196 C 
ATOM     14  C   UNL     1      43.450 131.475  23.980  1.00  0.00     0.024 C 
ATOM     15  F   UNL     1      42.806 130.178  22.076  1.00  0.00    -0.245 F 
ATOM     16  C   UNL     1      42.013 131.535  24.517  1.00  0.00     0.011 C 
BRANCH  11  17
ATOM     17  C   UNL     1      44.857 131.369  20.373  1.00  0.00    -0.020 A 
ATOM     18  C   UNL     1      43.961 132.230  19.724  1.00  0.00     0.007 A 
ATOM     19  C   UNL     1      45.705 130.560  19.600  1.00  0.00     0.046 A 
ATOM     20  C   UNL     1      43.904 132.273  18.329  1.00  0.00     0.015 A 
ATOM     21  C   UNL     1      45.653 130.597  18.203  1.00  0.00     0.134 A 
ATOM     22  C   UNL     1      44.749 131.463  17.547  1.00  0.00     0.053 A 
ATOM     23  F   UNL     1      46.461 129.757  17.511  1.00  0.00    -0.206 F 
BRANCH  22  24
ATOM     24  C   UNL     1      44.657 131.540  16.063  1.00  0.00     0.162 C 
ATOM     25  O   UNL     1      43.523 131.507  15.511  1.00  0.00    -0.294 OA
ATOM     26  C   UNL     1      45.867 131.649  15.186  1.00  0.00     0.093 C 
ENDBRANCH  22  24
ENDBRANCH  11  17
ENDBRANCH   1   9
TORSDOF 7
ENDMDL
MODEL 7
REMARK VINA RESULT:      -2.5      4.567      7.357
REMARK SMILES CC/N=C(\O)C(=O)N1CC[C@@H](C)[C@H](F)[C@H]1c1ccc(C(C)=O)c(F)c1
REMARK SMILES IDX 6 1 7 2 4 3 5 4 3 6 2 7 1 8 8 9 9 10 15 11 10 12 13 13 11 14
REMARK SMILES IDX 14 15 12 16 16 17 17 18 25 19 18 20 23 21 19 22 24 23 20 24
REMARK SMILES IDX 22 25 21 26
REMARK H PARENT 5 5
ROOT
ATOM      1  C   UNL     1      43.574 130.511  22.520  1.00  0.00     0.309 C 
ATOM      2  O   UNL     1      42.620 130.796  21.747  1.00  0.00    -0.264 OA
ENDROOT
BRANCH   1   3
ATOM      3  C   UNL     1      43.716 129.139  23.038  1.00  0.00     0.273 C 
BRANCH   3   4
ATOM      4  O   UNL     1      44.519 128.212  22.371  1.00  0.00    -0.490 OA
ATOM      5  H   UNL     1      44.882 127.388  22.835  1.00  0.00     0.295 HD
ENDBRANCH   3   4
BRANCH   3   6
ATOM      6  N   UNL     1      43.101 128.806  24.133  1.00  0.00    -0.247 NA
BRANCH   6   7
ATOM      7  C   UNL     1      42.269 127.614  24.281  1.00  0.00     0.143 C 
ATOM      8  C   UNL     1      40.965 127.772  23.505  1.00  0.00     0.029 C 
ENDBRANCH   6   7
ENDBRANCH   3   6
ENDBRANCH   1   3
BRANCH   1   9
ATOM      9  N   UNL     1      44.542 131.518  22.859  1.00  0.00    -0.325 N 
ATOM     10  C   UNL     1      44.577 131.939  24.266  1.00  0.00     0.121 C 
ATOM     11  C   UNL     1      44.995 132.469  21.821  1.00  0.00     0.150 C 
ATOM     12  C   UNL     1      45.937 132.537  24.624  1.00  0.00     0.028 C 
ATOM     13  C   UNL     1      46.337 133.127  22.213  1.00  0.00     0.196 C 
ATOM     14  C   UNL     1      46.297 133.670  23.653  1.00  0.00     0.024 C 
ATOM     15  F   UNL     1      46.609 134.162  21.333  1.00  0.00    -0.245 F 
ATOM     16  C   UNL     1      47.644 134.294  24.042  1.00  0.00     0.011 C 
BRANCH  11  17
ATOM     17  C   UNL     1      45.147 131.788  20.470  1.00  0.00    -0.020 A 
ATOM     18  C   UNL     1      45.992 130.678  20.328  1.00  0.00     0.007 A 
ATOM     19  C   UNL     1      44.449 132.259  19.347  1.00  0.00     0.046 A 
ATOM     20  C   UNL     1      46.147 130.060  19.085  1.00  0.00     0.015 A 
ATOM     21  C   UNL     1      44.600 131.647  18.100  1.00  0.00     0.134 A 
ATOM     22  C   UNL     1      45.453 130.529  17.954  1.00  0.00     0.053 A 
ATOM     23  F   UNL     1      43.939 132.178  17.042  1.00  0.00    -0.206 F 
BRANCH  22  24
ATOM     24  C   UNL     1      45.647 129.841  16.648  1.00  0.00     0.162 C 
ATOM     25  O   UNL     1      44.953 128.823  16.376  1.00  0.00    -0.294 OA
ATOM     26  C   UNL     1      46.648 130.305  15.634  1.00  0.00     0.093 C 
ENDBRANCH  22  24
ENDBRANCH  11  17
ENDBRANCH   1   9
TORSDOF 7
ENDMDL
MODEL 8
REMARK VINA RESULT:      -2.4      6.232      8.986
REMARK SMILES CC/N=C(\O)C(=O)N1CC[C@@H](C)[C@H](F)[C@H]1c1ccc(C(C)=O)c(F)c1
REMARK SMILES IDX 6 1 7 2 4 3 5 4 3 6 2 7 1 8 8 9 9 10 15 11 10 12 13 13 11 14
REMARK SMILES IDX 14 15 12 16 16 17 17 18 25 19 18 20 23 21 19 22 24 23 20 24
REMARK SMILES IDX 22 25 21 26
REMARK H PARENT 5 5
ROOT
ATOM      1  C   UNL     1      46.270 133.325  21.435  1.00  0.00     0.309 C 
ATOM      2  O   UNL     1      45.776 134.090  20.563  1.00  0.00    -0.264 OA
ENDROOT
BRANCH   1   3
ATOM      3  C   UNL     1      47.702 133.415  21.766  1.00  0.00     0.273 C 
BRANCH   3   4
ATOM      4  O   UNL     1      48.569 132.370  21.443  1.00  0.00    -0.490 OA
ATOM      5  H   UNL     1      49.433 132.529  20.939  1.00  0.00     0.295 HD
ENDBRANCH   3   4
BRANCH   3   6
ATOM      6  N   UNL     1      48.154 134.487  22.345  1.00  0.00    -0.247 NA
BRANCH   6   7
ATOM      7  C   UNL     1      49.314 134.517  23.233  1.00  0.00     0.143 C 
ATOM      8  C   UNL     1      48.937 134.015  24.623  1.00  0.00     0.029 C 
ENDBRANCH   6   7
ENDBRANCH   3   6
ENDBRANCH   1   3
BRANCH   1   9
ATOM      9  N   UNL     1      45.421 132.397  22.131  1.00  0.00    -0.325 N 
ATOM     10  C   UNL     1      45.285 132.602  23.579  1.00  0.00     0.121 C 
ATOM     11  C   UNL     1      45.226 131.038  21.584  1.00  0.00     0.150 C 
ATOM     12  C   UNL     1      43.990 131.979  24.101  1.00  0.00     0.028 C 
ATOM     13  C   UNL     1      43.953 130.379  22.162  1.00  0.00     0.196 C 
ATOM     14  C   UNL     1      43.905 130.501  23.695  1.00  0.00     0.024 C 
ATOM     15  F   UNL     1      43.931 129.042  21.800  1.00  0.00    -0.245 F 
ATOM     16  C   UNL     1      42.624 129.870  24.257  1.00  0.00     0.011 C 
BRANCH  11  17
ATOM     17  C   UNL     1      45.135 131.057  20.066  1.00  0.00    -0.020 A 
ATOM     18  C   UNL     1      46.178 130.536  19.286  1.00  0.00     0.007 A 
ATOM     19  C   UNL     1      44.010 131.600  19.422  1.00  0.00     0.046 A 
ATOM     20  C   UNL     1      46.104 130.568  17.892  1.00  0.00     0.015 A 
ATOM     21  C   UNL     1      43.931 131.635  18.027  1.00  0.00     0.134 A 
ATOM     22  C   UNL     1      44.981 131.112  17.240  1.00  0.00     0.053 A 
ATOM     23  F   UNL     1      42.843 132.216  17.464  1.00  0.00    -0.206 F 
BRANCH  22  24
ATOM     24  C   UNL     1      44.943 131.126  15.752  1.00  0.00     0.162 C 
ATOM     25  O   UNL     1      45.916 131.612  15.113  1.00  0.00    -0.294 OA
ATOM     26  C   UNL     1      43.783 130.588  14.971  1.00  0.00     0.093 C 
ENDBRANCH  22  24
ENDBRANCH  11  17
ENDBRANCH   1   9
TORSDOF 7
ENDMDL
MODEL 9
REMARK VINA RESULT:      -2.3      5.378      8.399
REMARK SMILES CC/N=C(\O)C(=O)N1CC[C@@H](C)[C@H](F)[C@H]1c1ccc(C(C)=O)c(F)c1
REMARK SMILES IDX 6 1 7 2 4 3 5 4 3 6 2 7 1 8 8 9 9 10 15 11 10 12 13 13 11 14
REMARK SMILES IDX 14 15 12 16 16 17 17 18 25 19 18 20 23 21 19 22 24 23 20 24
REMARK SMILES IDX 22 25 21 26
REMARK H PARENT 5 5
ROOT
ATOM      1  C   UNL     1      45.572 130.308  20.750  1.00  0.00     0.309 C 
ATOM      2  O   UNL     1      46.652 130.791  20.314  1.00  0.00    -0.264 OA
ENDROOT
BRANCH   1   3
ATOM      3  C   UNL     1      45.560 128.966  21.357  1.00  0.00     0.273 C 
BRANCH   3   4
ATOM      4  O   UNL     1      46.511 128.014  20.987  1.00  0.00    -0.490 OA
ATOM      5  H   UNL     1      46.933 127.389  21.663  1.00  0.00     0.295 HD
ENDBRANCH   3   4
BRANCH   3   6
ATOM      6  N   UNL     1      44.665 128.683  22.256  1.00  0.00    -0.247 NA
BRANCH   6   7
ATOM      7  C   UNL     1      44.971 128.274  23.624  1.00  0.00     0.143 C 
ATOM      8  C   UNL     1      44.204 129.134  24.624  1.00  0.00     0.029 C 
ENDBRANCH   6   7
ENDBRANCH   3   6
ENDBRANCH   1   3
BRANCH   1   9
ATOM      9  N   UNL     1      44.367 131.089  20.690  1.00  0.00    -0.325 N 
ATOM     10  C   UNL     1      43.722 131.387  21.976  1.00  0.00     0.121 C 
ATOM     11  C   UNL     1      43.535 131.048  19.469  1.00  0.00     0.150 C 
ATOM     12  C   UNL     1      42.841 132.632  21.870  1.00  0.00     0.028 C 
ATOM     13  C   UNL     1      42.593 132.272  19.394  1.00  0.00     0.196 C 
ATOM     14  C   UNL     1      41.837 132.481  20.718  1.00  0.00     0.024 C 
ATOM     15  F   UNL     1      41.686 132.083  18.364  1.00  0.00    -0.245 F 
ATOM     16  C   UNL     1      40.928 133.715  20.642  1.00  0.00     0.011 C 
BRANCH  11  17
ATOM     17  C   UNL     1      44.391 130.997  18.214  1.00  0.00    -0.020 A 
ATOM     18  C   UNL     1      45.073 132.141  17.775  1.00  0.00     0.007 A 
ATOM     19  C   UNL     1      44.509 129.810  17.474  1.00  0.00     0.046 A 
ATOM     20  C   UNL     1      45.847 132.102  16.612  1.00  0.00     0.015 A 
ATOM     21  C   UNL     1      45.280 129.764  16.309  1.00  0.00     0.134 A 
ATOM     22  C   UNL     1      45.967 130.916  15.865  1.00  0.00     0.053 A 
ATOM     23  F   UNL     1      45.315 128.602  15.611  1.00  0.00    -0.206 F 
BRANCH  22  24
ATOM     24  C   UNL     1      46.802 130.918  14.632  1.00  0.00     0.162 C 
ATOM     25  O   UNL     1      46.694 131.872  13.813  1.00  0.00    -0.294 OA
ATOM     26  C   UNL     1      47.771 129.821  14.314  1.00  0.00     0.093 C 
ENDBRANCH  22  24
ENDBRANCH  11  17
ENDBRANCH   1   9
TORSDOF 7
ENDMDL


