REMARK SMILES Cc1cc(N)c(OC(=O)/C=C(\N)C(N)=O)c(-n2nc3ccccc3[nH+]2)c1
REMARK SMILES IDX 8 1 9 2 10 3 11 4 13 5 14 6 15 7 12 10 7 13 6 14 4 15 16 16
REMARK SMILES IDX 3 17 26 18 2 19 1 20 5 21 17 24 18 25 25 26 19 27 24 28
REMARK SMILES IDX 20 29 23 30 21 31 22 32
REMARK H PARENT 14 8 14 9 12 11 12 12 5 22 5 23 25 33
ROOT
ATOM      1  C   UNL     1       0.561   0.380  -0.873  1.00  0.00     0.338 C 
ATOM      2  O   UNL     1       1.565   0.700  -0.180  1.00  0.00    -0.246 OA
ENDROOT
BRANCH   1   3
ATOM      3  C   UNL     1       0.726  -0.637  -1.929  1.00  0.00     0.125 C 
BRANCH   3   4
ATOM      4  C   UNL     1      -0.164  -0.902  -2.906  1.00  0.00     0.104 C 
BRANCH   4   5
ATOM      5  C   UNL     1       0.048  -2.071  -3.796  1.00  0.00     0.264 C 
ATOM      6  N   UNL     1      -0.580  -2.144  -5.078  1.00  0.00    -0.364 N 
ATOM      7  O   UNL     1       0.794  -3.019  -3.428  1.00  0.00    -0.268 OA
ATOM      8  H   UNL     1      -1.110  -1.337  -5.473  1.00  0.00     0.160 HD
ATOM      9  H   UNL     1      -0.457  -2.994  -5.671  1.00  0.00     0.160 HD
ENDBRANCH   4   5
BRANCH   4  10
ATOM     10  N   UNL     1      -1.305  -0.061  -3.126  1.00  0.00    -0.394 N 
ATOM     11  H   UNL     1      -2.150  -0.429  -3.616  1.00  0.00     0.156 HD
ATOM     12  H   UNL     1      -1.275   0.961  -2.925  1.00  0.00     0.156 HD
ENDBRANCH   4  10
ENDBRANCH   3   4
ENDBRANCH   1   3
BRANCH   1  13
ATOM     13  O   UNL     1      -0.691   0.940  -0.591  1.00  0.00    -0.419 OA
BRANCH  13  14
ATOM     14  C   UNL     1      -0.987   1.602   0.609  1.00  0.00     0.185 A 
ATOM     15  C   UNL     1      -1.520   2.904   0.560  1.00  0.00     0.078 A 
ATOM     16  C   UNL     1      -0.760   0.984   1.862  1.00  0.00     0.173 A 
ATOM     17  C   UNL     1      -1.759   3.604   1.750  1.00  0.00     0.033 A 
ATOM     18  C   UNL     1      -0.984   1.711   3.040  1.00  0.00     0.042 A 
ATOM     19  C   UNL     1      -1.466   3.025   2.990  1.00  0.00    -0.046 A 
ATOM     20  C   UNL     1      -1.753   3.772   4.259  1.00  0.00     0.044 C 
BRANCH  15  21
ATOM     21  N   UNL     1      -1.796   3.534  -0.697  1.00  0.00    -0.396 N 
ATOM     22  H   UNL     1      -1.617   3.047  -1.602  1.00  0.00     0.156 HD
ATOM     23  H   UNL     1      -2.185   4.503  -0.732  1.00  0.00     0.156 HD
ENDBRANCH  15  21
BRANCH  16  24
ATOM     24  N   UNL     1      -0.344  -0.388   1.952  1.00  0.00    -0.009 N 
ATOM     25  N   UNL     1       0.552  -0.825   2.837  1.00  0.00     0.054 NA
ATOM     26  N   UNL     1      -0.824  -1.371   1.194  1.00  0.00    -0.161 N 
ATOM     27  C   UNL     1       0.649  -2.147   2.607  1.00  0.00     0.249 A 
ATOM     28  C   UNL     1      -0.198  -2.484   1.594  1.00  0.00     0.198 A 
ATOM     29  C   UNL     1       1.448  -3.090   3.245  1.00  0.00     0.064 A 
ATOM     30  C   UNL     1      -0.324  -3.788   1.128  1.00  0.00     0.058 A 
ATOM     31  C   UNL     1       1.353  -4.425   2.802  1.00  0.00     0.005 A 
ATOM     32  C   UNL     1       0.472  -4.772   1.749  1.00  0.00     0.005 A 
ATOM     33  H   UNL     1      -1.558  -1.284   0.456  1.00  0.00     0.340 HD
ENDBRANCH  16  24
ENDBRANCH  13  14
ENDBRANCH   1  13
TORSDOF 8


