MODEL 1
REMARK VINA RESULT:     -10.0      0.000      0.000
REMARK SMILES CC(=O)c1ccc(-c2cccc([C@@H]3CO3)c2)cc1
REMARK SMILES IDX 4 1 5 2 6 3 7 4 17 5 18 6 2 7 1 8 3 9 8 10 9 11 16 12 10 13
REMARK SMILES IDX 12 14 11 15 13 16 14 17 15 18
REMARK H PARENT
ROOT
ATOM      1  C   UNL     1      46.836 130.565  14.888  1.00  0.00     0.017 A 
ATOM      2  C   UNL     1      46.234 131.830  15.027  1.00  0.00     0.012 A 
ATOM      3  C   UNL     1      45.430 132.119  16.133  1.00  0.00     0.009 A 
ATOM      4  C   UNL     1      45.206 131.153  17.127  1.00  0.00    -0.018 A 
ATOM      5  C   UNL     1      45.805 129.889  16.991  1.00  0.00     0.009 A 
ATOM      6  C   UNL     1      46.610 129.599  15.885  1.00  0.00     0.012 A 
ENDROOT
BRANCH   1   7
ATOM      7  C   UNL     1      47.695 130.240  13.717  1.00  0.00     0.159 C 
ATOM      8  C   UNL     1      47.813 131.162  12.541  1.00  0.00     0.093 C 
ATOM      9  O   UNL     1      48.348 129.161  13.701  1.00  0.00    -0.295 OA
ENDBRANCH   1   7
BRANCH   4  10
ATOM     10  C   UNL     1      44.351 131.462  18.302  1.00  0.00    -0.018 A 
ATOM     11  C   UNL     1      43.034 131.924  18.125  1.00  0.00     0.009 A 
ATOM     12  C   UNL     1      44.844 131.292  19.609  1.00  0.00     0.015 A 
ATOM     13  C   UNL     1      42.229 132.208  19.232  1.00  0.00     0.001 A 
ATOM     14  C   UNL     1      44.042 131.593  20.720  1.00  0.00    -0.016 A 
ATOM     15  C   UNL     1      42.727 132.037  20.525  1.00  0.00     0.006 A 
BRANCH  14  16
ATOM     16  C   UNL     1      44.561 131.374  22.110  1.00  0.00     0.174 C 
ATOM     17  C   UNL     1      43.928 130.276  22.877  1.00  0.00     0.198 C 
ATOM     18  O   UNL     1      43.571 131.622  23.083  1.00  0.00    -0.368 OA
ENDBRANCH  14  16
ENDBRANCH   4  10
TORSDOF 3
ENDMDL
MODEL 2
REMARK VINA RESULT:      -9.9      0.688      1.395
REMARK SMILES CC(=O)c1ccc(-c2cccc([C@@H]3CO3)c2)cc1
REMARK SMILES IDX 4 1 5 2 6 3 7 4 17 5 18 6 2 7 1 8 3 9 8 10 9 11 16 12 10 13
REMARK SMILES IDX 12 14 11 15 13 16 14 17 15 18
REMARK H PARENT
ROOT
ATOM      1  C   UNL     1      46.861 130.700  14.734  1.00  0.00     0.017 A 
ATOM      2  C   UNL     1      46.700 129.716  15.727  1.00  0.00     0.012 A 
ATOM      3  C   UNL     1      45.906 129.961  16.851  1.00  0.00     0.009 A 
ATOM      4  C   UNL     1      45.254 131.194  17.012  1.00  0.00    -0.018 A 
ATOM      5  C   UNL     1      45.414 132.179  16.023  1.00  0.00     0.009 A 
ATOM      6  C   UNL     1      46.207 131.935  14.898  1.00  0.00     0.012 A 
ENDROOT
BRANCH   1   7
ATOM      7  C   UNL     1      47.701 130.456  13.531  1.00  0.00     0.159 C 
ATOM      8  C   UNL     1      48.670 129.314  13.459  1.00  0.00     0.093 C 
ATOM      9  O   UNL     1      47.607 131.226  12.536  1.00  0.00    -0.295 OA
ENDBRANCH   1   7
BRANCH   4  10
ATOM     10  C   UNL     1      44.411 131.453  18.208  1.00  0.00    -0.018 A 
ATOM     11  C   UNL     1      43.071 131.857  18.063  1.00  0.00     0.009 A 
ATOM     12  C   UNL     1      44.939 131.295  19.502  1.00  0.00     0.015 A 
ATOM     13  C   UNL     1      42.278 132.094  19.188  1.00  0.00     0.001 A 
ATOM     14  C   UNL     1      44.148 131.550  20.632  1.00  0.00    -0.016 A 
ATOM     15  C   UNL     1      42.810 131.935  20.469  1.00  0.00     0.006 A 
BRANCH  14  16
ATOM     16  C   UNL     1      44.706 131.344  22.010  1.00  0.00     0.174 C 
ATOM     17  C   UNL     1      44.096 130.251  22.803  1.00  0.00     0.198 C 
ATOM     18  O   UNL     1      43.744 131.599  23.008  1.00  0.00    -0.368 OA
ENDBRANCH  14  16
ENDBRANCH   4  10
TORSDOF 3
ENDMDL
MODEL 3
REMARK VINA RESULT:      -9.3      0.733      1.292
REMARK SMILES CC(=O)c1ccc(-c2cccc([C@@H]3CO3)c2)cc1
REMARK SMILES IDX 4 1 5 2 6 3 7 4 17 5 18 6 2 7 1 8 3 9 8 10 9 11 16 12 10 13
REMARK SMILES IDX 12 14 11 15 13 16 14 17 15 18
REMARK H PARENT
ROOT
ATOM      1  C   UNL     1      46.364 130.562  15.318  1.00  0.00     0.017 A 
ATOM      2  C   UNL     1      46.577 129.972  16.578  1.00  0.00     0.012 A 
ATOM      3  C   UNL     1      45.778 130.319  17.671  1.00  0.00     0.009 A 
ATOM      4  C   UNL     1      44.749 131.264  17.534  1.00  0.00    -0.018 A 
ATOM      5  C   UNL     1      44.534 131.856  16.277  1.00  0.00     0.009 A 
ATOM      6  C   UNL     1      45.332 131.508  15.183  1.00  0.00     0.012 A 
ENDROOT
BRANCH   1   7
ATOM      7  C   UNL     1      47.204 130.204  14.143  1.00  0.00     0.159 C 
ATOM      8  C   UNL     1      47.439 131.163  13.014  1.00  0.00     0.093 C 
ATOM      9  O   UNL     1      47.739 129.063  14.081  1.00  0.00    -0.295 OA
ENDBRANCH   1   7
BRANCH   4  10
ATOM     10  C   UNL     1      43.900 131.632  18.697  1.00  0.00    -0.018 A 
ATOM     11  C   UNL     1      42.656 132.260  18.503  1.00  0.00     0.009 A 
ATOM     12  C   UNL     1      44.327 131.355  20.009  1.00  0.00     0.015 A 
ATOM     13  C   UNL     1      41.857 132.600  19.598  1.00  0.00     0.001 A 
ATOM     14  C   UNL     1      43.532 131.711  21.109  1.00  0.00    -0.016 A 
ATOM     15  C   UNL     1      42.289 132.321  20.896  1.00  0.00     0.006 A 
BRANCH  14  16
ATOM     16  C   UNL     1      43.976 131.379  22.503  1.00  0.00     0.174 C 
ATOM     17  C   UNL     1      44.167 129.940  22.800  1.00  0.00     0.198 C 
ATOM     18  O   UNL     1      43.005 130.629  23.196  1.00  0.00    -0.368 OA
ENDBRANCH  14  16
ENDBRANCH   4  10
TORSDOF 3
ENDMDL
MODEL 4
REMARK VINA RESULT:      -8.5      1.226      1.394
REMARK SMILES CC(=O)c1ccc(-c2cccc([C@@H]3CO3)c2)cc1
REMARK SMILES IDX 4 1 5 2 6 3 7 4 17 5 18 6 2 7 1 8 3 9 8 10 9 11 16 12 10 13
REMARK SMILES IDX 12 14 11 15 13 16 14 17 15 18
REMARK H PARENT
ROOT
ATOM      1  C   UNL     1      45.869 130.705  15.425  1.00  0.00     0.017 A 
ATOM      2  C   UNL     1      44.660 131.426  15.408  1.00  0.00     0.012 A 
ATOM      3  C   UNL     1      43.986 131.716  16.598  1.00  0.00     0.009 A 
ATOM      4  C   UNL     1      44.502 131.294  17.834  1.00  0.00    -0.018 A 
ATOM      5  C   UNL     1      45.708 130.573  17.854  1.00  0.00     0.009 A 
ATOM      6  C   UNL     1      46.383 130.283  16.665  1.00  0.00     0.012 A 
ENDROOT
BRANCH   1   7
ATOM      7  C   UNL     1      46.599 130.388  14.169  1.00  0.00     0.159 C 
ATOM      8  C   UNL     1      47.649 129.318  14.110  1.00  0.00     0.093 C 
ATOM      9  O   UNL     1      46.340 131.030  13.115  1.00  0.00    -0.295 OA
ENDBRANCH   1   7
BRANCH   4  10
ATOM     10  C   UNL     1      43.785 131.603  19.098  1.00  0.00    -0.018 A 
ATOM     11  C   UNL     1      42.629 132.406  19.085  1.00  0.00     0.009 A 
ATOM     12  C   UNL     1      44.249 131.095  20.325  1.00  0.00     0.015 A 
ATOM     13  C   UNL     1      41.953 132.691  20.274  1.00  0.00     0.001 A 
ATOM     14  C   UNL     1      43.579 131.395  21.521  1.00  0.00    -0.016 A 
ATOM     15  C   UNL     1      42.420 132.182  21.488  1.00  0.00     0.006 A 
BRANCH  14  16
ATOM     16  C   UNL     1      44.056 130.818  22.821  1.00  0.00     0.174 C 
ATOM     17  C   UNL     1      43.351 129.605  23.294  1.00  0.00     0.198 C 
ATOM     18  O   UNL     1      43.061 130.879  23.817  1.00  0.00    -0.368 OA
ENDBRANCH  14  16
ENDBRANCH   4  10
TORSDOF 3
ENDMDL
MODEL 5
REMARK VINA RESULT:      -8.5      1.097      7.093
REMARK SMILES CC(=O)c1ccc(-c2cccc([C@@H]3CO3)c2)cc1
REMARK SMILES IDX 4 1 5 2 6 3 7 4 17 5 18 6 2 7 1 8 3 9 8 10 9 11 16 12 10 13
REMARK SMILES IDX 12 14 11 15 13 16 14 17 15 18
REMARK H PARENT
ROOT
ATOM      1  C   UNL     1      44.100 131.340  21.255  1.00  0.00     0.017 A 
ATOM      2  C   UNL     1      43.090 131.768  20.372  1.00  0.00     0.012 A 
ATOM      3  C   UNL     1      43.296 131.745  18.990  1.00  0.00     0.009 A 
ATOM      4  C   UNL     1      44.513 131.295  18.455  1.00  0.00    -0.018 A 
ATOM      5  C   UNL     1      45.524 130.867  19.333  1.00  0.00     0.009 A 
ATOM      6  C   UNL     1      45.318 130.889  20.716  1.00  0.00     0.012 A 
ENDROOT
BRANCH   1   7
ATOM      7  C   UNL     1      43.898 131.356  22.729  1.00  0.00     0.159 C 
ATOM      8  C   UNL     1      42.840 130.527  23.393  1.00  0.00     0.093 C 
ATOM      9  O   UNL     1      44.629 132.086  23.452  1.00  0.00    -0.295 OA
ENDBRANCH   1   7
BRANCH   4  10
ATOM     10  C   UNL     1      44.731 131.271  16.985  1.00  0.00    -0.018 A 
ATOM     11  C   UNL     1      43.691 131.621  16.103  1.00  0.00     0.009 A 
ATOM     12  C   UNL     1      45.981 130.903  16.453  1.00  0.00     0.015 A 
ATOM     13  C   UNL     1      43.899 131.604  14.722  1.00  0.00     0.001 A 
ATOM     14  C   UNL     1      46.184 130.870  15.065  1.00  0.00    -0.016 A 
ATOM     15  C   UNL     1      45.143 131.237  14.203  1.00  0.00     0.006 A 
BRANCH  14  16
ATOM     16  C   UNL     1      47.530 130.512  14.506  1.00  0.00     0.174 C 
ATOM     17  C   UNL     1      47.699 130.697  13.046  1.00  0.00     0.198 C 
ATOM     18  O   UNL     1      47.452 129.430  13.607  1.00  0.00    -0.368 OA
ENDBRANCH  14  16
ENDBRANCH   4  10
TORSDOF 3
ENDMDL
MODEL 6
REMARK VINA RESULT:      -8.3      1.116      7.117
REMARK SMILES CC(=O)c1ccc(-c2cccc([C@@H]3CO3)c2)cc1
REMARK SMILES IDX 4 1 5 2 6 3 7 4 17 5 18 6 2 7 1 8 3 9 8 10 9 11 16 12 10 13
REMARK SMILES IDX 12 14 11 15 13 16 14 17 15 18
REMARK H PARENT
ROOT
ATOM      1  C   UNL     1      44.287 131.142  21.260  1.00  0.00     0.017 A 
ATOM      2  C   UNL     1      45.429 130.590  20.648  1.00  0.00     0.012 A 
ATOM      3  C   UNL     1      45.585 130.634  19.260  1.00  0.00     0.009 A 
ATOM      4  C   UNL     1      44.605 131.229  18.448  1.00  0.00    -0.018 A 
ATOM      5  C   UNL     1      43.464 131.779  19.056  1.00  0.00     0.009 A 
ATOM      6  C   UNL     1      43.308 131.736  20.444  1.00  0.00     0.012 A 
ENDROOT
BRANCH   1   7
ATOM      7  C   UNL     1      44.105 131.104  22.736  1.00  0.00     0.159 C 
ATOM      8  C   UNL     1      43.239 130.078  23.402  1.00  0.00     0.093 C 
ATOM      9  O   UNL     1      44.690 131.956  23.460  1.00  0.00    -0.295 OA
ENDBRANCH   1   7
BRANCH   4  10
ATOM     10  C   UNL     1      44.772 131.275  16.972  1.00  0.00    -0.018 A 
ATOM     11  C   UNL     1      43.684 131.595  16.140  1.00  0.00     0.009 A 
ATOM     12  C   UNL     1      46.022 131.002  16.386  1.00  0.00     0.015 A 
ATOM     13  C   UNL     1      43.844 131.643  14.753  1.00  0.00     0.001 A 
ATOM     14  C   UNL     1      46.179 131.035  14.992  1.00  0.00    -0.016 A 
ATOM     15  C   UNL     1      45.088 131.372  14.179  1.00  0.00     0.006 A 
BRANCH  14  16
ATOM     16  C   UNL     1      47.523 130.781  14.375  1.00  0.00     0.174 C 
ATOM     17  C   UNL     1      47.555 130.690  12.897  1.00  0.00     0.198 C 
ATOM     18  O   UNL     1      47.566 129.540  13.708  1.00  0.00    -0.368 OA
ENDBRANCH  14  16
ENDBRANCH   4  10
TORSDOF 3
ENDMDL
MODEL 7
REMARK VINA RESULT:      -7.5      1.126      2.126
REMARK SMILES CC(=O)c1ccc(-c2cccc([C@@H]3CO3)c2)cc1
REMARK SMILES IDX 4 1 5 2 6 3 7 4 17 5 18 6 2 7 1 8 3 9 8 10 9 11 16 12 10 13
REMARK SMILES IDX 12 14 11 15 13 16 14 17 15 18
REMARK H PARENT
ROOT
ATOM      1  C   UNL     1      46.999 130.523  14.705  1.00  0.00     0.017 A 
ATOM      2  C   UNL     1      46.382 131.755  14.997  1.00  0.00     0.012 A 
ATOM      3  C   UNL     1      45.739 131.957  16.221  1.00  0.00     0.009 A 
ATOM      4  C   UNL     1      45.695 130.935  17.183  1.00  0.00    -0.018 A 
ATOM      5  C   UNL     1      46.308 129.704  16.895  1.00  0.00     0.009 A 
ATOM      6  C   UNL     1      46.953 129.502  15.671  1.00  0.00     0.012 A 
ENDROOT
BRANCH   1   7
ATOM      7  C   UNL     1      47.689 130.291  13.407  1.00  0.00     0.159 C 
ATOM      8  C   UNL     1      47.525 131.224  12.245  1.00  0.00     0.093 C 
ATOM      9  O   UNL     1      48.435 129.284  13.267  1.00  0.00    -0.295 OA
ENDBRANCH   1   7
BRANCH   4  10
ATOM     10  C   UNL     1      45.010 131.151  18.484  1.00  0.00    -0.018 A 
ATOM     11  C   UNL     1      45.645 130.806  19.692  1.00  0.00     0.009 A 
ATOM     12  C   UNL     1      43.718 131.708  18.528  1.00  0.00     0.015 A 
ATOM     13  C   UNL     1      45.002 131.016  20.914  1.00  0.00     0.001 A 
ATOM     14  C   UNL     1      43.066 131.903  19.755  1.00  0.00    -0.016 A 
ATOM     15  C   UNL     1      43.720 131.568  20.949  1.00  0.00     0.006 A 
BRANCH  14  16
ATOM     16  C   UNL     1      41.704 132.531  19.797  1.00  0.00     0.174 C 
ATOM     17  C   UNL     1      41.652 133.942  20.244  1.00  0.00     0.198 C 
ATOM     18  O   UNL     1      41.330 132.880  21.110  1.00  0.00    -0.368 OA
ENDBRANCH  14  16
ENDBRANCH   4  10
TORSDOF 3
ENDMDL
MODEL 8
REMARK VINA RESULT:      -7.2      1.716      2.835
REMARK SMILES CC(=O)c1ccc(-c2cccc([C@@H]3CO3)c2)cc1
REMARK SMILES IDX 4 1 5 2 6 3 7 4 17 5 18 6 2 7 1 8 3 9 8 10 9 11 16 12 10 13
REMARK SMILES IDX 12 14 11 15 13 16 14 17 15 18
REMARK H PARENT
ROOT
ATOM      1  C   UNL     1      44.987 131.225  16.337  1.00  0.00     0.017 A 
ATOM      2  C   UNL     1      45.867 130.769  17.336  1.00  0.00     0.012 A 
ATOM      3  C   UNL     1      45.482 130.772  18.680  1.00  0.00     0.009 A 
ATOM      4  C   UNL     1      44.210 131.231  19.059  1.00  0.00    -0.018 A 
ATOM      5  C   UNL     1      43.329 131.688  18.064  1.00  0.00     0.009 A 
ATOM      6  C   UNL     1      43.713 131.684  16.719  1.00  0.00     0.012 A 
ENDROOT
BRANCH   1   7
ATOM      7  C   UNL     1      45.380 131.227  14.901  1.00  0.00     0.159 C 
ATOM      8  C   UNL     1      46.813 131.323  14.473  1.00  0.00     0.093 C 
ATOM      9  O   UNL     1      44.491 131.150  14.010  1.00  0.00    -0.295 OA
ENDBRANCH   1   7
BRANCH   4  10
ATOM     10  C   UNL     1      43.802 131.235  20.488  1.00  0.00    -0.018 A 
ATOM     11  C   UNL     1      42.789 132.101  20.939  1.00  0.00     0.009 A 
ATOM     12  C   UNL     1      44.420 130.369  21.409  1.00  0.00     0.015 A 
ATOM     13  C   UNL     1      42.403 132.098  22.282  1.00  0.00     0.001 A 
ATOM     14  C   UNL     1      44.043 130.379  22.761  1.00  0.00    -0.016 A 
ATOM     15  C   UNL     1      43.021 131.236  23.190  1.00  0.00     0.006 A 
BRANCH  14  16
ATOM     16  C   UNL     1      44.680 129.427  23.730  1.00  0.00     0.174 C 
ATOM     17  C   UNL     1      44.695 128.001  23.329  1.00  0.00     0.198 C 
ATOM     18  O   UNL     1      43.748 128.501  24.242  1.00  0.00    -0.368 OA
ENDBRANCH  14  16
ENDBRANCH   4  10
TORSDOF 3
ENDMDL


