MODEL 1
REMARK VINA RESULT:      -1.0      0.000      0.000
REMARK SMILES Cc1ccc(-c2ccc(Nc3cc4cc5ccccc5cc4[n-]3)c(C=O)c2)cc1
REMARK SMILES IDX 6 1 7 2 8 3 9 4 24 5 27 6 5 7 2 8 3 9 29 10 4 11 28 12 1 13
REMARK SMILES IDX 25 14 26 15 10 16 11 18 12 19 23 20 13 21 22 22 14 23 21 24
REMARK SMILES IDX 15 25 20 26 16 27 19 28 17 29 18 30
REMARK H PARENT 10 17
ROOT
ATOM      1  C   UNL     1      44.380 128.634  22.882  1.00  0.00    -0.018 A 
ATOM      2  C   UNL     1      43.757 129.619  23.664  1.00  0.00     0.009 A 
ATOM      3  C   UNL     1      43.947 130.971  23.381  1.00  0.00     0.005 A 
ATOM      4  C   UNL     1      44.766 131.371  22.318  1.00  0.00    -0.033 A 
ATOM      5  C   UNL     1      45.369 130.390  21.493  1.00  0.00     0.018 A 
ATOM      6  C   UNL     1      45.182 129.030  21.798  1.00  0.00     0.020 A 
ENDROOT
BRANCH   1   7
ATOM      7  C   UNL     1      44.184 127.194  23.190  1.00  0.00    -0.018 A 
ATOM      8  C   UNL     1      43.804 124.460  23.767  1.00  0.00    -0.051 A 
ATOM      9  C   UNL     1      43.219 125.442  24.578  1.00  0.00     0.004 A 
ATOM     10  C   UNL     1      44.601 124.849  22.681  1.00  0.00     0.004 A 
ATOM     11  C   UNL     1      43.401 126.797  24.289  1.00  0.00     0.009 A 
ATOM     12  C   UNL     1      44.785 126.204  22.390  1.00  0.00     0.009 A 
ATOM     13  C   UNL     1      43.640 123.007  24.101  1.00  0.00     0.044 C 
ENDBRANCH   1   7
BRANCH   5  14
ATOM     14  C   UNL     1      46.169 130.728  20.293  1.00  0.00     0.260 C 
ATOM     15  O   UNL     1      45.747 130.501  19.129  1.00  0.00    -0.298 OA
ENDBRANCH   5  14
BRANCH   4  16
ATOM     16  N   UNL     1      44.976 132.773  22.109  1.00  0.00    -0.456 N 
ATOM     17  H   UNL     1      44.141 133.381  21.952  1.00  0.00     0.026 HD
BRANCH  16  18
ATOM     18  C   UNL     1      46.231 133.412  22.384  1.00  0.00    -0.060 A 
ATOM     19  C   UNL     1      46.853 133.463  23.628  1.00  0.00     0.007 A 
ATOM     20  N   UNL     1      46.941 134.057  21.427  1.00  0.00    -0.436 NA
ATOM     21  C   UNL     1      48.005 134.174  23.405  1.00  0.00    -0.022 A 
ATOM     22  C   UNL     1      48.027 134.515  22.077  1.00  0.00    -0.033 A 
ATOM     23  C   UNL     1      49.022 134.541  24.282  1.00  0.00     0.017 A 
ATOM     24  C   UNL     1      49.075 135.250  21.528  1.00  0.00     0.013 A 
ATOM     25  C   UNL     1      50.104 135.285  23.765  1.00  0.00    -0.018 A 
ATOM     26  C   UNL     1      50.129 135.642  22.380  1.00  0.00    -0.018 A 
ATOM     27  C   UNL     1      51.159 135.681  24.600  1.00  0.00     0.009 A 
ATOM     28  C   UNL     1      51.211 136.383  21.879  1.00  0.00     0.009 A 
ATOM     29  C   UNL     1      52.226 136.418  24.081  1.00  0.00     0.001 A 
ATOM     30  C   UNL     1      52.252 136.768  22.728  1.00  0.00     0.001 A 
ENDBRANCH  16  18
ENDBRANCH   4  16
TORSDOF 4
ENDMDL
MODEL 2
REMARK VINA RESULT:      -1.0      1.555      2.352
REMARK SMILES Cc1ccc(-c2ccc(Nc3cc4cc5ccccc5cc4[n-]3)c(C=O)c2)cc1
REMARK SMILES IDX 6 1 7 2 8 3 9 4 24 5 27 6 5 7 2 8 3 9 29 10 4 11 28 12 1 13
REMARK SMILES IDX 25 14 26 15 10 16 11 18 12 19 23 20 13 21 22 22 14 23 21 24
REMARK SMILES IDX 15 25 20 26 16 27 19 28 17 29 18 30
REMARK H PARENT 10 17
ROOT
ATOM      1  C   UNL     1      44.906 128.718  22.361  1.00  0.00    -0.018 A 
ATOM      2  C   UNL     1      45.744 129.067  21.290  1.00  0.00     0.009 A 
ATOM      3  C   UNL     1      45.879 130.400  20.903  1.00  0.00     0.005 A 
ATOM      4  C   UNL     1      45.177 131.412  21.568  1.00  0.00    -0.033 A 
ATOM      5  C   UNL     1      44.358 131.083  22.677  1.00  0.00     0.018 A 
ATOM      6  C   UNL     1      44.219 129.735  23.047  1.00  0.00     0.020 A 
ENDROOT
BRANCH   1   7
ATOM      7  C   UNL     1      44.756 127.298  22.767  1.00  0.00    -0.018 A 
ATOM      8  C   UNL     1      44.461 124.603  23.545  1.00  0.00    -0.051 A 
ATOM      9  C   UNL     1      45.355 125.443  24.226  1.00  0.00     0.004 A 
ATOM     10  C   UNL     1      43.734 125.109  22.459  1.00  0.00     0.004 A 
ATOM     11  C   UNL     1      45.496 126.780  23.845  1.00  0.00     0.009 A 
ATOM     12  C   UNL     1      43.875 126.446  22.075  1.00  0.00     0.009 A 
ATOM     13  C   UNL     1      44.339 123.159  23.930  1.00  0.00     0.044 C 
ENDBRANCH   1   7
BRANCH   5  14
ATOM     14  C   UNL     1      43.660 132.103  23.493  1.00  0.00     0.260 C 
ATOM     15  O   UNL     1      43.181 131.832  24.625  1.00  0.00    -0.298 OA
ENDBRANCH   5  14
BRANCH   4  16
ATOM     16  N   UNL     1      45.304 132.758  21.090  1.00  0.00    -0.456 N 
ATOM     17  H   UNL     1      44.454 133.228  20.705  1.00  0.00     0.026 HD
BRANCH  16  18
ATOM     18  C   UNL     1      46.452 133.570  21.374  1.00  0.00    -0.060 A 
ATOM     19  C   UNL     1      46.841 134.694  20.651  1.00  0.00     0.007 A 
ATOM     20  N   UNL     1      47.297 133.299  22.397  1.00  0.00    -0.436 NA
ATOM     21  C   UNL     1      47.982 135.126  21.280  1.00  0.00    -0.022 A 
ATOM     22  C   UNL     1      48.227 134.269  22.320  1.00  0.00    -0.033 A 
ATOM     23  C   UNL     1      48.811 136.209  20.999  1.00  0.00     0.017 A 
ATOM     24  C   UNL     1      49.325 134.434  23.160  1.00  0.00     0.013 A 
ATOM     25  C   UNL     1      49.934 136.413  21.827  1.00  0.00    -0.018 A 
ATOM     26  C   UNL     1      50.193 135.520  22.915  1.00  0.00    -0.018 A 
ATOM     27  C   UNL     1      50.805 137.488  21.595  1.00  0.00     0.009 A 
ATOM     28  C   UNL     1      51.314 135.734  23.731  1.00  0.00     0.009 A 
ATOM     29  C   UNL     1      51.915 137.683  22.419  1.00  0.00     0.001 A 
ATOM     30  C   UNL     1      52.169 136.811  23.482  1.00  0.00     0.001 A 
ENDBRANCH  16  18
ENDBRANCH   4  16
TORSDOF 4
ENDMDL
MODEL 3
REMARK VINA RESULT:      -0.9      5.070      6.345
REMARK SMILES Cc1ccc(-c2ccc(Nc3cc4cc5ccccc5cc4[n-]3)c(C=O)c2)cc1
REMARK SMILES IDX 6 1 7 2 8 3 9 4 24 5 27 6 5 7 2 8 3 9 29 10 4 11 28 12 1 13
REMARK SMILES IDX 25 14 26 15 10 16 11 18 12 19 23 20 13 21 22 22 14 23 21 24
REMARK SMILES IDX 15 25 20 26 16 27 19 28 17 29 18 30
REMARK H PARENT 10 17
ROOT
ATOM      1  C   UNL     1      41.860 126.394  23.340  1.00  0.00    -0.018 A 
ATOM      2  C   UNL     1      41.481 127.594  22.717  1.00  0.00     0.009 A 
ATOM      3  C   UNL     1      42.436 128.563  22.410  1.00  0.00     0.005 A 
ATOM      4  C   UNL     1      43.786 128.361  22.723  1.00  0.00    -0.033 A 
ATOM      5  C   UNL     1      44.192 127.139  23.315  1.00  0.00     0.018 A 
ATOM      6  C   UNL     1      43.218 126.177  23.633  1.00  0.00     0.020 A 
ENDROOT
BRANCH   1   7
ATOM      7  C   UNL     1      40.842 125.367  23.675  1.00  0.00    -0.018 A 
ATOM      8  C   UNL     1      38.911 123.415  24.324  1.00  0.00    -0.051 A 
ATOM      9  C   UNL     1      40.175 123.032  23.853  1.00  0.00     0.004 A 
ATOM     10  C   UNL     1      38.607 124.778  24.445  1.00  0.00     0.004 A 
ATOM     11  C   UNL     1      41.135 123.997  23.538  1.00  0.00     0.009 A 
ATOM     12  C   UNL     1      39.565 125.747  24.130  1.00  0.00     0.009 A 
ATOM     13  C   UNL     1      37.870 122.379  24.625  1.00  0.00     0.044 C 
ENDBRANCH   1   7
BRANCH   5  14
ATOM     14  C   UNL     1      45.609 126.808  23.587  1.00  0.00     0.260 C 
ATOM     15  O   UNL     1      46.298 126.128  22.783  1.00  0.00    -0.298 OA
ENDBRANCH   5  14
BRANCH   4  16
ATOM     16  N   UNL     1      44.716 129.414  22.441  1.00  0.00    -0.456 N 
ATOM     17  H   UNL     1      45.320 129.762  23.220  1.00  0.00     0.026 HD
BRANCH  16  18
ATOM     18  C   UNL     1      45.051 129.808  21.103  1.00  0.00    -0.060 A 
ATOM     19  C   UNL     1      45.819 129.062  20.212  1.00  0.00     0.007 A 
ATOM     20  N   UNL     1      44.648 130.987  20.572  1.00  0.00    -0.436 NA
ATOM     21  C   UNL     1      45.874 129.836  19.080  1.00  0.00    -0.022 A 
ATOM     22  C   UNL     1      45.164 130.981  19.329  1.00  0.00    -0.033 A 
ATOM     23  C   UNL     1      46.505 129.603  17.860  1.00  0.00     0.017 A 
ATOM     24  C   UNL     1      45.031 131.981  18.369  1.00  0.00     0.013 A 
ATOM     25  C   UNL     1      46.393 130.592  16.860  1.00  0.00    -0.018 A 
ATOM     26  C   UNL     1      45.651 131.788  17.117  1.00  0.00    -0.018 A 
ATOM     27  C   UNL     1      47.004 130.413  15.611  1.00  0.00     0.009 A 
ATOM     28  C   UNL     1      45.548 132.764  16.113  1.00  0.00     0.009 A 
ATOM     29  C   UNL     1      46.889 131.397  14.626  1.00  0.00     0.001 A 
ATOM     30  C   UNL     1      46.165 132.566  14.875  1.00  0.00     0.001 A 
ENDBRANCH  16  18
ENDBRANCH   4  16
TORSDOF 4
ENDMDL
MODEL 4
REMARK VINA RESULT:      -0.8      7.858      9.433
REMARK SMILES Cc1ccc(-c2ccc(Nc3cc4cc5ccccc5cc4[n-]3)c(C=O)c2)cc1
REMARK SMILES IDX 6 1 7 2 8 3 9 4 24 5 27 6 5 7 2 8 3 9 29 10 4 11 28 12 1 13
REMARK SMILES IDX 25 14 26 15 10 16 11 18 12 19 23 20 13 21 22 22 14 23 21 24
REMARK SMILES IDX 15 25 20 26 16 27 19 28 17 29 18 30
REMARK H PARENT 10 17
ROOT
ATOM      1  C   UNL     1      42.349 125.075  23.796  1.00  0.00    -0.018 A 
ATOM      2  C   UNL     1      42.239 123.677  23.761  1.00  0.00     0.009 A 
ATOM      3  C   UNL     1      43.379 122.876  23.825  1.00  0.00     0.005 A 
ATOM      4  C   UNL     1      44.652 123.451  23.918  1.00  0.00    -0.033 A 
ATOM      5  C   UNL     1      44.780 124.860  23.995  1.00  0.00     0.018 A 
ATOM      6  C   UNL     1      43.624 125.656  23.914  1.00  0.00     0.020 A 
ENDROOT
BRANCH   1   7
ATOM      7  C   UNL     1      41.135 125.927  23.718  1.00  0.00    -0.018 A 
ATOM      8  C   UNL     1      38.836 127.554  23.578  1.00  0.00    -0.051 A 
ATOM      9  C   UNL     1      38.908 126.510  24.511  1.00  0.00     0.004 A 
ATOM     10  C   UNL     1      39.906 127.766  22.699  1.00  0.00     0.004 A 
ATOM     11  C   UNL     1      40.050 125.708  24.586  1.00  0.00     0.009 A 
ATOM     12  C   UNL     1      41.049 126.965  22.771  1.00  0.00     0.009 A 
ATOM     13  C   UNL     1      37.594 128.389  23.474  1.00  0.00     0.044 C 
ENDBRANCH   1   7
BRANCH   5  14
ATOM     14  C   UNL     1      46.079 125.542  24.192  1.00  0.00     0.260 C 
ATOM     15  O   UNL     1      46.496 126.419  23.391  1.00  0.00    -0.298 OA
ENDBRANCH   5  14
BRANCH   4  16
ATOM     16  N   UNL     1      45.794 122.584  23.918  1.00  0.00    -0.456 N 
ATOM     17  H   UNL     1      45.727 121.678  24.433  1.00  0.00     0.026 HD
BRANCH  16  18
ATOM     18  C   UNL     1      46.901 122.770  23.025  1.00  0.00    -0.060 A 
ATOM     19  C   UNL     1      46.818 122.808  21.636  1.00  0.00     0.007 A 
ATOM     20  N   UNL     1      48.173 122.917  23.468  1.00  0.00    -0.436 NA
ATOM     21  C   UNL     1      48.113 122.994  21.221  1.00  0.00    -0.022 A 
ATOM     22  C   UNL     1      48.898 123.055  22.343  1.00  0.00    -0.033 A 
ATOM     23  C   UNL     1      48.640 123.108  19.938  1.00  0.00     0.017 A 
ATOM     24  C   UNL     1      50.276 123.237  22.260  1.00  0.00     0.013 A 
ATOM     25  C   UNL     1      50.033 123.295  19.811  1.00  0.00    -0.018 A 
ATOM     26  C   UNL     1      50.856 123.360  20.979  1.00  0.00    -0.018 A 
ATOM     27  C   UNL     1      50.622 123.419  18.544  1.00  0.00     0.009 A 
ATOM     28  C   UNL     1      52.239 123.546  20.838  1.00  0.00     0.009 A 
ATOM     29  C   UNL     1      52.001 123.604  18.426  1.00  0.00     0.001 A 
ATOM     30  C   UNL     1      52.806 123.667  19.567  1.00  0.00     0.001 A 
ENDBRANCH  16  18
ENDBRANCH   4  16
TORSDOF 4
ENDMDL
MODEL 5
REMARK VINA RESULT:       0.1      6.144      8.786
REMARK SMILES Cc1ccc(-c2ccc(Nc3cc4cc5ccccc5cc4[n-]3)c(C=O)c2)cc1
REMARK SMILES IDX 6 1 7 2 8 3 9 4 24 5 27 6 5 7 2 8 3 9 29 10 4 11 28 12 1 13
REMARK SMILES IDX 25 14 26 15 10 16 11 18 12 19 23 20 13 21 22 22 14 23 21 24
REMARK SMILES IDX 15 25 20 26 16 27 19 28 17 29 18 30
REMARK H PARENT 10 17
ROOT
ATOM      1  C   UNL     1      43.526 128.559  22.913  1.00  0.00    -0.018 A 
ATOM      2  C   UNL     1      44.911 128.391  22.753  1.00  0.00     0.009 A 
ATOM      3  C   UNL     1      45.488 127.127  22.874  1.00  0.00     0.005 A 
ATOM      4  C   UNL     1      44.700 126.006  23.162  1.00  0.00    -0.033 A 
ATOM      5  C   UNL     1      43.296 126.150  23.286  1.00  0.00     0.018 A 
ATOM      6  C   UNL     1      42.729 127.432  23.177  1.00  0.00     0.020 A 
ENDROOT
BRANCH   1   7
ATOM      7  C   UNL     1      42.914 129.906  22.793  1.00  0.00    -0.018 A 
ATOM      8  C   UNL     1      41.760 132.470  22.570  1.00  0.00    -0.051 A 
ATOM      9  C   UNL     1      41.615 131.729  23.752  1.00  0.00     0.004 A 
ATOM     10  C   UNL     1      42.463 131.915  21.492  1.00  0.00     0.004 A 
ATOM     11  C   UNL     1      42.191 130.462  23.866  1.00  0.00     0.009 A 
ATOM     12  C   UNL     1      43.040 130.646  21.603  1.00  0.00     0.009 A 
ATOM     13  C   UNL     1      41.108 133.814  22.435  1.00  0.00     0.044 C 
ENDBRANCH   1   7
BRANCH   5  14
ATOM     14  C   UNL     1      42.384 125.003  23.493  1.00  0.00     0.260 C 
ATOM     15  O   UNL     1      42.353 124.367  24.579  1.00  0.00    -0.298 OA
ENDBRANCH   5  14
BRANCH   4  16
ATOM     16  N   UNL     1      45.352 124.741  23.336  1.00  0.00    -0.456 N 
ATOM     17  H   UNL     1      44.768 123.875  23.304  1.00  0.00     0.026 HD
BRANCH  16  18
ATOM     18  C   UNL     1      46.778 124.594  23.268  1.00  0.00    -0.060 A 
ATOM     19  C   UNL     1      47.501 124.288  22.118  1.00  0.00     0.007 A 
ATOM     20  N   UNL     1      47.573 124.731  24.355  1.00  0.00    -0.436 NA
ATOM     21  C   UNL     1      48.807 124.245  22.539  1.00  0.00    -0.022 A 
ATOM     22  C   UNL     1      48.814 124.514  23.883  1.00  0.00    -0.033 A 
ATOM     23  C   UNL     1      49.974 123.984  21.827  1.00  0.00     0.017 A 
ATOM     24  C   UNL     1      49.999 124.543  24.615  1.00  0.00     0.013 A 
ATOM     25  C   UNL     1      51.196 124.005  22.532  1.00  0.00    -0.018 A 
ATOM     26  C   UNL     1      51.208 124.286  23.935  1.00  0.00    -0.018 A 
ATOM     27  C   UNL     1      52.406 123.752  21.869  1.00  0.00     0.009 A 
ATOM     28  C   UNL     1      52.430 124.303  24.624  1.00  0.00     0.009 A 
ATOM     29  C   UNL     1      53.611 123.774  22.574  1.00  0.00     0.001 A 
ATOM     30  C   UNL     1      53.624 124.048  23.944  1.00  0.00     0.001 A 
ENDBRANCH  16  18
ENDBRANCH   4  16
TORSDOF 4
ENDMDL
MODEL 6
REMARK VINA RESULT:       0.2      1.005      1.682
REMARK SMILES Cc1ccc(-c2ccc(Nc3cc4cc5ccccc5cc4[n-]3)c(C=O)c2)cc1
REMARK SMILES IDX 6 1 7 2 8 3 9 4 24 5 27 6 5 7 2 8 3 9 29 10 4 11 28 12 1 13
REMARK SMILES IDX 25 14 26 15 10 16 11 18 12 19 23 20 13 21 22 22 14 23 21 24
REMARK SMILES IDX 15 25 20 26 16 27 19 28 17 29 18 30
REMARK H PARENT 10 17
ROOT
ATOM      1  C   UNL     1      44.987 128.162  22.345  1.00  0.00    -0.018 A 
ATOM      2  C   UNL     1      44.626 128.990  23.419  1.00  0.00     0.009 A 
ATOM      3  C   UNL     1      44.592 130.376  23.263  1.00  0.00     0.005 A 
ATOM      4  C   UNL     1      44.923 130.965  22.037  1.00  0.00    -0.033 A 
ATOM      5  C   UNL     1      45.251 130.143  20.931  1.00  0.00     0.018 A 
ATOM      6  C   UNL     1      45.296 128.749  21.106  1.00  0.00     0.020 A 
ENDROOT
BRANCH   1   7
ATOM      7  C   UNL     1      45.033 126.688  22.515  1.00  0.00    -0.018 A 
ATOM      8  C   UNL     1      45.117 123.886  22.825  1.00  0.00    -0.051 A 
ATOM      9  C   UNL     1      43.916 124.583  23.017  1.00  0.00     0.004 A 
ATOM     10  C   UNL     1      46.281 124.596  22.502  1.00  0.00     0.004 A 
ATOM     11  C   UNL     1      43.872 125.970  22.857  1.00  0.00     0.009 A 
ATOM     12  C   UNL     1      46.240 125.985  22.342  1.00  0.00     0.009 A 
ATOM     13  C   UNL     1      45.172 122.401  23.035  1.00  0.00     0.044 C 
ENDBRANCH   1   7
BRANCH   5  14
ATOM     14  C   UNL     1      45.518 130.681  19.578  1.00  0.00     0.260 C 
ATOM     15  O   UNL     1      46.642 131.151  19.261  1.00  0.00    -0.298 OA
ENDBRANCH   5  14
BRANCH   4  16
ATOM     16  N   UNL     1      44.931 132.396  21.948  1.00  0.00    -0.456 N 
ATOM     17  H   UNL     1      44.017 132.900  21.998  1.00  0.00     0.026 HD
BRANCH  16  18
ATOM     18  C   UNL     1      46.133 133.168  22.078  1.00  0.00    -0.060 A 
ATOM     19  C   UNL     1      46.571 134.135  21.177  1.00  0.00     0.007 A 
ATOM     20  N   UNL     1      46.987 133.011  23.118  1.00  0.00    -0.436 NA
ATOM     21  C   UNL     1      47.752 134.588  21.710  1.00  0.00    -0.022 A 
ATOM     22  C   UNL     1      47.971 133.894  22.871  1.00  0.00    -0.033 A 
ATOM     23  C   UNL     1      48.637 135.556  21.244  1.00  0.00     0.017 A 
ATOM     24  C   UNL     1      49.099 134.122  23.656  1.00  0.00     0.013 A 
ATOM     25  C   UNL     1      49.792 135.818  22.011  1.00  0.00    -0.018 A 
ATOM     26  C   UNL     1      50.024 135.096  23.225  1.00  0.00    -0.018 A 
ATOM     27  C   UNL     1      50.720 136.783  21.594  1.00  0.00     0.009 A 
ATOM     28  C   UNL     1      51.177 135.366  23.978  1.00  0.00     0.009 A 
ATOM     29  C   UNL     1      51.861 137.037  22.359  1.00  0.00     0.001 A 
ATOM     30  C   UNL     1      52.089 136.332  23.544  1.00  0.00     0.001 A 
ENDBRANCH  16  18
ENDBRANCH   4  16
TORSDOF 4
ENDMDL
MODEL 7
REMARK VINA RESULT:       1.3      5.964      8.038
REMARK SMILES Cc1ccc(-c2ccc(Nc3cc4cc5ccccc5cc4[n-]3)c(C=O)c2)cc1
REMARK SMILES IDX 6 1 7 2 8 3 9 4 24 5 27 6 5 7 2 8 3 9 29 10 4 11 28 12 1 13
REMARK SMILES IDX 25 14 26 15 10 16 11 18 12 19 23 20 13 21 22 22 14 23 21 24
REMARK SMILES IDX 15 25 20 26 16 27 19 28 17 29 18 30
REMARK H PARENT 10 17
ROOT
ATOM      1  C   UNL     1      48.470 125.021  23.051  1.00  0.00    -0.018 A 
ATOM      2  C   UNL     1      48.259 126.387  23.292  1.00  0.00     0.009 A 
ATOM      3  C   UNL     1      47.034 126.838  23.786  1.00  0.00     0.005 A 
ATOM      4  C   UNL     1      45.993 125.937  24.044  1.00  0.00    -0.033 A 
ATOM      5  C   UNL     1      46.202 124.550  23.846  1.00  0.00     0.018 A 
ATOM      6  C   UNL     1      47.435 124.112  23.333  1.00  0.00     0.020 A 
ENDROOT
BRANCH   1   7
ATOM      7  C   UNL     1      49.770 124.544  22.516  1.00  0.00    -0.018 A 
ATOM      8  C   UNL     1      52.244 123.648  21.500  1.00  0.00    -0.051 A 
ATOM      9  C   UNL     1      51.164 123.874  20.635  1.00  0.00     0.004 A 
ATOM     10  C   UNL     1      52.076 123.847  22.877  1.00  0.00     0.004 A 
ATOM     11  C   UNL     1      49.940 124.324  21.137  1.00  0.00     0.009 A 
ATOM     12  C   UNL     1      50.852 124.297  23.382  1.00  0.00     0.009 A 
ATOM     13  C   UNL     1      53.545 123.128  20.965  1.00  0.00     0.044 C 
ENDBRANCH   1   7
BRANCH   5  14
ATOM     14  C   UNL     1      45.188 123.526  24.185  1.00  0.00     0.260 C 
ATOM     15  O   UNL     1      43.981 123.826  24.376  1.00  0.00    -0.298 OA
ENDBRANCH   5  14
BRANCH   4  16
ATOM     16  N   UNL     1      44.736 126.459  24.493  1.00  0.00    -0.456 N 
ATOM     17  H   UNL     1      44.343 126.100  25.392  1.00  0.00     0.026 HD
BRANCH  16  18
ATOM     18  C   UNL     1      44.144 127.635  23.922  1.00  0.00    -0.060 A 
ATOM     19  C   UNL     1      44.358 128.097  22.626  1.00  0.00     0.007 A 
ATOM     20  N   UNL     1      43.305 128.437  24.621  1.00  0.00    -0.436 NA
ATOM     21  C   UNL     1      43.599 129.237  22.540  1.00  0.00    -0.022 A 
ATOM     22  C   UNL     1      42.982 129.412  23.752  1.00  0.00    -0.033 A 
ATOM     23  C   UNL     1      43.420 130.123  21.482  1.00  0.00     0.017 A 
ATOM     24  C   UNL     1      42.136 130.492  23.992  1.00  0.00     0.013 A 
ATOM     25  C   UNL     1      42.569 131.230  21.683  1.00  0.00    -0.018 A 
ATOM     26  C   UNL     1      41.924 131.415  22.946  1.00  0.00    -0.018 A 
ATOM     27  C   UNL     1      42.349 132.155  20.653  1.00  0.00     0.009 A 
ATOM     28  C   UNL     1      41.080 132.521  23.134  1.00  0.00     0.009 A 
ATOM     29  C   UNL     1      41.505 133.249  20.860  1.00  0.00     0.001 A 
ATOM     30  C   UNL     1      40.874 133.431  22.094  1.00  0.00     0.001 A 
ENDBRANCH  16  18
ENDBRANCH   4  16
TORSDOF 4
ENDMDL
MODEL 8
REMARK VINA RESULT:       1.4      4.896      6.598
REMARK SMILES Cc1ccc(-c2ccc(Nc3cc4cc5ccccc5cc4[n-]3)c(C=O)c2)cc1
REMARK SMILES IDX 6 1 7 2 8 3 9 4 24 5 27 6 5 7 2 8 3 9 29 10 4 11 28 12 1 13
REMARK SMILES IDX 25 14 26 15 10 16 11 18 12 19 23 20 13 21 22 22 14 23 21 24
REMARK SMILES IDX 15 25 20 26 16 27 19 28 17 29 18 30
REMARK H PARENT 10 17
ROOT
ATOM      1  C   UNL     1      42.055 128.753  22.537  1.00  0.00    -0.018 A 
ATOM      2  C   UNL     1      43.418 128.603  22.835  1.00  0.00     0.009 A 
ATOM      3  C   UNL     1      44.354 129.512  22.341  1.00  0.00     0.005 A 
ATOM      4  C   UNL     1      43.952 130.584  21.536  1.00  0.00    -0.033 A 
ATOM      5  C   UNL     1      42.576 130.774  21.258  1.00  0.00     0.018 A 
ATOM      6  C   UNL     1      41.645 129.843  21.749  1.00  0.00     0.020 A 
ENDROOT
BRANCH   1   7
ATOM      7  C   UNL     1      41.060 127.780  23.055  1.00  0.00    -0.018 A 
ATOM      8  C   UNL     1      39.172 125.925  24.030  1.00  0.00    -0.051 A 
ATOM      9  C   UNL     1      38.753 127.037  23.287  1.00  0.00     0.004 A 
ATOM     10  C   UNL     1      40.536 125.756  24.305  1.00  0.00     0.004 A 
ATOM     11  C   UNL     1      39.688 127.953  22.798  1.00  0.00     0.009 A 
ATOM     12  C   UNL     1      41.474 126.672  23.818  1.00  0.00     0.009 A 
ATOM     13  C   UNL     1      38.165 124.963  24.587  1.00  0.00     0.044 C 
ENDBRANCH   1   7
BRANCH   5  14
ATOM     14  C   UNL     1      42.061 131.935  20.497  1.00  0.00     0.260 C 
ATOM     15  O   UNL     1      41.777 133.025  21.061  1.00  0.00    -0.298 OA
ENDBRANCH   5  14
BRANCH   4  16
ATOM     16  N   UNL     1      44.961 131.453  21.004  1.00  0.00    -0.456 N 
ATOM     17  H   UNL     1      45.538 132.009  21.674  1.00  0.00     0.026 HD
BRANCH  16  18
ATOM     18  C   UNL     1      45.398 131.380  19.639  1.00  0.00    -0.060 A 
ATOM     19  C   UNL     1      45.142 132.336  18.660  1.00  0.00     0.007 A 
ATOM     20  N   UNL     1      46.111 130.332  19.161  1.00  0.00    -0.436 NA
ATOM     21  C   UNL     1      45.741 131.836  17.531  1.00  0.00    -0.022 A 
ATOM     22  C   UNL     1      46.312 130.636  17.866  1.00  0.00    -0.033 A 
ATOM     23  C   UNL     1      45.814 132.359  16.243  1.00  0.00     0.017 A 
ATOM     24  C   UNL     1      47.002 129.869  16.930  1.00  0.00     0.013 A 
ATOM     25  C   UNL     1      46.506 131.613  15.265  1.00  0.00    -0.018 A 
ATOM     26  C   UNL     1      47.103 130.360  15.611  1.00  0.00    -0.018 A 
ATOM     27  C   UNL     1      46.614 132.090  13.951  1.00  0.00     0.009 A 
ATOM     28  C   UNL     1      47.787 129.628  14.629  1.00  0.00     0.009 A 
ATOM     29  C   UNL     1      47.300 131.345  12.988  1.00  0.00     0.001 A 
ATOM     30  C   UNL     1      47.884 130.121  13.325  1.00  0.00     0.001 A 
ENDBRANCH  16  18
ENDBRANCH   4  16
TORSDOF 4
ENDMDL


