REMARK SMILES C=C(C)C(=O)Oc1c([NH2+]N)cc(C)cc1-n1nc2ccccc2n1
REMARK SMILES IDX 7 1 8 2 11 3 12 4 13 5 14 6 15 7 6 8 4 9 5 10 2 11 1 12 3 13
REMARK SMILES IDX 9 14 10 17 16 20 17 21 24 22 18 23 23 24 19 25 22 26 20 27
REMARK SMILES IDX 21 28
REMARK H PARENT 9 15 9 16 10 18 10 19
ROOT
ATOM      1  C   UNL     1       0.329  -0.914  -0.994  1.00  0.00     0.220 A 
ATOM      2  C   UNL     1       0.758  -1.682  -2.095  1.00  0.00     0.194 A 
ATOM      3  C   UNL     1       1.703  -1.146  -2.986  1.00  0.00     0.077 A 
ATOM      4  C   UNL     1       2.184   0.157  -2.818  1.00  0.00    -0.043 A 
ATOM      5  C   UNL     1       3.223   0.704  -3.753  1.00  0.00     0.044 C 
ATOM      6  C   UNL     1       1.732   0.928  -1.741  1.00  0.00     0.038 A 
ATOM      7  C   UNL     1       0.785   0.417  -0.839  1.00  0.00     0.135 A 
ENDROOT
BRANCH   1   8
ATOM      8  O   UNL     1      -0.540  -1.499  -0.063  1.00  0.00    -0.414 OA
BRANCH   8   9
ATOM      9  C   UNL     1      -0.243  -1.613   1.302  1.00  0.00     0.338 C 
ATOM     10  O   UNL     1       0.914  -1.338   1.724  1.00  0.00    -0.246 OA
BRANCH   9  11
ATOM     11  C   UNL     1      -1.284  -2.063   2.252  1.00  0.00     0.027 C 
ATOM     12  C   UNL     1      -2.482  -2.459   1.810  1.00  0.00     0.020 C 
ATOM     13  C   UNL     1      -0.968  -2.127   3.722  1.00  0.00     0.051 C 
ENDBRANCH   9  11
ENDBRANCH   8   9
ENDBRANCH   1   8
BRANCH   2  14
ATOM     14  N   UNL     1       0.303  -3.040  -2.262  1.00  0.00    -0.236 N 
ATOM     15  H   UNL     1       0.432  -3.367  -3.250  1.00  0.00     0.376 HD
ATOM     16  H   UNL     1      -0.714  -3.107  -2.022  1.00  0.00     0.376 HD
BRANCH  14  17
ATOM     17  N   UNL     1       1.036  -3.871  -1.391  1.00  0.00    -0.178 NA
ATOM     18  H   UNL     1       2.008  -3.972  -1.770  1.00  0.00     0.183 HD
ATOM     19  H   UNL     1       0.609  -4.825  -1.421  1.00  0.00     0.183 HD
ENDBRANCH  14  17
ENDBRANCH   2  14
BRANCH   7  20
ATOM     20  N   UNL     1       0.272   1.267   0.201  1.00  0.00    -0.146 N 
ATOM     21  N   UNL     1       0.984   2.240   0.771  1.00  0.00    -0.148 NA
ATOM     22  N   UNL     1      -0.972   1.192   0.673  1.00  0.00    -0.148 NA
ATOM     23  C   UNL     1       0.150   2.798   1.661  1.00  0.00     0.113 A 
ATOM     24  C   UNL     1      -1.047   2.155   1.601  1.00  0.00     0.113 A 
ATOM     25  C   UNL     1       0.383   3.853   2.537  1.00  0.00     0.032 A 
ATOM     26  C   UNL     1      -2.120   2.506   2.413  1.00  0.00     0.032 A 
ATOM     27  C   UNL     1      -0.680   4.241   3.378  1.00  0.00     0.002 A 
ATOM     28  C   UNL     1      -1.926   3.570   3.317  1.00  0.00     0.002 A 
ENDBRANCH   7  20
TORSDOF 6


