REMARK SMILES C=Cc1cccc(-c2ccc3c(c2)[C@H]([N-]C(=O)Nc2cc(F)cc(OC)c2)CC3)c1
REMARK SMILES IDX 15 1 14 2 8 3 9 4 13 5 10 6 12 7 11 8 29 9 28 10 7 11 3 12
REMARK SMILES IDX 4 13 30 14 5 15 6 16 2 17 1 18 16 19 18 20 17 21 19 23 20 24
REMARK SMILES IDX 27 25 21 26 24 27 23 28 22 29 25 30 26 31
REMARK H PARENT 18 22
ROOT
ATOM      1  N   UNL     1       0.255   1.479  -2.656  1.00  0.00    -0.423 NA
ENDROOT
BRANCH   1   2
ATOM      2  C   UNL     1      -1.100   0.932  -2.533  1.00  0.00     0.025 C 
ATOM      3  C   UNL     1      -1.047  -0.618   0.980  1.00  0.00    -0.018 A 
ATOM      4  C   UNL     1      -2.228  -0.004   1.463  1.00  0.00     0.009 A 
ATOM      5  C   UNL     1      -0.645  -0.373  -0.352  1.00  0.00     0.013 A 
ATOM      6  C   UNL     1      -2.977   0.850   0.641  1.00  0.00     0.004 A 
ATOM      7  C   UNL     1      -1.405   0.490  -1.146  1.00  0.00    -0.042 A 
ATOM      8  C   UNL     1      -2.539   1.086  -0.662  1.00  0.00    -0.045 A 
ATOM      9  C   UNL     1      -3.162   1.998  -1.651  1.00  0.00     0.036 C 
ATOM     10  C   UNL     1      -2.185   1.986  -2.844  1.00  0.00     0.012 C 
BRANCH   3  11
ATOM     11  C   UNL     1      -0.217  -1.469   1.872  1.00  0.00    -0.018 A 
ATOM     12  C   UNL     1       1.261  -3.396   2.200  1.00  0.00    -0.026 A 
ATOM     13  C   UNL     1       1.404  -3.038   3.549  1.00  0.00     0.008 A 
ATOM     14  C   UNL     1       0.433  -2.613   1.370  1.00  0.00     0.016 A 
ATOM     15  C   UNL     1       0.756  -1.911   4.056  1.00  0.00     0.001 A 
ATOM     16  C   UNL     1      -0.047  -1.130   3.226  1.00  0.00     0.009 A 
BRANCH  12  17
ATOM     17  C   UNL     1       1.969  -4.603   1.708  1.00  0.00     0.000 C 
ATOM     18  C   UNL     1       2.236  -4.840   0.423  1.00  0.00     0.009 C 
ENDBRANCH  12  17
ENDBRANCH   3  11
ENDBRANCH   1   2
BRANCH   1  19
ATOM     19  C   UNL     1       0.897   2.385  -1.748  1.00  0.00     0.157 C 
ATOM     20  N   UNL     1       0.189   2.948  -0.637  1.00  0.00    -0.424 N 
ATOM     21  O   UNL     1       2.111   2.669  -1.920  1.00  0.00    -0.299 OA
ATOM     22  H   UNL     1      -0.694   3.468  -0.837  1.00  0.00     0.029 HD
BRANCH  20  23
ATOM     23  C   UNL     1       0.574   2.738   0.734  1.00  0.00    -0.035 A 
ATOM     24  C   UNL     1      -0.109   3.425   1.748  1.00  0.00     0.043 A 
ATOM     25  C   UNL     1       1.570   1.807   1.088  1.00  0.00     0.050 A 
ATOM     26  C   UNL     1       0.207   3.203   3.090  1.00  0.00     0.127 A 
ATOM     27  C   UNL     1       1.881   1.572   2.441  1.00  0.00     0.122 A 
ATOM     28  C   UNL     1       1.200   2.284   3.434  1.00  0.00     0.085 A 
ATOM     29  F   UNL     1      -0.459   3.874   4.062  1.00  0.00    -0.207 F 
BRANCH  27  30
ATOM     30  O   UNL     1       2.845   0.633   2.840  1.00  0.00    -0.497 OA
ATOM     31  C   UNL     1       3.569  -0.206   1.946  1.00  0.00     0.278 C 
ENDBRANCH  27  30
ENDBRANCH  20  23
ENDBRANCH   1  19
TORSDOF 6


