MODEL 1
REMARK VINA RESULT:      -6.4      0.000      0.000
REMARK SMILES Cc1cc(-c2c(Nc3cccc4c3CCC4)ccc3[nH]ccc23)cc([O-])c1F
REMARK SMILES IDX 5 1 6 2 17 3 18 4 19 5 20 6 21 7 22 8 23 9 4 11 2 12 3 13
REMARK SMILES IDX 27 14 25 15 24 16 1 17 28 18 26 19 7 20 8 22 9 23 13 24
REMARK SMILES IDX 10 25 12 26 14 27 11 28 16 29 15 30
REMARK H PARENT 20 10 7 21
ROOT
ATOM      1  C   UNL     1      42.287 126.270  23.356  1.00  0.00     0.015 A 
ATOM      2  C   UNL     1      42.206 127.636  23.762  1.00  0.00     0.047 A 
ATOM      3  C   UNL     1      40.961 128.180  24.158  1.00  0.00     0.029 A 
ATOM      4  C   UNL     1      39.789 127.408  24.118  1.00  0.00     0.029 A 
ATOM      5  C   UNL     1      39.892 126.088  23.692  1.00  0.00     0.046 A 
ATOM      6  N   UNL     1      38.900 125.185  23.610  1.00  0.00    -0.361 N 
ATOM      7  C   UNL     1      39.478 124.037  23.193  1.00  0.00     0.083 A 
ATOM      8  C   UNL     1      40.844 124.214  23.009  1.00  0.00     0.028 A 
ATOM      9  C   UNL     1      41.092 125.536  23.327  1.00  0.00     0.009 A 
ATOM     10  H   UNL     1      37.892 125.332  23.836  1.00  0.00     0.166 HD
ENDROOT
BRANCH   1  11
ATOM     11  C   UNL     1      43.577 125.622  23.020  1.00  0.00    -0.016 A 
ATOM     12  C   UNL     1      44.811 123.726  22.113  1.00  0.00    -0.015 A 
ATOM     13  C   UNL     1      43.596 124.386  22.354  1.00  0.00     0.015 A 
ATOM     14  C   UNL     1      46.013 124.315  22.534  1.00  0.00     0.118 A 
ATOM     15  C   UNL     1      45.999 125.557  23.179  1.00  0.00    -0.071 A 
ATOM     16  C   UNL     1      44.786 126.210  23.418  1.00  0.00     0.003 A 
ATOM     17  C   UNL     1      44.826 122.376  21.455  1.00  0.00     0.047 C 
ATOM     18  F   UNL     1      47.197 123.683  22.326  1.00  0.00    -0.207 F 
ATOM     19  O   UNL     1      47.190 126.140  23.594  1.00  0.00    -0.870 OA
ENDBRANCH   1  11
BRANCH   2  20
ATOM     20  N   UNL     1      43.366 128.486  23.803  1.00  0.00    -0.355 N 
ATOM     21  H   UNL     1      44.217 128.128  24.295  1.00  0.00     0.167 HD
BRANCH  20  22
ATOM     22  C   UNL     1      43.397 129.819  23.269  1.00  0.00     0.042 A 
ATOM     23  C   UNL     1      42.550 130.830  23.772  1.00  0.00     0.026 A 
ATOM     24  C   UNL     1      44.255 130.141  22.206  1.00  0.00    -0.021 A 
ATOM     25  C   UNL     1      42.547 132.108  23.190  1.00  0.00     0.002 A 
ATOM     26  C   UNL     1      44.239 131.389  21.634  1.00  0.00    -0.043 A 
ATOM     27  C   UNL     1      45.207 129.234  21.517  1.00  0.00     0.038 C 
ATOM     28  C   UNL     1      43.391 132.393  22.108  1.00  0.00     0.004 A 
ATOM     29  C   UNL     1      45.170 131.495  20.489  1.00  0.00     0.036 C 
ATOM     30  C   UNL     1      45.825 130.104  20.407  1.00  0.00     0.010 C 
ENDBRANCH  20  22
ENDBRANCH   2  20
TORSDOF 3
ENDMDL


