MODEL 1
REMARK VINA RESULT:     -10.8      0.000      0.000
REMARK SMILES O=c1c(-n2nc3ccccc3[nH+]2)cc2c[n-]oc-2c1[NH2+]c1ccc2cc[nH]c2c1
REMARK SMILES IDX 1 1 2 2 3 3 13 4 14 5 15 6 16 7 17 8 18 9 19 10 4 11 5 12
REMARK SMILES IDX 12 13 6 14 11 15 7 16 10 17 8 18 9 19 20 21 21 24 22 25
REMARK SMILES IDX 29 26 23 27 28 28 24 29 27 30 25 31 26 32
REMARK H PARENT 12 20 20 22 20 23 27 33
ROOT
ATOM      1  O   UNL     1      46.295 130.245  19.889  1.00  0.00    -0.280 OA
ATOM      2  C   UNL     1      45.202 130.873  19.853  1.00  0.00     0.274 A 
ATOM      3  C   UNL     1      44.693 131.334  18.594  1.00  0.00     0.182 A 
ATOM      4  C   UNL     1      43.477 132.059  18.541  1.00  0.00     0.049 A 
ATOM      5  C   UNL     1      42.812 132.296  19.730  1.00  0.00     0.005 A 
ATOM      6  C   UNL     1      41.641 132.938  20.054  1.00  0.00    -0.098 A 
ATOM      7  N   UNL     1      41.468 132.859  21.397  1.00  0.00    -0.512 NA
ATOM      8  O   UNL     1      42.475 132.199  21.914  1.00  0.00    -0.553 OA
ATOM      9  C   UNL     1      43.313 131.835  20.978  1.00  0.00     0.179 A 
ATOM     10  C   UNL     1      44.505 131.119  21.069  1.00  0.00     0.227 A 
ENDROOT
BRANCH   3  11
ATOM     11  N   UNL     1      45.403 131.056  17.372  1.00  0.00    -0.008 N 
ATOM     12  N   UNL     1      45.553 131.941  16.386  1.00  0.00     0.054 NA
ATOM     13  N   UNL     1      45.998 129.897  17.096  1.00  0.00    -0.161 N 
ATOM     14  C   UNL     1      46.279 131.304  15.449  1.00  0.00     0.249 A 
ATOM     15  C   UNL     1      46.553 130.044  15.886  1.00  0.00     0.198 A 
ATOM     16  C   UNL     1      46.719 131.771  14.216  1.00  0.00     0.064 A 
ATOM     17  C   UNL     1      47.285 129.134  15.129  1.00  0.00     0.058 A 
ATOM     18  C   UNL     1      47.471 130.884  13.418  1.00  0.00     0.005 A 
ATOM     19  C   UNL     1      47.750 129.570  13.872  1.00  0.00     0.005 A 
ATOM     20  H   UNL     1      46.003 129.040  17.694  1.00  0.00     0.340 HD
ENDBRANCH   3  11
BRANCH  10  21
ATOM     21  N   UNL     1      45.021 130.698  22.349  1.00  0.00    -0.275 N 
ATOM     22  H   UNL     1      44.820 131.422  23.078  1.00  0.00     0.358 HD
ATOM     23  H   UNL     1      46.063 130.603  22.303  1.00  0.00     0.358 HD
BRANCH  21  24
ATOM     24  C   UNL     1      44.433 129.435  22.721  1.00  0.00     0.136 A 
ATOM     25  C   UNL     1      43.225 129.401  23.469  1.00  0.00     0.069 A 
ATOM     26  C   UNL     1      45.072 128.220  22.375  1.00  0.00     0.094 A 
ATOM     27  C   UNL     1      42.657 128.177  23.865  1.00  0.00     0.016 A 
ATOM     28  C   UNL     1      44.482 127.026  22.785  1.00  0.00     0.051 A 
ATOM     29  C   UNL     1      43.317 127.007  23.503  1.00  0.00    -0.000 A 
ATOM     30  N   UNL     1      44.925 125.778  22.561  1.00  0.00    -0.361 N 
ATOM     31  C   UNL     1      43.005 125.688  23.747  1.00  0.00     0.028 A 
ATOM     32  C   UNL     1      44.025 124.955  23.147  1.00  0.00     0.083 A 
ATOM     33  H   UNL     1      45.786 125.496  22.041  1.00  0.00     0.166 HD
ENDBRANCH  21  24
ENDBRANCH  10  21
TORSDOF 3
ENDMDL
MODEL 2
REMARK VINA RESULT:     -10.6      1.020      1.456
REMARK SMILES O=c1c(-n2nc3ccccc3[nH+]2)cc2c[n-]oc-2c1[NH2+]c1ccc2cc[nH]c2c1
REMARK SMILES IDX 1 1 2 2 3 3 13 4 14 5 15 6 16 7 17 8 18 9 19 10 4 11 5 12
REMARK SMILES IDX 12 13 6 14 11 15 7 16 10 17 8 18 9 19 20 21 21 24 22 25
REMARK SMILES IDX 29 26 23 27 28 28 24 29 27 30 25 31 26 32
REMARK H PARENT 12 20 20 22 20 23 27 33
ROOT
ATOM      1  O   UNL     1      46.497 130.536  19.592  1.00  0.00    -0.280 OA
ATOM      2  C   UNL     1      45.355 131.065  19.516  1.00  0.00     0.274 A 
ATOM      3  C   UNL     1      44.816 131.402  18.230  1.00  0.00     0.182 A 
ATOM      4  C   UNL     1      43.543 132.016  18.131  1.00  0.00     0.049 A 
ATOM      5  C   UNL     1      42.853 132.269  19.302  1.00  0.00     0.005 A 
ATOM      6  C   UNL     1      41.629 132.827  19.584  1.00  0.00    -0.098 A 
ATOM      7  N   UNL     1      41.456 132.817  20.929  1.00  0.00    -0.512 NA
ATOM      8  O   UNL     1      42.511 132.279  21.487  1.00  0.00    -0.553 OA
ATOM      9  C   UNL     1      43.383 131.930  20.576  1.00  0.00     0.179 A 
ATOM     10  C   UNL     1      44.631 131.326  20.713  1.00  0.00     0.227 A 
ENDROOT
BRANCH   3  11
ATOM     11  N   UNL     1      45.554 131.110  17.028  1.00  0.00    -0.008 N 
ATOM     12  N   UNL     1      45.718 131.980  16.031  1.00  0.00     0.054 NA
ATOM     13  N   UNL     1      46.166 129.952  16.784  1.00  0.00    -0.161 N 
ATOM     14  C   UNL     1      46.470 131.334  15.121  1.00  0.00     0.249 A 
ATOM     15  C   UNL     1      46.745 130.084  15.584  1.00  0.00     0.198 A 
ATOM     16  C   UNL     1      46.933 131.785  13.889  1.00  0.00     0.064 A 
ATOM     17  C   UNL     1      47.502 129.168  14.859  1.00  0.00     0.058 A 
ATOM     18  C   UNL     1      47.709 130.892  13.123  1.00  0.00     0.005 A 
ATOM     19  C   UNL     1      47.990 129.588  13.605  1.00  0.00     0.005 A 
ATOM     20  H   UNL     1      46.166 129.106  17.398  1.00  0.00     0.340 HD
ENDBRANCH   3  11
BRANCH  10  21
ATOM     21  N   UNL     1      45.174 131.031  22.018  1.00  0.00    -0.275 N 
ATOM     22  H   UNL     1      44.976 131.818  22.680  1.00  0.00     0.358 HD
ATOM     23  H   UNL     1      46.216 130.943  21.962  1.00  0.00     0.358 HD
BRANCH  21  24
ATOM     24  C   UNL     1      44.607 129.802  22.515  1.00  0.00     0.136 A 
ATOM     25  C   UNL     1      45.214 128.555  22.200  1.00  0.00     0.069 A 
ATOM     26  C   UNL     1      43.422 129.824  23.289  1.00  0.00     0.094 A 
ATOM     27  C   UNL     1      44.653 127.347  22.652  1.00  0.00     0.016 A 
ATOM     28  C   UNL     1      42.894 128.608  23.719  1.00  0.00     0.051 A 
ATOM     29  C   UNL     1      43.489 127.415  23.411  1.00  0.00    -0.000 A 
ATOM     30  N   UNL     1      41.789 128.414  24.457  1.00  0.00    -0.361 N 
ATOM     31  C   UNL     1      42.729 126.416  23.979  1.00  0.00     0.028 A 
ATOM     32  C   UNL     1      41.683 127.075  24.619  1.00  0.00     0.083 A 
ATOM     33  H   UNL     1      41.141 129.143  24.830  1.00  0.00     0.166 HD
ENDBRANCH  21  24
ENDBRANCH  10  21
TORSDOF 3
ENDMDL
MODEL 3
REMARK VINA RESULT:     -10.3      0.957      1.777
REMARK SMILES O=c1c(-n2nc3ccccc3[nH+]2)cc2c[n-]oc-2c1[NH2+]c1ccc2cc[nH]c2c1
REMARK SMILES IDX 1 1 2 2 3 3 13 4 14 5 15 6 16 7 17 8 18 9 19 10 4 11 5 12
REMARK SMILES IDX 12 13 6 14 11 15 7 16 10 17 8 18 9 19 20 21 21 24 22 25
REMARK SMILES IDX 29 26 23 27 28 28 24 29 27 30 25 31 26 32
REMARK H PARENT 12 20 20 22 20 23 27 33
ROOT
ATOM      1  O   UNL     1      46.302 130.407  19.833  1.00  0.00    -0.280 OA
ATOM      2  C   UNL     1      45.187 130.993  19.776  1.00  0.00     0.274 A 
ATOM      3  C   UNL     1      44.667 131.400  18.503  1.00  0.00     0.182 A 
ATOM      4  C   UNL     1      43.426 132.077  18.425  1.00  0.00     0.049 A 
ATOM      5  C   UNL     1      42.747 132.323  19.604  1.00  0.00     0.005 A 
ATOM      6  C   UNL     1      41.552 132.930  19.905  1.00  0.00    -0.098 A 
ATOM      7  N   UNL     1      41.376 132.883  21.250  1.00  0.00    -0.512 NA
ATOM      8  O   UNL     1      42.403 132.276  21.789  1.00  0.00    -0.553 OA
ATOM      9  C   UNL     1      43.259 131.916  20.866  1.00  0.00     0.179 A 
ATOM     10  C   UNL     1      44.475 131.248  20.981  1.00  0.00     0.227 A 
ENDROOT
BRANCH   3  11
ATOM     11  N   UNL     1      45.392 131.114  17.292  1.00  0.00    -0.008 N 
ATOM     12  N   UNL     1      45.894 129.914  16.995  1.00  0.00     0.054 NA
ATOM     13  N   UNL     1      45.630 132.004  16.330  1.00  0.00    -0.161 N 
ATOM     14  C   UNL     1      46.472 130.063  15.789  1.00  0.00     0.249 A 
ATOM     15  C   UNL     1      46.311 131.351  15.379  1.00  0.00     0.198 A 
ATOM     16  C   UNL     1      47.144 129.120  15.019  1.00  0.00     0.064 A 
ATOM     17  C   UNL     1      46.810 131.817  14.166  1.00  0.00     0.058 A 
ATOM     18  C   UNL     1      47.661 129.548  13.779  1.00  0.00     0.005 A 
ATOM     19  C   UNL     1      47.497 130.891  13.356  1.00  0.00     0.005 A 
ATOM     20  H   UNL     1      45.363 133.015  16.336  1.00  0.00     0.340 HD
ENDBRANCH   3  11
BRANCH  10  21
ATOM     21  N   UNL     1      45.001 130.882  22.275  1.00  0.00    -0.275 N 
ATOM     22  H   UNL     1      44.802 131.635  22.974  1.00  0.00     0.358 HD
ATOM     23  H   UNL     1      46.043 130.789  22.227  1.00  0.00     0.358 HD
BRANCH  21  24
ATOM     24  C   UNL     1      44.420 129.634  22.703  1.00  0.00     0.136 A 
ATOM     25  C   UNL     1      45.072 128.404  22.412  1.00  0.00     0.069 A 
ATOM     26  C   UNL     1      43.179 129.620  23.383  1.00  0.00     0.094 A 
ATOM     27  C   UNL     1      44.500 127.177  22.796  1.00  0.00     0.016 A 
ATOM     28  C   UNL     1      42.641 128.387  23.747  1.00  0.00     0.051 A 
ATOM     29  C   UNL     1      43.279 127.210  23.463  1.00  0.00    -0.000 A 
ATOM     30  N   UNL     1      41.485 128.159  24.392  1.00  0.00    -0.361 N 
ATOM     31  C   UNL     1      42.495 126.188  23.950  1.00  0.00     0.028 A 
ATOM     32  C   UNL     1      41.391 126.815  24.519  1.00  0.00     0.083 A 
ATOM     33  H   UNL     1      40.797 128.870  24.728  1.00  0.00     0.166 HD
ENDBRANCH  21  24
ENDBRANCH  10  21
TORSDOF 3
ENDMDL
MODEL 4
REMARK VINA RESULT:      -8.9      1.026      1.659
REMARK SMILES O=c1c(-n2nc3ccccc3[nH+]2)cc2c[n-]oc-2c1[NH2+]c1ccc2cc[nH]c2c1
REMARK SMILES IDX 1 1 2 2 3 3 13 4 14 5 15 6 16 7 17 8 18 9 19 10 4 11 5 12
REMARK SMILES IDX 12 13 6 14 11 15 7 16 10 17 8 18 9 19 20 21 21 24 22 25
REMARK SMILES IDX 29 26 23 27 28 28 24 29 27 30 25 31 26 32
REMARK H PARENT 12 20 20 22 20 23 27 33
ROOT
ATOM      1  O   UNL     1      46.615 130.976  19.239  1.00  0.00    -0.280 OA
ATOM      2  C   UNL     1      45.413 131.321  19.077  1.00  0.00     0.274 A 
ATOM      3  C   UNL     1      44.880 131.425  17.750  1.00  0.00     0.182 A 
ATOM      4  C   UNL     1      43.538 131.831  17.552  1.00  0.00     0.049 A 
ATOM      5  C   UNL     1      42.775 132.116  18.670  1.00  0.00     0.005 A 
ATOM      6  C   UNL     1      41.476 132.519  18.858  1.00  0.00    -0.098 A 
ATOM      7  N   UNL     1      41.255 132.640  20.191  1.00  0.00    -0.512 NA
ATOM      8  O   UNL     1      42.355 132.330  20.831  1.00  0.00    -0.553 OA
ATOM      9  C   UNL     1      43.301 132.008  19.986  1.00  0.00     0.179 A 
ATOM     10  C   UNL     1      44.616 131.612  20.219  1.00  0.00     0.227 A 
ENDROOT
BRANCH   3  11
ATOM     11  N   UNL     1      45.697 131.106  16.607  1.00  0.00    -0.008 N 
ATOM     12  N   UNL     1      46.268 129.917  16.414  1.00  0.00     0.054 NA
ATOM     13  N   UNL     1      45.961 131.952  15.612  1.00  0.00    -0.161 N 
ATOM     14  C   UNL     1      46.919 130.025  15.241  1.00  0.00     0.249 A 
ATOM     15  C   UNL     1      46.731 131.279  14.748  1.00  0.00     0.198 A 
ATOM     16  C   UNL     1      47.681 129.073  14.572  1.00  0.00     0.064 A 
ATOM     17  C   UNL     1      47.291 131.700  13.544  1.00  0.00     0.058 A 
ATOM     18  C   UNL     1      48.261 129.454  13.346  1.00  0.00     0.005 A 
ATOM     19  C   UNL     1      48.069 130.763  12.835  1.00  0.00     0.005 A 
ATOM     20  H   UNL     1      45.651 132.948  15.542  1.00  0.00     0.340 HD
ENDBRANCH   3  11
BRANCH  10  21
ATOM     21  N   UNL     1      45.146 131.551  21.561  1.00  0.00    -0.275 N 
ATOM     22  H   UNL     1      45.120 132.499  22.005  1.00  0.00     0.358 HD
ATOM     23  H   UNL     1      46.152 131.262  21.537  1.00  0.00     0.358 HD
BRANCH  21  24
ATOM     24  C   UNL     1      44.386 130.609  22.344  1.00  0.00     0.136 A 
ATOM     25  C   UNL     1      43.527 131.068  23.379  1.00  0.00     0.069 A 
ATOM     26  C   UNL     1      44.517 129.219  22.113  1.00  0.00     0.094 A 
ATOM     27  C   UNL     1      42.804 130.158  24.172  1.00  0.00     0.016 A 
ATOM     28  C   UNL     1      43.787 128.346  22.917  1.00  0.00     0.051 A 
ATOM     29  C   UNL     1      42.961 128.801  23.910  1.00  0.00    -0.000 A 
ATOM     30  N   UNL     1      43.770 127.004  22.861  1.00  0.00    -0.361 N 
ATOM     31  C   UNL     1      42.394 127.699  24.511  1.00  0.00     0.028 A 
ATOM     32  C   UNL     1      42.919 126.603  23.833  1.00  0.00     0.083 A 
ATOM     33  H   UNL     1      44.304 126.393  22.203  1.00  0.00     0.166 HD
ENDBRANCH  21  24
ENDBRANCH  10  21
TORSDOF 3
ENDMDL
MODEL 5
REMARK VINA RESULT:      -8.5      0.800      1.254
REMARK SMILES O=c1c(-n2nc3ccccc3[nH+]2)cc2c[n-]oc-2c1[NH2+]c1ccc2cc[nH]c2c1
REMARK SMILES IDX 1 1 2 2 3 3 13 4 14 5 15 6 16 7 17 8 18 9 19 10 4 11 5 12
REMARK SMILES IDX 12 13 6 14 11 15 7 16 10 17 8 18 9 19 20 21 21 24 22 25
REMARK SMILES IDX 29 26 23 27 28 28 24 29 27 30 25 31 26 32
REMARK H PARENT 12 20 20 22 20 23 27 33
ROOT
ATOM      1  O   UNL     1      45.815 130.022  20.233  1.00  0.00    -0.280 OA
ATOM      2  C   UNL     1      44.782 130.739  20.328  1.00  0.00     0.274 A 
ATOM      3  C   UNL     1      44.227 131.338  19.149  1.00  0.00     0.182 A 
ATOM      4  C   UNL     1      43.079 132.162  19.243  1.00  0.00     0.049 A 
ATOM      5  C   UNL     1      42.524 132.359  20.494  1.00  0.00     0.005 A 
ATOM      6  C   UNL     1      41.440 133.068  20.953  1.00  0.00    -0.098 A 
ATOM      7  N   UNL     1      41.357 132.898  22.296  1.00  0.00    -0.512 NA
ATOM      8  O   UNL     1      42.336 132.119  22.685  1.00  0.00    -0.553 OA
ATOM      9  C   UNL     1      43.070 131.761  21.662  1.00  0.00     0.179 A 
ATOM     10  C   UNL     1      44.198 130.945  21.608  1.00  0.00     0.227 A 
ENDROOT
BRANCH   3  11
ATOM     11  N   UNL     1      44.821 131.099  17.859  1.00  0.00    -0.008 N 
ATOM     12  N   UNL     1      45.931 130.384  17.676  1.00  0.00     0.054 NA
ATOM     13  N   UNL     1      44.325 131.551  16.707  1.00  0.00    -0.161 N 
ATOM     14  C   UNL     1      46.137 130.387  16.346  1.00  0.00     0.249 A 
ATOM     15  C   UNL     1      45.148 131.107  15.749  1.00  0.00     0.198 A 
ATOM     16  C   UNL     1      47.159 129.788  15.617  1.00  0.00     0.064 A 
ATOM     17  C   UNL     1      45.092 131.300  14.372  1.00  0.00     0.058 A 
ATOM     18  C   UNL     1      47.137 129.952  14.217  1.00  0.00     0.005 A 
ATOM     19  C   UNL     1      46.110 130.707  13.598  1.00  0.00     0.005 A 
ATOM     20  H   UNL     1      43.480 132.154  16.587  1.00  0.00     0.340 HD
ENDBRANCH   3  11
BRANCH  10  21
ATOM     21  N   UNL     1      44.765 130.383  22.811  1.00  0.00    -0.275 N 
ATOM     22  H   UNL     1      44.599 131.022  23.624  1.00  0.00     0.358 HD
ATOM     23  H   UNL     1      45.804 130.294  22.711  1.00  0.00     0.358 HD
BRANCH  21  24
ATOM     24  C   UNL     1      44.186 129.087  23.064  1.00  0.00     0.136 A 
ATOM     25  C   UNL     1      42.922 128.981  23.707  1.00  0.00     0.069 A 
ATOM     26  C   UNL     1      44.887 127.910  22.708  1.00  0.00     0.094 A 
ATOM     27  C   UNL     1      42.360 127.723  23.988  1.00  0.00     0.016 A 
ATOM     28  C   UNL     1      44.301 126.681  23.003  1.00  0.00     0.051 A 
ATOM     29  C   UNL     1      43.082 126.592  23.620  1.00  0.00    -0.000 A 
ATOM     30  N   UNL     1      44.797 125.458  22.749  1.00  0.00    -0.361 N 
ATOM     31  C   UNL     1      42.790 125.254  23.766  1.00  0.00     0.028 A 
ATOM     32  C   UNL     1      43.877 124.582  23.214  1.00  0.00     0.083 A 
ATOM     33  H   UNL     1      45.706 125.228  22.289  1.00  0.00     0.166 HD
ENDBRANCH  21  24
ENDBRANCH  10  21
TORSDOF 3
ENDMDL
MODEL 6
REMARK VINA RESULT:      -8.2      1.284      1.604
REMARK SMILES O=c1c(-n2nc3ccccc3[nH+]2)cc2c[n-]oc-2c1[NH2+]c1ccc2cc[nH]c2c1
REMARK SMILES IDX 1 1 2 2 3 3 13 4 14 5 15 6 16 7 17 8 18 9 19 10 4 11 5 12
REMARK SMILES IDX 12 13 6 14 11 15 7 16 10 17 8 18 9 19 20 21 21 24 22 25
REMARK SMILES IDX 29 26 23 27 28 28 24 29 27 30 25 31 26 32
REMARK H PARENT 12 20 20 22 20 23 27 33
ROOT
ATOM      1  O   UNL     1      46.005 129.360  20.575  1.00  0.00    -0.280 OA
ATOM      2  C   UNL     1      45.047 130.119  20.883  1.00  0.00     0.274 A 
ATOM      3  C   UNL     1      44.458 130.957  19.880  1.00  0.00     0.182 A 
ATOM      4  C   UNL     1      43.394 131.829  20.216  1.00  0.00     0.049 A 
ATOM      5  C   UNL     1      42.952 131.837  21.526  1.00  0.00     0.005 A 
ATOM      6  C   UNL     1      41.969 132.525  22.195  1.00  0.00    -0.098 A 
ATOM      7  N   UNL     1      41.972 132.122  23.490  1.00  0.00    -0.512 NA
ATOM      8  O   UNL     1      42.907 131.220  23.650  1.00  0.00    -0.553 OA
ATOM      9  C   UNL     1      43.530 131.002  22.520  1.00  0.00     0.179 A 
ATOM     10  C   UNL     1      44.578 130.132  22.226  1.00  0.00     0.227 A 
ENDROOT
BRANCH   3  11
ATOM     11  N   UNL     1      44.932 130.914  18.520  1.00  0.00    -0.008 N 
ATOM     12  N   UNL     1      44.439 131.672  17.539  1.00  0.00     0.054 NA
ATOM     13  N   UNL     1      45.920 130.128  18.093  1.00  0.00    -0.161 N 
ATOM     14  C   UNL     1      45.155 131.344  16.448  1.00  0.00     0.249 A 
ATOM     15  C   UNL     1      46.067 130.392  16.789  1.00  0.00     0.198 A 
ATOM     16  C   UNL     1      45.051 131.839  15.153  1.00  0.00     0.064 A 
ATOM     17  C   UNL     1      46.953 129.843  15.866  1.00  0.00     0.058 A 
ATOM     18  C   UNL     1      45.934 131.315  14.187  1.00  0.00     0.005 A 
ATOM     19  C   UNL     1      46.879 130.319  14.542  1.00  0.00     0.005 A 
ATOM     20  H   UNL     1      46.449 129.428  18.661  1.00  0.00     0.340 HD
ENDBRANCH   3  11
BRANCH  10  21
ATOM     21  N   UNL     1      45.184 129.324  23.259  1.00  0.00    -0.275 N 
ATOM     22  H   UNL     1      45.025 129.757  24.198  1.00  0.00     0.358 HD
ATOM     23  H   UNL     1      46.221 129.284  23.121  1.00  0.00     0.358 HD
BRANCH  21  24
ATOM     24  C   UNL     1      44.634 127.992  23.221  1.00  0.00     0.136 A 
ATOM     25  C   UNL     1      43.312 127.750  23.682  1.00  0.00     0.069 A 
ATOM     26  C   UNL     1      45.419 126.909  22.758  1.00  0.00     0.094 A 
ATOM     27  C   UNL     1      42.775 126.450  23.680  1.00  0.00     0.016 A 
ATOM     28  C   UNL     1      44.856 125.634  22.771  1.00  0.00     0.051 A 
ATOM     29  C   UNL     1      43.580 125.415  23.216  1.00  0.00    -0.000 A 
ATOM     30  N   UNL     1      45.428 124.484  22.378  1.00  0.00    -0.361 N 
ATOM     31  C   UNL     1      43.329 124.065  23.101  1.00  0.00     0.028 A 
ATOM     32  C   UNL     1      44.498 123.522  22.577  1.00  0.00     0.083 A 
ATOM     33  H   UNL     1      46.392 124.356  21.996  1.00  0.00     0.166 HD
ENDBRANCH  21  24
ENDBRANCH  10  21
TORSDOF 3
ENDMDL


