MODEL 1
REMARK VINA RESULT:      -6.0      0.000      0.000
REMARK SMILES Cc1ccc([C@H]2CC[C@@H](N)[C@@]3(C=O)CC=N[C@@H]23)cc1F
REMARK SMILES IDX 6 1 7 2 8 3 9 4 11 5 14 6 15 7 16 8 17 9 5 10 2 11 3 12
REMARK SMILES IDX 19 13 4 14 18 15 1 16 20 17 12 18 13 19 10 20
REMARK H PARENT 10 21 10 22
ROOT
ATOM      1  C   UNL     1      44.742 131.822  17.880  1.00  0.00     0.045 C 
ATOM      2  C   UNL     1      43.298 131.265  17.880  1.00  0.00     0.012 C 
ATOM      3  C   UNL     1      42.607 131.335  19.259  1.00  0.00     0.020 C 
ATOM      4  C   UNL     1      43.315 132.293  20.240  1.00  0.00     0.066 C 
ATOM      5  C   UNL     1      44.805 131.858  20.484  1.00  0.00     0.069 C 
ATOM      6  C   UNL     1      44.895 130.572  21.355  1.00  0.00     0.066 C 
ATOM      7  C   UNL     1      45.370 129.542  20.401  1.00  0.00     0.079 C 
ATOM      8  N   UNL     1      45.683 130.004  19.255  1.00  0.00    -0.292 NA
ATOM      9  C   UNL     1      45.522 131.431  19.157  1.00  0.00     0.127 C 
ENDROOT
BRANCH   1  10
ATOM     10  C   UNL     1      45.503 131.468  16.610  1.00  0.00    -0.040 A 
ATOM     11  C   UNL     1      46.878 130.760  14.247  1.00  0.00    -0.015 A 
ATOM     12  C   UNL     1      46.663 132.108  14.564  1.00  0.00     0.007 A 
ATOM     13  C   UNL     1      46.380 129.764  15.101  1.00  0.00     0.126 A 
ATOM     14  C   UNL     1      45.984 132.460  15.734  1.00  0.00     0.004 A 
ATOM     15  C   UNL     1      45.701 130.116  16.271  1.00  0.00     0.043 A 
ATOM     16  C   UNL     1      47.582 130.383  12.975  1.00  0.00     0.047 C 
ATOM     17  F   UNL     1      46.549 128.451  14.801  1.00  0.00    -0.207 F 
ENDBRANCH   1  10
BRANCH   5  18
ATOM     18  C   UNL     1      45.556 133.005  21.138  1.00  0.00     0.235 C 
ATOM     19  O   UNL     1      46.751 132.909  21.373  1.00  0.00    -0.303 OA
ENDBRANCH   5  18
BRANCH   4  20
ATOM     20  N   UNL     1      42.567 132.361  21.501  1.00  0.00    -0.327 NA
ATOM     21  H   UNL     1      42.742 133.293  21.943  1.00  0.00     0.119 HD
ATOM     22  H   UNL     1      41.544 132.339  21.283  1.00  0.00     0.119 HD
ENDBRANCH   4  20
TORSDOF 3
ENDMDL
MODEL 2
REMARK VINA RESULT:      -5.9      2.087      3.255
REMARK SMILES Cc1ccc([C@H]2CC[C@@H](N)[C@@]3(C=O)CC=N[C@@H]23)cc1F
REMARK SMILES IDX 6 1 7 2 8 3 9 4 11 5 14 6 15 7 16 8 17 9 5 10 2 11 3 12
REMARK SMILES IDX 19 13 4 14 18 15 1 16 20 17 12 18 13 19 10 20
REMARK H PARENT 10 21 10 22
ROOT
ATOM      1  C   UNL     1      44.884 131.088  19.968  1.00  0.00     0.045 C 
ATOM      2  C   UNL     1      45.710 132.243  20.585  1.00  0.00     0.012 C 
ATOM      3  C   UNL     1      45.410 132.488  22.080  1.00  0.00     0.020 C 
ATOM      4  C   UNL     1      44.676 131.308  22.750  1.00  0.00     0.066 C 
ATOM      5  C   UNL     1      43.306 131.014  22.039  1.00  0.00     0.069 C 
ATOM      6  C   UNL     1      42.248 132.112  22.349  1.00  0.00     0.066 C 
ATOM      7  C   UNL     1      42.094 132.817  21.054  1.00  0.00     0.079 C 
ATOM      8  N   UNL     1      42.722 132.269  20.090  1.00  0.00    -0.292 NA
ATOM      9  C   UNL     1      43.423 131.074  20.478  1.00  0.00     0.127 C 
ENDROOT
BRANCH   1  10
ATOM     10  C   UNL     1      44.963 131.063  18.448  1.00  0.00    -0.040 A 
ATOM     11  C   UNL     1      45.135 130.959  15.631  1.00  0.00    -0.015 A 
ATOM     12  C   UNL     1      44.058 131.607  16.251  1.00  0.00     0.007 A 
ATOM     13  C   UNL     1      46.113 130.339  16.423  1.00  0.00     0.126 A 
ATOM     14  C   UNL     1      43.973 131.661  17.645  1.00  0.00     0.004 A 
ATOM     15  C   UNL     1      46.027 130.393  17.817  1.00  0.00     0.043 A 
ATOM     16  C   UNL     1      45.209 130.876  14.133  1.00  0.00     0.047 C 
ATOM     17  F   UNL     1      47.149 129.679  15.846  1.00  0.00    -0.207 F 
ENDBRANCH   1  10
BRANCH   5  18
ATOM     18  C   UNL     1      42.805 129.646  22.473  1.00  0.00     0.235 C 
ATOM     19  O   UNL     1      42.698 129.374  23.659  1.00  0.00    -0.303 OA
ENDBRANCH   5  18
BRANCH   4  20
ATOM     20  N   UNL     1      44.488 131.581  24.179  1.00  0.00    -0.327 NA
ATOM     21  H   UNL     1      45.344 132.060  24.543  1.00  0.00     0.119 HD
ATOM     22  H   UNL     1      43.710 132.271  24.286  1.00  0.00     0.119 HD
ENDBRANCH   4  20
TORSDOF 3
ENDMDL
MODEL 3
REMARK VINA RESULT:      -5.7      2.254      3.397
REMARK SMILES Cc1ccc([C@H]2CC[C@@H](N)[C@@]3(C=O)CC=N[C@@H]23)cc1F
REMARK SMILES IDX 6 1 7 2 8 3 9 4 11 5 14 6 15 7 16 8 17 9 5 10 2 11 3 12
REMARK SMILES IDX 19 13 4 14 18 15 1 16 20 17 12 18 13 19 10 20
REMARK H PARENT 10 21 10 22
ROOT
ATOM      1  C   UNL     1      44.965 131.025  19.947  1.00  0.00     0.045 C 
ATOM      2  C   UNL     1      45.775 132.211  20.524  1.00  0.00     0.012 C 
ATOM      3  C   UNL     1      45.434 132.536  21.994  1.00  0.00     0.020 C 
ATOM      4  C   UNL     1      44.679 131.395  22.706  1.00  0.00     0.066 C 
ATOM      5  C   UNL     1      43.329 131.064  21.974  1.00  0.00     0.069 C 
ATOM      6  C   UNL     1      42.265 132.178  22.194  1.00  0.00     0.066 C 
ATOM      7  C   UNL     1      42.150 132.813  20.859  1.00  0.00     0.079 C 
ATOM      8  N   UNL     1      42.803 132.213  19.944  1.00  0.00    -0.292 NA
ATOM      9  C   UNL     1      43.490 131.039  20.416  1.00  0.00     0.127 C 
ENDROOT
BRANCH   1  10
ATOM     10  C   UNL     1      45.086 130.918  18.434  1.00  0.00    -0.040 A 
ATOM     11  C   UNL     1      45.287 130.776  15.620  1.00  0.00    -0.015 A 
ATOM     12  C   UNL     1      46.273 130.197  16.430  1.00  0.00     0.007 A 
ATOM     13  C   UNL     1      44.213 131.450  16.220  1.00  0.00     0.126 A 
ATOM     14  C   UNL     1      46.175 130.265  17.823  1.00  0.00     0.004 A 
ATOM     15  C   UNL     1      44.114 131.518  17.613  1.00  0.00     0.043 A 
ATOM     16  C   UNL     1      45.410 130.728  14.124  1.00  0.00     0.047 C 
ATOM     17  F   UNL     1      43.260 132.045  15.457  1.00  0.00    -0.207 F 
ENDBRANCH   1  10
BRANCH   5  18
ATOM     18  C   UNL     1      42.813 129.723  22.467  1.00  0.00     0.235 C 
ATOM     19  O   UNL     1      43.444 129.083  23.294  1.00  0.00    -0.303 OA
ENDBRANCH   5  18
BRANCH   4  20
ATOM     20  N   UNL     1      44.451 131.746  24.112  1.00  0.00    -0.327 NA
ATOM     21  H   UNL     1      43.831 131.020  24.541  1.00  0.00     0.119 HD
ATOM     22  H   UNL     1      45.361 131.679  24.624  1.00  0.00     0.119 HD
ENDBRANCH   4  20
TORSDOF 3
ENDMDL
MODEL 4
REMARK VINA RESULT:      -5.6      1.035      1.495
REMARK SMILES Cc1ccc([C@H]2CC[C@@H](N)[C@@]3(C=O)CC=N[C@@H]23)cc1F
REMARK SMILES IDX 6 1 7 2 8 3 9 4 11 5 14 6 15 7 16 8 17 9 5 10 2 11 3 12
REMARK SMILES IDX 19 13 4 14 18 15 1 16 20 17 12 18 13 19 10 20
REMARK H PARENT 10 21 10 22
ROOT
ATOM      1  C   UNL     1      44.808 131.627  17.710  1.00  0.00     0.045 C 
ATOM      2  C   UNL     1      43.335 131.151  17.708  1.00  0.00     0.012 C 
ATOM      3  C   UNL     1      42.590 131.441  19.029  1.00  0.00     0.020 C 
ATOM      4  C   UNL     1      43.308 132.482  19.912  1.00  0.00     0.066 C 
ATOM      5  C   UNL     1      44.758 132.007  20.286  1.00  0.00     0.069 C 
ATOM      6  C   UNL     1      44.735 130.846  21.322  1.00  0.00     0.066 C 
ATOM      7  C   UNL     1      45.190 129.674  20.536  1.00  0.00     0.079 C 
ATOM      8  N   UNL     1      45.579 129.962  19.358  1.00  0.00    -0.292 NA
ATOM      9  C   UNL     1      45.507 131.370  19.066  1.00  0.00     0.127 C 
ENDROOT
BRANCH   1  10
ATOM     10  C   UNL     1      45.602 131.067  16.538  1.00  0.00    -0.040 A 
ATOM     11  C   UNL     1      47.116 130.077  14.369  1.00  0.00    -0.015 A 
ATOM     12  C   UNL     1      46.522 129.193  15.280  1.00  0.00     0.007 A 
ATOM     13  C   UNL     1      46.974 131.460  14.560  1.00  0.00     0.126 A 
ATOM     14  C   UNL     1      45.770 129.681  16.353  1.00  0.00     0.004 A 
ATOM     15  C   UNL     1      46.223 131.948  15.633  1.00  0.00     0.043 A 
ATOM     16  C   UNL     1      47.947 129.551  13.233  1.00  0.00     0.047 C 
ATOM     17  F   UNL     1      47.565 132.337  13.709  1.00  0.00    -0.207 F 
ENDBRANCH   1  10
BRANCH   5  18
ATOM     18  C   UNL     1      45.546 133.190  20.822  1.00  0.00     0.235 C 
ATOM     19  O   UNL     1      46.644 133.024  21.330  1.00  0.00    -0.303 OA
ENDBRANCH   5  18
BRANCH   4  20
ATOM     20  N   UNL     1      42.511 132.758  21.112  1.00  0.00    -0.327 NA
ATOM     21  H   UNL     1      41.506 132.841  20.833  1.00  0.00     0.119 HD
ATOM     22  H   UNL     1      42.562 131.926  21.743  1.00  0.00     0.119 HD
ENDBRANCH   4  20
TORSDOF 3
ENDMDL
MODEL 5
REMARK VINA RESULT:      -5.4      3.189      6.307
REMARK SMILES Cc1ccc([C@H]2CC[C@@H](N)[C@@]3(C=O)CC=N[C@@H]23)cc1F
REMARK SMILES IDX 6 1 7 2 8 3 9 4 11 5 14 6 15 7 16 8 17 9 5 10 2 11 3 12
REMARK SMILES IDX 19 13 4 14 18 15 1 16 20 17 12 18 13 19 10 20
REMARK H PARENT 10 21 10 22
ROOT
ATOM      1  C   UNL     1      45.634 130.683  17.550  1.00  0.00     0.045 C 
ATOM      2  C   UNL     1      45.414 129.195  17.183  1.00  0.00     0.012 C 
ATOM      3  C   UNL     1      45.767 128.860  15.717  1.00  0.00     0.020 C 
ATOM      4  C   UNL     1      46.631 129.945  15.041  1.00  0.00     0.066 C 
ATOM      5  C   UNL     1      45.900 131.336  15.042  1.00  0.00     0.069 C 
ATOM      6  C   UNL     1      44.715 131.365  14.035  1.00  0.00     0.066 C 
ATOM      7  C   UNL     1      43.519 131.401  14.911  1.00  0.00     0.079 C 
ATOM      8  N   UNL     1      43.790 131.532  16.149  1.00  0.00    -0.292 NA
ATOM      9  C   UNL     1      45.202 131.637  16.412  1.00  0.00     0.127 C 
ENDROOT
BRANCH   1  10
ATOM     10  C   UNL     1      45.001 131.053  18.883  1.00  0.00    -0.040 A 
ATOM     11  C   UNL     1      43.769 131.733  21.332  1.00  0.00    -0.015 A 
ATOM     12  C   UNL     1      44.978 131.024  21.320  1.00  0.00     0.007 A 
ATOM     13  C   UNL     1      43.162 132.078  20.115  1.00  0.00     0.126 A 
ATOM     14  C   UNL     1      45.590 130.689  20.109  1.00  0.00     0.004 A 
ATOM     15  C   UNL     1      43.774 131.743  18.904  1.00  0.00     0.043 A 
ATOM     16  C   UNL     1      43.098 132.067  22.634  1.00  0.00     0.047 C 
ATOM     17  F   UNL     1      41.976 132.738  20.099  1.00  0.00    -0.207 F 
ENDBRANCH   1  10
BRANCH   5  18
ATOM     18  C   UNL     1      46.908 132.426  14.719  1.00  0.00     0.235 C 
ATOM     19  O   UNL     1      47.750 132.253  13.851  1.00  0.00    -0.303 OA
ENDBRANCH   5  18
BRANCH   4  20
ATOM     20  N   UNL     1      46.983 129.528  13.679  1.00  0.00    -0.327 NA
ATOM     21  H   UNL     1      47.255 128.518  13.699  1.00  0.00     0.119 HD
ATOM     22  H   UNL     1      46.125 129.579  13.084  1.00  0.00     0.119 HD
ENDBRANCH   4  20
TORSDOF 3
ENDMDL
MODEL 6
REMARK VINA RESULT:      -4.8      3.177      6.291
REMARK SMILES Cc1ccc([C@H]2CC[C@@H](N)[C@@]3(C=O)CC=N[C@@H]23)cc1F
REMARK SMILES IDX 6 1 7 2 8 3 9 4 11 5 14 6 15 7 16 8 17 9 5 10 2 11 3 12
REMARK SMILES IDX 19 13 4 14 18 15 1 16 20 17 12 18 13 19 10 20
REMARK H PARENT 10 21 10 22
ROOT
ATOM      1  C   UNL     1      45.519 130.682  17.366  1.00  0.00     0.045 C 
ATOM      2  C   UNL     1      45.369 129.180  17.025  1.00  0.00     0.012 C 
ATOM      3  C   UNL     1      45.865 128.815  15.609  1.00  0.00     0.020 C 
ATOM      4  C   UNL     1      46.763 129.903  14.984  1.00  0.00     0.066 C 
ATOM      5  C   UNL     1      46.004 131.274  14.876  1.00  0.00     0.069 C 
ATOM      6  C   UNL     1      44.917 131.245  13.762  1.00  0.00     0.066 C 
ATOM      7  C   UNL     1      43.645 131.273  14.522  1.00  0.00     0.079 C 
ATOM      8  N   UNL     1      43.796 131.446  15.776  1.00  0.00    -0.292 NA
ATOM      9  C   UNL     1      45.173 131.594  16.165  1.00  0.00     0.127 C 
ENDROOT
BRANCH   1  10
ATOM     10  C   UNL     1      44.756 131.073  18.624  1.00  0.00    -0.040 A 
ATOM     11  C   UNL     1      43.395 131.806  20.987  1.00  0.00    -0.015 A 
ATOM     12  C   UNL     1      42.881 132.166  19.734  1.00  0.00     0.007 A 
ATOM     13  C   UNL     1      44.606 131.101  21.058  1.00  0.00     0.126 A 
ATOM     14  C   UNL     1      43.553 131.803  18.563  1.00  0.00     0.004 A 
ATOM     15  C   UNL     1      45.277 130.737  19.887  1.00  0.00     0.043 A 
ATOM     16  C   UNL     1      42.687 132.223  22.245  1.00  0.00     0.047 C 
ATOM     17  F   UNL     1      45.139 130.766  22.260  1.00  0.00    -0.207 F 
ENDBRANCH   1  10
BRANCH   5  18
ATOM     18  C   UNL     1      47.012 132.380  14.616  1.00  0.00     0.235 C 
ATOM     19  O   UNL     1      47.852 132.259  13.738  1.00  0.00    -0.303 OA
ENDBRANCH   5  18
BRANCH   4  20
ATOM     20  N   UNL     1      47.251 129.458  13.674  1.00  0.00    -0.327 NA
ATOM     21  H   UNL     1      48.289 129.584  13.643  1.00  0.00     0.119 HD
ATOM     22  H   UNL     1      47.088 128.429  13.590  1.00  0.00     0.119 HD
ENDBRANCH   4  20
TORSDOF 3
ENDMDL
MODEL 7
REMARK VINA RESULT:      -4.7      1.744      2.420
REMARK SMILES Cc1ccc([C@H]2CC[C@@H](N)[C@@]3(C=O)CC=N[C@@H]23)cc1F
REMARK SMILES IDX 6 1 7 2 8 3 9 4 11 5 14 6 15 7 16 8 17 9 5 10 2 11 3 12
REMARK SMILES IDX 19 13 4 14 18 15 1 16 20 17 12 18 13 19 10 20
REMARK H PARENT 10 21 10 22
ROOT
ATOM      1  C   UNL     1      44.938 130.531  18.973  1.00  0.00     0.045 C 
ATOM      2  C   UNL     1      45.792 129.516  19.770  1.00  0.00     0.012 C 
ATOM      3  C   UNL     1      45.444 129.462  21.274  1.00  0.00     0.020 C 
ATOM      4  C   UNL     1      44.081 130.106  21.602  1.00  0.00     0.066 C 
ATOM      5  C   UNL     1      44.046 131.615  21.167  1.00  0.00     0.069 C 
ATOM      6  C   UNL     1      44.919 132.504  22.099  1.00  0.00     0.066 C 
ATOM      7  C   UNL     1      46.059 132.893  21.235  1.00  0.00     0.079 C 
ATOM      8  N   UNL     1      45.933 132.531  20.019  1.00  0.00    -0.292 NA
ATOM      9  C   UNL     1      44.696 131.841  19.760  1.00  0.00     0.127 C 
ENDROOT
BRANCH   1  10
ATOM     10  C   UNL     1      45.493 130.791  17.580  1.00  0.00    -0.040 A 
ATOM     11  C   UNL     1      46.516 131.213  14.981  1.00  0.00    -0.015 A 
ATOM     12  C   UNL     1      45.732 132.195  15.601  1.00  0.00     0.007 A 
ATOM     13  C   UNL     1      46.765 130.006  15.652  1.00  0.00     0.126 A 
ATOM     14  C   UNL     1      45.227 131.989  16.888  1.00  0.00     0.004 A 
ATOM     15  C   UNL     1      46.260 129.800  16.939  1.00  0.00     0.043 A 
ATOM     16  C   UNL     1      47.034 131.424  13.587  1.00  0.00     0.047 C 
ATOM     17  F   UNL     1      47.496 129.027  15.061  1.00  0.00    -0.207 F 
ENDBRANCH   1  10
BRANCH   5  18
ATOM     18  C   UNL     1      42.605 132.096  21.160  1.00  0.00     0.235 C 
ATOM     19  O   UNL     1      42.155 132.689  20.191  1.00  0.00    -0.303 OA
ENDBRANCH   5  18
BRANCH   4  20
ATOM     20  N   UNL     1      43.787 129.956  23.032  1.00  0.00    -0.327 NA
ATOM     21  H   UNL     1      43.743 128.936  23.258  1.00  0.00     0.119 HD
ATOM     22  H   UNL     1      44.595 130.332  23.579  1.00  0.00     0.119 HD
ENDBRANCH   4  20
TORSDOF 3
ENDMDL
MODEL 8
REMARK VINA RESULT:      -4.5      1.432      1.627
REMARK SMILES Cc1ccc([C@H]2CC[C@@H](N)[C@@]3(C=O)CC=N[C@@H]23)cc1F
REMARK SMILES IDX 6 1 7 2 8 3 9 4 11 5 14 6 15 7 16 8 17 9 5 10 2 11 3 12
REMARK SMILES IDX 19 13 4 14 18 15 1 16 20 17 12 18 13 19 10 20
REMARK H PARENT 10 21 10 22
ROOT
ATOM      1  C   UNL     1      44.298 131.803  18.718  1.00  0.00     0.045 C 
ATOM      2  C   UNL     1      42.839 131.331  18.924  1.00  0.00     0.012 C 
ATOM      3  C   UNL     1      42.399 131.312  20.404  1.00  0.00     0.020 C 
ATOM      4  C   UNL     1      43.329 132.132  21.322  1.00  0.00     0.066 C 
ATOM      5  C   UNL     1      44.803 131.593  21.265  1.00  0.00     0.069 C 
ATOM      6  C   UNL     1      44.947 130.228  21.999  1.00  0.00     0.066 C 
ATOM      7  C   UNL     1      45.179 129.266  20.895  1.00  0.00     0.079 C 
ATOM      8  N   UNL     1      45.325 129.815  19.754  1.00  0.00    -0.292 NA
ATOM      9  C   UNL     1      45.253 131.251  19.803  1.00  0.00     0.127 C 
ENDROOT
BRANCH   1  10
ATOM     10  C   UNL     1      44.807 131.526  17.310  1.00  0.00    -0.040 A 
ATOM     11  C   UNL     1      45.711 131.057  14.676  1.00  0.00    -0.015 A 
ATOM     12  C   UNL     1      46.592 130.934  15.759  1.00  0.00     0.007 A 
ATOM     13  C   UNL     1      44.383 131.443  14.910  1.00  0.00     0.126 A 
ATOM     14  C   UNL     1      46.145 131.164  17.064  1.00  0.00     0.004 A 
ATOM     15  C   UNL     1      43.936 131.672  16.214  1.00  0.00     0.043 A 
ATOM     16  C   UNL     1      46.200 130.838  13.273  1.00  0.00     0.047 C 
ATOM     17  F   UNL     1      43.518 131.598  13.875  1.00  0.00    -0.207 F 
ENDBRANCH   1  10
BRANCH   5  18
ATOM     18  C   UNL     1      45.735 132.630  21.869  1.00  0.00     0.235 C 
ATOM     19  O   UNL     1      46.773 132.935  21.302  1.00  0.00    -0.303 OA
ENDBRANCH   5  18
BRANCH   4  20
ATOM     20  N   UNL     1      42.811 132.126  22.695  1.00  0.00    -0.327 NA
ATOM     21  H   UNL     1      41.866 132.573  22.697  1.00  0.00     0.119 HD
ATOM     22  H   UNL     1      42.657 131.134  22.987  1.00  0.00     0.119 HD
ENDBRANCH   4  20
TORSDOF 3
ENDMDL
MODEL 9
REMARK VINA RESULT:      -4.4      8.777     10.322
REMARK SMILES Cc1ccc([C@H]2CC[C@@H](N)[C@@]3(C=O)CC=N[C@@H]23)cc1F
REMARK SMILES IDX 6 1 7 2 8 3 9 4 11 5 14 6 15 7 16 8 17 9 5 10 2 11 3 12
REMARK SMILES IDX 19 13 4 14 18 15 1 16 20 17 12 18 13 19 10 20
REMARK H PARENT 10 21 10 22
ROOT
ATOM      1  C   UNL     1      48.750 124.650  21.674  1.00  0.00     0.045 C 
ATOM      2  C   UNL     1      49.277 125.623  22.756  1.00  0.00     0.012 C 
ATOM      3  C   UNL     1      50.804 125.847  22.695  1.00  0.00     0.020 C 
ATOM      4  C   UNL     1      51.428 125.398  21.357  1.00  0.00     0.066 C 
ATOM      5  C   UNL     1      51.167 123.871  21.093  1.00  0.00     0.069 C 
ATOM      6  C   UNL     1      52.024 122.969  22.029  1.00  0.00     0.066 C 
ATOM      7  C   UNL     1      51.022 122.376  22.947  1.00  0.00     0.079 C 
ATOM      8  N   UNL     1      49.816 122.645  22.638  1.00  0.00    -0.292 NA
ATOM      9  C   UNL     1      49.701 123.449  21.450  1.00  0.00     0.127 C 
ENDROOT
BRANCH   1  10
ATOM     10  C   UNL     1      47.318 124.207  21.937  1.00  0.00    -0.040 A 
ATOM     11  C   UNL     1      44.640 123.446  22.415  1.00  0.00    -0.015 A 
ATOM     12  C   UNL     1      45.522 122.568  21.769  1.00  0.00     0.007 A 
ATOM     13  C   UNL     1      45.093 124.717  22.798  1.00  0.00     0.126 A 
ATOM     14  C   UNL     1      46.847 122.942  21.534  1.00  0.00     0.004 A 
ATOM     15  C   UNL     1      46.419 125.092  22.562  1.00  0.00     0.043 A 
ATOM     16  C   UNL     1      43.208 123.052  22.641  1.00  0.00     0.047 C 
ATOM     17  F   UNL     1      44.251 125.597  23.398  1.00  0.00    -0.207 F 
ENDBRANCH   1  10
BRANCH   5  18
ATOM     18  C   UNL     1      51.458 123.563  19.634  1.00  0.00     0.235 C 
ATOM     19  O   UNL     1      50.835 124.125  18.746  1.00  0.00    -0.303 OA
ENDBRANCH   5  18
BRANCH   4  20
ATOM     20  N   UNL     1      52.863 125.704  21.346  1.00  0.00    -0.327 NA
ATOM     21  H   UNL     1      53.261 125.472  22.285  1.00  0.00     0.119 HD
ATOM     22  H   UNL     1      53.335 125.060  20.671  1.00  0.00     0.119 HD
ENDBRANCH   4  20
TORSDOF 3
ENDMDL


