REMARK SMILES O=C=NC(=O)c1ccc(-c2cc(F)cc(F)c2[O-])cc1
REMARK SMILES IDX 4 1 5 2 6 3 9 4 8 5 19 6 7 7 20 8 10 9 14 10 12 11 15 12
REMARK SMILES IDX 11 13 17 14 13 15 16 16 18 17 3 18 2 19 1 20
REMARK H PARENT
ROOT
ATOM      1  C   UNL     1       0.927   3.098   2.170  1.00  0.00     0.287 C 
ATOM      2  O   UNL     1       1.409   3.978   1.410  1.00  0.00    -0.266 OA
ENDROOT
BRANCH   1   3
ATOM      3  C   UNL     1       0.710   1.730   1.636  1.00  0.00     0.043 A 
ATOM      4  C   UNL     1       0.300  -0.847   0.559  1.00  0.00    -0.019 A 
ATOM      5  C   UNL     1       1.438  -0.102   0.210  1.00  0.00     0.009 A 
ATOM      6  C   UNL     1      -0.633  -0.290   1.450  1.00  0.00     0.009 A 
ATOM      7  C   UNL     1       1.636   1.178   0.736  1.00  0.00     0.014 A 
ATOM      8  C   UNL     1      -0.435   0.990   1.976  1.00  0.00     0.014 A 
BRANCH   4   9
ATOM      9  C   UNL     1       0.090  -2.209   0.012  1.00  0.00    -0.020 A 
ATOM     10  C   UNL     1      -0.300  -4.809  -0.982  1.00  0.00     0.077 A 
ATOM     11  C   UNL     1      -0.426  -4.559   0.386  1.00  0.00     0.126 A 
ATOM     12  C   UNL     1       0.013  -3.768  -1.859  1.00  0.00     0.118 A 
ATOM     13  C   UNL     1      -0.234  -3.266   0.881  1.00  0.00     0.047 A 
ATOM     14  C   UNL     1       0.203  -2.469  -1.371  1.00  0.00    -0.064 A 
ATOM     15  F   UNL     1      -0.730  -5.572   1.234  1.00  0.00    -0.207 F 
ATOM     16  F   UNL     1       0.123  -4.018  -3.187  1.00  0.00    -0.208 F 
ATOM     17  O   UNL     1       0.481  -1.442  -2.267  1.00  0.00    -0.870 OA
ENDBRANCH   4   9
ENDBRANCH   1   3
BRANCH   1  18
ATOM     18  N   UNL     1       0.620   3.460   3.524  1.00  0.00    -0.125 NA
BRANCH  18  19
ATOM     19  C   UNL     1       0.403   2.615   4.451  1.00  0.00     0.243 C 
ATOM     20  O   UNL     1       0.192   1.793   5.351  1.00  0.00    -0.211 OA
ENDBRANCH  18  19
ENDBRANCH   1  18
TORSDOF 4


