REMARK SMILES C=C[C@H]1CCC[C@](F)(c2ccc3c(c2)[C@H](N)CC3)[C@@H]1Cl
REMARK SMILES IDX 9 1 10 2 11 3 12 4 13 5 14 6 15 7 17 8 18 9 7 10 3 11 4 12
REMARK SMILES IDX 19 13 5 14 6 15 20 16 8 17 2 18 1 19 16 20
REMARK H PARENT 16 21 16 22
ROOT
ATOM      1  C   UNL     1       0.323   0.425   0.333  1.00  0.00    -0.009 A 
ATOM      2  C   UNL     1       1.283   1.145  -0.429  1.00  0.00     0.007 A 
ATOM      3  C   UNL     1       1.660   2.444  -0.061  1.00  0.00     0.004 A 
ATOM      4  C   UNL     1       1.089   3.019   1.072  1.00  0.00    -0.043 A 
ATOM      5  C   UNL     1       0.169   2.338   1.823  1.00  0.00    -0.028 A 
ATOM      6  C   UNL     1      -0.223   1.041   1.483  1.00  0.00     0.012 A 
ATOM      7  C   UNL     1      -0.305   3.140   2.984  1.00  0.00     0.081 C 
ATOM      8  C   UNL     1       0.573   4.412   2.934  1.00  0.00     0.028 C 
ATOM      9  C   UNL     1       1.367   4.369   1.615  1.00  0.00     0.038 C 
ENDROOT
BRANCH   1  10
ATOM     10  C   UNL     1      -0.096  -1.011   0.006  1.00  0.00     0.152 C 
ATOM     11  C   UNL     1       0.242  -3.497   0.674  1.00  0.00     0.033 C 
ATOM     12  C   UNL     1       0.414  -3.836  -0.825  1.00  0.00     0.009 C 
ATOM     13  C   UNL     1       0.606  -2.015   0.969  1.00  0.00     0.130 C 
ATOM     14  C   UNL     1      -0.322  -2.845  -1.733  1.00  0.00     0.004 C 
ATOM     15  C   UNL     1       0.156  -1.414  -1.467  1.00  0.00     0.048 C 
ATOM     16  Cl  UNL     1       2.392  -1.823   0.922  1.00  0.00    -0.118 Cl
ATOM     17  F   UNL     1      -1.467  -1.081   0.208  1.00  0.00    -0.237 F 
BRANCH  11  18
ATOM     18  C   UNL     1      -1.146  -3.849   1.175  1.00  0.00    -0.030 C 
ATOM     19  C   UNL     1      -1.569  -5.116   1.240  1.00  0.00     0.004 C 
ENDBRANCH  11  18
ENDBRANCH   1  10
BRANCH   7  20
ATOM     20  N   UNL     1      -1.724   3.479   2.856  1.00  0.00    -0.324 NA
ATOM     21  H   UNL     1      -2.284   2.599   2.922  1.00  0.00     0.119 HD
ATOM     22  H   UNL     1      -1.901   3.892   1.910  1.00  0.00     0.119 HD
ENDBRANCH   7  20
TORSDOF 3


