MODEL 1
REMARK VINA RESULT:      -5.3      0.000      0.000
REMARK SMILES Cc1ccc(-c2ccc([N-]C(=O)c3cccc(C)c3)c(C(=O)[N-][C@@H](C)[C@H](C)O)c2)cc1
REMARK SMILES IDX 21 1 22 2 20 3 6 4 7 5 29 6 8 7 9 8 5 9 2 10 3 11 31 12 4 13
REMARK SMILES IDX 30 14 1 15 10 16 11 17 12 18 13 19 14 20 19 21 15 22 17 23
REMARK SMILES IDX 16 24 18 25 23 26 24 27 25 28 26 29 27 30 28 31
REMARK H PARENT 28 32
ROOT
ATOM      1  C   UNL     1      45.626 132.481  22.113  1.00  0.00     0.081 C 
ATOM      2  O   UNL     1      45.499 131.873  23.209  1.00  0.00    -0.315 OA
ENDROOT
BRANCH   1   3
ATOM      3  C   UNL     1      44.774 132.116  20.946  1.00  0.00    -0.015 A 
ATOM      4  C   UNL     1      44.631 131.522  18.571  1.00  0.00    -0.018 A 
ATOM      5  C   UNL     1      43.240 131.417  18.691  1.00  0.00     0.007 A 
ATOM      6  C   UNL     1      45.389 131.867  19.703  1.00  0.00     0.017 A 
ATOM      7  C   UNL     1      42.615 131.661  19.912  1.00  0.00    -0.015 A 
ATOM      8  C   UNL     1      43.363 132.033  21.042  1.00  0.00    -0.125 A 
BRANCH   4   9
ATOM      9  C   UNL     1      45.294 131.268  17.267  1.00  0.00    -0.018 A 
ATOM     10  C   UNL     1      46.540 130.775  14.786  1.00  0.00    -0.051 A 
ATOM     11  C   UNL     1      46.798 129.943  15.885  1.00  0.00     0.004 A 
ATOM     12  C   UNL     1      45.677 131.868  14.937  1.00  0.00     0.004 A 
ATOM     13  C   UNL     1      46.176 130.183  17.113  1.00  0.00     0.009 A 
ATOM     14  C   UNL     1      45.053 132.110  16.165  1.00  0.00     0.009 A 
ATOM     15  C   UNL     1      47.238 130.540  13.478  1.00  0.00     0.044 C 
ENDBRANCH   4   9
BRANCH   8  16
ATOM     16  N   UNL     1      42.699 132.303  22.287  1.00  0.00    -0.622 NA
BRANCH  16  17
ATOM     17  C   UNL     1      42.842 131.555  23.504  1.00  0.00     0.085 C 
ATOM     18  O   UNL     1      42.957 132.186  24.588  1.00  0.00    -0.315 OA
BRANCH  17  19
ATOM     19  C   UNL     1      42.809 130.074  23.523  1.00  0.00    -0.000 A 
ATOM     20  C   UNL     1      41.619 129.400  23.846  1.00  0.00     0.010 A 
ATOM     21  C   UNL     1      43.956 129.323  23.206  1.00  0.00     0.013 A 
ATOM     22  C   UNL     1      41.585 128.004  23.882  1.00  0.00     0.001 A 
ATOM     23  C   UNL     1      43.921 127.920  23.230  1.00  0.00    -0.050 A 
ATOM     24  C   UNL     1      42.733 127.266  23.588  1.00  0.00     0.003 A 
ATOM     25  C   UNL     1      45.163 127.130  22.946  1.00  0.00     0.044 C 
ENDBRANCH  17  19
ENDBRANCH  16  17
ENDBRANCH   8  16
ENDBRANCH   1   3
BRANCH   1  26
ATOM     26  N   UNL     1      46.600 133.528  21.983  1.00  0.00    -0.645 NA
BRANCH  26  27
ATOM     27  C   UNL     1      47.133 134.403  23.034  1.00  0.00    -0.081 C 
ATOM     28  C   UNL     1      46.400 134.223  24.372  1.00  0.00    -0.011 C 
BRANCH  27  29
ATOM     29  C   UNL     1      48.679 134.316  23.135  1.00  0.00     0.096 C 
ATOM     30  C   UNL     1      49.420 135.527  22.561  1.00  0.00     0.037 C 
BRANCH  29  31
ATOM     31  O   UNL     1      49.142 133.158  22.489  1.00  0.00    -0.395 OA
ATOM     32  H   UNL     1      48.856 132.385  23.042  1.00  0.00     0.210 HD
ENDBRANCH  29  31
ENDBRANCH  27  29
ENDBRANCH  26  27
ENDBRANCH   1  26
TORSDOF 9
ENDMDL
MODEL 2
REMARK VINA RESULT:      -4.2      2.140      7.872
REMARK SMILES Cc1ccc(-c2ccc([N-]C(=O)c3cccc(C)c3)c(C(=O)[N-][C@@H](C)[C@H](C)O)c2)cc1
REMARK SMILES IDX 21 1 22 2 20 3 6 4 7 5 29 6 8 7 9 8 5 9 2 10 3 11 31 12 4 13
REMARK SMILES IDX 30 14 1 15 10 16 11 17 12 18 13 19 14 20 19 21 15 22 17 23
REMARK SMILES IDX 16 24 18 25 23 26 24 27 25 28 26 29 27 30 28 31
REMARK H PARENT 28 32
ROOT
ATOM      1  C   UNL     1      45.519 131.040  20.484  1.00  0.00     0.081 C 
ATOM      2  O   UNL     1      46.367 130.171  20.151  1.00  0.00    -0.315 OA
ENDROOT
BRANCH   1   3
ATOM      3  C   UNL     1      44.879 130.991  21.829  1.00  0.00    -0.015 A 
ATOM      4  C   UNL     1      43.413 129.809  23.400  1.00  0.00    -0.018 A 
ATOM      5  C   UNL     1      43.632 130.816  24.348  1.00  0.00     0.007 A 
ATOM      6  C   UNL     1      44.043 129.902  22.148  1.00  0.00     0.017 A 
ATOM      7  C   UNL     1      44.455 131.900  24.050  1.00  0.00    -0.015 A 
ATOM      8  C   UNL     1      45.066 132.014  22.790  1.00  0.00    -0.125 A 
BRANCH   4   9
ATOM      9  C   UNL     1      42.531 128.657  23.718  1.00  0.00    -0.018 A 
ATOM     10  C   UNL     1      40.861 126.471  24.339  1.00  0.00    -0.051 A 
ATOM     11  C   UNL     1      42.187 126.257  23.937  1.00  0.00     0.004 A 
ATOM     12  C   UNL     1      40.365 127.780  24.406  1.00  0.00     0.004 A 
ATOM     13  C   UNL     1      43.017 127.340  23.635  1.00  0.00     0.009 A 
ATOM     14  C   UNL     1      41.194 128.865  24.105  1.00  0.00     0.009 A 
ATOM     15  C   UNL     1      39.959 125.307  24.625  1.00  0.00     0.044 C 
ENDBRANCH   4   9
BRANCH   8  16
ATOM     16  N   UNL     1      45.893 133.152  22.492  1.00  0.00    -0.622 NA
BRANCH  16  17
ATOM     17  C   UNL     1      46.826 133.778  23.384  1.00  0.00     0.085 C 
ATOM     18  O   UNL     1      46.654 133.647  24.625  1.00  0.00    -0.315 OA
BRANCH  17  19
ATOM     19  C   UNL     1      48.005 134.527  22.888  1.00  0.00    -0.000 A 
ATOM     20  C   UNL     1      49.244 134.399  23.536  1.00  0.00     0.010 A 
ATOM     21  C   UNL     1      47.907 135.360  21.758  1.00  0.00     0.013 A 
ATOM     22  C   UNL     1      50.356 135.115  23.084  1.00  0.00     0.001 A 
ATOM     23  C   UNL     1      49.024 136.070  21.294  1.00  0.00    -0.050 A 
ATOM     24  C   UNL     1      50.245 135.956  21.975  1.00  0.00     0.003 A 
ATOM     25  C   UNL     1      48.896 136.999  20.124  1.00  0.00     0.044 C 
ENDBRANCH  17  19
ENDBRANCH  16  17
ENDBRANCH   8  16
ENDBRANCH   1   3
BRANCH   1  26
ATOM     26  N   UNL     1      45.160 132.083  19.563  1.00  0.00    -0.645 NA
BRANCH  26  27
ATOM     27  C   UNL     1      43.920 132.219  18.791  1.00  0.00    -0.081 C 
ATOM     28  C   UNL     1      44.029 131.591  17.393  1.00  0.00    -0.011 C 
BRANCH  27  29
ATOM     29  C   UNL     1      42.676 131.764  19.601  1.00  0.00     0.096 C 
ATOM     30  C   UNL     1      41.495 131.306  18.742  1.00  0.00     0.037 C 
BRANCH  29  31
ATOM     31  O   UNL     1      42.243 132.800  20.444  1.00  0.00    -0.395 OA
ATOM     32  H   UNL     1      41.764 133.456  19.874  1.00  0.00     0.210 HD
ENDBRANCH  29  31
ENDBRANCH  27  29
ENDBRANCH  26  27
ENDBRANCH   1  26
TORSDOF 9
ENDMDL
MODEL 3
REMARK VINA RESULT:      -2.6      0.989      1.364
REMARK SMILES Cc1ccc(-c2ccc([N-]C(=O)c3cccc(C)c3)c(C(=O)[N-][C@@H](C)[C@H](C)O)c2)cc1
REMARK SMILES IDX 21 1 22 2 20 3 6 4 7 5 29 6 8 7 9 8 5 9 2 10 3 11 31 12 4 13
REMARK SMILES IDX 30 14 1 15 10 16 11 17 12 18 13 19 14 20 19 21 15 22 17 23
REMARK SMILES IDX 16 24 18 25 23 26 24 27 25 28 26 29 27 30 28 31
REMARK H PARENT 28 32
ROOT
ATOM      1  C   UNL     1      45.711 132.743  21.797  1.00  0.00     0.081 C 
ATOM      2  O   UNL     1      45.190 132.952  22.925  1.00  0.00    -0.315 OA
ENDROOT
BRANCH   1   3
ATOM      3  C   UNL     1      44.884 132.230  20.669  1.00  0.00    -0.015 A 
ATOM      4  C   UNL     1      44.769 131.482  18.337  1.00  0.00    -0.018 A 
ATOM      5  C   UNL     1      43.394 131.256  18.487  1.00  0.00     0.007 A 
ATOM      6  C   UNL     1      45.504 131.963  19.433  1.00  0.00     0.017 A 
ATOM      7  C   UNL     1      42.764 131.515  19.701  1.00  0.00    -0.015 A 
ATOM      8  C   UNL     1      43.488 132.023  20.794  1.00  0.00    -0.125 A 
BRANCH   4   9
ATOM      9  C   UNL     1      45.437 131.210  17.038  1.00  0.00    -0.018 A 
ATOM     10  C   UNL     1      46.691 130.692  14.567  1.00  0.00    -0.051 A 
ATOM     11  C   UNL     1      46.472 129.651  15.481  1.00  0.00     0.004 A 
ATOM     12  C   UNL     1      46.305 131.996  14.902  1.00  0.00     0.004 A 
ATOM     13  C   UNL     1      45.845 129.907  16.703  1.00  0.00     0.009 A 
ATOM     14  C   UNL     1      45.676 132.253  16.125  1.00  0.00     0.009 A 
ATOM     15  C   UNL     1      47.400 130.425  13.271  1.00  0.00     0.044 C 
ENDBRANCH   4   9
BRANCH   8  16
ATOM     16  N   UNL     1      42.816 132.306  22.032  1.00  0.00    -0.622 NA
BRANCH  16  17
ATOM     17  C   UNL     1      42.505 131.359  23.064  1.00  0.00     0.085 C 
ATOM     18  O   UNL     1      41.727 131.710  23.990  1.00  0.00    -0.315 OA
BRANCH  17  19
ATOM     19  C   UNL     1      43.033 129.974  23.044  1.00  0.00    -0.000 A 
ATOM     20  C   UNL     1      42.336 128.946  23.699  1.00  0.00     0.010 A 
ATOM     21  C   UNL     1      44.223 129.666  22.359  1.00  0.00     0.013 A 
ATOM     22  C   UNL     1      42.837 127.641  23.698  1.00  0.00     0.001 A 
ATOM     23  C   UNL     1      44.721 128.354  22.345  1.00  0.00    -0.050 A 
ATOM     24  C   UNL     1      44.030 127.347  23.034  1.00  0.00     0.003 A 
ATOM     25  C   UNL     1      46.019 128.047  21.660  1.00  0.00     0.044 C 
ENDBRANCH  17  19
ENDBRANCH  16  17
ENDBRANCH   8  16
ENDBRANCH   1   3
BRANCH   1  26
ATOM     26  N   UNL     1      47.111 132.993  21.596  1.00  0.00    -0.645 NA
BRANCH  26  27
ATOM     27  C   UNL     1      48.114 133.373  22.598  1.00  0.00    -0.081 C 
ATOM     28  C   UNL     1      49.549 133.267  22.058  1.00  0.00    -0.011 C 
BRANCH  27  29
ATOM     29  C   UNL     1      47.782 134.733  23.268  1.00  0.00     0.096 C 
ATOM     30  C   UNL     1      47.083 134.616  24.625  1.00  0.00     0.037 C 
BRANCH  29  31
ATOM     31  O   UNL     1      46.981 135.509  22.415  1.00  0.00    -0.395 OA
ATOM     32  H   UNL     1      46.280 134.908  22.050  1.00  0.00     0.210 HD
ENDBRANCH  29  31
ENDBRANCH  27  29
ENDBRANCH  26  27
ENDBRANCH   1  26
TORSDOF 9
ENDMDL
MODEL 4
REMARK VINA RESULT:      -2.5      2.190      5.866
REMARK SMILES Cc1ccc(-c2ccc([N-]C(=O)c3cccc(C)c3)c(C(=O)[N-][C@@H](C)[C@H](C)O)c2)cc1
REMARK SMILES IDX 21 1 22 2 20 3 6 4 7 5 29 6 8 7 9 8 5 9 2 10 3 11 31 12 4 13
REMARK SMILES IDX 30 14 1 15 10 16 11 17 12 18 13 19 14 20 19 21 15 22 17 23
REMARK SMILES IDX 16 24 18 25 23 26 24 27 25 28 26 29 27 30 28 31
REMARK H PARENT 28 32
ROOT
ATOM      1  C   UNL     1      45.466 130.734  19.539  1.00  0.00     0.081 C 
ATOM      2  O   UNL     1      46.172 129.699  19.407  1.00  0.00    -0.315 OA
ENDROOT
BRANCH   1   3
ATOM      3  C   UNL     1      45.605 131.591  20.749  1.00  0.00    -0.015 A 
ATOM      4  C   UNL     1      46.832 133.360  21.924  1.00  0.00    -0.018 A 
ATOM      5  C   UNL     1      45.939 133.254  22.997  1.00  0.00     0.007 A 
ATOM      6  C   UNL     1      46.654 132.530  20.804  1.00  0.00     0.017 A 
ATOM      7  C   UNL     1      44.896 132.331  22.961  1.00  0.00    -0.015 A 
ATOM      8  C   UNL     1      44.729 131.478  21.857  1.00  0.00    -0.125 A 
BRANCH   4   9
ATOM      9  C   UNL     1      47.946 134.341  21.968  1.00  0.00    -0.018 A 
ATOM     10  C   UNL     1      50.053 136.213  22.063  1.00  0.00    -0.051 A 
ATOM     11  C   UNL     1      49.004 136.375  21.147  1.00  0.00     0.004 A 
ATOM     12  C   UNL     1      50.059 135.099  22.913  1.00  0.00     0.004 A 
ATOM     13  C   UNL     1      47.956 135.451  21.104  1.00  0.00     0.009 A 
ATOM     14  C   UNL     1      49.011 134.174  22.872  1.00  0.00     0.009 A 
ATOM     15  C   UNL     1      51.198 137.183  22.082  1.00  0.00     0.044 C 
ENDBRANCH   4   9
BRANCH   8  16
ATOM     16  N   UNL     1      43.661 130.516  21.847  1.00  0.00    -0.622 NA
BRANCH  16  17
ATOM     17  C   UNL     1      42.948 130.029  22.993  1.00  0.00     0.085 C 
ATOM     18  O   UNL     1      42.281 130.847  23.680  1.00  0.00    -0.315 OA
BRANCH  17  19
ATOM     19  C   UNL     1      42.936 128.593  23.358  1.00  0.00    -0.000 A 
ATOM     20  C   UNL     1      44.114 127.833  23.266  1.00  0.00     0.010 A 
ATOM     21  C   UNL     1      41.757 127.975  23.816  1.00  0.00     0.013 A 
ATOM     22  C   UNL     1      44.106 126.475  23.593  1.00  0.00     0.001 A 
ATOM     23  C   UNL     1      41.750 126.615  24.158  1.00  0.00    -0.050 A 
ATOM     24  C   UNL     1      42.927 125.864  24.026  1.00  0.00     0.003 A 
ATOM     25  C   UNL     1      40.475 125.952  24.590  1.00  0.00     0.044 C 
ENDBRANCH  17  19
ENDBRANCH  16  17
ENDBRANCH   8  16
ENDBRANCH   1   3
BRANCH   1  26
ATOM     26  N   UNL     1      44.516 131.087  18.521  1.00  0.00    -0.645 NA
BRANCH  26  27
ATOM     27  C   UNL     1      44.782 131.666  17.199  1.00  0.00    -0.081 C 
ATOM     28  C   UNL     1      45.667 132.919  17.275  1.00  0.00    -0.011 C 
BRANCH  27  29
ATOM     29  C   UNL     1      45.272 130.598  16.184  1.00  0.00     0.096 C 
ATOM     30  C   UNL     1      44.747 129.185  16.450  1.00  0.00     0.037 C 
BRANCH  29  31
ATOM     31  O   UNL     1      46.676 130.560  16.164  1.00  0.00    -0.395 OA
ATOM     32  H   UNL     1      46.940 130.066  15.344  1.00  0.00     0.210 HD
ENDBRANCH  29  31
ENDBRANCH  27  29
ENDBRANCH  26  27
ENDBRANCH   1  26
TORSDOF 9
ENDMDL


