REMARK SMILES Cc1ccc([NH2+]c2cccc(N)c2Oc2[nH+]cc(C=O)cc2C)cc1
REMARK SMILES IDX 7 1 8 2 9 3 10 4 11 5 13 6 6 7 5 10 2 11 3 12 25 13 4 14
REMARK SMILES IDX 24 15 1 16 14 17 15 18 16 19 22 20 17 21 21 22 18 23 23 25
REMARK SMILES IDX 19 26 20 27 12 28
REMARK H PARENT 6 8 6 9 16 24 12 29 12 30
ROOT
ATOM      1  C   UNL     1      -0.230  -3.030  -1.121  1.00  0.00     0.180 A 
ATOM      2  C   UNL     1       0.535  -4.207  -1.227  1.00  0.00     0.072 A 
ATOM      3  C   UNL     1       1.579  -4.294  -2.148  1.00  0.00     0.009 A 
ATOM      4  C   UNL     1       1.874  -3.214  -2.980  1.00  0.00     0.030 A 
ATOM      5  C   UNL     1       1.130  -2.030  -2.894  1.00  0.00     0.081 A 
ATOM      6  C   UNL     1       0.082  -1.931  -1.956  1.00  0.00     0.217 A 
ENDROOT
BRANCH   1   7
ATOM      7  N   UNL     1      -1.305  -2.953  -0.156  1.00  0.00    -0.278 N 
ATOM      8  H   UNL     1      -1.506  -3.893   0.258  1.00  0.00     0.358 HD
ATOM      9  H   UNL     1      -2.172  -2.644  -0.654  1.00  0.00     0.358 HD
BRANCH   7  10
ATOM     10  C   UNL     1      -0.975  -2.047   0.921  1.00  0.00     0.134 A 
ATOM     11  C   UNL     1      -0.282  -0.211   2.944  1.00  0.00    -0.051 A 
ATOM     12  C   UNL     1       0.527  -1.330   2.698  1.00  0.00     0.009 A 
ATOM     13  C   UNL     1      -1.471  -0.049   2.220  1.00  0.00     0.009 A 
ATOM     14  C   UNL     1       0.182  -2.243   1.698  1.00  0.00     0.068 A 
ATOM     15  C   UNL     1      -1.818  -0.962   1.221  1.00  0.00     0.068 A 
ATOM     16  C   UNL     1       0.090   0.772   4.014  1.00  0.00     0.044 C 
ENDBRANCH   7  10
ENDBRANCH   1   7
BRANCH   6  17
ATOM     17  O   UNL     1      -0.648  -0.745  -1.843  1.00  0.00    -0.396 OA
BRANCH  17  18
ATOM     18  C   UNL     1      -0.185   0.390  -1.154  1.00  0.00     0.374 A 
ATOM     19  N   UNL     1       1.008   0.376  -0.486  1.00  0.00    -0.179 N 
ATOM     20  C   UNL     1      -0.990   1.541  -1.117  1.00  0.00     0.062 A 
ATOM     21  C   UNL     1       1.427   1.438   0.253  1.00  0.00     0.321 A 
ATOM     22  C   UNL     1      -0.575   2.636  -0.347  1.00  0.00     0.031 A 
ATOM     23  C   UNL     1       0.641   2.590   0.349  1.00  0.00     0.079 A 
ATOM     24  H   UNL     1       1.617  -0.471  -0.505  1.00  0.00     0.457 HD
ATOM     25  C   UNL     1      -2.316   1.571  -1.822  1.00  0.00     0.055 C 
BRANCH  23  26
ATOM     26  C   UNL     1       1.094   3.720   1.180  1.00  0.00     0.266 C 
ATOM     27  O   UNL     1       0.401   4.767   1.288  1.00  0.00    -0.298 OA
ENDBRANCH  23  26
ENDBRANCH  17  18
ENDBRANCH   6  17
BRANCH   5  28
ATOM     28  N   UNL     1       1.442  -0.936  -3.764  1.00  0.00    -0.396 N 
ATOM     29  H   UNL     1       2.230  -1.006  -4.446  1.00  0.00     0.156 HD
ATOM     30  H   UNL     1       0.884  -0.053  -3.753  1.00  0.00     0.156 HD
ENDBRANCH   5  28
TORSDOF 6


