REMARK SMILES O=C1c2cc(-c3ccc4[nH]ccc4c3)c[nH+]c2C/[N+]1=C(\O)OCCOCC(F)(F)F
REMARK SMILES IDX 23 1 22 2 20 3 21 4 19 6 2 7 18 8 3 9 17 10 4 11 16 12 5 13
REMARK SMILES IDX 15 14 1 15 6 17 7 18 14 19 8 20 13 21 9 22 12 23 10 24 11 25
REMARK SMILES IDX 24 27 25 28 26 29 27 30 28 31 29 32 30 33
REMARK H PARENT 21 5 16 16 10 26
ROOT
ATOM      1  C   UNL     1      -3.178  -1.970   3.058  1.00  0.00     0.268 C 
ENDROOT
BRANCH   1   2
ATOM      2  O   UNL     1      -2.303  -1.863   1.941  1.00  0.00    -0.412 OA
BRANCH   2   3
ATOM      3  C   UNL     1      -1.517  -2.931   1.497  1.00  0.00     0.556 C 
BRANCH   3   4
ATOM      4  O   UNL     1      -1.603  -4.161   2.158  1.00  0.00    -0.430 OA
ATOM      5  H   UNL     1      -1.062  -4.972   1.886  1.00  0.00     0.303 HD
ENDBRANCH   3   4
BRANCH   3   6
ATOM      6  N   UNL     1      -0.718  -2.771   0.475  1.00  0.00    -0.078 N 
ATOM      7  C   UNL     1      -0.542  -1.564  -0.276  1.00  0.00     0.432 C 
ATOM      8  C   UNL     1       0.162  -3.802  -0.100  1.00  0.00     0.477 C 
ATOM      9  C   UNL     1       0.424  -1.781  -1.323  1.00  0.00     0.165 A 
ATOM     10  C   UNL     1       0.841  -3.083  -1.228  1.00  0.00     0.264 A 
ATOM     11  C   UNL     1       0.928  -0.929  -2.297  1.00  0.00     0.041 A 
ATOM     12  N   UNL     1       1.763  -3.591  -2.085  1.00  0.00    -0.208 N 
ATOM     13  C   UNL     1       1.889  -1.442  -3.196  1.00  0.00     0.047 A 
ATOM     14  C   UNL     1       2.291  -2.796  -3.063  1.00  0.00     0.315 A 
ATOM     15  O   UNL     1      -1.141  -0.478  -0.052  1.00  0.00    -0.214 OA
ATOM     16  H   UNL     1       2.066  -4.587  -2.000  1.00  0.00     0.453 HD
BRANCH  13  17
ATOM     17  C   UNL     1       2.464  -0.580  -4.259  1.00  0.00    -0.012 A 
ATOM     18  C   UNL     1       3.843  -0.672  -4.593  1.00  0.00     0.011 A 
ATOM     19  C   UNL     1       1.644   0.344  -4.951  1.00  0.00     0.019 A 
ATOM     20  C   UNL     1       4.398   0.139  -5.598  1.00  0.00     0.027 A 
ATOM     21  C   UNL     1       2.228   1.131  -5.940  1.00  0.00    -0.000 A 
ATOM     22  C   UNL     1       3.556   1.033  -6.254  1.00  0.00     0.045 A 
ATOM     23  C   UNL     1       1.681   2.092  -6.762  1.00  0.00     0.028 A 
ATOM     24  N   UNL     1       3.879   1.889  -7.237  1.00  0.00    -0.361 N 
ATOM     25  C   UNL     1       2.735   2.539  -7.551  1.00  0.00     0.083 A 
ATOM     26  H   UNL     1       4.818   2.027  -7.672  1.00  0.00     0.166 HD
ENDBRANCH  13  17
ENDBRANCH   3   6
ENDBRANCH   2   3
ENDBRANCH   1   2
BRANCH   1  27
ATOM     27  C   UNL     1      -3.890  -0.643   3.280  1.00  0.00     0.202 C 
BRANCH  27  28
ATOM     28  O   UNL     1      -2.932   0.363   3.534  1.00  0.00    -0.368 OA
BRANCH  28  29
ATOM     29  C   UNL     1      -3.585   1.600   3.720  1.00  0.00     0.275 C 
BRANCH  29  30
ATOM     30  C   UNL     1      -2.547   2.685   3.981  1.00  0.00     0.411 C 
ATOM     31  F   UNL     1      -1.688   2.783   2.902  1.00  0.00    -0.168 F 
ATOM     32  F   UNL     1      -1.820   2.376   5.117  1.00  0.00    -0.168 F 
ATOM     33  F   UNL     1      -3.181   3.900   4.167  1.00  0.00    -0.168 F 
ENDBRANCH  29  30
ENDBRANCH  28  29
ENDBRANCH  27  28
ENDBRANCH   1  27
TORSDOF 9


