REMARK SMILES Fc1ccc2[nH+]c(-c3ccc4[nH]ccc4c3)[nH+]cc2c1
REMARK SMILES IDX 1 1 2 2 3 3 4 4 5 5 6 6 7 7 17 8 18 9 19 10 20 11 8 14 9 15
REMARK SMILES IDX 16 16 10 17 15 18 11 19 14 20 12 21 13 22
REMARK H PARENT 6 12 17 13 12 23
ROOT
ATOM      1  F   UNL     1       3.522  -1.968   4.777  1.00  0.00    -0.207 F 
ATOM      2  C   UNL     1       2.518  -1.542   3.972  1.00  0.00     0.124 A 
ATOM      3  C   UNL     1       1.314  -1.103   4.532  1.00  0.00     0.046 A 
ATOM      4  C   UNL     1       0.274  -0.661   3.708  1.00  0.00     0.083 A 
ATOM      5  C   UNL     1       0.433  -0.657   2.313  1.00  0.00     0.222 A 
ATOM      6  N   UNL     1      -0.572  -0.230   1.498  1.00  0.00    -0.147 N 
ATOM      7  C   UNL     1      -0.423  -0.227   0.140  1.00  0.00     0.448 A 
ATOM      8  N   UNL     1       0.750  -0.657  -0.413  1.00  0.00    -0.154 N 
ATOM      9  C   UNL     1       1.777  -1.091   0.363  1.00  0.00     0.327 A 
ATOM     10  C   UNL     1       1.647  -1.102   1.753  1.00  0.00     0.113 A 
ATOM     11  C   UNL     1       2.687  -1.543   2.584  1.00  0.00     0.060 A 
ATOM     12  H   UNL     1      -1.478   0.076   1.921  1.00  0.00     0.461 HD
ATOM     13  H   UNL     1       0.886  -0.640  -1.448  1.00  0.00     0.460 HD
ENDROOT
BRANCH   7  14
ATOM     14  C   UNL     1      -1.529   0.242  -0.731  1.00  0.00     0.118 A 
ATOM     15  C   UNL     1      -2.311   1.368  -0.355  1.00  0.00     0.024 A 
ATOM     16  C   UNL     1      -1.813  -0.428  -1.945  1.00  0.00     0.032 A 
ATOM     17  C   UNL     1      -3.362   1.820  -1.173  1.00  0.00     0.028 A 
ATOM     18  C   UNL     1      -2.861   0.048  -2.728  1.00  0.00     0.000 A 
ATOM     19  C   UNL     1      -3.608   1.132  -2.358  1.00  0.00     0.045 A 
ATOM     20  C   UNL     1      -3.355  -0.401  -3.933  1.00  0.00     0.028 A 
ATOM     21  N   UNL     1      -4.556   1.394  -3.273  1.00  0.00    -0.361 N 
ATOM     22  C   UNL     1      -4.405   0.459  -4.239  1.00  0.00     0.083 A 
ATOM     23  H   UNL     1      -5.265   2.160  -3.247  1.00  0.00     0.166 HD
ENDBRANCH   7  14
TORSDOF 1


