MODEL 1
REMARK VINA RESULT:     -10.1      0.000      0.000
REMARK SMILES C=C1CC[C@@H](c2ccc(C)c(F)c2)[C@@H]2[NH+]=CC[C@H]12
REMARK SMILES IDX 1 1 2 2 3 3 4 4 5 5 14 6 15 7 16 8 17 9 18 10 6 12 7 13
REMARK SMILES IDX 13 14 8 15 11 16 9 17 12 18 10 19
REMARK H PARENT 15 11
ROOT
ATOM      1  C   UNL     1      42.025 132.373  21.041  1.00  0.00     0.008 C 
ATOM      2  C   UNL     1      42.824 132.090  20.000  1.00  0.00    -0.067 C 
ATOM      3  C   UNL     1      42.193 131.878  18.641  1.00  0.00     0.032 C 
ATOM      4  C   UNL     1      43.198 131.972  17.494  1.00  0.00     0.020 C 
ATOM      5  C   UNL     1      44.437 131.121  17.793  1.00  0.00     0.089 C 
ATOM      6  C   UNL     1      45.210 131.722  18.987  1.00  0.00     0.272 C 
ATOM      7  N   UNL     1      46.201 130.782  19.444  1.00  0.00    -0.248 N 
ATOM      8  C   UNL     1      45.944 130.291  20.593  1.00  0.00     0.272 C 
ATOM      9  C   UNL     1      44.687 130.814  21.184  1.00  0.00     0.113 C 
ATOM     10  C   UNL     1      44.326 131.971  20.235  1.00  0.00     0.093 C 
ATOM     11  H   UNL     1      47.021 130.500  18.887  1.00  0.00     0.445 HD
ENDROOT
BRANCH   5  12
ATOM     12  C   UNL     1      45.325 130.996  16.566  1.00  0.00    -0.035 A 
ATOM     13  C   UNL     1      45.711 132.147  15.858  1.00  0.00     0.005 A 
ATOM     14  C   UNL     1      45.754 129.738  16.102  1.00  0.00     0.043 A 
ATOM     15  C   UNL     1      46.516 132.045  14.721  1.00  0.00     0.007 A 
ATOM     16  C   UNL     1      46.560 129.636  14.963  1.00  0.00     0.126 A 
ATOM     17  C   UNL     1      46.957 130.792  14.273  1.00  0.00    -0.015 A 
ATOM     18  F   UNL     1      46.951 128.408  14.534  1.00  0.00    -0.207 F 
ATOM     19  C   UNL     1      47.798 130.681  13.035  1.00  0.00     0.047 C 
ENDBRANCH   5  12
TORSDOF 1
ENDMDL
MODEL 2
REMARK VINA RESULT:      -9.8      1.049      1.543
REMARK SMILES C=C1CC[C@@H](c2ccc(C)c(F)c2)[C@@H]2[NH+]=CC[C@H]12
REMARK SMILES IDX 1 1 2 2 3 3 4 4 5 5 14 6 15 7 16 8 17 9 18 10 6 12 7 13
REMARK SMILES IDX 13 14 8 15 11 16 9 17 12 18 10 19
REMARK H PARENT 15 11
ROOT
ATOM      1  C   UNL     1      41.986 132.641  20.838  1.00  0.00     0.008 C 
ATOM      2  C   UNL     1      42.784 132.225  19.842  1.00  0.00    -0.067 C 
ATOM      3  C   UNL     1      42.164 131.944  18.490  1.00  0.00     0.032 C 
ATOM      4  C   UNL     1      43.192 131.881  17.362  1.00  0.00     0.020 C 
ATOM      5  C   UNL     1      44.369 130.983  17.755  1.00  0.00     0.089 C 
ATOM      6  C   UNL     1      45.159 131.629  18.914  1.00  0.00     0.272 C 
ATOM      7  N   UNL     1      46.080 130.671  19.467  1.00  0.00    -0.248 N 
ATOM      8  C   UNL     1      45.772 130.291  20.646  1.00  0.00     0.272 C 
ATOM      9  C   UNL     1      44.541 130.937  21.164  1.00  0.00     0.113 C 
ATOM     10  C   UNL     1      44.271 132.033  20.119  1.00  0.00     0.093 C 
ATOM     11  H   UNL     1      46.890 130.294  18.953  1.00  0.00     0.445 HD
ENDROOT
BRANCH   5  12
ATOM     12  C   UNL     1      45.269 130.703  16.562  1.00  0.00    -0.035 A 
ATOM     13  C   UNL     1      45.491 129.380  16.146  1.00  0.00     0.005 A 
ATOM     14  C   UNL     1      45.911 131.749  15.872  1.00  0.00     0.043 A 
ATOM     15  C   UNL     1      46.326 129.107  15.060  1.00  0.00     0.007 A 
ATOM     16  C   UNL     1      46.747 131.476  14.785  1.00  0.00     0.126 A 
ATOM     17  C   UNL     1      46.949 130.152  14.364  1.00  0.00    -0.015 A 
ATOM     18  F   UNL     1      47.361 132.504  14.145  1.00  0.00    -0.207 F 
ATOM     19  C   UNL     1      47.868 129.857  13.215  1.00  0.00     0.047 C 
ENDBRANCH   5  12
TORSDOF 1
ENDMDL
MODEL 3
REMARK VINA RESULT:      -9.3      1.381      2.447
REMARK SMILES C=C1CC[C@@H](c2ccc(C)c(F)c2)[C@@H]2[NH+]=CC[C@H]12
REMARK SMILES IDX 1 1 2 2 3 3 4 4 5 5 14 6 15 7 16 8 17 9 18 10 6 12 7 13
REMARK SMILES IDX 13 14 8 15 11 16 9 17 12 18 10 19
REMARK H PARENT 15 11
ROOT
ATOM      1  C   UNL     1      43.424 131.514  22.736  1.00  0.00     0.008 C 
ATOM      2  C   UNL     1      43.851 131.434  21.465  1.00  0.00    -0.067 C 
ATOM      3  C   UNL     1      45.342 131.411  21.205  1.00  0.00     0.032 C 
ATOM      4  C   UNL     1      45.696 130.916  19.804  1.00  0.00     0.020 C 
ATOM      5  C   UNL     1      44.846 131.632  18.749  1.00  0.00     0.089 C 
ATOM      6  C   UNL     1      43.365 131.222  18.902  1.00  0.00     0.272 C 
ATOM      7  N   UNL     1      42.536 132.095  18.110  1.00  0.00    -0.248 N 
ATOM      8  C   UNL     1      41.801 132.869  18.809  1.00  0.00     0.272 C 
ATOM      9  C   UNL     1      41.974 132.677  20.270  1.00  0.00     0.113 C 
ATOM     10  C   UNL     1      42.820 131.394  20.342  1.00  0.00     0.093 C 
ATOM     11  H   UNL     1      42.557 132.124  17.080  1.00  0.00     0.445 HD
ENDROOT
BRANCH   5  12
ATOM     12  C   UNL     1      45.356 131.345  17.346  1.00  0.00    -0.035 A 
ATOM     13  C   UNL     1      45.637 132.408  16.471  1.00  0.00     0.005 A 
ATOM     14  C   UNL     1      45.532 130.025  16.889  1.00  0.00     0.043 A 
ATOM     15  C   UNL     1      46.094 132.160  15.175  1.00  0.00     0.007 A 
ATOM     16  C   UNL     1      45.989 129.776  15.591  1.00  0.00     0.126 A 
ATOM     17  C   UNL     1      46.286 130.844  14.730  1.00  0.00    -0.015 A 
ATOM     18  F   UNL     1      46.140 128.492  15.175  1.00  0.00    -0.207 F 
ATOM     19  C   UNL     1      46.750 130.577  13.327  1.00  0.00     0.047 C 
ENDBRANCH   5  12
TORSDOF 1
ENDMDL
MODEL 4
REMARK VINA RESULT:      -8.5      1.724      2.895
REMARK SMILES C=C1CC[C@@H](c2ccc(C)c(F)c2)[C@@H]2[NH+]=CC[C@H]12
REMARK SMILES IDX 1 1 2 2 3 3 4 4 5 5 14 6 15 7 16 8 17 9 18 10 6 12 7 13
REMARK SMILES IDX 13 14 8 15 11 16 9 17 12 18 10 19
REMARK H PARENT 15 11
ROOT
ATOM      1  C   UNL     1      43.163 131.590  22.739  1.00  0.00     0.008 C 
ATOM      2  C   UNL     1      43.666 131.453  21.501  1.00  0.00    -0.067 C 
ATOM      3  C   UNL     1      45.169 131.391  21.336  1.00  0.00     0.032 C 
ATOM      4  C   UNL     1      45.599 130.835  19.980  1.00  0.00     0.020 C 
ATOM      5  C   UNL     1      44.832 131.526  18.847  1.00  0.00     0.089 C 
ATOM      6  C   UNL     1      43.336 131.150  18.922  1.00  0.00     0.272 C 
ATOM      7  N   UNL     1      42.577 132.007  18.048  1.00  0.00    -0.248 N 
ATOM      8  C   UNL     1      41.817 132.822  18.669  1.00  0.00     0.272 C 
ATOM      9  C   UNL     1      41.894 132.683  20.145  1.00  0.00     0.113 C 
ATOM     10  C   UNL     1      42.706 131.388  20.318  1.00  0.00     0.093 C 
ATOM     11  H   UNL     1      42.662 131.996  17.021  1.00  0.00     0.445 HD
ENDROOT
BRANCH   5  12
ATOM     12  C   UNL     1      45.422 131.175  17.491  1.00  0.00    -0.035 A 
ATOM     13  C   UNL     1      45.684 129.834  17.165  1.00  0.00     0.005 A 
ATOM     14  C   UNL     1      45.740 132.177  16.554  1.00  0.00     0.043 A 
ATOM     15  C   UNL     1      46.239 129.499  15.928  1.00  0.00     0.007 A 
ATOM     16  C   UNL     1      46.296 131.841  15.315  1.00  0.00     0.126 A 
ATOM     17  C   UNL     1      46.537 130.497  14.990  1.00  0.00    -0.015 A 
ATOM     18  F   UNL     1      46.601 132.829  14.434  1.00  0.00    -0.207 F 
ATOM     19  C   UNL     1      47.160 130.138  13.672  1.00  0.00     0.047 C 
ENDBRANCH   5  12
TORSDOF 1
ENDMDL
MODEL 5
REMARK VINA RESULT:      -8.2      1.449      1.668
REMARK SMILES C=C1CC[C@@H](c2ccc(C)c(F)c2)[C@@H]2[NH+]=CC[C@H]12
REMARK SMILES IDX 1 1 2 2 3 3 4 4 5 5 14 6 15 7 16 8 17 9 18 10 6 12 7 13
REMARK SMILES IDX 13 14 8 15 11 16 9 17 12 18 10 19
REMARK H PARENT 15 11
ROOT
ATOM      1  C   UNL     1      42.359 132.146  22.156  1.00  0.00     0.008 C 
ATOM      2  C   UNL     1      42.946 131.919  20.971  1.00  0.00    -0.067 C 
ATOM      3  C   UNL     1      42.089 131.948  19.723  1.00  0.00     0.032 C 
ATOM      4  C   UNL     1      42.906 132.085  18.440  1.00  0.00     0.020 C 
ATOM      5  C   UNL     1      44.064 131.082  18.429  1.00  0.00     0.089 C 
ATOM      6  C   UNL     1      45.082 131.443  19.533  1.00  0.00     0.272 C 
ATOM      7  N   UNL     1      46.011 130.357  19.711  1.00  0.00    -0.248 N 
ATOM      8  C   UNL     1      45.879 129.752  20.826  1.00  0.00     0.272 C 
ATOM      9  C   UNL     1      44.802 130.320  21.675  1.00  0.00     0.113 C 
ATOM     10  C   UNL     1      44.441 131.619  20.934  1.00  0.00     0.093 C 
ATOM     11  H   UNL     1      46.694 130.066  18.995  1.00  0.00     0.445 HD
ENDROOT
BRANCH   5  12
ATOM     12  C   UNL     1      44.728 131.024  17.063  1.00  0.00    -0.035 A 
ATOM     13  C   UNL     1      46.074 130.636  16.953  1.00  0.00     0.005 A 
ATOM     14  C   UNL     1      44.026 131.380  15.896  1.00  0.00     0.043 A 
ATOM     15  C   UNL     1      46.701 130.591  15.706  1.00  0.00     0.007 A 
ATOM     16  C   UNL     1      44.653 131.336  14.647  1.00  0.00     0.126 A 
ATOM     17  C   UNL     1      45.993 130.928  14.543  1.00  0.00    -0.015 A 
ATOM     18  F   UNL     1      43.954 131.693  13.539  1.00  0.00    -0.207 F 
ATOM     19  C   UNL     1      46.675 130.908  13.206  1.00  0.00     0.047 C 
ENDBRANCH   5  12
TORSDOF 1
ENDMDL
MODEL 6
REMARK VINA RESULT:      -7.7      2.603      6.265
REMARK SMILES C=C1CC[C@@H](c2ccc(C)c(F)c2)[C@@H]2[NH+]=CC[C@H]12
REMARK SMILES IDX 1 1 2 2 3 3 4 4 5 5 14 6 15 7 16 8 17 9 18 10 6 12 7 13
REMARK SMILES IDX 13 14 8 15 11 16 9 17 12 18 10 19
REMARK H PARENT 15 11
ROOT
ATOM      1  C   UNL     1      47.066 130.498  13.366  1.00  0.00     0.008 C 
ATOM      2  C   UNL     1      46.578 130.637  14.609  1.00  0.00    -0.067 C 
ATOM      3  C   UNL     1      47.087 129.712  15.693  1.00  0.00     0.032 C 
ATOM      4  C   UNL     1      46.783 130.217  17.102  1.00  0.00     0.020 C 
ATOM      5  C   UNL     1      45.313 130.635  17.219  1.00  0.00     0.089 C 
ATOM      6  C   UNL     1      45.049 131.874  16.337  1.00  0.00     0.272 C 
ATOM      7  N   UNL     1      43.630 132.095  16.224  1.00  0.00    -0.248 N 
ATOM      8  C   UNL     1      43.173 131.872  15.053  1.00  0.00     0.272 C 
ATOM      9  C   UNL     1      44.218 131.448  14.089  1.00  0.00     0.113 C 
ATOM     10  C   UNL     1      45.519 131.703  14.870  1.00  0.00     0.093 C 
ATOM     11  H   UNL     1      43.029 132.368  17.015  1.00  0.00     0.445 HD
ENDROOT
BRANCH   5  12
ATOM     12  C   UNL     1      44.930 130.895  18.667  1.00  0.00    -0.035 A 
ATOM     13  C   UNL     1      45.715 130.367  19.706  1.00  0.00     0.005 A 
ATOM     14  C   UNL     1      43.780 131.638  18.994  1.00  0.00     0.043 A 
ATOM     15  C   UNL     1      45.367 130.586  21.040  1.00  0.00     0.007 A 
ATOM     16  C   UNL     1      43.431 131.857  20.330  1.00  0.00     0.126 A 
ATOM     17  C   UNL     1      44.232 131.343  21.363  1.00  0.00    -0.015 A 
ATOM     18  F   UNL     1      42.312 132.570  20.617  1.00  0.00    -0.207 F 
ATOM     19  C   UNL     1      43.843 131.554  22.797  1.00  0.00     0.047 C 
ENDBRANCH   5  12
TORSDOF 1
ENDMDL
MODEL 7
REMARK VINA RESULT:      -7.5      1.533      2.039
REMARK SMILES C=C1CC[C@@H](c2ccc(C)c(F)c2)[C@@H]2[NH+]=CC[C@H]12
REMARK SMILES IDX 1 1 2 2 3 3 4 4 5 5 14 6 15 7 16 8 17 9 18 10 6 12 7 13
REMARK SMILES IDX 13 14 8 15 11 16 9 17 12 18 10 19
REMARK H PARENT 15 11
ROOT
ATOM      1  C   UNL     1      42.638 131.990  22.647  1.00  0.00     0.008 C 
ATOM      2  C   UNL     1      43.251 131.766  21.474  1.00  0.00    -0.067 C 
ATOM      3  C   UNL     1      42.498 132.067  20.196  1.00  0.00     0.032 C 
ATOM      4  C   UNL     1      43.410 132.165  18.974  1.00  0.00     0.020 C 
ATOM      5  C   UNL     1      44.366 130.969  18.918  1.00  0.00     0.089 C 
ATOM      6  C   UNL     1      45.357 131.033  20.101  1.00  0.00     0.272 C 
ATOM      7  N   UNL     1      46.060 129.782  20.212  1.00  0.00    -0.248 N 
ATOM      8  C   UNL     1      45.747 129.113  21.253  1.00  0.00     0.272 C 
ATOM      9  C   UNL     1      44.737 129.793  22.102  1.00  0.00     0.113 C 
ATOM     10  C   UNL     1      44.666 131.198  21.479  1.00  0.00     0.093 C 
ATOM     11  H   UNL     1      46.725 129.435  19.505  1.00  0.00     0.445 HD
ENDROOT
BRANCH   5  12
ATOM     12  C   UNL     1      45.098 130.913  17.587  1.00  0.00    -0.035 A 
ATOM     13  C   UNL     1      45.506 129.675  17.062  1.00  0.00     0.005 A 
ATOM     14  C   UNL     1      45.402 132.087  16.873  1.00  0.00     0.043 A 
ATOM     15  C   UNL     1      46.191 129.610  15.847  1.00  0.00     0.007 A 
ATOM     16  C   UNL     1      46.088 132.022  15.656  1.00  0.00     0.126 A 
ATOM     17  C   UNL     1      46.476 130.780  15.129  1.00  0.00    -0.015 A 
ATOM     18  F   UNL     1      46.376 133.172  14.993  1.00  0.00    -0.207 F 
ATOM     19  C   UNL     1      47.237 130.712  13.837  1.00  0.00     0.047 C 
ENDBRANCH   5  12
TORSDOF 1
ENDMDL
MODEL 8
REMARK VINA RESULT:      -7.2      2.499      6.238
REMARK SMILES C=C1CC[C@@H](c2ccc(C)c(F)c2)[C@@H]2[NH+]=CC[C@H]12
REMARK SMILES IDX 1 1 2 2 3 3 4 4 5 5 14 6 15 7 16 8 17 9 18 10 6 12 7 13
REMARK SMILES IDX 13 14 8 15 11 16 9 17 12 18 10 19
REMARK H PARENT 15 11
ROOT
ATOM      1  C   UNL     1      47.496 130.215  13.623  1.00  0.00     0.008 C 
ATOM      2  C   UNL     1      46.789 130.458  14.738  1.00  0.00    -0.067 C 
ATOM      3  C   UNL     1      47.057 129.609  15.962  1.00  0.00     0.032 C 
ATOM      4  C   UNL     1      46.512 130.226  17.249  1.00  0.00     0.020 C 
ATOM      5  C   UNL     1      45.061 130.679  17.057  1.00  0.00     0.089 C 
ATOM      6  C   UNL     1      45.006 131.852  16.055  1.00  0.00     0.272 C 
ATOM      7  N   UNL     1      43.641 132.090  15.660  1.00  0.00    -0.248 N 
ATOM      8  C   UNL     1      43.404 131.788  14.444  1.00  0.00     0.272 C 
ATOM      9  C   UNL     1      44.596 131.271  13.727  1.00  0.00     0.113 C 
ATOM     10  C   UNL     1      45.736 131.561  14.718  1.00  0.00     0.093 C 
ATOM     11  H   UNL     1      42.912 132.434  16.303  1.00  0.00     0.445 HD
ENDROOT
BRANCH   5  12
ATOM     12  C   UNL     1      44.423 131.056  18.384  1.00  0.00    -0.035 A 
ATOM     13  C   UNL     1      43.141 131.630  18.408  1.00  0.00     0.005 A 
ATOM     14  C   UNL     1      45.105 130.864  19.601  1.00  0.00     0.043 A 
ATOM     15  C   UNL     1      42.548 131.993  19.620  1.00  0.00     0.007 A 
ATOM     16  C   UNL     1      44.512 131.228  20.814  1.00  0.00     0.126 A 
ATOM     17  C   UNL     1      43.222 131.784  20.831  1.00  0.00    -0.015 A 
ATOM     18  F   UNL     1      45.196 131.040  21.971  1.00  0.00    -0.207 F 
ATOM     19  C   UNL     1      42.596 132.200  22.130  1.00  0.00     0.047 C 
ENDBRANCH   5  12
TORSDOF 1
ENDMDL


