MODEL 1
REMARK VINA RESULT:      -7.5      0.000      0.000
REMARK SMILES Cn1nnc2cc(NC(=O)c3cc(F)c[nH]3)c(C=O)cc21
REMARK SMILES IDX 1 1 2 2 3 3 4 4 5 5 6 6 7 7 17 8 20 9 21 10 18 11 19 12 8 13
REMARK SMILES IDX 9 14 10 16 11 17 12 18 16 19 13 20 15 21 14 23
REMARK H PARENT 8 15 16 22
ROOT
ATOM      1  C   UNL     1      42.126 132.321  23.380  1.00  0.00     0.176 C 
ATOM      2  N   UNL     1      42.225 132.427  21.930  1.00  0.00    -0.248 N 
ATOM      3  N   UNL     1      41.422 133.159  21.164  1.00  0.00    -0.066 NA
ATOM      4  N   UNL     1      41.774 133.065  19.882  1.00  0.00    -0.130 NA
ATOM      5  C   UNL     1      42.838 132.241  19.856  1.00  0.00     0.115 A 
ATOM      6  C   UNL     1      43.593 131.829  18.767  1.00  0.00     0.059 A 
ATOM      7  C   UNL     1      44.686 130.960  19.004  1.00  0.00     0.054 A 
ATOM      8  C   UNL     1      44.979 130.533  20.345  1.00  0.00     0.040 A 
ATOM      9  C   UNL     1      44.184 130.999  21.419  1.00  0.00     0.044 A 
ATOM     10  C   UNL     1      43.124 131.848  21.121  1.00  0.00     0.089 A 
ENDROOT
BRANCH   8  11
ATOM     11  C   UNL     1      46.068 129.583  20.665  1.00  0.00     0.262 C 
ATOM     12  O   UNL     1      45.873 128.563  21.378  1.00  0.00    -0.298 OA
ENDBRANCH   8  11
BRANCH   7  13
ATOM     13  N   UNL     1      45.536 130.592  17.907  1.00  0.00    -0.320 N 
ATOM     14  C   UNL     1      45.176 130.825  16.535  1.00  0.00     0.272 C 
ATOM     15  H   UNL     1      46.442 130.125  18.124  1.00  0.00     0.170 HD
ATOM     16  O   UNL     1      43.997 131.166  16.244  1.00  0.00    -0.267 OA
BRANCH  14  17
ATOM     17  C   UNL     1      46.157 130.646  15.446  1.00  0.00     0.107 A 
ATOM     18  C   UNL     1      46.219 131.373  14.267  1.00  0.00     0.072 A 
ATOM     19  N   UNL     1      47.131 129.711  15.467  1.00  0.00    -0.355 N 
ATOM     20  C   UNL     1      47.280 130.846  13.563  1.00  0.00     0.141 A 
ATOM     21  C   UNL     1      47.822 129.831  14.320  1.00  0.00     0.122 A 
ATOM     22  H   UNL     1      47.321 129.021  16.227  1.00  0.00     0.166 HD
ATOM     23  F   UNL     1      47.709 131.249  12.342  1.00  0.00    -0.205 F 
ENDBRANCH  14  17
ENDBRANCH   7  13
TORSDOF 3
ENDMDL
MODEL 2
REMARK VINA RESULT:      -7.2      0.945      1.094
REMARK SMILES Cn1nnc2cc(NC(=O)c3cc(F)c[nH]3)c(C=O)cc21
REMARK SMILES IDX 1 1 2 2 3 3 4 4 5 5 6 6 7 7 17 8 20 9 21 10 18 11 19 12 8 13
REMARK SMILES IDX 9 14 10 16 11 17 12 18 16 19 13 20 15 21 14 23
REMARK H PARENT 8 15 16 22
ROOT
ATOM      1  C   UNL     1      42.055 132.518  22.823  1.00  0.00     0.176 C 
ATOM      2  N   UNL     1      42.137 132.526  21.369  1.00  0.00    -0.248 N 
ATOM      3  N   UNL     1      41.268 133.126  20.562  1.00  0.00    -0.066 NA
ATOM      4  N   UNL     1      41.620 132.972  19.286  1.00  0.00    -0.130 NA
ATOM      5  C   UNL     1      42.754 132.246  19.306  1.00  0.00     0.115 A 
ATOM      6  C   UNL     1      43.537 131.825  18.241  1.00  0.00     0.059 A 
ATOM      7  C   UNL     1      44.705 131.077  18.528  1.00  0.00     0.054 A 
ATOM      8  C   UNL     1      45.042 130.776  19.892  1.00  0.00     0.040 A 
ATOM      9  C   UNL     1      44.213 131.246  20.939  1.00  0.00     0.044 A 
ATOM     10  C   UNL     1      43.080 131.973  20.593  1.00  0.00     0.089 A 
ENDROOT
BRANCH   8  11
ATOM     11  C   UNL     1      46.213 129.953  20.267  1.00  0.00     0.262 C 
ATOM     12  O   UNL     1      46.101 128.925  20.986  1.00  0.00    -0.298 OA
ENDBRANCH   8  11
BRANCH   7  13
ATOM     13  N   UNL     1      45.579 130.708  17.450  1.00  0.00    -0.320 N 
ATOM     14  C   UNL     1      45.271 130.982  16.073  1.00  0.00     0.272 C 
ATOM     15  H   UNL     1      46.464 130.208  17.685  1.00  0.00     0.170 HD
ATOM     16  O   UNL     1      44.113 131.365  15.752  1.00  0.00    -0.267 OA
BRANCH  14  17
ATOM     17  C   UNL     1      46.281 130.797  15.012  1.00  0.00     0.107 A 
ATOM     18  C   UNL     1      46.989 129.635  14.744  1.00  0.00     0.072 A 
ATOM     19  N   UNL     1      46.655 131.775  14.161  1.00  0.00    -0.355 N 
ATOM     20  C   UNL     1      47.816 129.941  13.685  1.00  0.00     0.141 A 
ATOM     21  C   UNL     1      47.592 131.257  13.346  1.00  0.00     0.122 A 
ATOM     22  H   UNL     1      46.292 132.753  14.132  1.00  0.00     0.166 HD
ATOM     23  F   UNL     1      48.696 129.101  13.089  1.00  0.00    -0.205 F 
ENDBRANCH  14  17
ENDBRANCH   7  13
TORSDOF 3
ENDMDL
MODEL 3
REMARK VINA RESULT:      -7.1      2.321      3.263
REMARK SMILES Cn1nnc2cc(NC(=O)c3cc(F)c[nH]3)c(C=O)cc21
REMARK SMILES IDX 1 1 2 2 3 3 4 4 5 5 6 6 7 7 17 8 20 9 21 10 18 11 19 12 8 13
REMARK SMILES IDX 9 14 10 16 11 17 12 18 16 19 13 20 15 21 14 23
REMARK H PARENT 8 15 16 22
ROOT
ATOM      1  C   UNL     1      41.920 129.917  24.358  1.00  0.00     0.176 C 
ATOM      2  N   UNL     1      43.145 129.734  23.591  1.00  0.00    -0.248 N 
ATOM      3  N   UNL     1      44.136 128.914  23.925  1.00  0.00    -0.066 NA
ATOM      4  N   UNL     1      45.111 128.953  23.017  1.00  0.00    -0.130 NA
ATOM      5  C   UNL     1      44.704 129.835  22.084  1.00  0.00     0.115 A 
ATOM      6  C   UNL     1      45.347 130.226  20.918  1.00  0.00     0.059 A 
ATOM      7  C   UNL     1      44.698 131.169  20.084  1.00  0.00     0.054 A 
ATOM      8  C   UNL     1      43.412 131.688  20.461  1.00  0.00     0.040 A 
ATOM      9  C   UNL     1      42.798 131.241  21.655  1.00  0.00     0.044 A 
ATOM     10  C   UNL     1      43.486 130.316  22.433  1.00  0.00     0.089 A 
ENDROOT
BRANCH   8  11
ATOM     11  C   UNL     1      42.698 132.717  19.672  1.00  0.00     0.262 C 
ATOM     12  O   UNL     1      41.571 133.158  20.019  1.00  0.00    -0.298 OA
ENDBRANCH   8  11
BRANCH   7  13
ATOM     13  N   UNL     1      45.300 131.520  18.828  1.00  0.00    -0.320 N 
ATOM     14  C   UNL     1      45.593 130.550  17.810  1.00  0.00     0.272 C 
ATOM     15  H   UNL     1      45.545 132.521  18.666  1.00  0.00     0.170 HD
ATOM     16  O   UNL     1      45.526 129.319  18.076  1.00  0.00    -0.267 OA
BRANCH  14  17
ATOM     17  C   UNL     1      45.999 130.966  16.453  1.00  0.00     0.107 A 
ATOM     18  C   UNL     1      46.657 130.183  15.515  1.00  0.00     0.072 A 
ATOM     19  N   UNL     1      45.784 132.202  15.956  1.00  0.00    -0.355 N 
ATOM     20  C   UNL     1      46.834 130.994  14.415  1.00  0.00     0.141 A 
ATOM     21  C   UNL     1      46.290 132.225  14.710  1.00  0.00     0.122 A 
ATOM     22  H   UNL     1      45.313 132.998  16.440  1.00  0.00     0.166 HD
ATOM     23  F   UNL     1      47.440 130.646  13.254  1.00  0.00    -0.205 F 
ENDBRANCH  14  17
ENDBRANCH   7  13
TORSDOF 3
ENDMDL
MODEL 4
REMARK VINA RESULT:      -7.0      1.780      2.713
REMARK SMILES Cn1nnc2cc(NC(=O)c3cc(F)c[nH]3)c(C=O)cc21
REMARK SMILES IDX 1 1 2 2 3 3 4 4 5 5 6 6 7 7 17 8 20 9 21 10 18 11 19 12 8 13
REMARK SMILES IDX 9 14 10 16 11 17 12 18 16 19 13 20 15 21 14 23
REMARK H PARENT 8 15 16 22
ROOT
ATOM      1  C   UNL     1      42.086 131.284  22.978  1.00  0.00     0.176 C 
ATOM      2  N   UNL     1      43.336 130.705  22.503  1.00  0.00    -0.248 N 
ATOM      3  N   UNL     1      44.117 129.895  23.212  1.00  0.00    -0.066 NA
ATOM      4  N   UNL     1      45.179 129.518  22.501  1.00  0.00    -0.130 NA
ATOM      5  C   UNL     1      45.049 130.120  21.304  1.00  0.00     0.115 A 
ATOM      6  C   UNL     1      45.880 130.042  20.195  1.00  0.00     0.059 A 
ATOM      7  C   UNL     1      45.512 130.766  19.035  1.00  0.00     0.054 A 
ATOM      8  C   UNL     1      44.309 131.552  19.036  1.00  0.00     0.040 A 
ATOM      9  C   UNL     1      43.492 131.581  20.191  1.00  0.00     0.044 A 
ATOM     10  C   UNL     1      43.907 130.851  21.299  1.00  0.00     0.089 A 
ENDROOT
BRANCH   8  11
ATOM     11  C   UNL     1      43.889 132.379  17.883  1.00  0.00     0.262 C 
ATOM     12  O   UNL     1      43.097 131.944  17.005  1.00  0.00    -0.298 OA
ENDBRANCH   8  11
BRANCH   7  13
ATOM     13  N   UNL     1      46.307 130.629  17.846  1.00  0.00    -0.320 N 
ATOM     14  C   UNL     1      45.808 130.017  16.645  1.00  0.00     0.272 C 
ATOM     15  H   UNL     1      47.289 130.977  17.871  1.00  0.00     0.170 HD
ATOM     16  O   UNL     1      44.718 129.383  16.670  1.00  0.00    -0.267 OA
BRANCH  14  17
ATOM     17  C   UNL     1      46.563 130.092  15.379  1.00  0.00     0.107 A 
ATOM     18  C   UNL     1      46.340 130.984  14.341  1.00  0.00     0.072 A 
ATOM     19  N   UNL     1      47.582 129.264  15.069  1.00  0.00    -0.355 N 
ATOM     20  C   UNL     1      47.273 130.669  13.376  1.00  0.00     0.141 A 
ATOM     21  C   UNL     1      48.021 129.613  13.847  1.00  0.00     0.122 A 
ATOM     22  H   UNL     1      47.965 128.493  15.660  1.00  0.00     0.166 HD
ATOM     23  F   UNL     1      47.422 131.283  12.177  1.00  0.00    -0.205 F 
ENDBRANCH  14  17
ENDBRANCH   7  13
TORSDOF 3
ENDMDL
MODEL 5
REMARK VINA RESULT:      -6.8      1.881      2.708
REMARK SMILES Cn1nnc2cc(NC(=O)c3cc(F)c[nH]3)c(C=O)cc21
REMARK SMILES IDX 1 1 2 2 3 3 4 4 5 5 6 6 7 7 17 8 20 9 21 10 18 11 19 12 8 13
REMARK SMILES IDX 9 14 10 16 11 17 12 18 16 19 13 20 15 21 14 23
REMARK H PARENT 8 15 16 22
ROOT
ATOM      1  C   UNL     1      42.199 132.048  23.749  1.00  0.00     0.176 C 
ATOM      2  N   UNL     1      43.333 131.401  23.101  1.00  0.00    -0.248 N 
ATOM      3  N   UNL     1      44.310 130.764  23.739  1.00  0.00    -0.066 NA
ATOM      4  N   UNL     1      45.193 130.264  22.874  1.00  0.00    -0.130 NA
ATOM      5  C   UNL     1      44.741 130.607  21.653  1.00  0.00     0.115 A 
ATOM      6  C   UNL     1      45.286 130.315  20.410  1.00  0.00     0.059 A 
ATOM      7  C   UNL     1      44.606 130.783  19.259  1.00  0.00     0.054 A 
ATOM      8  C   UNL     1      43.391 131.535  19.405  1.00  0.00     0.040 A 
ATOM      9  C   UNL     1      42.874 131.789  20.698  1.00  0.00     0.044 A 
ATOM     10  C   UNL     1      43.588 131.306  21.789  1.00  0.00     0.089 A 
ENDROOT
BRANCH   8  11
ATOM     11  C   UNL     1      42.655 132.104  18.254  1.00  0.00     0.262 C 
ATOM     12  O   UNL     1      41.481 132.546  18.368  1.00  0.00    -0.298 OA
ENDBRANCH   8  11
BRANCH   7  13
ATOM     13  N   UNL     1      45.100 130.417  17.961  1.00  0.00    -0.320 N 
ATOM     14  C   UNL     1      45.634 131.378  17.035  1.00  0.00     0.272 C 
ATOM     15  H   UNL     1      45.050 129.413  17.683  1.00  0.00     0.170 HD
ATOM     16  O   UNL     1      45.486 132.611  17.254  1.00  0.00    -0.267 OA
BRANCH  14  17
ATOM     17  C   UNL     1      46.337 130.949  15.809  1.00  0.00     0.107 A 
ATOM     18  C   UNL     1      46.389 131.639  14.608  1.00  0.00     0.072 A 
ATOM     19  N   UNL     1      47.020 129.789  15.709  1.00  0.00    -0.355 N 
ATOM     20  C   UNL     1      47.140 130.852  13.761  1.00  0.00     0.141 A 
ATOM     21  C   UNL     1      47.515 129.726  14.460  1.00  0.00     0.122 A 
ATOM     22  H   UNL     1      47.146 129.070  16.455  1.00  0.00     0.166 HD
ATOM     23  F   UNL     1      47.449 131.132  12.472  1.00  0.00    -0.205 F 
ENDBRANCH  14  17
ENDBRANCH   7  13
TORSDOF 3
ENDMDL
MODEL 6
REMARK VINA RESULT:      -6.7      1.854      2.896
REMARK SMILES Cn1nnc2cc(NC(=O)c3cc(F)c[nH]3)c(C=O)cc21
REMARK SMILES IDX 1 1 2 2 3 3 4 4 5 5 6 6 7 7 17 8 20 9 21 10 18 11 19 12 8 13
REMARK SMILES IDX 9 14 10 16 11 17 12 18 16 19 13 20 15 21 14 23
REMARK H PARENT 8 15 16 22
ROOT
ATOM      1  C   UNL     1      41.866 130.671  23.516  1.00  0.00     0.176 C 
ATOM      2  N   UNL     1      43.192 130.603  22.917  1.00  0.00    -0.248 N 
ATOM      3  N   UNL     1      44.285 130.168  23.536  1.00  0.00    -0.066 NA
ATOM      4  N   UNL     1      45.340 130.210  22.723  1.00  0.00    -0.130 NA
ATOM      5  C   UNL     1      44.879 130.691  21.553  1.00  0.00     0.115 A 
ATOM      6  C   UNL     1      45.570 130.913  20.370  1.00  0.00     0.059 A 
ATOM      7  C   UNL     1      44.848 131.418  19.261  1.00  0.00     0.054 A 
ATOM      8  C   UNL     1      43.442 131.685  19.388  1.00  0.00     0.040 A 
ATOM      9  C   UNL     1      42.786 131.424  20.615  1.00  0.00     0.044 A 
ATOM     10  C   UNL     1      43.550 130.931  21.667  1.00  0.00     0.089 A 
ENDROOT
BRANCH   8  11
ATOM     11  C   UNL     1      42.632 132.265  18.293  1.00  0.00     0.262 C 
ATOM     12  O   UNL     1      42.733 131.860  17.105  1.00  0.00    -0.298 OA
ENDBRANCH   8  11
BRANCH   7  13
ATOM     13  N   UNL     1      45.521 131.571  18.001  1.00  0.00    -0.320 N 
ATOM     14  C   UNL     1      45.843 130.455  17.155  1.00  0.00     0.272 C 
ATOM     15  H   UNL     1      45.796 132.532  17.706  1.00  0.00     0.170 HD
ATOM     16  O   UNL     1      45.735 129.279  17.597  1.00  0.00    -0.267 OA
BRANCH  14  17
ATOM     17  C   UNL     1      46.327 130.658  15.775  1.00  0.00     0.107 A 
ATOM     18  C   UNL     1      47.102 129.776  15.037  1.00  0.00     0.072 A 
ATOM     19  N   UNL     1      46.074 131.770  15.053  1.00  0.00    -0.355 N 
ATOM     20  C   UNL     1      47.313 130.395  13.823  1.00  0.00     0.141 A 
ATOM     21  C   UNL     1      46.673 131.614  13.859  1.00  0.00     0.122 A 
ATOM     22  H   UNL     1      45.519 132.601  15.355  1.00  0.00     0.166 HD
ATOM     23  F   UNL     1      48.027 129.897  12.785  1.00  0.00    -0.205 F 
ENDBRANCH  14  17
ENDBRANCH   7  13
TORSDOF 3
ENDMDL
MODEL 7
REMARK VINA RESULT:      -6.6      1.832      2.675
REMARK SMILES Cn1nnc2cc(NC(=O)c3cc(F)c[nH]3)c(C=O)cc21
REMARK SMILES IDX 1 1 2 2 3 3 4 4 5 5 6 6 7 7 17 8 20 9 21 10 18 11 19 12 8 13
REMARK SMILES IDX 9 14 10 16 11 17 12 18 16 19 13 20 15 21 14 23
REMARK H PARENT 8 15 16 22
ROOT
ATOM      1  C   UNL     1      42.290 132.279  22.772  1.00  0.00     0.176 C 
ATOM      2  N   UNL     1      43.456 131.613  22.208  1.00  0.00    -0.248 N 
ATOM      3  N   UNL     1      44.418 131.031  22.919  1.00  0.00    -0.066 NA
ATOM      4  N   UNL     1      45.340 130.495  22.120  1.00  0.00    -0.130 NA
ATOM      5  C   UNL     1      44.931 130.756  20.864  1.00  0.00     0.115 A 
ATOM      6  C   UNL     1      45.526 130.400  19.663  1.00  0.00     0.059 A 
ATOM      7  C   UNL     1      44.884 130.786  18.461  1.00  0.00     0.054 A 
ATOM      8  C   UNL     1      43.654 131.525  18.515  1.00  0.00     0.040 A 
ATOM      9  C   UNL     1      43.085 131.848  19.770  1.00  0.00     0.044 A 
ATOM     10  C   UNL     1      43.763 131.443  20.914  1.00  0.00     0.089 A 
ENDROOT
BRANCH   8  11
ATOM     11  C   UNL     1      42.955 132.012  17.305  1.00  0.00     0.262 C 
ATOM     12  O   UNL     1      43.210 131.553  16.160  1.00  0.00    -0.298 OA
ENDBRANCH   8  11
BRANCH   7  13
ATOM     13  N   UNL     1      45.433 130.351  17.206  1.00  0.00    -0.320 N 
ATOM     14  C   UNL     1      46.060 131.253  16.280  1.00  0.00     0.272 C 
ATOM     15  H   UNL     1      45.354 129.340  16.962  1.00  0.00     0.170 HD
ATOM     16  O   UNL     1      45.954 132.498  16.446  1.00  0.00    -0.267 OA
BRANCH  14  17
ATOM     17  C   UNL     1      46.809 130.749  15.112  1.00  0.00     0.107 A 
ATOM     18  C   UNL     1      47.131 131.466  13.969  1.00  0.00     0.072 A 
ATOM     19  N   UNL     1      47.271 129.484  15.012  1.00  0.00    -0.355 N 
ATOM     20  C   UNL     1      47.816 130.585  13.160  1.00  0.00     0.141 A 
ATOM     21  C   UNL     1      47.889 129.379  13.822  1.00  0.00     0.122 A 
ATOM     22  H   UNL     1      47.173 128.723  15.720  1.00  0.00     0.166 HD
ATOM     23  F   UNL     1      48.322 130.855  11.933  1.00  0.00    -0.205 F 
ENDBRANCH  14  17
ENDBRANCH   7  13
TORSDOF 3
ENDMDL
MODEL 8
REMARK VINA RESULT:      -5.8      2.016      3.189
REMARK SMILES Cn1nnc2cc(NC(=O)c3cc(F)c[nH]3)c(C=O)cc21
REMARK SMILES IDX 1 1 2 2 3 3 4 4 5 5 6 6 7 7 17 8 20 9 21 10 18 11 19 12 8 13
REMARK SMILES IDX 9 14 10 16 11 17 12 18 16 19 13 20 15 21 14 23
REMARK H PARENT 8 15 16 22
ROOT
ATOM      1  C   UNL     1      41.815 131.473  24.625  1.00  0.00     0.176 C 
ATOM      2  N   UNL     1      42.904 131.034  23.762  1.00  0.00    -0.248 N 
ATOM      3  N   UNL     1      43.906 130.249  24.143  1.00  0.00    -0.066 NA
ATOM      4  N   UNL     1      44.735 130.010  23.127  1.00  0.00    -0.130 NA
ATOM      5  C   UNL     1      44.223 130.677  22.076  1.00  0.00     0.115 A 
ATOM      6  C   UNL     1      44.697 130.743  20.773  1.00  0.00     0.059 A 
ATOM      7  C   UNL     1      43.962 131.509  19.835  1.00  0.00     0.054 A 
ATOM      8  C   UNL     1      42.766 132.188  20.250  1.00  0.00     0.040 A 
ATOM      9  C   UNL     1      42.322 132.072  21.589  1.00  0.00     0.044 A 
ATOM     10  C   UNL     1      43.088 131.308  22.463  1.00  0.00     0.089 A 
ENDROOT
BRANCH   8  11
ATOM     11  C   UNL     1      41.976 133.051  19.344  1.00  0.00     0.262 C 
ATOM     12  O   UNL     1      41.621 132.664  18.199  1.00  0.00    -0.298 OA
ENDBRANCH   8  11
BRANCH   7  13
ATOM     13  N   UNL     1      44.381 131.519  18.461  1.00  0.00    -0.320 N 
ATOM     14  C   UNL     1      45.674 131.052  18.042  1.00  0.00     0.272 C 
ATOM     15  H   UNL     1      43.719 131.896  17.750  1.00  0.00     0.170 HD
ATOM     16  O   UNL     1      46.567 130.818  18.901  1.00  0.00    -0.267 OA
BRANCH  14  17
ATOM     17  C   UNL     1      45.992 130.864  16.612  1.00  0.00     0.107 A 
ATOM     18  C   UNL     1      46.426 129.691  16.013  1.00  0.00     0.072 A 
ATOM     19  N   UNL     1      45.907 131.850  15.694  1.00  0.00    -0.355 N 
ATOM     20  C   UNL     1      46.602 129.998  14.681  1.00  0.00     0.141 A 
ATOM     21  C   UNL     1      46.277 131.326  14.512  1.00  0.00     0.122 A 
ATOM     22  H   UNL     1      45.611 132.838  15.861  1.00  0.00     0.166 HD
ATOM     23  F   UNL     1      47.025 129.150  13.714  1.00  0.00    -0.205 F 
ENDBRANCH  14  17
ENDBRANCH   7  13
TORSDOF 3
ENDMDL
MODEL 9
REMARK VINA RESULT:      -5.8      2.173      3.075
REMARK SMILES Cn1nnc2cc(NC(=O)c3cc(F)c[nH]3)c(C=O)cc21
REMARK SMILES IDX 1 1 2 2 3 3 4 4 5 5 6 6 7 7 17 8 20 9 21 10 18 11 19 12 8 13
REMARK SMILES IDX 9 14 10 16 11 17 12 18 16 19 13 20 15 21 14 23
REMARK H PARENT 8 15 16 22
ROOT
ATOM      1  C   UNL     1      41.495 132.762  21.390  1.00  0.00     0.176 C 
ATOM      2  N   UNL     1      42.802 132.240  21.016  1.00  0.00    -0.248 N 
ATOM      3  N   UNL     1      43.773 131.938  21.872  1.00  0.00    -0.066 NA
ATOM      4  N   UNL     1      44.842 131.466  21.231  1.00  0.00    -0.130 NA
ATOM      5  C   UNL     1      44.517 131.478  19.924  1.00  0.00     0.115 A 
ATOM      6  C   UNL     1      45.274 131.070  18.835  1.00  0.00     0.059 A 
ATOM      7  C   UNL     1      44.695 131.169  17.546  1.00  0.00     0.054 A 
ATOM      8  C   UNL     1      43.361 131.683  17.402  1.00  0.00     0.040 A 
ATOM      9  C   UNL     1      42.631 132.070  18.551  1.00  0.00     0.044 A 
ATOM     10  C   UNL     1      43.254 131.951  19.788  1.00  0.00     0.089 A 
ENDROOT
BRANCH   8  11
ATOM     11  C   UNL     1      42.711 131.870  16.086  1.00  0.00     0.262 C 
ATOM     12  O   UNL     1      43.259 131.498  15.014  1.00  0.00    -0.298 OA
ENDBRANCH   8  11
BRANCH   7  13
ATOM     13  N   UNL     1      45.424 130.669  16.414  1.00  0.00    -0.320 N 
ATOM     14  C   UNL     1      46.179 131.523  15.539  1.00  0.00     0.272 C 
ATOM     15  H   UNL     1      45.384 129.646  16.219  1.00  0.00     0.170 HD
ATOM     16  O   UNL     1      46.048 132.775  15.616  1.00  0.00    -0.267 OA
BRANCH  14  17
ATOM     17  C   UNL     1      47.094 130.961  14.526  1.00  0.00     0.107 A 
ATOM     18  C   UNL     1      47.609 129.674  14.507  1.00  0.00     0.072 A 
ATOM     19  N   UNL     1      47.561 131.664  13.472  1.00  0.00    -0.355 N 
ATOM     20  C   UNL     1      48.415 129.614  13.390  1.00  0.00     0.141 A 
ATOM     21  C   UNL     1      48.367 130.845  12.774  1.00  0.00     0.122 A 
ATOM     22  H   UNL     1      47.343 132.657  13.236  1.00  0.00     0.166 HD
ATOM     23  F   UNL     1      49.130 128.541  12.976  1.00  0.00    -0.205 F 
ENDBRANCH  14  17
ENDBRANCH   7  13
TORSDOF 3
ENDMDL


