REMARK SMILES C/C(O)=[N+](/C)[C@@H](C)C(=O)N(c1cn2ccccc2n1)c1cc2ccccc2[n-]1
REMARK SMILES IDX 4 1 5 2 2 3 1 4 3 5 6 7 7 8 8 9 9 10 10 11 11 12 19 13 12 14
REMARK SMILES IDX 18 15 13 16 17 17 14 18 16 19 15 20 20 21 28 22 21 23 27 24
REMARK SMILES IDX 22 25 26 26 23 27 25 28 24 29
REMARK H PARENT 3 6
ROOT
ATOM      1  N   UNL     1       0.006   3.488  -0.140  1.00  0.00    -0.196 N 
ATOM      2  C   UNL     1       0.471   3.918   1.192  1.00  0.00     0.437 C 
ENDROOT
BRANCH   1   3
ATOM      3  C   UNL     1      -0.493   4.382  -0.980  1.00  0.00     0.330 C 
ATOM      4  C   UNL     1      -0.999   4.021  -2.351  1.00  0.00     0.172 C 
BRANCH   3   5
ATOM      5  O   UNL     1      -0.593   5.738  -0.636  1.00  0.00    -0.464 OA
ATOM      6  H   UNL     1      -0.262   6.139   0.232  1.00  0.00     0.299 HD
ENDBRANCH   3   5
ENDBRANCH   1   3
BRANCH   1   7
ATOM      7  C   UNL     1       0.148   2.050  -0.490  1.00  0.00     0.328 C 
ATOM      8  C   UNL     1       1.634   1.677  -0.595  1.00  0.00     0.096 C 
BRANCH   7   9
ATOM      9  C   UNL     1      -0.601   1.181   0.497  1.00  0.00     0.220 C 
ATOM     10  O   UNL     1      -1.727   1.553   0.919  1.00  0.00    -0.291 OA
BRANCH   9  11
ATOM     11  N   UNL     1      -0.087  -0.095   0.906  1.00  0.00    -0.366 N 
BRANCH  11  12
ATOM     12  C   UNL     1      -0.244  -1.233   0.030  1.00  0.00     0.077 A 
ATOM     13  N   UNL     1       0.152  -2.493   0.338  1.00  0.00    -0.233 NA
ATOM     14  C   UNL     1      -0.866  -1.213  -1.214  1.00  0.00     0.117 A 
ATOM     15  C   UNL     1      -0.225  -3.207  -0.741  1.00  0.00     0.136 A 
ATOM     16  N   UNL     1      -0.837  -2.469  -1.680  1.00  0.00    -0.307 N 
ATOM     17  C   UNL     1      -0.043  -4.578  -0.915  1.00  0.00     0.048 A 
ATOM     18  C   UNL     1      -1.319  -2.979  -2.841  1.00  0.00     0.093 A 
ATOM     19  C   UNL     1      -0.518  -5.151  -2.106  1.00  0.00     0.005 A 
ATOM     20  C   UNL     1      -1.160  -4.354  -3.074  1.00  0.00     0.018 A 
ENDBRANCH  11  12
BRANCH  11  21
ATOM     21  C   UNL     1       0.476  -0.200   2.229  1.00  0.00    -0.049 A 
ATOM     22  N   UNL     1       0.188   0.685   3.215  1.00  0.00    -0.435 NA
ATOM     23  C   UNL     1       1.394  -1.161   2.655  1.00  0.00     0.008 A 
ATOM     24  C   UNL     1       0.911   0.266   4.268  1.00  0.00    -0.034 A 
ATOM     25  C   UNL     1       1.646  -0.846   3.966  1.00  0.00    -0.023 A 
ATOM     26  C   UNL     1       0.949   0.841   5.537  1.00  0.00     0.004 A 
ATOM     27  C   UNL     1       2.465  -1.468   4.906  1.00  0.00     0.008 A 
ATOM     28  C   UNL     1       1.763   0.235   6.512  1.00  0.00     0.000 A 
ATOM     29  C   UNL     1       2.517  -0.914   6.199  1.00  0.00     0.001 A 
ENDBRANCH  11  21
ENDBRANCH   9  11
ENDBRANCH   7   9
ENDBRANCH   1   7
TORSDOF 7


