MODEL 1
REMARK VINA RESULT:     -10.1      0.000      0.000
REMARK SMILES Cc1nnc(-c2cc3c(N)cc(F)c(F)c3[nH]2)o1
REMARK SMILES IDX 6 1 7 2 8 3 9 4 11 5 12 6 13 7 14 8 15 9 16 10 17 11 5 13
REMARK SMILES IDX 2 14 3 15 18 16 4 17 1 18 10 19
REMARK H PARENT 17 12 10 20 10 21
ROOT
ATOM      1  C   UNL     1      45.337 131.049  16.851  1.00  0.00     0.105 A 
ATOM      2  C   UNL     1      44.082 131.624  17.022  1.00  0.00     0.044 A 
ATOM      3  C   UNL     1      43.881 131.648  18.389  1.00  0.00     0.026 A 
ATOM      4  C   UNL     1      42.804 132.110  19.156  1.00  0.00     0.044 A 
ATOM      5  C   UNL     1      42.904 131.993  20.559  1.00  0.00     0.068 A 
ATOM      6  C   UNL     1      44.054 131.430  21.154  1.00  0.00     0.163 A 
ATOM      7  F   UNL     1      44.131 131.326  22.503  1.00  0.00    -0.204 F 
ATOM      8  C   UNL     1      45.118 130.976  20.355  1.00  0.00     0.182 A 
ATOM      9  F   UNL     1      46.228 130.432  20.914  1.00  0.00    -0.201 F 
ATOM     10  C   UNL     1      44.999 131.100  18.971  1.00  0.00     0.087 A 
ATOM     11  N   UNL     1      45.895 130.730  18.040  1.00  0.00    -0.348 N 
ATOM     12  H   UNL     1      46.828 130.289  18.204  1.00  0.00     0.167 HD
ENDROOT
BRANCH   1  13
ATOM     13  C   UNL     1      45.984 130.813  15.555  1.00  0.00     0.264 A 
ATOM     14  C   UNL     1      47.294 130.126  14.096  1.00  0.00     0.214 A 
ATOM     15  N   UNL     1      46.391 130.896  13.459  1.00  0.00    -0.113 NA
ATOM     16  O   UNL     1      47.055 130.074  15.384  1.00  0.00    -0.420 OA
ATOM     17  N   UNL     1      45.555 131.331  14.388  1.00  0.00    -0.106 NA
ATOM     18  C   UNL     1      48.441 129.451  13.425  1.00  0.00     0.113 C 
ENDBRANCH   1  13
BRANCH   4  19
ATOM     19  N   UNL     1      41.641 132.681  18.552  1.00  0.00    -0.398 N 
ATOM     20  H   UNL     1      40.845 132.073  18.255  1.00  0.00     0.156 HD
ATOM     21  H   UNL     1      41.560 133.709  18.394  1.00  0.00     0.156 HD
ENDBRANCH   4  19
TORSDOF 2
ENDMDL
MODEL 2
REMARK VINA RESULT:      -9.7      2.118      2.701
REMARK SMILES Cc1nnc(-c2cc3c(N)cc(F)c(F)c3[nH]2)o1
REMARK SMILES IDX 6 1 7 2 8 3 9 4 11 5 12 6 13 7 14 8 15 9 16 10 17 11 5 13
REMARK SMILES IDX 2 14 3 15 18 16 4 17 1 18 10 19
REMARK H PARENT 17 12 10 20 10 21
ROOT
ATOM      1  C   UNL     1      45.063 131.029  17.180  1.00  0.00     0.105 A 
ATOM      2  C   UNL     1      45.513 130.833  18.482  1.00  0.00     0.044 A 
ATOM      3  C   UNL     1      44.520 131.357  19.287  1.00  0.00     0.026 A 
ATOM      4  C   UNL     1      44.412 131.445  20.681  1.00  0.00     0.044 A 
ATOM      5  C   UNL     1      43.251 132.047  21.210  1.00  0.00     0.068 A 
ATOM      6  C   UNL     1      42.241 132.538  20.353  1.00  0.00     0.163 A 
ATOM      7  F   UNL     1      41.132 133.113  20.880  1.00  0.00    -0.204 F 
ATOM      8  C   UNL     1      42.379 132.433  18.958  1.00  0.00     0.182 A 
ATOM      9  F   UNL     1      41.417 132.901  18.124  1.00  0.00    -0.201 F 
ATOM     10  C   UNL     1      43.535 131.835  18.456  1.00  0.00     0.087 A 
ATOM     11  N   UNL     1      43.857 131.641  17.166  1.00  0.00    -0.348 N 
ATOM     12  H   UNL     1      43.291 131.907  16.329  1.00  0.00     0.167 HD
ENDROOT
BRANCH   1  13
ATOM     13  C   UNL     1      45.791 130.631  15.970  1.00  0.00     0.264 A 
ATOM     14  C   UNL     1      46.923 130.707  14.230  1.00  0.00     0.214 A 
ATOM     15  N   UNL     1      46.626 129.408  14.428  1.00  0.00    -0.113 NA
ATOM     16  O   UNL     1      46.411 131.465  15.168  1.00  0.00    -0.420 OA
ATOM     17  N   UNL     1      45.907 129.360  15.539  1.00  0.00    -0.106 NA
ATOM     18  C   UNL     1      47.704 131.218  13.067  1.00  0.00     0.113 C 
ENDBRANCH   1  13
BRANCH   4  19
ATOM     19  N   UNL     1      45.435 130.948  21.547  1.00  0.00    -0.398 N 
ATOM     20  H   UNL     1      45.785 131.527  22.343  1.00  0.00     0.156 HD
ATOM     21  H   UNL     1      45.854 130.002  21.406  1.00  0.00     0.156 HD
ENDBRANCH   4  19
TORSDOF 2
ENDMDL
MODEL 3
REMARK VINA RESULT:      -9.5      1.006      1.027
REMARK SMILES Cc1nnc(-c2cc3c(N)cc(F)c(F)c3[nH]2)o1
REMARK SMILES IDX 6 1 7 2 8 3 9 4 11 5 12 6 13 7 14 8 15 9 16 10 17 11 5 13
REMARK SMILES IDX 2 14 3 15 18 16 4 17 1 18 10 19
REMARK H PARENT 17 12 10 20 10 21
ROOT
ATOM      1  C   UNL     1      45.460 130.839  17.069  1.00  0.00     0.105 A 
ATOM      2  C   UNL     1      44.233 131.494  17.087  1.00  0.00     0.044 A 
ATOM      3  C   UNL     1      43.896 131.587  18.424  1.00  0.00     0.026 A 
ATOM      4  C   UNL     1      42.777 132.143  19.058  1.00  0.00     0.044 A 
ATOM      5  C   UNL     1      42.725 132.079  20.466  1.00  0.00     0.068 A 
ATOM      6  C   UNL     1      43.770 131.473  21.198  1.00  0.00     0.163 A 
ATOM      7  F   UNL     1      43.701 131.421  22.551  1.00  0.00    -0.204 F 
ATOM      8  C   UNL     1      44.879 130.923  20.532  1.00  0.00     0.182 A 
ATOM      9  F   UNL     1      45.888 130.338  21.223  1.00  0.00    -0.201 F 
ATOM     10  C   UNL     1      44.911 130.997  19.139  1.00  0.00     0.087 A 
ATOM     11  N   UNL     1      45.872 130.536  18.321  1.00  0.00    -0.348 N 
ATOM     12  H   UNL     1      46.753 130.047  18.597  1.00  0.00     0.167 HD
ENDROOT
BRANCH   1  13
ATOM     13  C   UNL     1      46.221 130.511  15.857  1.00  0.00     0.264 A 
ATOM     14  C   UNL     1      47.183 130.676  14.024  1.00  0.00     0.214 A 
ATOM     15  N   UNL     1      47.335 129.396  14.415  1.00  0.00    -0.113 NA
ATOM     16  O   UNL     1      46.495 131.367  14.901  1.00  0.00    -0.420 OA
ATOM     17  N   UNL     1      46.725 129.293  15.585  1.00  0.00    -0.106 NA
ATOM     18  C   UNL     1      47.698 131.225  12.737  1.00  0.00     0.113 C 
ENDBRANCH   1  13
BRANCH   4  19
ATOM     19  N   UNL     1      41.721 132.757  18.315  1.00  0.00    -0.398 N 
ATOM     20  H   UNL     1      41.413 132.357  17.401  1.00  0.00     0.156 HD
ATOM     21  H   UNL     1      41.236 133.613  18.665  1.00  0.00     0.156 HD
ENDBRANCH   4  19
TORSDOF 2
ENDMDL
MODEL 4
REMARK VINA RESULT:      -9.0      1.804      2.555
REMARK SMILES Cc1nnc(-c2cc3c(N)cc(F)c(F)c3[nH]2)o1
REMARK SMILES IDX 6 1 7 2 8 3 9 4 11 5 12 6 13 7 14 8 15 9 16 10 17 11 5 13
REMARK SMILES IDX 2 14 3 15 18 16 4 17 1 18 10 19
REMARK H PARENT 17 12 10 20 10 21
ROOT
ATOM      1  C   UNL     1      44.793 131.398  16.996  1.00  0.00     0.105 A 
ATOM      2  C   UNL     1      45.527 131.052  18.126  1.00  0.00     0.044 A 
ATOM      3  C   UNL     1      44.706 131.356  19.194  1.00  0.00     0.026 A 
ATOM      4  C   UNL     1      44.901 131.226  20.575  1.00  0.00     0.044 A 
ATOM      5  C   UNL     1      43.850 131.632  21.425  1.00  0.00     0.068 A 
ATOM      6  C   UNL     1      42.650 132.149  20.888  1.00  0.00     0.163 A 
ATOM      7  F   UNL     1      41.652 132.535  21.721  1.00  0.00    -0.204 F 
ATOM      8  C   UNL     1      42.486 132.267  19.497  1.00  0.00     0.182 A 
ATOM      9  F   UNL     1      41.339 132.763  18.970  1.00  0.00    -0.201 F 
ATOM     10  C   UNL     1      43.537 131.860  18.675  1.00  0.00     0.087 A 
ATOM     11  N   UNL     1      43.580 131.891  17.333  1.00  0.00    -0.348 N 
ATOM     12  H   UNL     1      42.830 132.225  16.686  1.00  0.00     0.167 HD
ENDROOT
BRANCH   1  13
ATOM     13  C   UNL     1      45.261 131.253  15.612  1.00  0.00     0.264 A 
ATOM     14  C   UNL     1      46.498 131.057  13.955  1.00  0.00     0.214 A 
ATOM     15  N   UNL     1      45.236 131.053  13.485  1.00  0.00    -0.113 NA
ATOM     16  O   UNL     1      46.523 131.184  15.259  1.00  0.00    -0.420 OA
ATOM     17  N   UNL     1      44.448 131.175  14.542  1.00  0.00    -0.106 NA
ATOM     18  C   UNL     1      47.712 130.966  13.094  1.00  0.00     0.113 C 
ENDBRANCH   1  13
BRANCH   4  19
ATOM     19  N   UNL     1      46.116 130.701  21.116  1.00  0.00    -0.398 N 
ATOM     20  H   UNL     1      46.922 131.333  21.322  1.00  0.00     0.156 HD
ATOM     21  H   UNL     1      46.226 129.683  21.318  1.00  0.00     0.156 HD
ENDBRANCH   4  19
TORSDOF 2
ENDMDL
MODEL 5
REMARK VINA RESULT:      -8.4      1.814      2.583
REMARK SMILES Cc1nnc(-c2cc3c(N)cc(F)c(F)c3[nH]2)o1
REMARK SMILES IDX 6 1 7 2 8 3 9 4 11 5 12 6 13 7 14 8 15 9 16 10 17 11 5 13
REMARK SMILES IDX 2 14 3 15 18 16 4 17 1 18 10 19
REMARK H PARENT 17 12 10 20 10 21
ROOT
ATOM      1  C   UNL     1      45.216 131.157  17.810  1.00  0.00     0.105 A 
ATOM      2  C   UNL     1      45.597 130.466  18.956  1.00  0.00     0.044 A 
ATOM      3  C   UNL     1      44.712 130.876  19.933  1.00  0.00     0.026 A 
ATOM      4  C   UNL     1      44.601 130.524  21.285  1.00  0.00     0.044 A 
ATOM      5  C   UNL     1      43.569 131.128  22.035  1.00  0.00     0.068 A 
ATOM      6  C   UNL     1      42.687 132.052  21.431  1.00  0.00     0.163 A 
ATOM      7  F   UNL     1      41.702 132.621  22.168  1.00  0.00    -0.204 F 
ATOM      8  C   UNL     1      42.825 132.383  20.072  1.00  0.00     0.182 A 
ATOM      9  F   UNL     1      41.985 133.269  19.481  1.00  0.00    -0.201 F 
ATOM     10  C   UNL     1      43.852 131.775  19.349  1.00  0.00     0.087 A 
ATOM     11  N   UNL     1      44.151 131.954  18.052  1.00  0.00    -0.348 N 
ATOM     12  H   UNL     1      43.661 132.580  17.373  1.00  0.00     0.167 HD
ENDROOT
BRANCH   1  13
ATOM     13  C   UNL     1      45.872 131.044  16.502  1.00  0.00     0.264 A 
ATOM     14  C   UNL     1      46.940 130.295  14.885  1.00  0.00     0.214 A 
ATOM     15  N   UNL     1      46.572 131.546  14.547  1.00  0.00    -0.113 NA
ATOM     16  O   UNL     1      46.519 129.981  16.086  1.00  0.00    -0.420 OA
ATOM     17  N   UNL     1      45.889 132.022  15.576  1.00  0.00    -0.106 NA
ATOM     18  C   UNL     1      47.756 129.399  14.017  1.00  0.00     0.113 C 
ENDBRANCH   1  13
BRANCH   4  19
ATOM     19  N   UNL     1      45.494 129.589  21.894  1.00  0.00    -0.398 N 
ATOM     20  H   UNL     1      45.853 128.769  21.354  1.00  0.00     0.156 HD
ATOM     21  H   UNL     1      45.806 129.700  22.883  1.00  0.00     0.156 HD
ENDBRANCH   4  19
TORSDOF 2
ENDMDL
MODEL 6
REMARK VINA RESULT:      -8.3      2.895      6.116
REMARK SMILES Cc1nnc(-c2cc3c(N)cc(F)c(F)c3[nH]2)o1
REMARK SMILES IDX 6 1 7 2 8 3 9 4 11 5 12 6 13 7 14 8 15 9 16 10 17 11 5 13
REMARK SMILES IDX 2 14 3 15 18 16 4 17 1 18 10 19
REMARK H PARENT 17 12 10 20 10 21
ROOT
ATOM      1  C   UNL     1      44.084 131.422  18.127  1.00  0.00     0.105 A 
ATOM      2  C   UNL     1      43.413 131.734  16.949  1.00  0.00     0.044 A 
ATOM      3  C   UNL     1      44.254 131.315  15.935  1.00  0.00     0.026 A 
ATOM      4  C   UNL     1      44.117 131.366  14.542  1.00  0.00     0.044 A 
ATOM      5  C   UNL     1      45.171 130.845  13.763  1.00  0.00     0.068 A 
ATOM      6  C   UNL     1      46.317 130.295  14.379  1.00  0.00     0.163 A 
ATOM      7  F   UNL     1      47.320 129.799  13.613  1.00  0.00    -0.204 F 
ATOM      8  C   UNL     1      46.423 130.259  15.780  1.00  0.00     0.182 A 
ATOM      9  F   UNL     1      47.519 129.734  16.383  1.00  0.00    -0.201 F 
ATOM     10  C   UNL     1      45.370 130.780  16.532  1.00  0.00     0.087 A 
ATOM     11  N   UNL     1      45.277 130.840  17.871  1.00  0.00    -0.348 N 
ATOM     12  H   UNL     1      45.981 130.506  18.567  1.00  0.00     0.167 HD
ENDROOT
BRANCH   1  13
ATOM     13  C   UNL     1      43.576 131.684  19.479  1.00  0.00     0.264 A 
ATOM     14  C   UNL     1      43.362 131.677  21.545  1.00  0.00     0.214 A 
ATOM     15  N   UNL     1      42.362 132.442  21.066  1.00  0.00    -0.113 NA
ATOM     16  O   UNL     1      44.108 131.203  20.577  1.00  0.00    -0.420 OA
ATOM     17  N   UNL     1      42.501 132.449  19.749  1.00  0.00    -0.106 NA
ATOM     18  C   UNL     1      43.566 131.376  22.990  1.00  0.00     0.113 C 
ENDBRANCH   1  13
BRANCH   4  19
ATOM     19  N   UNL     1      42.956 131.922  13.921  1.00  0.00    -0.398 N 
ATOM     20  H   UNL     1      42.832 131.871  12.884  1.00  0.00     0.156 HD
ATOM     21  H   UNL     1      42.210 132.390  14.481  1.00  0.00     0.156 HD
ENDBRANCH   4  19
TORSDOF 2
ENDMDL
MODEL 7
REMARK VINA RESULT:      -8.1      3.207      6.182
REMARK SMILES Cc1nnc(-c2cc3c(N)cc(F)c(F)c3[nH]2)o1
REMARK SMILES IDX 6 1 7 2 8 3 9 4 11 5 12 6 13 7 14 8 15 9 16 10 17 11 5 13
REMARK SMILES IDX 2 14 3 15 18 16 4 17 1 18 10 19
REMARK H PARENT 17 12 10 20 10 21
ROOT
ATOM      1  C   UNL     1      44.964 131.061  18.276  1.00  0.00     0.105 A 
ATOM      2  C   UNL     1      44.146 131.538  17.257  1.00  0.00     0.044 A 
ATOM      3  C   UNL     1      44.805 131.212  16.087  1.00  0.00     0.026 A 
ATOM      4  C   UNL     1      44.469 131.435  14.745  1.00  0.00     0.044 A 
ATOM      5  C   UNL     1      45.367 130.972  13.761  1.00  0.00     0.068 A 
ATOM      6  C   UNL     1      46.559 130.309  14.129  1.00  0.00     0.163 A 
ATOM      7  F   UNL     1      47.410 129.872  13.168  1.00  0.00    -0.204 F 
ATOM      8  C   UNL     1      46.867 130.101  15.485  1.00  0.00     0.182 A 
ATOM      9  F   UNL     1      48.008 129.466  15.851  1.00  0.00    -0.201 F 
ATOM     10  C   UNL     1      45.965 130.567  16.442  1.00  0.00     0.087 A 
ATOM     11  N   UNL     1      46.073 130.469  17.777  1.00  0.00    -0.348 N 
ATOM     12  H   UNL     1      46.852 130.027  18.316  1.00  0.00     0.167 HD
ENDROOT
BRANCH   1  13
ATOM     13  C   UNL     1      44.675 131.177  19.711  1.00  0.00     0.264 A 
ATOM     14  C   UNL     1      43.685 131.515  21.505  1.00  0.00     0.214 A 
ATOM     15  N   UNL     1      44.937 131.138  21.831  1.00  0.00    -0.113 NA
ATOM     16  O   UNL     1      43.517 131.547  20.206  1.00  0.00    -0.420 OA
ATOM     17  N   UNL     1      45.566 130.920  20.687  1.00  0.00    -0.106 NA
ATOM     18  C   UNL     1      42.638 131.886  22.499  1.00  0.00     0.113 C 
ENDBRANCH   1  13
BRANCH   4  19
ATOM     19  N   UNL     1      43.262 132.106  14.374  1.00  0.00    -0.398 N 
ATOM     20  H   UNL     1      43.265 132.824  13.616  1.00  0.00     0.156 HD
ATOM     21  H   UNL     1      42.356 131.896  14.848  1.00  0.00     0.156 HD
ENDBRANCH   4  19
TORSDOF 2
ENDMDL
MODEL 8
REMARK VINA RESULT:      -7.8      3.486      6.609
REMARK SMILES Cc1nnc(-c2cc3c(N)cc(F)c(F)c3[nH]2)o1
REMARK SMILES IDX 6 1 7 2 8 3 9 4 11 5 12 6 13 7 14 8 15 9 16 10 17 11 5 13
REMARK SMILES IDX 2 14 3 15 18 16 4 17 1 18 10 19
REMARK H PARENT 17 12 10 20 10 21
ROOT
ATOM      1  C   UNL     1      43.952 131.512  18.453  1.00  0.00     0.105 A 
ATOM      2  C   UNL     1      45.136 130.803  18.278  1.00  0.00     0.044 A 
ATOM      3  C   UNL     1      45.326 130.754  16.910  1.00  0.00     0.026 A 
ATOM      4  C   UNL     1      46.343 130.176  16.139  1.00  0.00     0.044 A 
ATOM      5  C   UNL     1      46.251 130.299  14.737  1.00  0.00     0.068 A 
ATOM      6  C   UNL     1      45.167 130.986  14.145  1.00  0.00     0.163 A 
ATOM      7  F   UNL     1      45.096 131.095  12.796  1.00  0.00    -0.204 F 
ATOM      8  C   UNL     1      44.163 131.556  14.947  1.00  0.00     0.182 A 
ATOM      9  F   UNL     1      43.117 132.217  14.391  1.00  0.00    -0.201 F 
ATOM     10  C   UNL     1      44.273 131.421  16.331  1.00  0.00     0.087 A 
ATOM     11  N   UNL     1      43.427 131.888  17.264  1.00  0.00    -0.348 N 
ATOM     12  H   UNL     1      42.548 132.429  17.104  1.00  0.00     0.167 HD
ENDROOT
BRANCH   1  13
ATOM     13  C   UNL     1      43.340 131.820  19.751  1.00  0.00     0.264 A 
ATOM     14  C   UNL     1      42.953 131.867  21.791  1.00  0.00     0.214 A 
ATOM     15  N   UNL     1      42.020 132.647  21.213  1.00  0.00    -0.113 NA
ATOM     16  O   UNL     1      43.765 131.351  20.900  1.00  0.00    -0.420 OA
ATOM     17  N   UNL     1      42.269 132.619  19.913  1.00  0.00    -0.106 NA
ATOM     18  C   UNL     1      43.027 131.595  23.255  1.00  0.00     0.113 C 
ENDBRANCH   1  13
BRANCH   4  19
ATOM     19  N   UNL     1      47.439 129.482  16.740  1.00  0.00    -0.398 N 
ATOM     20  H   UNL     1      48.171 130.005  17.272  1.00  0.00     0.156 HD
ATOM     21  H   UNL     1      47.535 128.445  16.663  1.00  0.00     0.156 HD
ENDBRANCH   4  19
TORSDOF 2
ENDMDL
MODEL 9
REMARK VINA RESULT:      -7.3      3.536      6.592
REMARK SMILES Cc1nnc(-c2cc3c(N)cc(F)c(F)c3[nH]2)o1
REMARK SMILES IDX 6 1 7 2 8 3 9 4 11 5 12 6 13 7 14 8 15 9 16 10 17 11 5 13
REMARK SMILES IDX 2 14 3 15 18 16 4 17 1 18 10 19
REMARK H PARENT 17 12 10 20 10 21
ROOT
ATOM      1  C   UNL     1      44.616 131.227  18.833  1.00  0.00     0.105 A 
ATOM      2  C   UNL     1      45.725 130.588  18.288  1.00  0.00     0.044 A 
ATOM      3  C   UNL     1      45.537 130.648  16.921  1.00  0.00     0.026 A 
ATOM      4  C   UNL     1      46.320 130.175  15.860  1.00  0.00     0.044 A 
ATOM      5  C   UNL     1      45.848 130.397  14.549  1.00  0.00     0.068 A 
ATOM      6  C   UNL     1      44.628 131.076  14.329  1.00  0.00     0.163 A 
ATOM      7  F   UNL     1      44.192 131.280  13.062  1.00  0.00    -0.204 F 
ATOM      8  C   UNL     1      43.867 131.539  15.416  1.00  0.00     0.182 A 
ATOM      9  F   UNL     1      42.693 132.190  15.218  1.00  0.00    -0.201 F 
ATOM     10  C   UNL     1      44.351 131.307  16.704  1.00  0.00     0.087 A 
ATOM     11  N   UNL     1      43.779 131.666  17.865  1.00  0.00    -0.348 N 
ATOM     12  H   UNL     1      42.877 132.177  17.992  1.00  0.00     0.167 HD
ENDROOT
BRANCH   1  13
ATOM     13  C   UNL     1      44.372 131.410  20.269  1.00  0.00     0.264 A 
ATOM     14  C   UNL     1      43.414 131.702  22.089  1.00  0.00     0.214 A 
ATOM     15  N   UNL     1      44.729 131.611  22.366  1.00  0.00    -0.113 NA
ATOM     16  O   UNL     1      43.186 131.585  20.803  1.00  0.00    -0.420 OA
ATOM     17  N   UNL     1      45.338 131.422  21.206  1.00  0.00    -0.106 NA
ATOM     18  C   UNL     1      42.358 131.945  23.112  1.00  0.00     0.113 C 
ENDBRANCH   1  13
BRANCH   4  19
ATOM     19  N   UNL     1      47.555 129.489  16.084  1.00  0.00    -0.398 N 
ATOM     20  H   UNL     1      47.779 129.094  17.025  1.00  0.00     0.156 HD
ATOM     21  H   UNL     1      48.256 129.368  15.321  1.00  0.00     0.156 HD
ENDBRANCH   4  19
TORSDOF 2
ENDMDL


