REMARK SMILES C=C1CC[C@@H](c2ccc(C)c(F)c2)[C@@H]2[NH+]=CC[C@H]12
REMARK SMILES IDX 1 1 2 2 3 3 4 4 5 5 14 6 15 7 16 8 17 9 18 10 6 12 7 13
REMARK SMILES IDX 13 14 8 15 11 16 9 17 12 18 10 19
REMARK H PARENT 15 11
ROOT
ATOM      1  C   UNL     1       4.475   0.102  -0.403  1.00  0.00     0.008 C 
ATOM      2  C   UNL     1       3.159   0.263  -0.192  1.00  0.00    -0.067 C 
ATOM      3  C   UNL     1       2.570  -0.236   1.110  1.00  0.00     0.032 C 
ATOM      4  C   UNL     1       1.193   0.354   1.408  1.00  0.00     0.020 C 
ATOM      5  C   UNL     1       0.283   0.245   0.180  1.00  0.00     0.089 C 
ATOM      6  C   UNL     1       0.816   1.152  -0.950  1.00  0.00     0.272 C 
ATOM      7  N   UNL     1       0.138   0.841  -2.182  1.00  0.00    -0.248 N 
ATOM      8  C   UNL     1       0.890   0.285  -3.050  1.00  0.00     0.272 C 
ATOM      9  C   UNL     1       2.286   0.101  -2.581  1.00  0.00     0.113 C 
ATOM     10  C   UNL     1       2.313   0.919  -1.278  1.00  0.00     0.093 C 
ATOM     11  H   UNL     1      -0.866   1.012  -2.341  1.00  0.00     0.445 HD
ENDROOT
BRANCH   5  12
ATOM     12  C   UNL     1      -1.156   0.587   0.531  1.00  0.00    -0.035 A 
ATOM     13  C   UNL     1      -2.179  -0.343   0.281  1.00  0.00     0.005 A 
ATOM     14  C   UNL     1      -1.494   1.837   1.083  1.00  0.00     0.043 A 
ATOM     15  C   UNL     1      -3.507  -0.037   0.586  1.00  0.00     0.007 A 
ATOM     16  C   UNL     1      -2.824   2.144   1.388  1.00  0.00     0.126 A 
ATOM     17  C   UNL     1      -3.838   1.202   1.153  1.00  0.00    -0.015 A 
ATOM     18  F   UNL     1      -3.122   3.361   1.911  1.00  0.00    -0.207 F 
ATOM     19  C   UNL     1      -5.269   1.541   1.454  1.00  0.00     0.047 C 
ENDBRANCH   5  12
TORSDOF 1


