MODEL 1
REMARK VINA RESULT:      -9.5      0.000      0.000
REMARK SMILES C=Cc1ccc(-c2c[nH+]c3oc[nH+]c3c2C)c(Cl)c1F
REMARK SMILES IDX 3 1 4 2 5 3 6 4 17 5 18 6 19 7 20 8 2 9 1 10 7 11 8 12 15 13
REMARK SMILES IDX 9 14 14 15 10 16 13 17 11 18 12 19 16 20
REMARK H PARENT 9 21 13 22
ROOT
ATOM      1  C   UNL     1      45.249 131.013  15.605  1.00  0.00     0.011 A 
ATOM      2  C   UNL     1      46.081 130.688  16.686  1.00  0.00     0.012 A 
ATOM      3  C   UNL     1      45.630 130.834  17.998  1.00  0.00     0.011 A 
ATOM      4  C   UNL     1      44.342 131.319  18.258  1.00  0.00     0.010 A 
ATOM      5  C   UNL     1      43.506 131.674  17.182  1.00  0.00     0.085 A 
ATOM      6  Cl  UNL     1      41.875 132.281  17.458  1.00  0.00    -0.080 Cl
ATOM      7  C   UNL     1      43.960 131.527  15.861  1.00  0.00     0.149 A 
ATOM      8  F   UNL     1      43.159 131.933  14.843  1.00  0.00    -0.205 F 
ENDROOT
BRANCH   1   9
ATOM      9  C   UNL     1      45.781 130.840  14.233  1.00  0.00     0.003 C 
ATOM     10  C   UNL     1      47.074 130.944  13.928  1.00  0.00     0.009 C 
ENDBRANCH   1   9
BRANCH   4  11
ATOM     11  C   UNL     1      43.899 131.470  19.660  1.00  0.00     0.057 A 
ATOM     12  C   UNL     1      42.687 132.164  19.926  1.00  0.00     0.319 A 
ATOM     13  C   UNL     1      44.668 130.964  20.747  1.00  0.00     0.046 A 
ATOM     14  N   UNL     1      42.260 132.364  21.209  1.00  0.00    -0.173 N 
ATOM     15  C   UNL     1      44.181 131.225  22.032  1.00  0.00     0.323 A 
ATOM     16  C   UNL     1      43.018 131.897  22.229  1.00  0.00     0.450 A 
ATOM     17  N   UNL     1      44.699 130.908  23.229  1.00  0.00    -0.170 N 
ATOM     18  O   UNL     1      42.783 132.011  23.511  1.00  0.00    -0.349 OA
ATOM     19  C   UNL     1      43.800 131.412  24.112  1.00  0.00     0.526 A 
ATOM     20  C   UNL     1      45.966 130.226  20.544  1.00  0.00     0.053 C 
ATOM     21  H   UNL     1      41.372 132.879  21.400  1.00  0.00     0.457 HD
ATOM     22  H   UNL     1      45.585 130.401  23.447  1.00  0.00     0.457 HD
ENDBRANCH   4  11
TORSDOF 2
ENDMDL
MODEL 2
REMARK VINA RESULT:      -9.1      4.016      6.765
REMARK SMILES C=Cc1ccc(-c2c[nH+]c3oc[nH+]c3c2C)c(Cl)c1F
REMARK SMILES IDX 3 1 4 2 5 3 6 4 17 5 18 6 19 7 20 8 2 9 1 10 7 11 8 12 15 13
REMARK SMILES IDX 9 14 14 15 10 16 13 17 11 18 12 19 16 20
REMARK H PARENT 9 21 13 22
ROOT
ATOM      1  C   UNL     1      43.508 131.672  20.249  1.00  0.00     0.011 A 
ATOM      2  C   UNL     1      44.773 131.069  20.276  1.00  0.00     0.012 A 
ATOM      3  C   UNL     1      45.421 130.722  19.091  1.00  0.00     0.011 A 
ATOM      4  C   UNL     1      44.812 130.959  17.852  1.00  0.00     0.010 A 
ATOM      5  C   UNL     1      43.530 131.541  17.811  1.00  0.00     0.085 A 
ATOM      6  Cl  UNL     1      42.727 131.867  16.277  1.00  0.00    -0.080 Cl
ATOM      7  C   UNL     1      42.879 131.890  19.005  1.00  0.00     0.149 A 
ATOM      8  F   UNL     1      41.619 132.392  18.943  1.00  0.00    -0.205 F 
ENDROOT
BRANCH   1   9
ATOM      9  C   UNL     1      42.867 132.017  21.539  1.00  0.00     0.003 C 
ATOM     10  C   UNL     1      43.392 131.713  22.725  1.00  0.00     0.009 C 
ENDBRANCH   1   9
BRANCH   4  11
ATOM     11  C   UNL     1      45.522 130.572  16.614  1.00  0.00     0.057 A 
ATOM     12  C   UNL     1      45.691 129.191  16.323  1.00  0.00     0.319 A 
ATOM     13  C   UNL     1      46.062 131.545  15.726  1.00  0.00     0.046 A 
ATOM     14  N   UNL     1      46.376 128.786  15.212  1.00  0.00    -0.173 N 
ATOM     15  C   UNL     1      46.770 131.058  14.622  1.00  0.00     0.323 A 
ATOM     16  C   UNL     1      46.904 129.727  14.394  1.00  0.00     0.450 A 
ATOM     17  N   UNL     1      47.409 131.725  13.647  1.00  0.00    -0.170 N 
ATOM     18  O   UNL     1      47.603 129.532  13.305  1.00  0.00    -0.349 OA
ATOM     19  C   UNL     1      47.907 130.740  12.857  1.00  0.00     0.526 A 
ATOM     20  C   UNL     1      45.930 133.025  15.971  1.00  0.00     0.053 C 
ATOM     21  H   UNL     1      46.503 127.771  15.005  1.00  0.00     0.457 HD
ATOM     22  H   UNL     1      47.514 132.755  13.517  1.00  0.00     0.457 HD
ENDBRANCH   4  11
TORSDOF 2
ENDMDL
MODEL 3
REMARK VINA RESULT:      -8.9      1.996      2.632
REMARK SMILES C=Cc1ccc(-c2c[nH+]c3oc[nH+]c3c2C)c(Cl)c1F
REMARK SMILES IDX 3 1 4 2 5 3 6 4 17 5 18 6 19 7 20 8 2 9 1 10 7 11 8 12 15 13
REMARK SMILES IDX 9 14 14 15 10 16 13 17 11 18 12 19 16 20
REMARK H PARENT 9 21 13 22
ROOT
ATOM      1  C   UNL     1      46.851 130.993  14.312  1.00  0.00     0.011 A 
ATOM      2  C   UNL     1      46.600 132.274  14.825  1.00  0.00     0.012 A 
ATOM      3  C   UNL     1      45.779 132.445  15.940  1.00  0.00     0.011 A 
ATOM      4  C   UNL     1      45.181 131.340  16.558  1.00  0.00     0.010 A 
ATOM      5  C   UNL     1      45.404 130.050  16.038  1.00  0.00     0.085 A 
ATOM      6  Cl  UNL     1      44.680 128.629  16.787  1.00  0.00    -0.080 Cl
ATOM      7  C   UNL     1      46.230 129.879  14.916  1.00  0.00     0.149 A 
ATOM      8  F   UNL     1      46.381 128.634  14.396  1.00  0.00    -0.205 F 
ENDROOT
BRANCH   1   9
ATOM      9  C   UNL     1      47.729 130.871  13.125  1.00  0.00     0.003 C 
ATOM     10  C   UNL     1      48.623 129.895  12.970  1.00  0.00     0.009 C 
ENDBRANCH   1   9
BRANCH   4  11
ATOM     11  C   UNL     1      44.309 131.556  17.733  1.00  0.00     0.057 A 
ATOM     12  C   UNL     1      42.982 132.020  17.526  1.00  0.00     0.319 A 
ATOM     13  C   UNL     1      44.776 131.339  19.061  1.00  0.00     0.046 A 
ATOM     14  N   UNL     1      42.154 132.274  18.584  1.00  0.00    -0.173 N 
ATOM     15  C   UNL     1      43.882 131.641  20.094  1.00  0.00     0.323 A 
ATOM     16  C   UNL     1      42.626 132.085  19.840  1.00  0.00     0.450 A 
ATOM     17  N   UNL     1      44.049 131.571  21.424  1.00  0.00    -0.170 N 
ATOM     18  O   UNL     1      41.992 132.294  20.965  1.00  0.00    -0.349 OA
ATOM     19  C   UNL     1      42.855 131.982  21.921  1.00  0.00     0.526 A 
ATOM     20  C   UNL     1      46.171 130.857  19.359  1.00  0.00     0.053 C 
ATOM     21  H   UNL     1      41.182 132.620  18.428  1.00  0.00     0.457 HD
ATOM     22  H   UNL     1      44.893 131.278  21.965  1.00  0.00     0.457 HD
ENDBRANCH   4  11
TORSDOF 2
ENDMDL
MODEL 4
REMARK VINA RESULT:      -8.8      3.981      6.587
REMARK SMILES C=Cc1ccc(-c2c[nH+]c3oc[nH+]c3c2C)c(Cl)c1F
REMARK SMILES IDX 3 1 4 2 5 3 6 4 17 5 18 6 19 7 20 8 2 9 1 10 7 11 8 12 15 13
REMARK SMILES IDX 9 14 14 15 10 16 13 17 11 18 12 19 16 20
REMARK H PARENT 9 21 13 22
ROOT
ATOM      1  C   UNL     1      43.264 131.884  20.191  1.00  0.00     0.011 A 
ATOM      2  C   UNL     1      44.647 131.664  20.258  1.00  0.00     0.012 A 
ATOM      3  C   UNL     1      45.403 131.533  19.093  1.00  0.00     0.011 A 
ATOM      4  C   UNL     1      44.790 131.606  17.836  1.00  0.00     0.010 A 
ATOM      5  C   UNL     1      43.397 131.801  17.755  1.00  0.00     0.085 A 
ATOM      6  Cl  UNL     1      42.583 131.909  16.196  1.00  0.00    -0.080 Cl
ATOM      7  C   UNL     1      42.637 131.933  18.928  1.00  0.00     0.149 A 
ATOM      8  F   UNL     1      41.290 132.058  18.826  1.00  0.00    -0.205 F 
ENDROOT
BRANCH   1   9
ATOM      9  C   UNL     1      42.511 132.013  21.461  1.00  0.00     0.003 C 
ATOM     10  C   UNL     1      42.962 131.563  22.631  1.00  0.00     0.009 C 
ENDBRANCH   1   9
BRANCH   4  11
ATOM     11  C   UNL     1      45.618 131.454  16.621  1.00  0.00     0.057 A 
ATOM     12  C   UNL     1      45.858 132.595  15.806  1.00  0.00     0.319 A 
ATOM     13  C   UNL     1      46.155 130.193  16.234  1.00  0.00     0.046 A 
ATOM     14  N   UNL     1      46.583 132.492  14.652  1.00  0.00    -0.173 N 
ATOM     15  C   UNL     1      46.866 130.160  15.030  1.00  0.00     0.323 A 
ATOM     16  C   UNL     1      47.063 131.280  14.289  1.00  0.00     0.450 A 
ATOM     17  N   UNL     1      47.449 129.125  14.403  1.00  0.00    -0.170 N 
ATOM     18  O   UNL     1      47.753 130.987  13.217  1.00  0.00    -0.349 OA
ATOM     19  C   UNL     1      47.986 129.685  13.289  1.00  0.00     0.526 A 
ATOM     20  C   UNL     1      45.936 128.940  17.041  1.00  0.00     0.053 C 
ATOM     21  H   UNL     1      46.752 133.331  14.054  1.00  0.00     0.457 HD
ATOM     22  H   UNL     1      47.485 128.122  14.688  1.00  0.00     0.457 HD
ENDBRANCH   4  11
TORSDOF 2
ENDMDL
MODEL 5
REMARK VINA RESULT:      -8.7      1.112      1.295
REMARK SMILES C=Cc1ccc(-c2c[nH+]c3oc[nH+]c3c2C)c(Cl)c1F
REMARK SMILES IDX 3 1 4 2 5 3 6 4 17 5 18 6 19 7 20 8 2 9 1 10 7 11 8 12 15 13
REMARK SMILES IDX 9 14 14 15 10 16 13 17 11 18 12 19 16 20
REMARK H PARENT 9 21 13 22
ROOT
ATOM      1  C   UNL     1      46.343 130.361  15.053  1.00  0.00     0.011 A 
ATOM      2  C   UNL     1      46.876 130.044  16.310  1.00  0.00     0.012 A 
ATOM      3  C   UNL     1      46.172 130.342  17.477  1.00  0.00     0.011 A 
ATOM      4  C   UNL     1      44.925 130.976  17.412  1.00  0.00     0.010 A 
ATOM      5  C   UNL     1      44.389 131.324  16.157  1.00  0.00     0.085 A 
ATOM      6  Cl  UNL     1      42.820 132.114  16.024  1.00  0.00    -0.080 Cl
ATOM      7  C   UNL     1      45.099 131.023  14.983  1.00  0.00     0.149 A 
ATOM      8  F   UNL     1      44.591 131.422  13.789  1.00  0.00    -0.205 F 
ENDROOT
BRANCH   1   9
ATOM      9  C   UNL     1      47.136 130.023  13.848  1.00  0.00     0.003 C 
ATOM     10  C   UNL     1      47.626 130.936  13.012  1.00  0.00     0.009 C 
ENDBRANCH   1   9
BRANCH   4  11
ATOM     11  C   UNL     1      44.208 131.287  18.668  1.00  0.00     0.057 A 
ATOM     12  C   UNL     1      42.920 131.884  18.593  1.00  0.00     0.319 A 
ATOM     13  C   UNL     1      44.787 131.029  19.943  1.00  0.00     0.046 A 
ATOM     14  N   UNL     1      42.239 132.226  19.728  1.00  0.00    -0.173 N 
ATOM     15  C   UNL     1      44.043 131.426  21.059  1.00  0.00     0.323 A 
ATOM     16  C   UNL     1      42.818 131.996  20.930  1.00  0.00     0.450 A 
ATOM     17  N   UNL     1      44.341 131.345  22.365  1.00  0.00    -0.170 N 
ATOM     18  O   UNL     1      42.332 132.274  22.113  1.00  0.00    -0.349 OA
ATOM     19  C   UNL     1      43.254 131.878  22.977  1.00  0.00     0.526 A 
ATOM     20  C   UNL     1      46.150 130.406  20.101  1.00  0.00     0.053 C 
ATOM     21  H   UNL     1      41.296 132.670  19.669  1.00  0.00     0.457 HD
ATOM     22  H   UNL     1      45.203 130.969  22.819  1.00  0.00     0.457 HD
ENDBRANCH   4  11
TORSDOF 2
ENDMDL
MODEL 6
REMARK VINA RESULT:      -8.6      4.292      6.981
REMARK SMILES C=Cc1ccc(-c2c[nH+]c3oc[nH+]c3c2C)c(Cl)c1F
REMARK SMILES IDX 3 1 4 2 5 3 6 4 17 5 18 6 19 7 20 8 2 9 1 10 7 11 8 12 15 13
REMARK SMILES IDX 9 14 14 15 10 16 13 17 11 18 12 19 16 20
REMARK H PARENT 9 21 13 22
ROOT
ATOM      1  C   UNL     1      42.997 132.012  20.074  1.00  0.00     0.011 A 
ATOM      2  C   UNL     1      42.429 132.028  18.792  1.00  0.00     0.012 A 
ATOM      3  C   UNL     1      43.155 131.581  17.687  1.00  0.00     0.011 A 
ATOM      4  C   UNL     1      44.469 131.120  17.839  1.00  0.00     0.010 A 
ATOM      5  C   UNL     1      45.060 131.122  19.117  1.00  0.00     0.085 A 
ATOM      6  Cl  UNL     1      46.707 130.544  19.359  1.00  0.00    -0.080 Cl
ATOM      7  C   UNL     1      44.329 131.573  20.228  1.00  0.00     0.149 A 
ATOM      8  F   UNL     1      44.940 131.623  21.439  1.00  0.00    -0.205 F 
ENDROOT
BRANCH   1   9
ATOM      9  C   UNL     1      42.181 132.500  21.209  1.00  0.00     0.003 C 
ATOM     10  C   UNL     1      42.278 132.013  22.446  1.00  0.00     0.009 C 
ENDBRANCH   1   9
BRANCH   4  11
ATOM     11  C   UNL     1      45.214 130.662  16.647  1.00  0.00     0.057 A 
ATOM     12  C   UNL     1      45.308 129.267  16.390  1.00  0.00     0.319 A 
ATOM     13  C   UNL     1      45.860 131.579  15.770  1.00  0.00     0.046 A 
ATOM     14  N   UNL     1      46.021 128.796  15.324  1.00  0.00    -0.173 N 
ATOM     15  C   UNL     1      46.590 131.025  14.713  1.00  0.00     0.323 A 
ATOM     16  C   UNL     1      46.649 129.684  14.517  1.00  0.00     0.450 A 
ATOM     17  N   UNL     1      47.319 131.629  13.761  1.00  0.00    -0.170 N 
ATOM     18  O   UNL     1      47.389 129.421  13.470  1.00  0.00    -0.349 OA
ATOM     19  C   UNL     1      47.791 130.598  13.016  1.00  0.00     0.526 A 
ATOM     20  C   UNL     1      45.812 133.070  15.981  1.00  0.00     0.053 C 
ATOM     21  H   UNL     1      46.093 127.770  15.142  1.00  0.00     0.457 HD
ATOM     22  H   UNL     1      47.497 132.647  13.618  1.00  0.00     0.457 HD
ENDBRANCH   4  11
TORSDOF 2
ENDMDL
MODEL 7
REMARK VINA RESULT:      -8.2      1.724      2.346
REMARK SMILES C=Cc1ccc(-c2c[nH+]c3oc[nH+]c3c2C)c(Cl)c1F
REMARK SMILES IDX 3 1 4 2 5 3 6 4 17 5 18 6 19 7 20 8 2 9 1 10 7 11 8 12 15 13
REMARK SMILES IDX 9 14 14 15 10 16 13 17 11 18 12 19 16 20
REMARK H PARENT 9 21 13 22
ROOT
ATOM      1  C   UNL     1      46.769 129.869  14.691  1.00  0.00     0.011 A 
ATOM      2  C   UNL     1      47.017 129.603  16.045  1.00  0.00     0.012 A 
ATOM      3  C   UNL     1      46.145 130.064  17.032  1.00  0.00     0.011 A 
ATOM      4  C   UNL     1      45.013 130.813  16.686  1.00  0.00     0.010 A 
ATOM      5  C   UNL     1      44.766 131.110  15.332  1.00  0.00     0.085 A 
ATOM      6  Cl  UNL     1      43.350 132.041  14.848  1.00  0.00    -0.080 Cl
ATOM      7  C   UNL     1      45.644 130.645  14.340  1.00  0.00     0.149 A 
ATOM      8  F   UNL     1      45.419 130.996  13.048  1.00  0.00    -0.205 F 
ENDROOT
BRANCH   1   9
ATOM      9  C   UNL     1      47.730 129.356  13.687  1.00  0.00     0.003 C 
ATOM     10  C   UNL     1      48.980 129.802  13.573  1.00  0.00     0.009 C 
ENDBRANCH   1   9
BRANCH   4  11
ATOM     11  C   UNL     1      44.114 131.295  17.757  1.00  0.00     0.057 A 
ATOM     12  C   UNL     1      42.877 131.896  17.396  1.00  0.00     0.319 A 
ATOM     13  C   UNL     1      44.469 131.197  19.133  1.00  0.00     0.046 A 
ATOM     14  N   UNL     1      42.034 132.393  18.350  1.00  0.00    -0.173 N 
ATOM     15  C   UNL     1      43.568 131.747  20.051  1.00  0.00     0.323 A 
ATOM     16  C   UNL     1      42.402 132.313  19.650  1.00  0.00     0.450 A 
ATOM     17  N   UNL     1      43.648 131.833  21.388  1.00  0.00    -0.170 N 
ATOM     18  O   UNL     1      41.740 132.749  20.691  1.00  0.00    -0.349 OA
ATOM     19  C   UNL     1      42.495 132.457  21.740  1.00  0.00     0.526 A 
ATOM     20  C   UNL     1      45.765 130.582  19.591  1.00  0.00     0.053 C 
ATOM     21  H   UNL     1      41.129 132.838  18.080  1.00  0.00     0.457 HD
ATOM     22  H   UNL     1      44.410 131.507  22.022  1.00  0.00     0.457 HD
ENDBRANCH   4  11
TORSDOF 2
ENDMDL
MODEL 8
REMARK VINA RESULT:      -8.2      2.041      2.685
REMARK SMILES C=Cc1ccc(-c2c[nH+]c3oc[nH+]c3c2C)c(Cl)c1F
REMARK SMILES IDX 3 1 4 2 5 3 6 4 17 5 18 6 19 7 20 8 2 9 1 10 7 11 8 12 15 13
REMARK SMILES IDX 9 14 14 15 10 16 13 17 11 18 12 19 16 20
REMARK H PARENT 9 21 13 22
ROOT
ATOM      1  C   UNL     1      46.814 129.837  14.479  1.00  0.00     0.011 A 
ATOM      2  C   UNL     1      46.082 128.935  15.264  1.00  0.00     0.012 A 
ATOM      3  C   UNL     1      45.254 129.394  16.289  1.00  0.00     0.011 A 
ATOM      4  C   UNL     1      45.151 130.765  16.559  1.00  0.00     0.010 A 
ATOM      5  C   UNL     1      45.901 131.680  15.795  1.00  0.00     0.085 A 
ATOM      6  Cl  UNL     1      45.797 133.414  16.092  1.00  0.00    -0.080 Cl
ATOM      7  C   UNL     1      46.733 131.217  14.764  1.00  0.00     0.149 A 
ATOM      8  F   UNL     1      47.493 132.112  14.082  1.00  0.00    -0.205 F 
ENDROOT
BRANCH   1   9
ATOM      9  C   UNL     1      47.678 129.293  13.406  1.00  0.00     0.003 C 
ATOM     10  C   UNL     1      49.007 129.384  13.416  1.00  0.00     0.009 C 
ENDBRANCH   1   9
BRANCH   4  11
ATOM     11  C   UNL     1      44.271 131.218  17.658  1.00  0.00     0.057 A 
ATOM     12  C   UNL     1      43.019 131.808  17.337  1.00  0.00     0.319 A 
ATOM     13  C   UNL     1      44.661 131.103  19.024  1.00  0.00     0.046 A 
ATOM     14  N   UNL     1      42.193 132.279  18.318  1.00  0.00    -0.173 N 
ATOM     15  C   UNL     1      43.776 131.627  19.971  1.00  0.00     0.323 A 
ATOM     16  C   UNL     1      42.593 132.184  19.608  1.00  0.00     0.450 A 
ATOM     17  N   UNL     1      43.886 131.693  21.308  1.00  0.00    -0.170 N 
ATOM     18  O   UNL     1      41.951 132.595  20.672  1.00  0.00    -0.349 OA
ATOM     19  C   UNL     1      42.735 132.297  21.697  1.00  0.00     0.526 A 
ATOM     20  C   UNL     1      45.975 130.498  19.441  1.00  0.00     0.053 C 
ATOM     21  H   UNL     1      41.276 132.717  18.078  1.00  0.00     0.457 HD
ATOM     22  H   UNL     1      44.668 131.368  21.918  1.00  0.00     0.457 HD
ENDBRANCH   4  11
TORSDOF 2
ENDMDL
MODEL 9
REMARK VINA RESULT:      -8.0      1.920      2.721
REMARK SMILES C=Cc1ccc(-c2c[nH+]c3oc[nH+]c3c2C)c(Cl)c1F
REMARK SMILES IDX 3 1 4 2 5 3 6 4 17 5 18 6 19 7 20 8 2 9 1 10 7 11 8 12 15 13
REMARK SMILES IDX 9 14 14 15 10 16 13 17 11 18 12 19 16 20
REMARK H PARENT 9 21 13 22
ROOT
ATOM      1  C   UNL     1      46.162 131.100  14.769  1.00  0.00     0.011 A 
ATOM      2  C   UNL     1      45.904 132.349  15.353  1.00  0.00     0.012 A 
ATOM      3  C   UNL     1      45.550 132.444  16.699  1.00  0.00     0.011 A 
ATOM      4  C   UNL     1      45.432 131.292  17.487  1.00  0.00     0.010 A 
ATOM      5  C   UNL     1      45.663 130.030  16.906  1.00  0.00     0.085 A 
ATOM      6  Cl  UNL     1      45.536 128.553  17.859  1.00  0.00    -0.080 Cl
ATOM      7  C   UNL     1      46.020 129.935  15.552  1.00  0.00     0.149 A 
ATOM      8  F   UNL     1      46.177 128.705  14.999  1.00  0.00    -0.205 F 
ENDROOT
BRANCH   1   9
ATOM      9  C   UNL     1      46.533 131.059  13.336  1.00  0.00     0.003 C 
ATOM     10  C   UNL     1      47.786 131.170  12.898  1.00  0.00     0.009 C 
ENDBRANCH   1   9
BRANCH   4  11
ATOM     11  C   UNL     1      45.046 131.427  18.908  1.00  0.00     0.057 A 
ATOM     12  C   UNL     1      46.033 131.221  19.910  1.00  0.00     0.319 A 
ATOM     13  C   UNL     1      43.709 131.729  19.294  1.00  0.00     0.046 A 
ATOM     14  N   UNL     1      45.711 131.294  21.237  1.00  0.00    -0.173 N 
ATOM     15  C   UNL     1      43.449 131.766  20.668  1.00  0.00     0.323 A 
ATOM     16  C   UNL     1      44.429 131.557  21.583  1.00  0.00     0.450 A 
ATOM     17  N   UNL     1      42.296 131.987  21.320  1.00  0.00    -0.170 N 
ATOM     18  O   UNL     1      43.934 131.644  22.791  1.00  0.00    -0.349 OA
ATOM     19  C   UNL     1      42.646 131.904  22.628  1.00  0.00     0.526 A 
ATOM     20  C   UNL     1      42.608 131.952  18.290  1.00  0.00     0.053 C 
ATOM     21  H   UNL     1      46.437 131.136  21.970  1.00  0.00     0.457 HD
ATOM     22  H   UNL     1      41.347 132.174  20.929  1.00  0.00     0.457 HD
ENDBRANCH   4  11
TORSDOF 2
ENDMDL


