MODEL 1
REMARK VINA RESULT:      -6.7      0.000      0.000
REMARK SMILES Cc1ccc(-c2ccc([NH2+]c3cc4cc5ccccc5cc4[n-]3)c(C=O)c2)cc1
REMARK SMILES IDX 6 1 7 2 8 3 9 4 24 5 27 6 5 7 2 8 3 9 29 10 4 11 28 12 1 13
REMARK SMILES IDX 25 14 26 15 10 16 11 19 12 20 23 21 13 22 22 23 14 24 21 25
REMARK SMILES IDX 15 26 20 27 16 28 19 29 17 30 18 31
REMARK H PARENT 10 17 10 18
ROOT
ATOM      1  C   UNL     1      42.128 127.915  23.381  1.00  0.00    -0.017 A 
ATOM      2  C   UNL     1      43.416 127.583  22.943  1.00  0.00     0.015 A 
ATOM      3  C   UNL     1      44.340 128.579  22.642  1.00  0.00     0.069 A 
ATOM      4  C   UNL     1      44.010 129.942  22.769  1.00  0.00     0.143 A 
ATOM      5  C   UNL     1      42.693 130.293  23.189  1.00  0.00     0.076 A 
ATOM      6  C   UNL     1      41.780 129.269  23.501  1.00  0.00     0.026 A 
ENDROOT
BRANCH   1   7
ATOM      7  C   UNL     1      41.146 126.850  23.705  1.00  0.00    -0.018 A 
ATOM      8  C   UNL     1      39.283 124.827  24.334  1.00  0.00    -0.051 A 
ATOM      9  C   UNL     1      40.568 124.491  23.884  1.00  0.00     0.004 A 
ATOM     10  C   UNL     1      38.925 126.177  24.446  1.00  0.00     0.004 A 
ATOM     11  C   UNL     1      41.494 125.493  23.578  1.00  0.00     0.009 A 
ATOM     12  C   UNL     1      39.850 127.181  24.141  1.00  0.00     0.009 A 
ATOM     13  C   UNL     1      38.279 123.751  24.625  1.00  0.00     0.044 C 
ENDBRANCH   1   7
BRANCH   5  14
ATOM     14  C   UNL     1      42.204 131.688  23.327  1.00  0.00     0.266 C 
ATOM     15  O   UNL     1      41.005 131.963  23.588  1.00  0.00    -0.298 OA
ENDBRANCH   5  14
BRANCH   4  16
ATOM     16  N   UNL     1      45.021 130.929  22.459  1.00  0.00    -0.299 N 
ATOM     17  H   UNL     1      44.732 131.872  22.805  1.00  0.00     0.356 HD
ATOM     18  H   UNL     1      45.915 130.701  22.952  1.00  0.00     0.356 HD
BRANCH  16  19
ATOM     19  C   UNL     1      45.294 130.950  21.047  1.00  0.00     0.036 A 
ATOM     20  C   UNL     1      45.911 129.913  20.352  1.00  0.00     0.050 A 
ATOM     21  N   UNL     1      44.861 131.935  20.220  1.00  0.00    -0.610 NA
ATOM     22  C   UNL     1      45.878 130.313  19.040  1.00  0.00    -0.036 A 
ATOM     23  C   UNL     1      45.243 131.527  18.996  1.00  0.00    -0.124 A 
ATOM     24  C   UNL     1      46.352 129.682  17.894  1.00  0.00     0.015 A 
ATOM     25  C   UNL     1      45.036 132.202  17.795  1.00  0.00    -0.007 A 
ATOM     26  C   UNL     1      46.166 130.335  16.656  1.00  0.00    -0.018 A 
ATOM     27  C   UNL     1      45.504 131.601  16.606  1.00  0.00    -0.020 A 
ATOM     28  C   UNL     1      46.624 129.748  15.467  1.00  0.00     0.009 A 
ATOM     29  C   UNL     1      45.325 132.238  15.370  1.00  0.00     0.008 A 
ATOM     30  C   UNL     1      46.436 130.398  14.245  1.00  0.00     0.001 A 
ATOM     31  C   UNL     1      45.789 131.637  14.196  1.00  0.00     0.001 A 
ENDBRANCH  16  19
ENDBRANCH   4  16
TORSDOF 4
ENDMDL


