MODEL 1
REMARK VINA RESULT:      -9.2      0.000      0.000
REMARK SMILES O=Cc1c(NC2CC(=O)C2)ccc2cc3ccccc3cc12
REMARK SMILES IDX 3 1 4 2 11 3 12 4 13 5 14 6 15 7 16 8 17 9 18 10 19 11 20 12
REMARK SMILES IDX 21 13 22 14 2 15 1 16 5 17 6 19 7 20 10 21 8 22 9 23
REMARK H PARENT 5 18
ROOT
ATOM      1  C   UNL     1      43.441 131.707  19.843  1.00  0.00     0.045 A 
ATOM      2  C   UNL     1      43.981 131.430  21.126  1.00  0.00     0.046 A 
ATOM      3  C   UNL     1      45.238 130.831  21.244  1.00  0.00     0.027 A 
ATOM      4  C   UNL     1      45.995 130.539  20.116  1.00  0.00     0.011 A 
ATOM      5  C   UNL     1      45.503 130.824  18.838  1.00  0.00    -0.017 A 
ATOM      6  C   UNL     1      46.285 130.520  17.713  1.00  0.00     0.017 A 
ATOM      7  C   UNL     1      45.804 130.768  16.425  1.00  0.00    -0.018 A 
ATOM      8  C   UNL     1      46.586 130.464  15.298  1.00  0.00     0.009 A 
ATOM      9  C   UNL     1      46.093 130.706  14.014  1.00  0.00     0.001 A 
ATOM     10  C   UNL     1      44.818 131.253  13.843  1.00  0.00     0.001 A 
ATOM     11  C   UNL     1      44.030 131.559  14.956  1.00  0.00     0.009 A 
ATOM     12  C   UNL     1      44.515 131.322  16.253  1.00  0.00    -0.018 A 
ATOM     13  C   UNL     1      43.731 131.629  17.375  1.00  0.00     0.018 A 
ATOM     14  C   UNL     1      44.215 131.402  18.684  1.00  0.00    -0.005 A 
ENDROOT
BRANCH   1  15
ATOM     15  C   UNL     1      42.077 132.282  19.726  1.00  0.00     0.262 C 
ATOM     16  O   UNL     1      41.775 133.351  20.319  1.00  0.00    -0.298 OA
ENDBRANCH   1  15
BRANCH   2  17
ATOM     17  N   UNL     1      43.281 131.779  22.328  1.00  0.00    -0.381 N 
ATOM     18  H   UNL     1      42.434 132.386  22.232  1.00  0.00     0.160 HD
BRANCH  17  19
ATOM     19  C   UNL     1      43.398 130.940  23.525  1.00  0.00     0.094 C 
ATOM     20  C   UNL     1      42.166 130.977  24.380  1.00  0.00     0.100 C 
ATOM     21  C   UNL     1      43.071 129.503  23.252  1.00  0.00     0.100 C 
ATOM     22  C   UNL     1      41.820 129.523  24.112  1.00  0.00     0.137 C 
ATOM     23  O   UNL     1      40.946 128.737  24.438  1.00  0.00    -0.300 OA
ENDBRANCH  17  19
ENDBRANCH   2  17
TORSDOF 3
ENDMDL
MODEL 2
REMARK VINA RESULT:      -8.8      1.608      2.625
REMARK SMILES O=Cc1c(NC2CC(=O)C2)ccc2cc3ccccc3cc12
REMARK SMILES IDX 3 1 4 2 11 3 12 4 13 5 14 6 15 7 16 8 17 9 18 10 19 11 20 12
REMARK SMILES IDX 21 13 22 14 2 15 1 16 5 17 6 19 7 20 10 21 8 22 9 23
REMARK H PARENT 5 18
ROOT
ATOM      1  C   UNL     1      44.709 131.584  20.148  1.00  0.00     0.045 A 
ATOM      2  C   UNL     1      43.559 131.906  20.915  1.00  0.00     0.046 A 
ATOM      3  C   UNL     1      42.347 132.187  20.279  1.00  0.00     0.027 A 
ATOM      4  C   UNL     1      42.236 132.112  18.896  1.00  0.00     0.011 A 
ATOM      5  C   UNL     1      43.344 131.770  18.113  1.00  0.00    -0.017 A 
ATOM      6  C   UNL     1      43.209 131.701  16.718  1.00  0.00     0.017 A 
ATOM      7  C   UNL     1      44.308 131.390  15.912  1.00  0.00    -0.018 A 
ATOM      8  C   UNL     1      44.173 131.321  14.515  1.00  0.00     0.009 A 
ATOM      9  C   UNL     1      45.279 131.020  13.717  1.00  0.00     0.001 A 
ATOM     10  C   UNL     1      46.525 130.785  14.303  1.00  0.00     0.001 A 
ATOM     11  C   UNL     1      46.672 130.852  15.692  1.00  0.00     0.009 A 
ATOM     12  C   UNL     1      45.567 131.152  16.506  1.00  0.00    -0.018 A 
ATOM     13  C   UNL     1      45.706 131.219  17.900  1.00  0.00     0.018 A 
ATOM     14  C   UNL     1      44.598 131.511  18.728  1.00  0.00    -0.005 A 
ENDROOT
BRANCH   1  15
ATOM     15  C   UNL     1      46.008 131.352  20.830  1.00  0.00     0.262 C 
ATOM     16  O   UNL     1      46.688 132.318  21.267  1.00  0.00    -0.298 OA
ENDBRANCH   1  15
BRANCH   2  17
ATOM     17  N   UNL     1      43.591 131.924  22.349  1.00  0.00    -0.381 N 
ATOM     18  H   UNL     1      43.720 132.852  22.814  1.00  0.00     0.160 HD
BRANCH  17  19
ATOM     19  C   UNL     1      42.963 130.846  23.120  1.00  0.00     0.094 C 
ATOM     20  C   UNL     1      43.479 129.489  22.744  1.00  0.00     0.100 C 
ATOM     21  C   UNL     1      43.618 130.640  24.453  1.00  0.00     0.100 C 
ATOM     22  C   UNL     1      44.149 129.265  24.088  1.00  0.00     0.137 C 
ATOM     23  O   UNL     1      44.805 128.388  24.625  1.00  0.00    -0.300 OA
ENDBRANCH  17  19
ENDBRANCH   2  17
TORSDOF 3
ENDMDL
MODEL 3
REMARK VINA RESULT:      -8.6      0.877      1.035
REMARK SMILES O=Cc1c(NC2CC(=O)C2)ccc2cc3ccccc3cc12
REMARK SMILES IDX 3 1 4 2 11 3 12 4 13 5 14 6 15 7 16 8 17 9 18 10 19 11 20 12
REMARK SMILES IDX 21 13 22 14 2 15 1 16 5 17 6 19 7 20 10 21 8 22 9 23
REMARK H PARENT 5 18
ROOT
ATOM      1  C   UNL     1      43.332 131.801  20.063  1.00  0.00     0.045 A 
ATOM      2  C   UNL     1      43.872 131.565  21.354  1.00  0.00     0.046 A 
ATOM      3  C   UNL     1      45.133 130.980  21.491  1.00  0.00     0.027 A 
ATOM      4  C   UNL     1      45.896 130.663  20.373  1.00  0.00     0.011 A 
ATOM      5  C   UNL     1      45.404 130.909  19.087  1.00  0.00    -0.017 A 
ATOM      6  C   UNL     1      46.191 130.581  17.972  1.00  0.00     0.017 A 
ATOM      7  C   UNL     1      45.710 130.789  16.676  1.00  0.00    -0.018 A 
ATOM      8  C   UNL     1      46.498 130.460  15.560  1.00  0.00     0.009 A 
ATOM      9  C   UNL     1      46.005 130.663  14.269  1.00  0.00     0.001 A 
ATOM     10  C   UNL     1      44.727 131.194  14.080  1.00  0.00     0.001 A 
ATOM     11  C   UNL     1      43.934 131.524  15.183  1.00  0.00     0.009 A 
ATOM     12  C   UNL     1      44.418 131.327  16.487  1.00  0.00    -0.018 A 
ATOM     13  C   UNL     1      43.628 131.658  17.599  1.00  0.00     0.018 A 
ATOM     14  C   UNL     1      44.111 131.472  18.915  1.00  0.00    -0.005 A 
ENDROOT
BRANCH   1  15
ATOM     15  C   UNL     1      41.964 132.362  19.928  1.00  0.00     0.262 C 
ATOM     16  O   UNL     1      41.561 133.273  20.698  1.00  0.00    -0.298 OA
ENDBRANCH   1  15
BRANCH   2  17
ATOM     17  N   UNL     1      43.167 131.941  22.545  1.00  0.00    -0.381 N 
ATOM     18  H   UNL     1      42.628 132.837  22.521  1.00  0.00     0.160 HD
BRANCH  17  19
ATOM     19  C   UNL     1      42.776 130.926  23.529  1.00  0.00     0.094 C 
ATOM     20  C   UNL     1      42.415 129.615  22.896  1.00  0.00     0.100 C 
ATOM     21  C   UNL     1      43.957 130.224  24.128  1.00  0.00     0.100 C 
ATOM     22  C   UNL     1      43.608 128.889  23.493  1.00  0.00     0.137 C 
ATOM     23  O   UNL     1      44.068 127.760  23.474  1.00  0.00    -0.300 OA
ENDBRANCH  17  19
ENDBRANCH   2  17
TORSDOF 3
ENDMDL
MODEL 4
REMARK VINA RESULT:      -8.4      1.264      2.365
REMARK SMILES O=Cc1c(NC2CC(=O)C2)ccc2cc3ccccc3cc12
REMARK SMILES IDX 3 1 4 2 11 3 12 4 13 5 14 6 15 7 16 8 17 9 18 10 19 11 20 12
REMARK SMILES IDX 21 13 22 14 2 15 1 16 5 17 6 19 7 20 10 21 8 22 9 23
REMARK H PARENT 5 18
ROOT
ATOM      1  C   UNL     1      44.497 131.529  20.276  1.00  0.00     0.045 A 
ATOM      2  C   UNL     1      43.332 131.920  20.986  1.00  0.00     0.046 A 
ATOM      3  C   UNL     1      42.172 132.270  20.291  1.00  0.00     0.027 A 
ATOM      4  C   UNL     1      42.123 132.197  18.905  1.00  0.00     0.011 A 
ATOM      5  C   UNL     1      43.246 131.788  18.177  1.00  0.00    -0.017 A 
ATOM      6  C   UNL     1      43.175 131.723  16.777  1.00  0.00     0.017 A 
ATOM      7  C   UNL     1      44.291 131.345  16.025  1.00  0.00    -0.018 A 
ATOM      8  C   UNL     1      44.220 131.280  14.623  1.00  0.00     0.009 A 
ATOM      9  C   UNL     1      45.344 130.912  13.880  1.00  0.00     0.001 A 
ATOM     10  C   UNL     1      46.545 130.606  14.526  1.00  0.00     0.001 A 
ATOM     11  C   UNL     1      46.627 130.669  15.920  1.00  0.00     0.009 A 
ATOM     12  C   UNL     1      45.504 131.036  16.680  1.00  0.00    -0.018 A 
ATOM     13  C   UNL     1      45.579 131.099  18.080  1.00  0.00     0.018 A 
ATOM     14  C   UNL     1      44.451 131.458  18.853  1.00  0.00    -0.005 A 
ENDROOT
BRANCH   1  15
ATOM     15  C   UNL     1      45.745 131.223  21.020  1.00  0.00     0.262 C 
ATOM     16  O   UNL     1      46.575 132.131  21.289  1.00  0.00    -0.298 OA
ENDBRANCH   1  15
BRANCH   2  17
ATOM     17  N   UNL     1      43.296 131.941  22.420  1.00  0.00    -0.381 N 
ATOM     18  H   UNL     1      42.711 132.680  22.874  1.00  0.00     0.160 HD
BRANCH  17  19
ATOM     19  C   UNL     1      43.598 130.729  23.189  1.00  0.00     0.094 C 
ATOM     20  C   UNL     1      42.762 130.605  24.427  1.00  0.00     0.100 C 
ATOM     21  C   UNL     1      42.870 129.525  22.670  1.00  0.00     0.100 C 
ATOM     22  C   UNL     1      42.013 129.387  23.916  1.00  0.00     0.137 C 
ATOM     23  O   UNL     1      41.136 128.642  24.320  1.00  0.00    -0.300 OA
ENDBRANCH  17  19
ENDBRANCH   2  17
TORSDOF 3
ENDMDL
MODEL 5
REMARK VINA RESULT:      -6.8      2.670      7.037
REMARK SMILES O=Cc1c(NC2CC(=O)C2)ccc2cc3ccccc3cc12
REMARK SMILES IDX 3 1 4 2 11 3 12 4 13 5 14 6 15 7 16 8 17 9 18 10 19 11 20 12
REMARK SMILES IDX 21 13 22 14 2 15 1 16 5 17 6 19 7 20 10 21 8 22 9 23
REMARK H PARENT 5 18
ROOT
ATOM      1  C   UNL     1      43.561 131.691  18.202  1.00  0.00     0.045 A 
ATOM      2  C   UNL     1      44.584 131.400  17.263  1.00  0.00     0.046 A 
ATOM      3  C   UNL     1      45.808 130.883  17.697  1.00  0.00     0.027 A 
ATOM      4  C   UNL     1      46.026 130.603  19.040  1.00  0.00     0.011 A 
ATOM      5  C   UNL     1      45.027 130.852  19.987  1.00  0.00    -0.017 A 
ATOM      6  C   UNL     1      45.269 130.563  21.339  1.00  0.00     0.017 A 
ATOM      7  C   UNL     1      44.298 130.830  22.308  1.00  0.00    -0.018 A 
ATOM      8  C   UNL     1      44.540 130.540  23.662  1.00  0.00     0.009 A 
ATOM      9  C   UNL     1      43.568 130.820  24.624  1.00  0.00     0.001 A 
ATOM     10  C   UNL     1      42.349 131.390  24.247  1.00  0.00     0.001 A 
ATOM     11  C   UNL     1      42.097 131.683  22.904  1.00  0.00     0.009 A 
ATOM     12  C   UNL     1      43.066 131.405  21.925  1.00  0.00    -0.018 A 
ATOM     13  C   UNL     1      42.819 131.695  20.575  1.00  0.00     0.018 A 
ATOM     14  C   UNL     1      43.784 131.410  19.582  1.00  0.00    -0.005 A 
ENDROOT
BRANCH   1  15
ATOM     15  C   UNL     1      42.289 132.303  17.739  1.00  0.00     0.262 C 
ATOM     16  O   UNL     1      41.520 132.884  18.550  1.00  0.00    -0.298 OA
ENDBRANCH   1  15
BRANCH   2  17
ATOM     17  N   UNL     1      44.392 131.595  15.855  1.00  0.00    -0.381 N 
ATOM     18  H   UNL     1      44.447 132.575  15.494  1.00  0.00     0.160 HD
BRANCH  17  19
ATOM     19  C   UNL     1      44.636 130.497  14.913  1.00  0.00     0.094 C 
ATOM     20  C   UNL     1      45.706 130.819  13.914  1.00  0.00     0.100 C 
ATOM     21  C   UNL     1      45.570 129.464  15.467  1.00  0.00     0.100 C 
ATOM     22  C   UNL     1      46.666 129.779  14.463  1.00  0.00     0.137 C 
ATOM     23  O   UNL     1      47.791 129.379  14.213  1.00  0.00    -0.300 OA
ENDBRANCH  17  19
ENDBRANCH   2  17
TORSDOF 3
ENDMDL
MODEL 6
REMARK VINA RESULT:      -6.3      1.840      3.208
REMARK SMILES O=Cc1c(NC2CC(=O)C2)ccc2cc3ccccc3cc12
REMARK SMILES IDX 3 1 4 2 11 3 12 4 13 5 14 6 15 7 16 8 17 9 18 10 19 11 20 12
REMARK SMILES IDX 21 13 22 14 2 15 1 16 5 17 6 19 7 20 10 21 8 22 9 23
REMARK H PARENT 5 18
ROOT
ATOM      1  C   UNL     1      44.989 130.517  18.550  1.00  0.00     0.045 A 
ATOM      2  C   UNL     1      43.807 131.157  19.004  1.00  0.00     0.046 A 
ATOM      3  C   UNL     1      43.056 131.945  18.128  1.00  0.00     0.027 A 
ATOM      4  C   UNL     1      43.425 132.078  16.795  1.00  0.00     0.011 A 
ATOM      5  C   UNL     1      44.570 131.436  16.310  1.00  0.00    -0.017 A 
ATOM      6  C   UNL     1      44.924 131.584  14.960  1.00  0.00     0.017 A 
ATOM      7  C   UNL     1      46.079 130.978  14.458  1.00  0.00    -0.018 A 
ATOM      8  C   UNL     1      46.434 131.126  13.106  1.00  0.00     0.009 A 
ATOM      9  C   UNL     1      47.596 130.525  12.616  1.00  0.00     0.001 A 
ATOM     10  C   UNL     1      48.410 129.772  13.466  1.00  0.00     0.001 A 
ATOM     11  C   UNL     1      48.068 129.619  14.812  1.00  0.00     0.009 A 
ATOM     12  C   UNL     1      46.902 130.217  15.318  1.00  0.00    -0.018 A 
ATOM     13  C   UNL     1      46.550 130.065  16.668  1.00  0.00     0.018 A 
ATOM     14  C   UNL     1      45.373 130.656  17.183  1.00  0.00    -0.005 A 
ENDROOT
BRANCH   1  15
ATOM     15  C   UNL     1      45.817 129.737  19.504  1.00  0.00     0.262 C 
ATOM     16  O   UNL     1      45.983 130.132  20.688  1.00  0.00    -0.298 OA
ENDBRANCH   1  15
BRANCH   2  17
ATOM     17  N   UNL     1      43.332 130.997  20.348  1.00  0.00    -0.381 N 
ATOM     18  H   UNL     1      43.227 130.019  20.705  1.00  0.00     0.160 HD
BRANCH  17  19
ATOM     19  C   UNL     1      43.490 132.078  21.326  1.00  0.00     0.094 C 
ATOM     20  C   UNL     1      42.268 132.277  22.172  1.00  0.00     0.100 C 
ATOM     21  C   UNL     1      44.186 131.623  22.574  1.00  0.00     0.100 C 
ATOM     22  C   UNL     1      42.957 131.817  23.445  1.00  0.00     0.137 C 
ATOM     23  O   UNL     1      42.662 131.674  24.619  1.00  0.00    -0.300 OA
ENDBRANCH  17  19
ENDBRANCH   2  17
TORSDOF 3
ENDMDL


