MODEL 1
REMARK VINA RESULT:      -9.7      0.000      0.000
REMARK SMILES O=Cc1c([NH2+]C2CC(=O)C2)ccc2cc3ccccc3cc12
REMARK SMILES IDX 3 1 4 2 11 3 12 4 13 5 14 6 15 7 16 8 17 9 18 10 19 11 20 12
REMARK SMILES IDX 21 13 22 14 2 15 1 16 5 17 6 20 7 21 10 22 8 23 9 24
REMARK H PARENT 5 18 5 19
ROOT
ATOM      1  C   UNL     1      43.243 131.762  19.724  1.00  0.00     0.083 A 
ATOM      2  C   UNL     1      43.690 131.482  21.051  1.00  0.00     0.141 A 
ATOM      3  C   UNL     1      44.948 130.887  21.240  1.00  0.00     0.069 A 
ATOM      4  C   UNL     1      45.766 130.574  20.163  1.00  0.00     0.015 A 
ATOM      5  C   UNL     1      45.350 130.837  18.856  1.00  0.00    -0.017 A 
ATOM      6  C   UNL     1      46.192 130.505  17.783  1.00  0.00     0.017 A 
ATOM      7  C   UNL     1      45.790 130.742  16.464  1.00  0.00    -0.018 A 
ATOM      8  C   UNL     1      46.632 130.410  15.391  1.00  0.00     0.009 A 
ATOM      9  C   UNL     1      46.218 130.643  14.076  1.00  0.00     0.001 A 
ATOM     10  C   UNL     1      44.966 131.206  13.823  1.00  0.00     0.001 A 
ATOM     11  C   UNL     1      44.119 131.541  14.884  1.00  0.00     0.009 A 
ATOM     12  C   UNL     1      44.524 131.313  16.210  1.00  0.00    -0.018 A 
ATOM     13  C   UNL     1      43.681 131.647  17.281  1.00  0.00     0.018 A 
ATOM     14  C   UNL     1      44.083 131.430  18.620  1.00  0.00    -0.001 A 
ENDROOT
BRANCH   1  15
ATOM     15  C   UNL     1      41.947 132.445  19.488  1.00  0.00     0.266 C 
ATOM     16  O   UNL     1      41.485 133.279  20.311  1.00  0.00    -0.298 OA
ENDBRANCH   1  15
BRANCH   2  17
ATOM     17  N   UNL     1      42.895 131.804  22.218  1.00  0.00    -0.310 N 
ATOM     18  H   UNL     1      41.877 131.739  21.990  1.00  0.00     0.352 HD
ATOM     19  H   UNL     1      43.055 132.803  22.494  1.00  0.00     0.352 HD
BRANCH  17  20
ATOM     20  C   UNL     1      43.221 130.891  23.332  1.00  0.00     0.202 C 
ATOM     21  C   UNL     1      42.843 129.463  23.048  1.00  0.00     0.141 C 
ATOM     22  C   UNL     1      42.190 130.853  24.429  1.00  0.00     0.141 C 
ATOM     23  C   UNL     1      41.813 129.408  24.161  1.00  0.00     0.144 C 
ATOM     24  O   UNL     1      41.041 128.584  24.625  1.00  0.00    -0.299 OA
ENDBRANCH  17  20
ENDBRANCH   2  17
TORSDOF 3
ENDMDL
MODEL 2
REMARK VINA RESULT:      -8.4      1.720      2.690
REMARK SMILES O=Cc1c([NH2+]C2CC(=O)C2)ccc2cc3ccccc3cc12
REMARK SMILES IDX 3 1 4 2 11 3 12 4 13 5 14 6 15 7 16 8 17 9 18 10 19 11 20 12
REMARK SMILES IDX 21 13 22 14 2 15 1 16 5 17 6 20 7 21 10 22 8 23 9 24
REMARK H PARENT 5 18 5 19
ROOT
ATOM      1  C   UNL     1      44.803 131.635  20.286  1.00  0.00     0.083 A 
ATOM      2  C   UNL     1      43.689 131.937  21.128  1.00  0.00     0.141 A 
ATOM      3  C   UNL     1      42.430 132.157  20.547  1.00  0.00     0.069 A 
ATOM      4  C   UNL     1      42.246 132.078  19.173  1.00  0.00     0.015 A 
ATOM      5  C   UNL     1      43.321 131.786  18.330  1.00  0.00    -0.017 A 
ATOM      6  C   UNL     1      43.112 131.719  16.944  1.00  0.00     0.017 A 
ATOM      7  C   UNL     1      44.175 131.446  16.076  1.00  0.00    -0.018 A 
ATOM      8  C   UNL     1      43.967 131.379  14.690  1.00  0.00     0.009 A 
ATOM      9  C   UNL     1      45.037 131.114  13.831  1.00  0.00     0.001 A 
ATOM     10  C   UNL     1      46.319 130.915  14.347  1.00  0.00     0.001 A 
ATOM     11  C   UNL     1      46.539 130.979  15.726  1.00  0.00     0.009 A 
ATOM     12  C   UNL     1      45.471 131.243  16.600  1.00  0.00    -0.018 A 
ATOM     13  C   UNL     1      45.682 131.309  17.986  1.00  0.00     0.018 A 
ATOM     14  C   UNL     1      44.612 131.566  18.874  1.00  0.00    -0.001 A 
ENDROOT
BRANCH   1  15
ATOM     15  C   UNL     1      46.135 131.338  20.868  1.00  0.00     0.266 C 
ATOM     16  O   UNL     1      46.893 132.257  21.277  1.00  0.00    -0.298 OA
ENDBRANCH   1  15
BRANCH   2  17
ATOM     17  N   UNL     1      43.809 132.012  22.569  1.00  0.00    -0.310 N 
ATOM     18  H   UNL     1      43.347 132.879  22.926  1.00  0.00     0.352 HD
ATOM     19  H   UNL     1      44.818 132.104  22.840  1.00  0.00     0.352 HD
BRANCH  17  20
ATOM     20  C   UNL     1      43.201 130.822  23.199  1.00  0.00     0.202 C 
ATOM     21  C   UNL     1      43.786 130.511  24.549  1.00  0.00     0.141 C 
ATOM     22  C   UNL     1      43.783 129.509  22.744  1.00  0.00     0.141 C 
ATOM     23  C   UNL     1      44.363 129.179  24.106  1.00  0.00     0.144 C 
ATOM     24  O   UNL     1      44.998 128.268  24.611  1.00  0.00    -0.299 OA
ENDBRANCH  17  20
ENDBRANCH   2  17
TORSDOF 3
ENDMDL
MODEL 3
REMARK VINA RESULT:      -8.2      1.390      2.429
REMARK SMILES O=Cc1c([NH2+]C2CC(=O)C2)ccc2cc3ccccc3cc12
REMARK SMILES IDX 3 1 4 2 11 3 12 4 13 5 14 6 15 7 16 8 17 9 18 10 19 11 20 12
REMARK SMILES IDX 21 13 22 14 2 15 1 16 5 17 6 20 7 21 10 22 8 23 9 24
REMARK H PARENT 5 18 5 19
ROOT
ATOM      1  C   UNL     1      44.431 131.374  20.267  1.00  0.00     0.083 A 
ATOM      2  C   UNL     1      43.272 131.830  20.965  1.00  0.00     0.141 A 
ATOM      3  C   UNL     1      42.155 132.263  20.232  1.00  0.00     0.069 A 
ATOM      4  C   UNL     1      42.154 132.247  18.844  1.00  0.00     0.015 A 
ATOM      5  C   UNL     1      43.277 131.807  18.140  1.00  0.00    -0.017 A 
ATOM      6  C   UNL     1      43.254 131.807  16.736  1.00  0.00     0.017 A 
ATOM      7  C   UNL     1      44.372 131.388  16.007  1.00  0.00    -0.018 A 
ATOM      8  C   UNL     1      44.351 131.389  14.603  1.00  0.00     0.009 A 
ATOM      9  C   UNL     1      45.475 130.976  13.883  1.00  0.00     0.001 A 
ATOM     10  C   UNL     1      46.627 130.563  14.557  1.00  0.00     0.001 A 
ATOM     11  C   UNL     1      46.660 130.558  15.954  1.00  0.00     0.009 A 
ATOM     12  C   UNL     1      45.535 130.969  16.689  1.00  0.00    -0.018 A 
ATOM     13  C   UNL     1      45.560 130.966  18.092  1.00  0.00     0.018 A 
ATOM     14  C   UNL     1      44.430 131.370  18.841  1.00  0.00    -0.001 A 
ENDROOT
BRANCH   1  15
ATOM     15  C   UNL     1      45.607 130.854  21.007  1.00  0.00     0.266 C 
ATOM     16  O   UNL     1      45.943 129.642  20.937  1.00  0.00    -0.298 OA
ENDBRANCH   1  15
BRANCH   2  17
ATOM     17  N   UNL     1      43.200 131.851  22.412  1.00  0.00    -0.310 N 
ATOM     18  H   UNL     1      42.271 132.213  22.723  1.00  0.00     0.352 HD
ATOM     19  H   UNL     1      43.904 132.527  22.795  1.00  0.00     0.352 HD
BRANCH  17  20
ATOM     20  C   UNL     1      43.421 130.496  22.958  1.00  0.00     0.202 C 
ATOM     21  C   UNL     1      42.326 129.532  22.594  1.00  0.00     0.141 C 
ATOM     22  C   UNL     1      42.979 130.320  24.387  1.00  0.00     0.141 C 
ATOM     23  C   UNL     1      41.882 129.334  24.031  1.00  0.00     0.144 C 
ATOM     24  O   UNL     1      41.037 128.685  24.625  1.00  0.00    -0.299 OA
ENDBRANCH  17  20
ENDBRANCH   2  17
TORSDOF 3
ENDMDL
MODEL 4
REMARK VINA RESULT:      -8.0      1.006      1.177
REMARK SMILES O=Cc1c([NH2+]C2CC(=O)C2)ccc2cc3ccccc3cc12
REMARK SMILES IDX 3 1 4 2 11 3 12 4 13 5 14 6 15 7 16 8 17 9 18 10 19 11 20 12
REMARK SMILES IDX 21 13 22 14 2 15 1 16 5 17 6 20 7 21 10 22 8 23 9 24
REMARK H PARENT 5 18 5 19
ROOT
ATOM      1  C   UNL     1      43.308 131.955  20.004  1.00  0.00     0.083 A 
ATOM      2  C   UNL     1      43.778 131.686  21.325  1.00  0.00     0.141 A 
ATOM      3  C   UNL     1      45.001 131.018  21.495  1.00  0.00     0.069 A 
ATOM      4  C   UNL     1      45.764 130.622  20.405  1.00  0.00     0.015 A 
ATOM      5  C   UNL     1      45.323 130.872  19.104  1.00  0.00    -0.017 A 
ATOM      6  C   UNL     1      46.109 130.456  18.017  1.00  0.00     0.017 A 
ATOM      7  C   UNL     1      45.681 130.678  16.704  1.00  0.00    -0.018 A 
ATOM      8  C   UNL     1      46.466 130.261  15.617  1.00  0.00     0.009 A 
ATOM      9  C   UNL     1      46.027 130.480  14.309  1.00  0.00     0.001 A 
ATOM     10  C   UNL     1      44.804 131.114  14.075  1.00  0.00     0.001 A 
ATOM     11  C   UNL     1      44.014 131.533  15.149  1.00  0.00     0.009 A 
ATOM     12  C   UNL     1      44.446 131.320  16.469  1.00  0.00    -0.018 A 
ATOM     13  C   UNL     1      43.659 131.738  17.554  1.00  0.00     0.018 A 
ATOM     14  C   UNL     1      44.089 131.536  18.886  1.00  0.00    -0.001 A 
ENDROOT
BRANCH   1  15
ATOM     15  C   UNL     1      42.050 132.711  19.785  1.00  0.00     0.266 C 
ATOM     16  O   UNL     1      41.442 132.669  18.683  1.00  0.00    -0.298 OA
ENDBRANCH   1  15
BRANCH   2  17
ATOM     17  N   UNL     1      43.042 132.093  22.504  1.00  0.00    -0.310 N 
ATOM     18  H   UNL     1      42.245 132.715  22.236  1.00  0.00     0.352 HD
ATOM     19  H   UNL     1      43.654 132.677  23.123  1.00  0.00     0.352 HD
BRANCH  17  20
ATOM     20  C   UNL     1      42.534 130.910  23.228  1.00  0.00     0.202 C 
ATOM     21  C   UNL     1      43.223 130.690  24.546  1.00  0.00     0.141 C 
ATOM     22  C   UNL     1      43.144 129.603  22.793  1.00  0.00     0.141 C 
ATOM     23  C   UNL     1      43.830 129.365  24.125  1.00  0.00     0.144 C 
ATOM     24  O   UNL     1      44.540 128.507  24.625  1.00  0.00    -0.299 OA
ENDBRANCH  17  20
ENDBRANCH   2  17
TORSDOF 3
ENDMDL
MODEL 5
REMARK VINA RESULT:      -7.4      0.912      1.040
REMARK SMILES O=Cc1c([NH2+]C2CC(=O)C2)ccc2cc3ccccc3cc12
REMARK SMILES IDX 3 1 4 2 11 3 12 4 13 5 14 6 15 7 16 8 17 9 18 10 19 11 20 12
REMARK SMILES IDX 21 13 22 14 2 15 1 16 5 17 6 20 7 21 10 22 8 23 9 24
REMARK H PARENT 5 18 5 19
ROOT
ATOM      1  C   UNL     1      43.518 131.676  18.707  1.00  0.00     0.083 A 
ATOM      2  C   UNL     1      43.729 131.372  20.086  1.00  0.00     0.141 A 
ATOM      3  C   UNL     1      44.887 130.673  20.465  1.00  0.00     0.069 A 
ATOM      4  C   UNL     1      45.831 130.280  19.526  1.00  0.00     0.015 A 
ATOM      5  C   UNL     1      45.644 130.564  18.172  1.00  0.00    -0.017 A 
ATOM      6  C   UNL     1      46.610 130.150  17.240  1.00  0.00     0.017 A 
ATOM      7  C   UNL     1      46.438 130.406  15.876  1.00  0.00    -0.018 A 
ATOM      8  C   UNL     1      47.402 129.992  14.944  1.00  0.00     0.009 A 
ATOM      9  C   UNL     1      47.218 130.245  13.582  1.00  0.00     0.001 A 
ATOM     10  C   UNL     1      46.073 130.911  13.141  1.00  0.00     0.001 A 
ATOM     11  C   UNL     1      45.105 131.329  14.059  1.00  0.00     0.009 A 
ATOM     12  C   UNL     1      45.280 131.081  15.431  1.00  0.00    -0.018 A 
ATOM     13  C   UNL     1      44.314 131.497  16.360  1.00  0.00     0.018 A 
ATOM     14  C   UNL     1      44.485 131.261  17.744  1.00  0.00    -0.001 A 
ENDROOT
BRANCH   1  15
ATOM     15  C   UNL     1      42.337 132.465  18.276  1.00  0.00     0.266 C 
ATOM     16  O   UNL     1      41.228 132.360  18.862  1.00  0.00    -0.298 OA
ENDBRANCH   1  15
BRANCH   2  17
ATOM     17  N   UNL     1      42.794 131.774  21.117  1.00  0.00    -0.310 N 
ATOM     18  H   UNL     1      41.829 131.459  20.872  1.00  0.00     0.352 HD
ATOM     19  H   UNL     1      42.742 132.820  21.164  1.00  0.00     0.352 HD
BRANCH  17  20
ATOM     20  C   UNL     1      43.192 131.207  22.422  1.00  0.00     0.202 C 
ATOM     21  C   UNL     1      42.946 129.727  22.518  1.00  0.00     0.141 C 
ATOM     22  C   UNL     1      42.161 131.360  23.509  1.00  0.00     0.141 C 
ATOM     23  C   UNL     1      41.916 129.867  23.624  1.00  0.00     0.144 C 
ATOM     24  O   UNL     1      41.218 129.124  24.294  1.00  0.00    -0.299 OA
ENDBRANCH  17  20
ENDBRANCH   2  17
TORSDOF 3
ENDMDL


