REMARK SMILES CC(=O)c1ccc(-c2nccc(C)c2F)c2cn[nH]c12
REMARK SMILES IDX 4 1 5 2 6 3 7 4 16 5 17 6 18 7 19 8 20 9 2 11 1 12 3 13 8 14
REMARK SMILES IDX 9 15 14 16 10 17 12 18 11 19 15 20 13 21
REMARK H PARENT 19 10
ROOT
ATOM      1  C   UNL     1       0.383  -2.737  -2.789  1.00  0.00     0.043 A 
ATOM      2  C   UNL     1      -0.658  -1.820  -3.070  1.00  0.00     0.015 A 
ATOM      3  C   UNL     1      -0.909  -0.720  -2.222  1.00  0.00     0.012 A 
ATOM      4  C   UNL     1      -0.129  -0.501  -1.066  1.00  0.00     0.014 A 
ATOM      5  C   UNL     1       0.884  -1.431  -0.803  1.00  0.00     0.030 A 
ATOM      6  C   UNL     1       1.809  -1.529   0.218  1.00  0.00     0.144 A 
ATOM      7  N   UNL     1       2.563  -2.631   0.008  1.00  0.00    -0.183 NA
ATOM      8  N   UNL     1       2.150  -3.219  -1.108  1.00  0.00    -0.277 N 
ATOM      9  C   UNL     1       1.135  -2.499  -1.625  1.00  0.00     0.076 A 
ATOM     10  H   UNL     1       2.561  -4.102  -1.478  1.00  0.00     0.190 HD
ENDROOT
BRANCH   1  11
ATOM     11  C   UNL     1       0.659  -3.875  -3.703  1.00  0.00     0.161 C 
ATOM     12  C   UNL     1      -0.405  -4.429  -4.601  1.00  0.00     0.093 C 
ATOM     13  O   UNL     1       1.820  -4.358  -3.779  1.00  0.00    -0.294 OA
ENDBRANCH   1  11
BRANCH   4  14
ATOM     14  C   UNL     1      -0.406   0.632  -0.155  1.00  0.00     0.107 A 
ATOM     15  N   UNL     1      -0.423   0.414   1.189  1.00  0.00    -0.253 NA
ATOM     16  C   UNL     1      -0.653   1.927  -0.647  1.00  0.00     0.152 A 
ATOM     17  C   UNL     1      -0.675   1.409   2.080  1.00  0.00     0.112 A 
ATOM     18  C   UNL     1      -0.930   2.969   0.254  1.00  0.00    -0.012 A 
ATOM     19  C   UNL     1      -0.931   2.703   1.629  1.00  0.00     0.026 A 
ATOM     20  F   UNL     1      -0.585   2.185  -1.980  1.00  0.00    -0.204 F 
ATOM     21  C   UNL     1      -1.163   4.364  -0.249  1.00  0.00     0.047 C 
ENDBRANCH   4  14
TORSDOF 2


