MODEL 1
REMARK VINA RESULT:      -4.2      0.000      0.000
REMARK SMILES Cc1cc(N)c(N[C@@H]2CC[C@H](C)N(c3cnc(CC#N)n3C)[C@H]2F)cc1F
REMARK SMILES IDX 8 1 9 2 10 3 11 4 12 5 13 6 23 7 24 8 7 9 6 11 2 12 3 13
REMARK SMILES IDX 26 14 4 15 25 16 1 17 27 18 5 19 14 22 15 23 21 24 16 25
REMARK SMILES IDX 17 26 22 27 18 28 19 29 20 30
REMARK H PARENT 7 10 5 20 5 21
ROOT
ATOM      1  C   UNL     1      43.734 131.986  20.087  1.00  0.00     0.134 C 
ATOM      2  C   UNL     1      44.720 132.956  20.764  1.00  0.00     0.032 C 
ATOM      3  C   UNL     1      45.419 132.317  21.971  1.00  0.00     0.027 C 
ATOM      4  C   UNL     1      44.398 131.761  22.980  1.00  0.00     0.083 C 
ATOM      5  C   UNL     1      45.136 131.034  24.116  1.00  0.00     0.031 C 
ATOM      6  N   UNL     1      43.431 130.892  22.279  1.00  0.00    -0.322 N 
ATOM      7  C   UNL     1      42.730 131.427  21.107  1.00  0.00     0.286 C 
ATOM      8  F   UNL     1      41.861 132.429  21.508  1.00  0.00    -0.221 F 
ENDROOT
BRANCH   1   9
ATOM      9  N   UNL     1      44.456 130.882  19.441  1.00  0.00    -0.376 N 
ATOM     10  H   UNL     1      44.717 130.054  20.024  1.00  0.00     0.161 HD
BRANCH   9  11
ATOM     11  C   UNL     1      44.838 130.892  18.054  1.00  0.00     0.061 A 
ATOM     12  C   UNL     1      45.552 130.803  15.327  1.00  0.00    -0.013 A 
ATOM     13  C   UNL     1      44.360 131.423  15.727  1.00  0.00     0.034 A 
ATOM     14  C   UNL     1      46.380 130.216  16.294  1.00  0.00     0.128 A 
ATOM     15  C   UNL     1      44.000 131.483  17.082  1.00  0.00     0.055 A 
ATOM     16  C   UNL     1      46.026 130.262  17.644  1.00  0.00     0.067 A 
ATOM     17  C   UNL     1      45.919 130.726  13.872  1.00  0.00     0.047 C 
ATOM     18  F   UNL     1      47.526 129.586  15.929  1.00  0.00    -0.207 F 
BRANCH  15  19
ATOM     19  N   UNL     1      42.802 132.180  17.452  1.00  0.00    -0.397 N 
ATOM     20  H   UNL     1      42.731 132.652  18.381  1.00  0.00     0.156 HD
ATOM     21  H   UNL     1      41.948 132.173  16.853  1.00  0.00     0.156 HD
ENDBRANCH  15  19
ENDBRANCH   9  11
ENDBRANCH   1   9
BRANCH   6  22
ATOM     22  C   UNL     1      42.923 129.688  22.872  1.00  0.00     0.131 A 
ATOM     23  C   UNL     1      41.727 129.572  23.539  1.00  0.00     0.158 A 
ATOM     24  N   UNL     1      43.572 128.511  22.911  1.00  0.00    -0.317 N 
ATOM     25  N   UNL     1      41.613 128.315  24.012  1.00  0.00    -0.238 NA
ATOM     26  C   UNL     1      42.757 127.702  23.627  1.00  0.00     0.124 A 
ATOM     27  C   UNL     1      44.919 128.220  22.426  1.00  0.00     0.153 C 
BRANCH  26  28
ATOM     28  C   UNL     1      43.049 126.266  23.942  1.00  0.00     0.195 C 
BRANCH  28  29
ATOM     29  C   UNL     1      42.030 125.407  23.335  1.00  0.00     0.070 C 
ATOM     30  N   UNL     1      41.225 124.727  22.856  1.00  0.00    -0.198 NA
ENDBRANCH  28  29
ENDBRANCH  26  28
ENDBRANCH   6  22
TORSDOF 6
ENDMDL
MODEL 2
REMARK VINA RESULT:      -3.3      1.257      1.733
REMARK SMILES Cc1cc(N)c(N[C@@H]2CC[C@H](C)N(c3cnc(CC#N)n3C)[C@H]2F)cc1F
REMARK SMILES IDX 8 1 9 2 10 3 11 4 12 5 13 6 23 7 24 8 7 9 6 11 2 12 3 13
REMARK SMILES IDX 26 14 4 15 25 16 1 17 27 18 5 19 14 22 15 23 21 24 16 25
REMARK SMILES IDX 17 26 22 27 18 28 19 29 20 30
REMARK H PARENT 7 10 5 20 5 21
ROOT
ATOM      1  C   UNL     1      43.134 132.204  19.528  1.00  0.00     0.134 C 
ATOM      2  C   UNL     1      44.302 133.173  19.789  1.00  0.00     0.032 C 
ATOM      3  C   UNL     1      45.260 132.643  20.864  1.00  0.00     0.027 C 
ATOM      4  C   UNL     1      44.511 132.305  22.165  1.00  0.00     0.083 C 
ATOM      5  C   UNL     1      45.485 131.675  23.175  1.00  0.00     0.031 C 
ATOM      6  N   UNL     1      43.359 131.431  21.862  1.00  0.00    -0.322 N 
ATOM      7  C   UNL     1      42.404 131.863  20.836  1.00  0.00     0.286 C 
ATOM      8  F   UNL     1      41.711 132.974  21.291  1.00  0.00    -0.221 F 
ENDROOT
BRANCH   1   9
ATOM      9  N   UNL     1      43.616 130.972  18.891  1.00  0.00    -0.376 N 
ATOM     10  H   UNL     1      43.454 130.065  19.383  1.00  0.00     0.161 HD
BRANCH   9  11
ATOM     11  C   UNL     1      44.318 130.956  17.635  1.00  0.00     0.061 A 
ATOM     12  C   UNL     1      45.711 131.037  15.184  1.00  0.00    -0.013 A 
ATOM     13  C   UNL     1      46.337 130.548  16.338  1.00  0.00     0.034 A 
ATOM     14  C   UNL     1      44.390 131.498  15.261  1.00  0.00     0.128 A 
ATOM     15  C   UNL     1      45.650 130.492  17.561  1.00  0.00     0.055 A 
ATOM     16  C   UNL     1      43.700 131.456  16.475  1.00  0.00     0.067 A 
ATOM     17  C   UNL     1      46.461 131.111  13.884  1.00  0.00     0.047 C 
ATOM     18  F   UNL     1      43.770 132.003  14.163  1.00  0.00    -0.207 F 
BRANCH  15  19
ATOM     19  N   UNL     1      46.309 129.927  18.703  1.00  0.00    -0.397 N 
ATOM     20  H   UNL     1      45.969 130.138  19.668  1.00  0.00     0.156 HD
ATOM     21  H   UNL     1      47.182 129.362  18.617  1.00  0.00     0.156 HD
ENDBRANCH  15  19
ENDBRANCH   9  11
ENDBRANCH   1   9
BRANCH   6  22
ATOM     22  C   UNL     1      42.970 130.358  22.732  1.00  0.00     0.131 A 
ATOM     23  C   UNL     1      41.950 130.408  23.650  1.00  0.00     0.158 A 
ATOM     24  N   UNL     1      43.587 129.166  22.814  1.00  0.00    -0.317 N 
ATOM     25  N   UNL     1      41.917 129.243  24.328  1.00  0.00    -0.238 NA
ATOM     26  C   UNL     1      42.935 128.518  23.806  1.00  0.00     0.124 A 
ATOM     27  C   UNL     1      44.787 128.733  22.101  1.00  0.00     0.153 C 
BRANCH  26  28
ATOM     28  C   UNL     1      43.258 127.131  24.272  1.00  0.00     0.195 C 
BRANCH  28  29
ATOM     29  C   UNL     1      42.470 126.155  23.516  1.00  0.00     0.070 C 
ATOM     30  N   UNL     1      41.848 125.383  22.919  1.00  0.00    -0.198 NA
ENDBRANCH  28  29
ENDBRANCH  26  28
ENDBRANCH   6  22
TORSDOF 6
ENDMDL
MODEL 3
REMARK VINA RESULT:      -2.9      0.945      1.493
REMARK SMILES Cc1cc(N)c(N[C@@H]2CC[C@H](C)N(c3cnc(CC#N)n3C)[C@H]2F)cc1F
REMARK SMILES IDX 8 1 9 2 10 3 11 4 12 5 13 6 23 7 24 8 7 9 6 11 2 12 3 13
REMARK SMILES IDX 26 14 4 15 25 16 1 17 27 18 5 19 14 22 15 23 21 24 16 25
REMARK SMILES IDX 17 26 22 27 18 28 19 29 20 30
REMARK H PARENT 7 10 5 20 5 21
ROOT
ATOM      1  C   UNL     1      43.502 131.440  20.523  1.00  0.00     0.134 C 
ATOM      2  C   UNL     1      43.787 132.684  21.386  1.00  0.00     0.032 C 
ATOM      3  C   UNL     1      44.671 132.354  22.596  1.00  0.00     0.027 C 
ATOM      4  C   UNL     1      44.069 131.214  23.436  1.00  0.00     0.083 C 
ATOM      5  C   UNL     1      45.037 130.841  24.571  1.00  0.00     0.031 C 
ATOM      6  N   UNL     1      43.747 130.069  22.561  1.00  0.00    -0.322 N 
ATOM      7  C   UNL     1      42.915 130.305  21.376  1.00  0.00     0.286 C 
ATOM      8  F   UNL     1      41.629 130.634  21.775  1.00  0.00    -0.221 F 
ENDROOT
BRANCH   1   9
ATOM      9  N   UNL     1      44.728 130.981  19.857  1.00  0.00    -0.376 N 
ATOM     10  H   UNL     1      45.511 130.629  20.453  1.00  0.00     0.161 HD
BRANCH   9  11
ATOM     11  C   UNL     1      44.910 131.010  18.430  1.00  0.00     0.061 A 
ATOM     12  C   UNL     1      45.235 130.958  15.629  1.00  0.00    -0.013 A 
ATOM     13  C   UNL     1      44.091 131.534  16.198  1.00  0.00     0.034 A 
ATOM     14  C   UNL     1      46.210 130.395  16.465  1.00  0.00     0.128 A 
ATOM     15  C   UNL     1      43.924 131.577  17.591  1.00  0.00     0.055 A 
ATOM     16  C   UNL     1      46.048 130.423  17.852  1.00  0.00     0.067 A 
ATOM     17  C   UNL     1      45.395 130.899  14.137  1.00  0.00     0.047 C 
ATOM     18  F   UNL     1      47.313 129.805  15.936  1.00  0.00    -0.207 F 
BRANCH  15  19
ATOM     19  N   UNL     1      42.768 132.231  18.132  1.00  0.00    -0.397 N 
ATOM     20  H   UNL     1      41.832 131.768  18.095  1.00  0.00     0.156 HD
ATOM     21  H   UNL     1      42.804 133.206  18.501  1.00  0.00     0.156 HD
ENDBRANCH  15  19
ENDBRANCH   9  11
ENDBRANCH   1   9
BRANCH   6  22
ATOM     22  C   UNL     1      43.941 128.712  22.984  1.00  0.00     0.131 A 
ATOM     23  C   UNL     1      44.974 127.895  22.591  1.00  0.00     0.158 A 
ATOM     24  N   UNL     1      43.106 128.023  23.782  1.00  0.00    -0.317 N 
ATOM     25  N   UNL     1      44.796 126.675  23.137  1.00  0.00    -0.238 NA
ATOM     26  C   UNL     1      43.644 126.783  23.841  1.00  0.00     0.124 A 
ATOM     27  C   UNL     1      41.828 128.469  24.332  1.00  0.00     0.153 C 
BRANCH  26  28
ATOM     28  C   UNL     1      43.068 125.642  24.624  1.00  0.00     0.195 C 
BRANCH  28  29
ATOM     29  C   UNL     1      42.402 124.703  23.719  1.00  0.00     0.070 C 
ATOM     30  N   UNL     1      41.875 123.960  23.005  1.00  0.00    -0.198 NA
ENDBRANCH  28  29
ENDBRANCH  26  28
ENDBRANCH   6  22
TORSDOF 6
ENDMDL
MODEL 4
REMARK VINA RESULT:      -2.8      2.452      7.376
REMARK SMILES Cc1cc(N)c(N[C@@H]2CC[C@H](C)N(c3cnc(CC#N)n3C)[C@H]2F)cc1F
REMARK SMILES IDX 8 1 9 2 10 3 11 4 12 5 13 6 23 7 24 8 7 9 6 11 2 12 3 13
REMARK SMILES IDX 26 14 4 15 25 16 1 17 27 18 5 19 14 22 15 23 21 24 16 25
REMARK SMILES IDX 17 26 22 27 18 28 19 29 20 30
REMARK H PARENT 7 10 5 20 5 21
ROOT
ATOM      1  C   UNL     1      45.436 129.661  22.000  1.00  0.00     0.134 C 
ATOM      2  C   UNL     1      44.587 130.303  23.113  1.00  0.00     0.032 C 
ATOM      3  C   UNL     1      43.249 130.835  22.583  1.00  0.00     0.027 C 
ATOM      4  C   UNL     1      43.459 131.806  21.407  1.00  0.00     0.083 C 
ATOM      5  C   UNL     1      42.096 132.228  20.835  1.00  0.00     0.031 C 
ATOM      6  N   UNL     1      44.334 131.179  20.396  1.00  0.00    -0.322 N 
ATOM      7  C   UNL     1      45.626 130.635  20.827  1.00  0.00     0.286 C 
ATOM      8  F   UNL     1      46.458 131.674  21.209  1.00  0.00    -0.221 F 
ENDROOT
BRANCH   1   9
ATOM      9  N   UNL     1      44.810 128.421  21.522  1.00  0.00    -0.376 N 
ATOM     10  H   UNL     1      44.431 128.402  20.548  1.00  0.00     0.161 HD
BRANCH   9  11
ATOM     11  C   UNL     1      44.676 127.241  22.334  1.00  0.00     0.061 A 
ATOM     12  C   UNL     1      44.350 124.879  23.842  1.00  0.00    -0.013 A 
ATOM     13  C   UNL     1      45.546 125.119  23.153  1.00  0.00     0.034 A 
ATOM     14  C   UNL     1      43.312 125.818  23.765  1.00  0.00     0.128 A 
ATOM     15  C   UNL     1      45.725 126.296  22.408  1.00  0.00     0.055 A 
ATOM     16  C   UNL     1      43.475 126.987  23.019  1.00  0.00     0.067 A 
ATOM     17  C   UNL     1      44.162 123.608  24.620  1.00  0.00     0.047 C 
ATOM     18  F   UNL     1      42.133 125.595  24.402  1.00  0.00    -0.207 F 
BRANCH  15  19
ATOM     19  N   UNL     1      46.987 126.529  21.769  1.00  0.00    -0.397 N 
ATOM     20  H   UNL     1      47.460 127.457  21.854  1.00  0.00     0.156 HD
ATOM     21  H   UNL     1      47.430 125.823  21.142  1.00  0.00     0.156 HD
ENDBRANCH  15  19
ENDBRANCH   9  11
ENDBRANCH   1   9
BRANCH   6  22
ATOM     22  C   UNL     1      44.119 131.361  18.988  1.00  0.00     0.131 A 
ATOM     23  C   UNL     1      42.986 131.888  18.418  1.00  0.00     0.158 A 
ATOM     24  N   UNL     1      44.975 130.989  18.020  1.00  0.00    -0.317 N 
ATOM     25  N   UNL     1      43.116 131.847  17.076  1.00  0.00    -0.238 NA
ATOM     26  C   UNL     1      44.328 131.281  16.869  1.00  0.00     0.124 A 
ATOM     27  C   UNL     1      46.247 130.286  18.177  1.00  0.00     0.153 C 
BRANCH  26  28
ATOM     28  C   UNL     1      44.885 131.048  15.498  1.00  0.00     0.195 C 
BRANCH  28  29
ATOM     29  C   UNL     1      43.914 131.471  14.486  1.00  0.00     0.070 C 
ATOM     30  N   UNL     1      43.146 131.804  13.686  1.00  0.00    -0.198 NA
ENDBRANCH  28  29
ENDBRANCH  26  28
ENDBRANCH   6  22
TORSDOF 6
ENDMDL
MODEL 5
REMARK VINA RESULT:      -2.8      1.054      1.179
REMARK SMILES Cc1cc(N)c(N[C@@H]2CC[C@H](C)N(c3cnc(CC#N)n3C)[C@H]2F)cc1F
REMARK SMILES IDX 8 1 9 2 10 3 11 4 12 5 13 6 23 7 24 8 7 9 6 11 2 12 3 13
REMARK SMILES IDX 26 14 4 15 25 16 1 17 27 18 5 19 14 22 15 23 21 24 16 25
REMARK SMILES IDX 17 26 22 27 18 28 19 29 20 30
REMARK H PARENT 7 10 5 20 5 21
ROOT
ATOM      1  C   UNL     1      43.171 131.932  21.134  1.00  0.00     0.134 C 
ATOM      2  C   UNL     1      44.447 132.522  21.762  1.00  0.00     0.032 C 
ATOM      3  C   UNL     1      45.141 131.525  22.699  1.00  0.00     0.027 C 
ATOM      4  C   UNL     1      44.175 131.004  23.778  1.00  0.00     0.083 C 
ATOM      5  C   UNL     1      44.875 129.928  24.624  1.00  0.00     0.031 C 
ATOM      6  N   UNL     1      42.937 130.512  23.139  1.00  0.00    -0.322 N 
ATOM      7  C   UNL     1      42.221 131.402  22.219  1.00  0.00     0.286 C 
ATOM      8  F   UNL     1      41.684 132.462  22.931  1.00  0.00    -0.221 F 
ENDROOT
BRANCH   1   9
ATOM      9  N   UNL     1      43.507 130.853  20.196  1.00  0.00    -0.376 N 
ATOM     10  H   UNL     1      43.421 129.866  20.527  1.00  0.00     0.161 HD
BRANCH   9  11
ATOM     11  C   UNL     1      43.968 131.090  18.853  1.00  0.00     0.061 A 
ATOM     12  C   UNL     1      44.849 131.442  16.197  1.00  0.00    -0.013 A 
ATOM     13  C   UNL     1      43.582 131.896  16.589  1.00  0.00     0.034 A 
ATOM     14  C   UNL     1      45.669 130.799  17.134  1.00  0.00     0.128 A 
ATOM     15  C   UNL     1      43.138 131.737  17.911  1.00  0.00     0.055 A 
ATOM     16  C   UNL     1      45.233 130.626  18.450  1.00  0.00     0.067 A 
ATOM     17  C   UNL     1      45.307 131.600  14.775  1.00  0.00     0.047 C 
ATOM     18  F   UNL     1      46.889 130.325  16.771  1.00  0.00    -0.207 F 
BRANCH  15  19
ATOM     19  N   UNL     1      41.860 132.271  18.284  1.00  0.00    -0.397 N 
ATOM     20  H   UNL     1      41.385 132.978  17.679  1.00  0.00     0.156 HD
ATOM     21  H   UNL     1      41.406 132.039  19.194  1.00  0.00     0.156 HD
ENDBRANCH  15  19
ENDBRANCH   9  11
ENDBRANCH   1   9
BRANCH   6  22
ATOM     22  C   UNL     1      42.249 129.346  23.615  1.00  0.00     0.131 A 
ATOM     23  C   UNL     1      41.045 129.347  24.276  1.00  0.00     0.158 A 
ATOM     24  N   UNL     1      42.712 128.086  23.533  1.00  0.00    -0.317 N 
ATOM     25  N   UNL     1      40.738 128.081  24.624  1.00  0.00    -0.238 NA
ATOM     26  C   UNL     1      41.779 127.343  24.172  1.00  0.00     0.124 A 
ATOM     27  C   UNL     1      44.003 127.644  23.010  1.00  0.00     0.153 C 
BRANCH  26  28
ATOM     28  C   UNL     1      41.848 125.856  24.342  1.00  0.00     0.195 C 
BRANCH  28  29
ATOM     29  C   UNL     1      41.538 125.194  23.072  1.00  0.00     0.070 C 
ATOM     30  N   UNL     1      41.294 124.672  22.069  1.00  0.00    -0.198 NA
ENDBRANCH  28  29
ENDBRANCH  26  28
ENDBRANCH   6  22
TORSDOF 6
ENDMDL
MODEL 6
REMARK VINA RESULT:      -2.6      1.637      2.378
REMARK SMILES Cc1cc(N)c(N[C@@H]2CC[C@H](C)N(c3cnc(CC#N)n3C)[C@H]2F)cc1F
REMARK SMILES IDX 8 1 9 2 10 3 11 4 12 5 13 6 23 7 24 8 7 9 6 11 2 12 3 13
REMARK SMILES IDX 26 14 4 15 25 16 1 17 27 18 5 19 14 22 15 23 21 24 16 25
REMARK SMILES IDX 17 26 22 27 18 28 19 29 20 30
REMARK H PARENT 7 10 5 20 5 21
ROOT
ATOM      1  C   UNL     1      43.423 131.688  18.363  1.00  0.00     0.134 C 
ATOM      2  C   UNL     1      44.354 132.913  18.292  1.00  0.00     0.032 C 
ATOM      3  C   UNL     1      45.637 132.708  19.108  1.00  0.00     0.027 C 
ATOM      4  C   UNL     1      45.320 132.328  20.565  1.00  0.00     0.083 C 
ATOM      5  C   UNL     1      46.627 132.024  21.317  1.00  0.00     0.031 C 
ATOM      6  N   UNL     1      44.372 131.196  20.588  1.00  0.00    -0.322 N 
ATOM      7  C   UNL     1      43.126 131.311  19.822  1.00  0.00     0.286 C 
ATOM      8  F   UNL     1      42.317 132.275  20.401  1.00  0.00    -0.221 F 
ENDROOT
BRANCH   1   9
ATOM      9  N   UNL     1      44.020 130.544  17.663  1.00  0.00    -0.376 N 
ATOM     10  H   UNL     1      43.838 129.585  18.038  1.00  0.00     0.161 HD
BRANCH   9  11
ATOM     11  C   UNL     1      44.858 130.678  16.501  1.00  0.00     0.061 A 
ATOM     12  C   UNL     1      46.471 130.835  14.193  1.00  0.00    -0.013 A 
ATOM     13  C   UNL     1      45.214 131.453  14.221  1.00  0.00     0.034 A 
ATOM     14  C   UNL     1      46.915 130.126  15.318  1.00  0.00     0.128 A 
ATOM     15  C   UNL     1      44.407 131.392  15.367  1.00  0.00     0.055 A 
ATOM     16  C   UNL     1      46.115 130.050  16.461  1.00  0.00     0.067 A 
ATOM     17  C   UNL     1      47.318 130.889  12.953  1.00  0.00     0.047 C 
ATOM     18  F   UNL     1      48.117 129.495  15.305  1.00  0.00    -0.207 F 
BRANCH  15  19
ATOM     19  N   UNL     1      43.155 132.091  15.374  1.00  0.00    -0.397 N 
ATOM     20  H   UNL     1      43.076 133.039  14.945  1.00  0.00     0.156 HD
ATOM     21  H   UNL     1      42.315 131.720  15.870  1.00  0.00     0.156 HD
ENDBRANCH  15  19
ENDBRANCH   9  11
ENDBRANCH   1   9
BRANCH   6  22
ATOM     22  C   UNL     1      44.467 130.145  21.560  1.00  0.00     0.131 A 
ATOM     23  C   UNL     1      45.160 128.970  21.397  1.00  0.00     0.158 A 
ATOM     24  N   UNL     1      43.842 130.133  22.751  1.00  0.00    -0.317 N 
ATOM     25  N   UNL     1      44.973 128.200  22.488  1.00  0.00    -0.238 NA
ATOM     26  C   UNL     1      44.155 128.929  23.283  1.00  0.00     0.124 A 
ATOM     27  C   UNL     1      42.912 131.129  23.279  1.00  0.00     0.153 C 
BRANCH  26  28
ATOM     28  C   UNL     1      43.691 128.446  24.623  1.00  0.00     0.195 C 
BRANCH  28  29
ATOM     29  C   UNL     1      42.234 128.294  24.620  1.00  0.00     0.070 C 
ATOM     30  N   UNL     1      41.083 128.174  24.619  1.00  0.00    -0.198 NA
ENDBRANCH  28  29
ENDBRANCH  26  28
ENDBRANCH   6  22
TORSDOF 6
ENDMDL
MODEL 7
REMARK VINA RESULT:      -2.2      1.718      2.752
REMARK SMILES Cc1cc(N)c(N[C@@H]2CC[C@H](C)N(c3cnc(CC#N)n3C)[C@H]2F)cc1F
REMARK SMILES IDX 8 1 9 2 10 3 11 4 12 5 13 6 23 7 24 8 7 9 6 11 2 12 3 13
REMARK SMILES IDX 26 14 4 15 25 16 1 17 27 18 5 19 14 22 15 23 21 24 16 25
REMARK SMILES IDX 17 26 22 27 18 28 19 29 20 30
REMARK H PARENT 7 10 5 20 5 21
ROOT
ATOM      1  C   UNL     1      43.178 131.712  18.269  1.00  0.00     0.134 C 
ATOM      2  C   UNL     1      44.160 132.887  18.103  1.00  0.00     0.032 C 
ATOM      3  C   UNL     1      45.464 132.662  18.879  1.00  0.00     0.027 C 
ATOM      4  C   UNL     1      45.188 132.367  20.365  1.00  0.00     0.083 C 
ATOM      5  C   UNL     1      46.509 132.038  21.081  1.00  0.00     0.031 C 
ATOM      6  N   UNL     1      44.192 131.283  20.479  1.00  0.00    -0.322 N 
ATOM      7  C   UNL     1      42.923 131.419  19.755  1.00  0.00     0.286 C 
ATOM      8  F   UNL     1      42.182 132.447  20.316  1.00  0.00    -0.221 F 
ENDROOT
BRANCH   1   9
ATOM      9  N   UNL     1      43.695 130.509  17.605  1.00  0.00    -0.376 N 
ATOM     10  H   UNL     1      43.414 129.576  17.984  1.00  0.00     0.161 HD
BRANCH   9  11
ATOM     11  C   UNL     1      44.583 130.551  16.474  1.00  0.00     0.061 A 
ATOM     12  C   UNL     1      46.332 130.748  14.269  1.00  0.00    -0.013 A 
ATOM     13  C   UNL     1      46.805 130.303  15.511  1.00  0.00     0.034 A 
ATOM     14  C   UNL     1      44.983 131.107  14.136  1.00  0.00     0.128 A 
ATOM     15  C   UNL     1      45.942 130.190  16.612  1.00  0.00     0.055 A 
ATOM     16  C   UNL     1      44.118 131.008  15.228  1.00  0.00     0.067 A 
ATOM     17  C   UNL     1      47.268 130.885  13.103  1.00  0.00     0.047 C 
ATOM     18  F   UNL     1      44.507 131.567  12.951  1.00  0.00    -0.207 F 
BRANCH  15  19
ATOM     19  N   UNL     1      46.456 129.672  17.847  1.00  0.00    -0.397 N 
ATOM     20  H   UNL     1      47.420 129.272  17.893  1.00  0.00     0.156 HD
ATOM     21  H   UNL     1      45.868 129.603  18.707  1.00  0.00     0.156 HD
ENDBRANCH  15  19
ENDBRANCH   9  11
ENDBRANCH   1   9
BRANCH   6  22
ATOM     22  C   UNL     1      44.278 130.276  21.498  1.00  0.00     0.131 A 
ATOM     23  C   UNL     1      44.982 129.101  21.398  1.00  0.00     0.158 A 
ATOM     24  N   UNL     1      43.633 130.312  22.678  1.00  0.00    -0.317 N 
ATOM     25  N   UNL     1      44.782 128.377  22.518  1.00  0.00    -0.238 NA
ATOM     26  C   UNL     1      43.946 129.134  23.266  1.00  0.00     0.124 A 
ATOM     27  C   UNL     1      42.687 131.322  23.146  1.00  0.00     0.153 C 
BRANCH  26  28
ATOM     28  C   UNL     1      43.462 128.706  24.619  1.00  0.00     0.195 C 
BRANCH  28  29
ATOM     29  C   UNL     1      42.490 127.619  24.479  1.00  0.00     0.070 C 
ATOM     30  N   UNL     1      41.723 126.760  24.369  1.00  0.00    -0.198 NA
ENDBRANCH  28  29
ENDBRANCH  26  28
ENDBRANCH   6  22
TORSDOF 6
ENDMDL
MODEL 8
REMARK VINA RESULT:      -2.0      1.818      2.753
REMARK SMILES Cc1cc(N)c(N[C@@H]2CC[C@H](C)N(c3cnc(CC#N)n3C)[C@H]2F)cc1F
REMARK SMILES IDX 8 1 9 2 10 3 11 4 12 5 13 6 23 7 24 8 7 9 6 11 2 12 3 13
REMARK SMILES IDX 26 14 4 15 25 16 1 17 27 18 5 19 14 22 15 23 21 24 16 25
REMARK SMILES IDX 17 26 22 27 18 28 19 29 20 30
REMARK H PARENT 7 10 5 20 5 21
ROOT
ATOM      1  C   UNL     1      43.595 131.555  18.114  1.00  0.00     0.134 C 
ATOM      2  C   UNL     1      44.385 132.877  18.094  1.00  0.00     0.032 C 
ATOM      3  C   UNL     1      45.582 132.846  19.054  1.00  0.00     0.027 C 
ATOM      4  C   UNL     1      45.144 132.475  20.483  1.00  0.00     0.083 C 
ATOM      5  C   UNL     1      46.382 132.347  21.386  1.00  0.00     0.031 C 
ATOM      6  N   UNL     1      44.332 131.242  20.449  1.00  0.00    -0.322 N 
ATOM      7  C   UNL     1      43.177 131.189  19.546  1.00  0.00     0.286 C 
ATOM      8  F   UNL     1      42.205 132.070  19.992  1.00  0.00    -0.221 F 
ENDROOT
BRANCH   1   9
ATOM      9  N   UNL     1      44.393 130.467  17.533  1.00  0.00    -0.376 N 
ATOM     10  H   UNL     1      44.394 129.542  18.020  1.00  0.00     0.161 HD
BRANCH   9  11
ATOM     11  C   UNL     1      45.185 130.617  16.342  1.00  0.00     0.061 A 
ATOM     12  C   UNL     1      46.832 130.915  14.072  1.00  0.00    -0.013 A 
ATOM     13  C   UNL     1      46.312 129.659  14.409  1.00  0.00     0.034 A 
ATOM     14  C   UNL     1      46.537 132.021  14.881  1.00  0.00     0.128 A 
ATOM     15  C   UNL     1      45.482 129.500  15.529  1.00  0.00     0.055 A 
ATOM     16  C   UNL     1      45.720 131.873  16.004  1.00  0.00     0.067 A 
ATOM     17  C   UNL     1      47.736 131.071  12.882  1.00  0.00     0.047 C 
ATOM     18  F   UNL     1      47.051 133.244  14.591  1.00  0.00    -0.207 F 
BRANCH  15  19
ATOM     19  N   UNL     1      44.922 128.208  15.802  1.00  0.00    -0.397 N 
ATOM     20  H   UNL     1      45.489 127.343  15.654  1.00  0.00     0.156 HD
ATOM     21  H   UNL     1      43.922 128.083  16.074  1.00  0.00     0.156 HD
ENDBRANCH  15  19
ENDBRANCH   9  11
ENDBRANCH   1   9
BRANCH   6  22
ATOM     22  C   UNL     1      44.432 130.238  21.470  1.00  0.00     0.131 A 
ATOM     23  C   UNL     1      45.108 129.048  21.352  1.00  0.00     0.158 A 
ATOM     24  N   UNL     1      43.829 130.293  22.670  1.00  0.00    -0.317 N 
ATOM     25  N   UNL     1      44.932 128.334  22.482  1.00  0.00    -0.238 NA
ATOM     26  C   UNL     1      44.138 129.112  23.255  1.00  0.00     0.124 A 
ATOM     27  C   UNL     1      42.921 131.325  23.165  1.00  0.00     0.153 C 
BRANCH  26  28
ATOM     28  C   UNL     1      43.692 128.700  24.625  1.00  0.00     0.195 C 
BRANCH  28  29
ATOM     29  C   UNL     1      42.821 127.525  24.533  1.00  0.00     0.070 C 
ATOM     30  N   UNL     1      42.134 126.597  24.459  1.00  0.00    -0.198 NA
ENDBRANCH  28  29
ENDBRANCH  26  28
ENDBRANCH   6  22
TORSDOF 6
ENDMDL
MODEL 9
REMARK VINA RESULT:      -1.6      1.771      2.250
REMARK SMILES Cc1cc(N)c(N[C@@H]2CC[C@H](C)N(c3cnc(CC#N)n3C)[C@H]2F)cc1F
REMARK SMILES IDX 8 1 9 2 10 3 11 4 12 5 13 6 23 7 24 8 7 9 6 11 2 12 3 13
REMARK SMILES IDX 26 14 4 15 25 16 1 17 27 18 5 19 14 22 15 23 21 24 16 25
REMARK SMILES IDX 17 26 22 27 18 28 19 29 20 30
REMARK H PARENT 7 10 5 20 5 21
ROOT
ATOM      1  C   UNL     1      43.586 131.684  18.406  1.00  0.00     0.134 C 
ATOM      2  C   UNL     1      44.385 132.989  18.578  1.00  0.00     0.032 C 
ATOM      3  C   UNL     1      45.423 132.884  19.704  1.00  0.00     0.027 C 
ATOM      4  C   UNL     1      44.771 132.447  21.028  1.00  0.00     0.083 C 
ATOM      5  C   UNL     1      45.856 132.247  22.098  1.00  0.00     0.031 C 
ATOM      6  N   UNL     1      43.959 131.234  20.804  1.00  0.00    -0.322 N 
ATOM      7  C   UNL     1      42.953 131.251  19.737  1.00  0.00     0.286 C 
ATOM      8  F   UNL     1      41.934 132.126  20.079  1.00  0.00    -0.221 F 
ENDROOT
BRANCH   1   9
ATOM      9  N   UNL     1      44.450 130.613  17.893  1.00  0.00    -0.376 N 
ATOM     10  H   UNL     1      44.557 129.746  18.467  1.00  0.00     0.161 HD
BRANCH   9  11
ATOM     11  C   UNL     1      45.169 130.705  16.650  1.00  0.00     0.061 A 
ATOM     12  C   UNL     1      46.677 130.888  14.273  1.00  0.00    -0.013 A 
ATOM     13  C   UNL     1      46.136 129.659  14.675  1.00  0.00     0.034 A 
ATOM     14  C   UNL     1      46.473 132.023  15.070  1.00  0.00     0.128 A 
ATOM     15  C   UNL     1      45.374 129.559  15.850  1.00  0.00     0.055 A 
ATOM     16  C   UNL     1      45.725 131.932  16.246  1.00  0.00     0.067 A 
ATOM     17  C   UNL     1      47.508 130.981  13.025  1.00  0.00     0.047 C 
ATOM     18  F   UNL     1      47.011 133.219  14.716  1.00  0.00    -0.207 F 
BRANCH  15  19
ATOM     19  N   UNL     1      44.787 128.295  16.191  1.00  0.00    -0.397 N 
ATOM     20  H   UNL     1      44.514 127.619  15.443  1.00  0.00     0.156 HD
ATOM     21  H   UNL     1      44.542 128.045  17.174  1.00  0.00     0.156 HD
ENDBRANCH  15  19
ENDBRANCH   9  11
ENDBRANCH   1   9
BRANCH   6  22
ATOM     22  C   UNL     1      43.892 130.176  21.771  1.00  0.00     0.131 A 
ATOM     23  C   UNL     1      42.982 130.091  22.797  1.00  0.00     0.158 A 
ATOM     24  N   UNL     1      44.749 129.142  21.848  1.00  0.00    -0.317 N 
ATOM     25  N   UNL     1      43.261 128.999  23.537  1.00  0.00    -0.238 NA
ATOM     26  C   UNL     1      44.349 128.456  22.944  1.00  0.00     0.124 A 
ATOM     27  C   UNL     1      45.934 128.905  21.027  1.00  0.00     0.153 C 
BRANCH  26  28
ATOM     28  C   UNL     1      45.001 127.203  23.446  1.00  0.00     0.195 C 
BRANCH  28  29
ATOM     29  C   UNL     1      44.352 126.032  22.851  1.00  0.00     0.070 C 
ATOM     30  N   UNL     1      43.841 125.106  22.381  1.00  0.00    -0.198 NA
ENDBRANCH  28  29
ENDBRANCH  26  28
ENDBRANCH   6  22
TORSDOF 6
ENDMDL


