MODEL 1
REMARK VINA RESULT:      -5.9      0.000      0.000
REMARK SMILES CCCO/C(O)=[N+]1\C[C@H](c2ccc3cc[nH]c3c2)[C@H](C)C[C@H]1F
REMARK SMILES IDX 5 1 6 2 4 4 3 5 2 6 1 7 7 8 8 9 22 10 9 11 21 12 19 13 23 14
REMARK SMILES IDX 20 15 10 16 11 17 18 18 12 19 17 20 13 21 16 22 14 23 15 24
REMARK H PARENT 6 3 16 25
ROOT
ATOM      1  C   UNL     1      45.405 129.994  17.386  1.00  0.00     0.549 C 
ENDROOT
BRANCH   1   2
ATOM      2  O   UNL     1      46.256 129.457  18.358  1.00  0.00    -0.430 OA
ATOM      3  H   UNL     1      47.263 129.449  18.258  1.00  0.00     0.303 HD
ENDBRANCH   1   2
BRANCH   1   4
ATOM      4  O   UNL     1      45.273 129.361  16.142  1.00  0.00    -0.415 OA
BRANCH   4   5
ATOM      5  C   UNL     1      46.233 129.452  15.096  1.00  0.00     0.239 C 
BRANCH   5   6
ATOM      6  C   UNL     1      45.923 130.661  14.216  1.00  0.00     0.038 C 
ATOM      7  C   UNL     1      47.139 131.090  13.396  1.00  0.00     0.007 C 
ENDBRANCH   5   6
ENDBRANCH   4   5
ENDBRANCH   1   4
BRANCH   1   8
ATOM      8  N   UNL     1      44.749 131.106  17.625  1.00  0.00    -0.131 N 
ATOM      9  C   UNL     1      45.226 132.086  18.617  1.00  0.00     0.369 C 
ATOM     10  C   UNL     1      43.486 131.432  16.938  1.00  0.00     0.449 C 
ATOM     11  C   UNL     1      44.156 132.347  19.697  1.00  0.00     0.088 C 
ATOM     12  C   UNL     1      42.367 131.623  17.972  1.00  0.00     0.119 C 
ATOM     13  C   UNL     1      42.765 132.640  19.061  1.00  0.00     0.009 C 
ATOM     14  F   UNL     1      43.647 132.595  16.202  1.00  0.00    -0.175 F 
ATOM     15  C   UNL     1      41.658 132.775  20.114  1.00  0.00     0.009 C 
BRANCH  11  16
ATOM     16  C   UNL     1      44.154 131.269  20.780  1.00  0.00    -0.036 A 
ATOM     17  C   UNL     1      45.240 130.365  20.953  1.00  0.00     0.005 A 
ATOM     18  C   UNL     1      43.038 131.170  21.646  1.00  0.00     0.031 A 
ATOM     19  C   UNL     1      45.221 129.397  21.972  1.00  0.00     0.010 A 
ATOM     20  C   UNL     1      43.052 130.199  22.644  1.00  0.00     0.046 A 
ATOM     21  C   UNL     1      44.108 129.346  22.801  1.00  0.00    -0.001 A 
ATOM     22  N   UNL     1      42.100 129.954  23.559  1.00  0.00    -0.361 N 
ATOM     23  C   UNL     1      43.818 128.521  23.866  1.00  0.00     0.028 A 
ATOM     24  C   UNL     1      42.565 128.928  24.310  1.00  0.00     0.083 A 
ATOM     25  H   UNL     1      41.189 130.450  23.673  1.00  0.00     0.166 HD
ENDBRANCH  11  16
ENDBRANCH   1   8
TORSDOF 6
ENDMDL
MODEL 2
REMARK VINA RESULT:      -5.5      1.890      2.676
REMARK SMILES CCCO/C(O)=[N+]1\C[C@H](c2ccc3cc[nH]c3c2)[C@H](C)C[C@H]1F
REMARK SMILES IDX 5 1 6 2 4 4 3 5 2 6 1 7 7 8 8 9 22 10 9 11 21 12 19 13 23 14
REMARK SMILES IDX 20 15 10 16 11 17 18 18 12 19 17 20 13 21 16 22 14 23 15 24
REMARK H PARENT 6 3 16 25
ROOT
ATOM      1  C   UNL     1      45.139 130.790  18.666  1.00  0.00     0.549 C 
ENDROOT
BRANCH   1   2
ATOM      2  O   UNL     1      46.085 129.782  18.885  1.00  0.00    -0.430 OA
ATOM      3  H   UNL     1      46.226 129.017  18.240  1.00  0.00     0.303 HD
ENDBRANCH   1   2
BRANCH   1   4
ATOM      4  O   UNL     1      44.713 131.080  17.362  1.00  0.00    -0.415 OA
BRANCH   4   5
ATOM      5  C   UNL     1      45.383 131.979  16.485  1.00  0.00     0.239 C 
BRANCH   5   6
ATOM      6  C   UNL     1      46.212 131.190  15.475  1.00  0.00     0.038 C 
ATOM      7  C   UNL     1      45.590 129.828  15.174  1.00  0.00     0.007 C 
ENDBRANCH   5   6
ENDBRANCH   4   5
ENDBRANCH   1   4
BRANCH   1   8
ATOM      8  N   UNL     1      44.669 131.485  19.675  1.00  0.00    -0.131 N 
ATOM      9  C   UNL     1      45.424 131.630  20.932  1.00  0.00     0.369 C 
ATOM     10  C   UNL     1      43.349 132.140  19.626  1.00  0.00     0.449 C 
ATOM     11  C   UNL     1      44.603 131.125  22.135  1.00  0.00     0.088 C 
ATOM     12  C   UNL     1      42.462 131.608  20.761  1.00  0.00     0.119 C 
ATOM     13  C   UNL     1      43.163 131.720  22.131  1.00  0.00     0.009 C 
ATOM     14  F   UNL     1      43.508 133.511  19.759  1.00  0.00    -0.175 F 
ATOM     15  C   UNL     1      42.285 131.132  23.243  1.00  0.00     0.009 C 
BRANCH  11  16
ATOM     16  C   UNL     1      44.671 129.605  22.283  1.00  0.00    -0.036 A 
ATOM     17  C   UNL     1      45.614 128.814  21.569  1.00  0.00     0.005 A 
ATOM     18  C   UNL     1      43.769 128.962  23.167  1.00  0.00     0.031 A 
ATOM     19  C   UNL     1      45.669 127.421  21.740  1.00  0.00     0.010 A 
ATOM     20  C   UNL     1      43.850 127.579  23.312  1.00  0.00     0.046 A 
ATOM     21  C   UNL     1      44.769 126.838  22.624  1.00  0.00    -0.001 A 
ATOM     22  N   UNL     1      43.096 126.795  24.099  1.00  0.00    -0.361 N 
ATOM     23  C   UNL     1      44.595 125.521  22.991  1.00  0.00     0.028 A 
ATOM     24  C   UNL     1      43.548 125.535  23.906  1.00  0.00     0.083 A 
ATOM     25  H   UNL     1      42.320 127.092  24.731  1.00  0.00     0.166 HD
ENDBRANCH  11  16
ENDBRANCH   1   8
TORSDOF 6
ENDMDL
MODEL 3
REMARK VINA RESULT:      -5.3      1.149      1.392
REMARK SMILES CCCO/C(O)=[N+]1\C[C@H](c2ccc3cc[nH]c3c2)[C@H](C)C[C@H]1F
REMARK SMILES IDX 5 1 6 2 4 4 3 5 2 6 1 7 7 8 8 9 22 10 9 11 21 12 19 13 23 14
REMARK SMILES IDX 20 15 10 16 11 17 18 18 12 19 17 20 13 21 16 22 14 23 15 24
REMARK H PARENT 6 3 16 25
ROOT
ATOM      1  C   UNL     1      46.185 130.121  16.431  1.00  0.00     0.549 C 
ENDROOT
BRANCH   1   2
ATOM      2  O   UNL     1      46.105 129.013  17.283  1.00  0.00    -0.430 OA
ATOM      3  H   UNL     1      46.063 129.102  18.290  1.00  0.00     0.303 HD
ENDBRANCH   1   2
BRANCH   1   4
ATOM      4  O   UNL     1      47.226 130.212  15.496  1.00  0.00    -0.415 OA
BRANCH   4   5
ATOM      5  C   UNL     1      47.514 129.214  14.523  1.00  0.00     0.239 C 
BRANCH   5   6
ATOM      6  C   UNL     1      47.935 129.877  13.214  1.00  0.00     0.038 C 
ATOM      7  C   UNL     1      47.613 131.370  13.208  1.00  0.00     0.007 C 
ENDBRANCH   5   6
ENDBRANCH   4   5
ENDBRANCH   1   4
BRANCH   1   8
ATOM      8  N   UNL     1      45.305 131.090  16.523  1.00  0.00    -0.131 N 
ATOM      9  C   UNL     1      45.520 132.248  17.410  1.00  0.00     0.369 C 
ATOM     10  C   UNL     1      44.037 131.069  15.771  1.00  0.00     0.449 C 
ATOM     11  C   UNL     1      44.368 132.393  18.424  1.00  0.00     0.088 C 
ATOM     12  C   UNL     1      42.853 131.131  16.746  1.00  0.00     0.119 C 
ATOM     13  C   UNL     1      42.979 132.319  17.721  1.00  0.00     0.009 C 
ATOM     14  F   UNL     1      43.993 132.156  14.911  1.00  0.00    -0.175 F 
ATOM     15  C   UNL     1      41.817 132.331  18.723  1.00  0.00     0.009 C 
BRANCH  11  16
ATOM     16  C   UNL     1      44.533 131.460  19.623  1.00  0.00    -0.036 A 
ATOM     17  C   UNL     1      45.674 130.624  19.782  1.00  0.00     0.005 A 
ATOM     18  C   UNL     1      43.520 131.431  20.613  1.00  0.00     0.031 A 
ATOM     19  C   UNL     1      45.810 129.790  20.906  1.00  0.00     0.010 A 
ATOM     20  C   UNL     1      43.687 130.594  21.713  1.00  0.00     0.046 A 
ATOM     21  C   UNL     1      44.794 129.805  21.853  1.00  0.00    -0.001 A 
ATOM     22  N   UNL     1      42.850 130.433  22.751  1.00  0.00    -0.361 N 
ATOM     23  C   UNL     1      44.658 129.110  23.036  1.00  0.00     0.028 A 
ATOM     24  C   UNL     1      43.441 129.526  23.563  1.00  0.00     0.083 A 
ATOM     25  H   UNL     1      41.933 130.906  22.904  1.00  0.00     0.166 HD
ENDBRANCH  11  16
ENDBRANCH   1   8
TORSDOF 6
ENDMDL
MODEL 4
REMARK VINA RESULT:      -5.3      1.234      1.622
REMARK SMILES CCCO/C(O)=[N+]1\C[C@H](c2ccc3cc[nH]c3c2)[C@H](C)C[C@H]1F
REMARK SMILES IDX 5 1 6 2 4 4 3 5 2 6 1 7 7 8 8 9 22 10 9 11 21 12 19 13 23 14
REMARK SMILES IDX 20 15 10 16 11 17 18 18 12 19 17 20 13 21 16 22 14 23 15 24
REMARK H PARENT 6 3 16 25
ROOT
ATOM      1  C   UNL     1      45.566 130.233  18.404  1.00  0.00     0.549 C 
ENDROOT
BRANCH   1   2
ATOM      2  O   UNL     1      46.117 129.639  19.545  1.00  0.00    -0.430 OA
ATOM      3  H   UNL     1      45.593 129.510  20.400  1.00  0.00     0.303 HD
ENDBRANCH   1   2
BRANCH   1   4
ATOM      4  O   UNL     1      45.878 129.733  17.132  1.00  0.00    -0.415 OA
BRANCH   4   5
ATOM      5  C   UNL     1      46.444 130.514  16.085  1.00  0.00     0.239 C 
BRANCH   5   6
ATOM      6  C   UNL     1      46.023 129.944  14.733  1.00  0.00     0.038 C 
ATOM      7  C   UNL     1      46.712 130.666  13.576  1.00  0.00     0.007 C 
ENDBRANCH   5   6
ENDBRANCH   4   5
ENDBRANCH   1   4
BRANCH   1   8
ATOM      8  N   UNL     1      44.779 131.278  18.519  1.00  0.00    -0.131 N 
ATOM      9  C   UNL     1      45.077 132.370  19.463  1.00  0.00     0.369 C 
ATOM     10  C   UNL     1      43.538 131.411  17.735  1.00  0.00     0.449 C 
ATOM     11  C   UNL     1      43.914 132.580  20.453  1.00  0.00     0.088 C 
ATOM     12  C   UNL     1      42.336 131.543  18.682  1.00  0.00     0.119 C 
ATOM     13  C   UNL     1      42.546 132.671  19.713  1.00  0.00     0.009 C 
ATOM     14  F   UNL     1      43.621 132.533  16.925  1.00  0.00    -0.175 F 
ATOM     15  C   UNL     1      41.361 132.749  20.685  1.00  0.00     0.009 C 
BRANCH  11  16
ATOM     16  C   UNL     1      43.955 131.585  21.612  1.00  0.00    -0.036 A 
ATOM     17  C   UNL     1      43.373 131.871  22.879  1.00  0.00     0.005 A 
ATOM     18  C   UNL     1      44.587 130.332  21.417  1.00  0.00     0.031 A 
ATOM     19  C   UNL     1      43.407 130.929  23.921  1.00  0.00     0.010 A 
ATOM     20  C   UNL     1      44.602 129.422  22.471  1.00  0.00     0.046 A 
ATOM     21  C   UNL     1      44.030 129.711  23.678  1.00  0.00    -0.001 A 
ATOM     22  N   UNL     1      45.140 128.192  22.480  1.00  0.00    -0.361 N 
ATOM     23  C   UNL     1      44.209 128.615  24.493  1.00  0.00     0.028 A 
ATOM     24  C   UNL     1      44.902 127.694  23.715  1.00  0.00     0.083 A 
ATOM     25  H   UNL     1      45.640 127.714  21.698  1.00  0.00     0.166 HD
ENDBRANCH  11  16
ENDBRANCH   1   8
TORSDOF 6
ENDMDL
MODEL 5
REMARK VINA RESULT:      -5.2      2.207      3.092
REMARK SMILES CCCO/C(O)=[N+]1\C[C@H](c2ccc3cc[nH]c3c2)[C@H](C)C[C@H]1F
REMARK SMILES IDX 5 1 6 2 4 4 3 5 2 6 1 7 7 8 8 9 22 10 9 11 21 12 19 13 23 14
REMARK SMILES IDX 20 15 10 16 11 17 18 18 12 19 17 20 13 21 16 22 14 23 15 24
REMARK H PARENT 6 3 16 25
ROOT
ATOM      1  C   UNL     1      44.988 130.763  19.015  1.00  0.00     0.549 C 
ENDROOT
BRANCH   1   2
ATOM      2  O   UNL     1      46.108 129.951  19.221  1.00  0.00    -0.430 OA
ATOM      3  H   UNL     1      46.742 129.695  18.476  1.00  0.00     0.303 HD
ENDBRANCH   1   2
BRANCH   1   4
ATOM      4  O   UNL     1      44.351 130.775  17.766  1.00  0.00    -0.415 OA
BRANCH   4   5
ATOM      5  C   UNL     1      45.021 130.571  16.527  1.00  0.00     0.239 C 
BRANCH   5   6
ATOM      6  C   UNL     1      45.759 131.845  16.124  1.00  0.00     0.038 C 
ATOM      7  C   UNL     1      46.464 131.688  14.778  1.00  0.00     0.007 C 
ENDBRANCH   5   6
ENDBRANCH   4   5
ENDBRANCH   1   4
BRANCH   1   8
ATOM      8  N   UNL     1      44.547 131.538  19.979  1.00  0.00    -0.131 N 
ATOM      9  C   UNL     1      45.260 131.655  21.264  1.00  0.00     0.369 C 
ATOM     10  C   UNL     1      43.302 132.316  19.849  1.00  0.00     0.449 C 
ATOM     11  C   UNL     1      44.343 131.276  22.444  1.00  0.00     0.088 C 
ATOM     12  C   UNL     1      42.320 131.915  20.959  1.00  0.00     0.119 C 
ATOM     13  C   UNL     1      42.970 132.008  22.355  1.00  0.00     0.009 C 
ATOM     14  F   UNL     1      43.590 133.669  19.945  1.00  0.00    -0.175 F 
ATOM     15  C   UNL     1      41.993 131.549  23.445  1.00  0.00     0.009 C 
BRANCH  11  16
ATOM     16  C   UNL     1      44.254 129.764  22.644  1.00  0.00    -0.036 A 
ATOM     17  C   UNL     1      43.138 129.146  23.276  1.00  0.00     0.005 A 
ATOM     18  C   UNL     1      45.315 128.947  22.180  1.00  0.00     0.031 A 
ATOM     19  C   UNL     1      43.072 127.751  23.428  1.00  0.00     0.010 A 
ATOM     20  C   UNL     1      45.217 127.568  22.348  1.00  0.00     0.046 A 
ATOM     21  C   UNL     1      44.133 126.993  22.949  1.00  0.00    -0.001 A 
ATOM     22  N   UNL     1      46.107 126.635  21.972  1.00  0.00    -0.361 N 
ATOM     23  C   UNL     1      44.339 125.630  22.954  1.00  0.00     0.028 A 
ATOM     24  C   UNL     1      45.573 125.447  22.341  1.00  0.00     0.083 A 
ATOM     25  H   UNL     1      47.022 126.788  21.494  1.00  0.00     0.166 HD
ENDBRANCH  11  16
ENDBRANCH   1   8
TORSDOF 6
ENDMDL
MODEL 6
REMARK VINA RESULT:      -5.0      1.988      2.766
REMARK SMILES CCCO/C(O)=[N+]1\C[C@H](c2ccc3cc[nH]c3c2)[C@H](C)C[C@H]1F
REMARK SMILES IDX 5 1 6 2 4 4 3 5 2 6 1 7 7 8 8 9 22 10 9 11 21 12 19 13 23 14
REMARK SMILES IDX 20 15 10 16 11 17 18 18 12 19 17 20 13 21 16 22 14 23 15 24
REMARK H PARENT 6 3 16 25
ROOT
ATOM      1  C   UNL     1      44.121 131.364  18.452  1.00  0.00     0.549 C 
ENDROOT
BRANCH   1   2
ATOM      2  O   UNL     1      43.143 131.277  17.454  1.00  0.00    -0.430 OA
ATOM      3  H   UNL     1      42.209 130.935  17.634  1.00  0.00     0.303 HD
ENDBRANCH   1   2
BRANCH   1   4
ATOM      4  O   UNL     1      45.366 130.745  18.270  1.00  0.00    -0.415 OA
BRANCH   4   5
ATOM      5  C   UNL     1      45.954 130.496  16.999  1.00  0.00     0.239 C 
BRANCH   5   6
ATOM      6  C   UNL     1      45.827 131.738  16.120  1.00  0.00     0.038 C 
ATOM      7  C   UNL     1      46.445 131.519  14.740  1.00  0.00     0.007 C 
ENDBRANCH   5   6
ENDBRANCH   4   5
ENDBRANCH   1   4
BRANCH   1   8
ATOM      8  N   UNL     1      43.866 132.000  19.572  1.00  0.00    -0.131 N 
ATOM      9  C   UNL     1      44.908 132.212  20.594  1.00  0.00     0.369 C 
ATOM     10  C   UNL     1      42.523 132.517  19.891  1.00  0.00     0.449 C 
ATOM     11  C   UNL     1      44.483 131.616  21.951  1.00  0.00     0.088 C 
ATOM     12  C   UNL     1      42.021 131.888  21.198  1.00  0.00     0.119 C 
ATOM     13  C   UNL     1      43.042 132.060  22.342  1.00  0.00     0.009 C 
ATOM     14  F   UNL     1      42.578 133.895  20.025  1.00  0.00    -0.175 F 
ATOM     15  C   UNL     1      42.548 131.377  23.623  1.00  0.00     0.009 C 
BRANCH  11  16
ATOM     16  C   UNL     1      44.734 130.110  22.024  1.00  0.00    -0.036 A 
ATOM     17  C   UNL     1      45.640 129.448  21.148  1.00  0.00     0.005 A 
ATOM     18  C   UNL     1      44.048 129.348  23.001  1.00  0.00     0.031 A 
ATOM     19  C   UNL     1      45.868 128.065  21.251  1.00  0.00     0.010 A 
ATOM     20  C   UNL     1      44.297 127.980  23.075  1.00  0.00     0.046 A 
ATOM     21  C   UNL     1      45.178 127.364  22.231  1.00  0.00    -0.001 A 
ATOM     22  N   UNL     1      43.756 127.096  23.930  1.00  0.00    -0.361 N 
ATOM     23  C   UNL     1      45.202 126.026  22.564  1.00  0.00     0.028 A 
ATOM     24  C   UNL     1      44.307 125.900  23.621  1.00  0.00     0.083 A 
ATOM     25  H   UNL     1      43.056 127.288  24.679  1.00  0.00     0.166 HD
ENDBRANCH  11  16
ENDBRANCH   1   8
TORSDOF 6
ENDMDL
MODEL 7
REMARK VINA RESULT:      -4.3      0.857      1.016
REMARK SMILES CCCO/C(O)=[N+]1\C[C@H](c2ccc3cc[nH]c3c2)[C@H](C)C[C@H]1F
REMARK SMILES IDX 5 1 6 2 4 4 3 5 2 6 1 7 7 8 8 9 22 10 9 11 21 12 19 13 23 14
REMARK SMILES IDX 20 15 10 16 11 17 18 18 12 19 17 20 13 21 16 22 14 23 15 24
REMARK H PARENT 6 3 16 25
ROOT
ATOM      1  C   UNL     1      45.308 129.780  16.815  1.00  0.00     0.549 C 
ENDROOT
BRANCH   1   2
ATOM      2  O   UNL     1      44.512 128.650  16.597  1.00  0.00    -0.430 OA
ATOM      3  H   UNL     1      44.757 127.734  16.947  1.00  0.00     0.303 HD
ENDBRANCH   1   2
BRANCH   1   4
ATOM      4  O   UNL     1      46.700 129.696  16.670  1.00  0.00    -0.415 OA
BRANCH   4   5
ATOM      5  C   UNL     1      47.391 129.940  15.450  1.00  0.00     0.239 C 
BRANCH   5   6
ATOM      6  C   UNL     1      46.848 131.209  14.796  1.00  0.00     0.038 C 
ATOM      7  C   UNL     1      46.560 130.999  13.311  1.00  0.00     0.007 C 
ENDBRANCH   5   6
ENDBRANCH   4   5
ENDBRANCH   1   4
BRANCH   1   8
ATOM      8  N   UNL     1      44.758 130.914  17.183  1.00  0.00    -0.131 N 
ATOM      9  C   UNL     1      45.442 131.840  18.105  1.00  0.00     0.369 C 
ATOM     10  C   UNL     1      43.418 131.320  16.723  1.00  0.00     0.449 C 
ATOM     11  C   UNL     1      44.579 132.118  19.352  1.00  0.00     0.088 C 
ATOM     12  C   UNL     1      42.495 131.532  17.932  1.00  0.00     0.119 C 
ATOM     13  C   UNL     1      43.119 132.496  18.962  1.00  0.00     0.009 C 
ATOM     14  F   UNL     1      43.516 132.496  15.996  1.00  0.00    -0.175 F 
ATOM     15  C   UNL     1      42.208 132.650  20.187  1.00  0.00     0.009 C 
BRANCH  11  16
ATOM     16  C   UNL     1      44.699 131.009  20.397  1.00  0.00    -0.036 A 
ATOM     17  C   UNL     1      45.627 129.938  20.263  1.00  0.00     0.005 A 
ATOM     18  C   UNL     1      43.865 131.052  21.540  1.00  0.00     0.031 A 
ATOM     19  C   UNL     1      45.731 128.942  21.249  1.00  0.00     0.010 A 
ATOM     20  C   UNL     1      43.994 130.049  22.498  1.00  0.00     0.046 A 
ATOM     21  C   UNL     1      44.897 129.033  22.356  1.00  0.00    -0.001 A 
ATOM     22  N   UNL     1      43.305 129.919  23.643  1.00  0.00    -0.361 N 
ATOM     23  C   UNL     1      44.781 128.220  23.463  1.00  0.00     0.028 A 
ATOM     24  C   UNL     1      43.784 128.802  24.237  1.00  0.00     0.083 A 
ATOM     25  H   UNL     1      42.555 130.548  24.005  1.00  0.00     0.166 HD
ENDBRANCH  11  16
ENDBRANCH   1   8
TORSDOF 6
ENDMDL
MODEL 8
REMARK VINA RESULT:      -4.2      2.871      4.511
REMARK SMILES CCCO/C(O)=[N+]1\C[C@H](c2ccc3cc[nH]c3c2)[C@H](C)C[C@H]1F
REMARK SMILES IDX 5 1 6 2 4 4 3 5 2 6 1 7 7 8 8 9 22 10 9 11 21 12 19 13 23 14
REMARK SMILES IDX 20 15 10 16 11 17 18 18 12 19 17 20 13 21 16 22 14 23 15 24
REMARK H PARENT 6 3 16 25
ROOT
ATOM      1  C   UNL     1      45.087 130.736  20.751  1.00  0.00     0.549 C 
ENDROOT
BRANCH   1   2
ATOM      2  O   UNL     1      46.072 129.745  20.680  1.00  0.00    -0.430 OA
ATOM      3  H   UNL     1      46.142 129.100  19.904  1.00  0.00     0.303 HD
ENDBRANCH   1   2
BRANCH   1   4
ATOM      4  O   UNL     1      44.885 131.605  19.669  1.00  0.00    -0.415 OA
BRANCH   4   5
ATOM      5  C   UNL     1      44.397 131.194  18.397  1.00  0.00     0.239 C 
BRANCH   5   6
ATOM      6  C   UNL     1      45.316 131.723  17.298  1.00  0.00     0.038 C 
ATOM      7  C   UNL     1      45.873 130.593  16.434  1.00  0.00     0.007 C 
ENDBRANCH   5   6
ENDBRANCH   4   5
ENDBRANCH   1   4
BRANCH   1   8
ATOM      8  N   UNL     1      44.367 130.874  21.840  1.00  0.00    -0.131 N 
ATOM      9  C   UNL     1      44.886 130.484  23.164  1.00  0.00     0.369 C 
ATOM     10  C   UNL     1      42.990 131.399  21.807  1.00  0.00     0.449 C 
ATOM     11  C   UNL     1      43.968 129.443  23.836  1.00  0.00     0.088 C 
ATOM     12  C   UNL     1      42.023 130.361  22.394  1.00  0.00     0.119 C 
ATOM     13  C   UNL     1      42.475 129.888  23.791  1.00  0.00     0.009 C 
ATOM     14  F   UNL     1      42.924 132.570  22.545  1.00  0.00    -0.175 F 
ATOM     15  C   UNL     1      41.529 128.810  24.336  1.00  0.00     0.009 C 
BRANCH  11  16
ATOM     16  C   UNL     1      44.233 128.027  23.328  1.00  0.00    -0.036 A 
ATOM     17  C   UNL     1      45.446 127.669  22.675  1.00  0.00     0.005 A 
ATOM     18  C   UNL     1      43.241 127.033  23.520  1.00  0.00     0.031 A 
ATOM     19  C   UNL     1      45.673 126.353  22.237  1.00  0.00     0.010 A 
ATOM     20  C   UNL     1      43.498 125.740  23.073  1.00  0.00     0.046 A 
ATOM     21  C   UNL     1      44.673 125.413  22.456  1.00  0.00    -0.001 A 
ATOM     22  N   UNL     1      42.695 124.668  23.168  1.00  0.00    -0.361 N 
ATOM     23  C   UNL     1      44.618 124.072  22.145  1.00  0.00     0.028 A 
ATOM     24  C   UNL     1      43.376 123.645  22.602  1.00  0.00     0.083 A 
ATOM     25  H   UNL     1      41.741 124.627  23.590  1.00  0.00     0.166 HD
ENDBRANCH  11  16
ENDBRANCH   1   8
TORSDOF 6
ENDMDL
MODEL 9
REMARK VINA RESULT:      -4.0      3.178      6.492
REMARK SMILES CCCO/C(O)=[N+]1\C[C@H](c2ccc3cc[nH]c3c2)[C@H](C)C[C@H]1F
REMARK SMILES IDX 5 1 6 2 4 4 3 5 2 6 1 7 7 8 8 9 22 10 9 11 21 12 19 13 23 14
REMARK SMILES IDX 20 15 10 16 11 17 18 18 12 19 17 20 13 21 16 22 14 23 15 24
REMARK H PARENT 6 3 16 25
ROOT
ATOM      1  C   UNL     1      46.836 132.329  21.015  1.00  0.00     0.549 C 
ENDROOT
BRANCH   1   2
ATOM      2  O   UNL     1      47.931 131.610  20.523  1.00  0.00    -0.430 OA
ATOM      3  H   UNL     1      48.837 132.032  20.371  1.00  0.00     0.303 HD
ENDBRANCH   1   2
BRANCH   1   4
ATOM      4  O   UNL     1      47.026 133.603  21.569  1.00  0.00    -0.415 OA
BRANCH   4   5
ATOM      5  C   UNL     1      48.301 134.171  21.846  1.00  0.00     0.239 C 
BRANCH   5   6
ATOM      6  C   UNL     1      48.226 135.691  21.722  1.00  0.00     0.038 C 
ATOM      7  C   UNL     1      49.329 136.239  20.818  1.00  0.00     0.007 C 
ENDBRANCH   5   6
ENDBRANCH   4   5
ENDBRANCH   1   4
BRANCH   1   8
ATOM      8  N   UNL     1      45.634 131.803  20.986  1.00  0.00    -0.131 N 
ATOM      9  C   UNL     1      45.398 130.440  20.476  1.00  0.00     0.369 C 
ATOM     10  C   UNL     1      44.443 132.549  21.432  1.00  0.00     0.449 C 
ATOM     11  C   UNL     1      44.385 130.449  19.315  1.00  0.00     0.088 C 
ATOM     12  C   UNL     1      43.433 132.654  20.281  1.00  0.00     0.119 C 
ATOM     13  C   UNL     1      43.112 131.272  19.676  1.00  0.00     0.009 C 
ATOM     14  F   UNL     1      43.862 131.891  22.506  1.00  0.00    -0.175 F 
ATOM     15  C   UNL     1      42.146 131.404  18.492  1.00  0.00     0.009 C 
BRANCH  11  16
ATOM     16  C   UNL     1      45.035 130.821  17.983  1.00  0.00    -0.036 A 
ATOM     17  C   UNL     1      45.003 132.147  17.467  1.00  0.00     0.005 A 
ATOM     18  C   UNL     1      45.698 129.814  17.240  1.00  0.00     0.031 A 
ATOM     19  C   UNL     1      45.627 132.466  16.250  1.00  0.00     0.010 A 
ATOM     20  C   UNL     1      46.305 130.165  16.036  1.00  0.00     0.046 A 
ATOM     21  C   UNL     1      46.272 131.446  15.562  1.00  0.00    -0.001 A 
ATOM     22  N   UNL     1      46.983 129.363  15.199  1.00  0.00    -0.361 N 
ATOM     23  C   UNL     1      46.961 131.462  14.369  1.00  0.00     0.028 A 
ATOM     24  C   UNL     1      47.386 130.152  14.177  1.00  0.00     0.083 A 
ATOM     25  H   UNL     1      47.163 128.340  15.309  1.00  0.00     0.166 HD
ENDBRANCH  11  16
ENDBRANCH   1   8
TORSDOF 6
ENDMDL


