MODEL 1
REMARK VINA RESULT:      -9.1      0.000      0.000
REMARK SMILES O/C(=N\[C@H]1Cc2cc(F)ccc2[C@H]1O)C1CCCC1
REMARK SMILES IDX 3 1 2 2 1 3 15 5 16 6 19 7 17 8 18 9 4 10 5 11 13 12 6 13
REMARK SMILES IDX 12 14 7 15 11 16 8 17 10 18 9 19 14 20
REMARK H PARENT 1 4 14 21
ROOT
ATOM      1  N   UNL     1      45.016 131.003  16.817  1.00  0.00    -0.249 NA
ENDROOT
BRANCH   1   2
ATOM      2  C   UNL     1      45.506 131.406  15.681  1.00  0.00     0.184 C 
BRANCH   2   3
ATOM      3  O   UNL     1      45.986 132.709  15.548  1.00  0.00    -0.496 OA
ATOM      4  H   UNL     1      46.082 133.149  14.640  1.00  0.00     0.294 HD
ENDBRANCH   2   3
BRANCH   2   5
ATOM      5  C   UNL     1      45.541 130.462  14.499  1.00  0.00     0.075 C 
ATOM      6  C   UNL     1      46.253 131.082  13.299  1.00  0.00     0.013 C 
ATOM      7  C   UNL     1      46.337 129.200  14.819  1.00  0.00     0.013 C 
ATOM      8  C   UNL     1      47.711 130.640  13.386  1.00  0.00     0.001 C 
ATOM      9  C   UNL     1      47.768 129.473  14.370  1.00  0.00     0.001 C 
ENDBRANCH   2   5
ENDBRANCH   1   2
BRANCH   1  10
ATOM     10  C   UNL     1      44.944 131.828  18.023  1.00  0.00     0.146 C 
ATOM     11  C   UNL     1      43.487 131.980  18.518  1.00  0.00     0.066 C 
ATOM     12  C   UNL     1      45.751 131.199  19.189  1.00  0.00     0.170 C 
ATOM     13  C   UNL     1      43.594 131.786  19.981  1.00  0.00    -0.037 A 
ATOM     14  C   UNL     1      44.844 131.359  20.355  1.00  0.00    -0.014 A 
ATOM     15  C   UNL     1      42.581 131.972  20.926  1.00  0.00     0.043 A 
ATOM     16  C   UNL     1      45.147 131.101  21.695  1.00  0.00     0.010 A 
ATOM     17  C   UNL     1      42.865 131.723  22.278  1.00  0.00     0.123 A 
ATOM     18  C   UNL     1      44.148 131.289  22.662  1.00  0.00     0.039 A 
ATOM     19  F   UNL     1      41.902 131.897  23.215  1.00  0.00    -0.207 F 
BRANCH  12  20
ATOM     20  O   UNL     1      45.996 129.834  18.962  1.00  0.00    -0.386 OA
ATOM     21  H   UNL     1      45.488 129.586  18.146  1.00  0.00     0.211 HD
ENDBRANCH  12  20
ENDBRANCH   1  10
TORSDOF 5
ENDMDL
MODEL 2
REMARK VINA RESULT:      -8.9      0.953      1.345
REMARK SMILES O/C(=N\[C@H]1Cc2cc(F)ccc2[C@H]1O)C1CCCC1
REMARK SMILES IDX 3 1 2 2 1 3 15 5 16 6 19 7 17 8 18 9 4 10 5 11 13 12 6 13
REMARK SMILES IDX 12 14 7 15 11 16 8 17 10 18 9 19 14 20
REMARK H PARENT 1 4 14 21
ROOT
ATOM      1  N   UNL     1      44.354 130.858  16.313  1.00  0.00    -0.249 NA
ENDROOT
BRANCH   1   2
ATOM      2  C   UNL     1      45.038 131.027  15.219  1.00  0.00     0.184 C 
BRANCH   2   3
ATOM      3  O   UNL     1      44.386 131.077  13.986  1.00  0.00    -0.496 OA
ATOM      4  H   UNL     1      43.380 130.980  13.914  1.00  0.00     0.294 HD
ENDBRANCH   2   3
BRANCH   2   5
ATOM      5  C   UNL     1      46.544 131.151  15.284  1.00  0.00     0.075 C 
ATOM      6  C   UNL     1      47.226 129.785  15.310  1.00  0.00     0.013 C 
ATOM      7  C   UNL     1      47.099 131.844  14.043  1.00  0.00     0.013 C 
ATOM      8  C   UNL     1      47.559 129.442  13.861  1.00  0.00     0.001 C 
ATOM      9  C   UNL     1      47.447 130.735  13.056  1.00  0.00     0.001 C 
ENDBRANCH   2   5
ENDBRANCH   1   2
BRANCH   1  10
ATOM     10  C   UNL     1      44.428 131.744  17.475  1.00  0.00     0.146 C 
ATOM     11  C   UNL     1      43.063 131.844  18.197  1.00  0.00     0.066 C 
ATOM     12  C   UNL     1      45.451 131.228  18.520  1.00  0.00     0.170 C 
ATOM     13  C   UNL     1      43.419 131.739  19.629  1.00  0.00    -0.037 A 
ATOM     14  C   UNL     1      44.737 131.403  19.810  1.00  0.00    -0.014 A 
ATOM     15  C   UNL     1      42.563 131.921  20.719  1.00  0.00     0.043 A 
ATOM     16  C   UNL     1      45.269 131.238  21.093  1.00  0.00     0.010 A 
ATOM     17  C   UNL     1      43.078 131.764  22.015  1.00  0.00     0.123 A 
ATOM     18  C   UNL     1      44.430 131.424  22.202  1.00  0.00     0.039 A 
ATOM     19  F   UNL     1      42.270 131.938  23.090  1.00  0.00    -0.207 F 
BRANCH  12  20
ATOM     20  O   UNL     1      45.743 129.867  18.319  1.00  0.00    -0.386 OA
ATOM     21  H   UNL     1      46.354 129.821  17.538  1.00  0.00     0.211 HD
ENDBRANCH  12  20
ENDBRANCH   1  10
TORSDOF 5
ENDMDL
MODEL 3
REMARK VINA RESULT:      -8.8      3.276      7.055
REMARK SMILES O/C(=N\[C@H]1Cc2cc(F)ccc2[C@H]1O)C1CCCC1
REMARK SMILES IDX 3 1 2 2 1 3 15 5 16 6 19 7 17 8 18 9 4 10 5 11 13 12 6 13
REMARK SMILES IDX 12 14 7 15 11 16 8 17 10 18 9 19 14 20
REMARK H PARENT 1 4 14 21
ROOT
ATOM      1  N   UNL     1      44.883 131.303  18.241  1.00  0.00    -0.249 NA
ENDROOT
BRANCH   1   2
ATOM      2  C   UNL     1      43.851 131.777  18.877  1.00  0.00     0.184 C 
BRANCH   2   3
ATOM      3  O   UNL     1      42.599 131.799  18.263  1.00  0.00    -0.496 OA
ATOM      4  H   UNL     1      42.226 132.645  17.849  1.00  0.00     0.294 HD
ENDBRANCH   2   3
BRANCH   2   5
ATOM      5  C   UNL     1      44.016 132.319  20.280  1.00  0.00     0.075 C 
ATOM      6  C   UNL     1      42.811 131.994  21.159  1.00  0.00     0.013 C 
ATOM      7  C   UNL     1      45.205 131.677  20.989  1.00  0.00     0.013 C 
ATOM      8  C   UNL     1      43.144 130.693  21.884  1.00  0.00     0.001 C 
ATOM      9  C   UNL     1      44.650 130.477  21.748  1.00  0.00     0.001 C 
ENDBRANCH   2   5
ENDBRANCH   1   2
BRANCH   1  10
ATOM     10  C   UNL     1      44.871 130.899  16.835  1.00  0.00     0.146 C 
ATOM     11  C   UNL     1      45.410 132.023  15.920  1.00  0.00     0.066 C 
ATOM     12  C   UNL     1      45.766 129.656  16.594  1.00  0.00     0.170 C 
ATOM     13  C   UNL     1      46.303 131.309  14.981  1.00  0.00    -0.037 A 
ATOM     14  C   UNL     1      46.499 130.001  15.349  1.00  0.00    -0.014 A 
ATOM     15  C   UNL     1      46.929 131.843  13.851  1.00  0.00     0.043 A 
ATOM     16  C   UNL     1      47.325 129.157  14.600  1.00  0.00     0.010 A 
ATOM     17  C   UNL     1      47.760 131.013  13.084  1.00  0.00     0.123 A 
ATOM     18  C   UNL     1      47.957 129.670  13.457  1.00  0.00     0.039 A 
ATOM     19  F   UNL     1      48.377 131.505  11.981  1.00  0.00    -0.207 F 
BRANCH  12  20
ATOM     20  O   UNL     1      46.679 129.472  17.646  1.00  0.00    -0.386 OA
ATOM     21  H   UNL     1      47.089 130.359  17.824  1.00  0.00     0.211 HD
ENDBRANCH  12  20
ENDBRANCH   1  10
TORSDOF 5
ENDMDL
MODEL 4
REMARK VINA RESULT:      -8.8      3.298      7.050
REMARK SMILES O/C(=N\[C@H]1Cc2cc(F)ccc2[C@H]1O)C1CCCC1
REMARK SMILES IDX 3 1 2 2 1 3 15 5 16 6 19 7 17 8 18 9 4 10 5 11 13 12 6 13
REMARK SMILES IDX 12 14 7 15 11 16 8 17 10 18 9 19 14 20
REMARK H PARENT 1 4 14 21
ROOT
ATOM      1  N   UNL     1      44.141 130.975  17.771  1.00  0.00    -0.249 NA
ENDROOT
BRANCH   1   2
ATOM      2  C   UNL     1      43.552 131.788  18.598  1.00  0.00     0.184 C 
BRANCH   2   3
ATOM      3  O   UNL     1      42.265 132.254  18.326  1.00  0.00    -0.496 OA
ATOM      4  H   UNL     1      42.019 132.632  17.419  1.00  0.00     0.294 HD
ENDBRANCH   2   3
BRANCH   2   5
ATOM      5  C   UNL     1      44.272 132.241  19.849  1.00  0.00     0.075 C 
ATOM      6  C   UNL     1      43.350 132.243  21.066  1.00  0.00     0.013 C 
ATOM      7  C   UNL     1      45.405 131.287  20.216  1.00  0.00     0.013 C 
ATOM      8  C   UNL     1      43.530 130.888  21.745  1.00  0.00     0.001 C 
ATOM      9  C   UNL     1      44.810 130.271  21.184  1.00  0.00     0.001 C 
ENDBRANCH   2   5
ENDBRANCH   1   2
BRANCH   1  10
ATOM     10  C   UNL     1      45.473 131.194  17.208  1.00  0.00     0.146 C 
ATOM     11  C   UNL     1      46.168 129.857  16.863  1.00  0.00     0.066 C 
ATOM     12  C   UNL     1      45.407 132.017  15.895  1.00  0.00     0.170 C 
ATOM     13  C   UNL     1      46.763 130.107  15.532  1.00  0.00    -0.037 A 
ATOM     14  C   UNL     1      46.348 131.301  14.997  1.00  0.00    -0.014 A 
ATOM     15  C   UNL     1      47.631 129.263  14.831  1.00  0.00     0.043 A 
ATOM     16  C   UNL     1      46.784 131.716  13.735  1.00  0.00     0.010 A 
ATOM     17  C   UNL     1      48.084 129.664  13.565  1.00  0.00     0.123 A 
ATOM     18  C   UNL     1      47.662 130.889  13.017  1.00  0.00     0.039 A 
ATOM     19  F   UNL     1      48.928 128.866  12.865  1.00  0.00    -0.207 F 
BRANCH  12  20
ATOM     20  O   UNL     1      44.114 131.995  15.344  1.00  0.00    -0.386 OA
ATOM     21  H   UNL     1      44.218 131.747  14.388  1.00  0.00     0.211 HD
ENDBRANCH  12  20
ENDBRANCH   1  10
TORSDOF 5
ENDMDL
MODEL 5
REMARK VINA RESULT:      -8.5      1.414      1.798
REMARK SMILES O/C(=N\[C@H]1Cc2cc(F)ccc2[C@H]1O)C1CCCC1
REMARK SMILES IDX 3 1 2 2 1 3 15 5 16 6 19 7 17 8 18 9 4 10 5 11 13 12 6 13
REMARK SMILES IDX 12 14 7 15 11 16 8 17 10 18 9 19 14 20
REMARK H PARENT 1 4 14 21
ROOT
ATOM      1  N   UNL     1      45.293 130.418  17.995  1.00  0.00    -0.249 NA
ENDROOT
BRANCH   1   2
ATOM      2  C   UNL     1      46.023 130.598  16.933  1.00  0.00     0.184 C 
BRANCH   2   3
ATOM      3  O   UNL     1      47.083 129.734  16.656  1.00  0.00    -0.496 OA
ATOM      4  H   UNL     1      46.941 128.737  16.550  1.00  0.00     0.294 HD
ENDBRANCH   2   3
BRANCH   2   5
ATOM      5  C   UNL     1      45.729 131.756  16.005  1.00  0.00     0.075 C 
ATOM      6  C   UNL     1      46.638 131.746  14.778  1.00  0.00     0.013 C 
ATOM      7  C   UNL     1      44.311 131.676  15.446  1.00  0.00     0.013 C 
ATOM      8  C   UNL     1      45.879 130.995  13.687  1.00  0.00     0.001 C 
ATOM      9  C   UNL     1      44.418 130.923  14.124  1.00  0.00     0.001 C 
ENDBRANCH   2   5
ENDBRANCH   1   2
BRANCH   1  10
ATOM     10  C   UNL     1      45.093 131.425  19.037  1.00  0.00     0.146 C 
ATOM     11  C   UNL     1      43.590 131.647  19.326  1.00  0.00     0.066 C 
ATOM     12  C   UNL     1      45.748 130.995  20.376  1.00  0.00     0.170 C 
ATOM     13  C   UNL     1      43.522 131.691  20.803  1.00  0.00    -0.037 A 
ATOM     14  C   UNL     1      44.714 131.335  21.385  1.00  0.00    -0.014 A 
ATOM     15  C   UNL     1      42.408 132.020  21.581  1.00  0.00     0.043 A 
ATOM     16  C   UNL     1      44.854 131.296  22.776  1.00  0.00     0.010 A 
ATOM     17  C   UNL     1      42.528 131.992  22.979  1.00  0.00     0.123 A 
ATOM     18  C   UNL     1      43.750 131.631  23.576  1.00  0.00     0.039 A 
ATOM     19  F   UNL     1      41.464 132.309  23.756  1.00  0.00    -0.207 F 
BRANCH  12  20
ATOM     20  O   UNL     1      45.999 129.612  20.400  1.00  0.00    -0.386 OA
ATOM     21  H   UNL     1      45.138 129.164  20.188  1.00  0.00     0.211 HD
ENDBRANCH  12  20
ENDBRANCH   1  10
TORSDOF 5
ENDMDL
MODEL 6
REMARK VINA RESULT:      -8.4      1.436      2.040
REMARK SMILES O/C(=N\[C@H]1Cc2cc(F)ccc2[C@H]1O)C1CCCC1
REMARK SMILES IDX 3 1 2 2 1 3 15 5 16 6 19 7 17 8 18 9 4 10 5 11 13 12 6 13
REMARK SMILES IDX 12 14 7 15 11 16 8 17 10 18 9 19 14 20
REMARK H PARENT 1 4 14 21
ROOT
ATOM      1  N   UNL     1      43.979 131.869  16.292  1.00  0.00    -0.249 NA
ENDROOT
BRANCH   1   2
ATOM      2  C   UNL     1      45.022 131.796  15.519  1.00  0.00     0.184 C 
BRANCH   2   3
ATOM      3  O   UNL     1      46.022 132.765  15.596  1.00  0.00    -0.496 OA
ATOM      4  H   UNL     1      46.640 132.953  14.816  1.00  0.00     0.294 HD
ENDBRANCH   2   3
BRANCH   2   5
ATOM      5  C   UNL     1      45.141 130.664  14.521  1.00  0.00     0.075 C 
ATOM      6  C   UNL     1      46.078 131.019  13.369  1.00  0.00     0.013 C 
ATOM      7  C   UNL     1      45.756 129.422  15.160  1.00  0.00     0.013 C 
ATOM      8  C   UNL     1      47.458 130.497  13.759  1.00  0.00     0.001 C 
ATOM      9  C   UNL     1      47.257 129.514  14.911  1.00  0.00     0.001 C 
ENDBRANCH   2   5
ENDBRANCH   1   2
BRANCH   1  10
ATOM     10  C   UNL     1      43.821 131.118  17.537  1.00  0.00     0.146 C 
ATOM     11  C   UNL     1      45.031 131.324  18.478  1.00  0.00     0.066 C 
ATOM     12  C   UNL     1      42.561 131.573  18.320  1.00  0.00     0.170 C 
ATOM     13  C   UNL     1      44.409 131.527  19.806  1.00  0.00    -0.037 A 
ATOM     14  C   UNL     1      43.045 131.661  19.721  1.00  0.00    -0.014 A 
ATOM     15  C   UNL     1      45.069 131.610  21.035  1.00  0.00     0.043 A 
ATOM     16  C   UNL     1      42.271 131.878  20.865  1.00  0.00     0.010 A 
ATOM     17  C   UNL     1      44.309 131.823  22.196  1.00  0.00     0.123 A 
ATOM     18  C   UNL     1      42.911 131.956  22.111  1.00  0.00     0.039 A 
ATOM     19  F   UNL     1      44.924 131.905  23.401  1.00  0.00    -0.207 F 
BRANCH  12  20
ATOM     20  O   UNL     1      42.122 132.836  17.889  1.00  0.00    -0.386 OA
ATOM     21  H   UNL     1      42.829 133.485  18.143  1.00  0.00     0.211 HD
ENDBRANCH  12  20
ENDBRANCH   1  10
TORSDOF 5
ENDMDL
MODEL 7
REMARK VINA RESULT:      -8.1      3.074      7.288
REMARK SMILES O/C(=N\[C@H]1Cc2cc(F)ccc2[C@H]1O)C1CCCC1
REMARK SMILES IDX 3 1 2 2 1 3 15 5 16 6 19 7 17 8 18 9 4 10 5 11 13 12 6 13
REMARK SMILES IDX 12 14 7 15 11 16 8 17 10 18 9 19 14 20
REMARK H PARENT 1 4 14 21
ROOT
ATOM      1  N   UNL     1      44.059 131.339  19.879  1.00  0.00    -0.249 NA
ENDROOT
BRANCH   1   2
ATOM      2  C   UNL     1      44.336 131.248  21.146  1.00  0.00     0.184 C 
BRANCH   2   3
ATOM      3  O   UNL     1      45.591 131.631  21.620  1.00  0.00    -0.496 OA
ATOM      4  H   UNL     1      45.807 132.600  21.825  1.00  0.00     0.294 HD
ENDBRANCH   2   3
BRANCH   2   5
ATOM      5  C   UNL     1      43.298 130.709  22.107  1.00  0.00     0.075 C 
ATOM      6  C   UNL     1      43.921 129.806  23.169  1.00  0.00     0.013 C 
ATOM      7  C   UNL     1      42.628 131.834  22.891  1.00  0.00     0.013 C 
ATOM      8  C   UNL     1      44.219 130.697  24.371  1.00  0.00     0.001 C 
ATOM      9  C   UNL     1      43.428 131.989  24.179  1.00  0.00     0.001 C 
ENDBRANCH   2   5
ENDBRANCH   1   2
BRANCH   1  10
ATOM     10  C   UNL     1      45.042 131.649  18.841  1.00  0.00     0.146 C 
ATOM     11  C   UNL     1      45.848 130.394  18.433  1.00  0.00     0.066 C 
ATOM     12  C   UNL     1      44.360 132.182  17.553  1.00  0.00     0.170 C 
ATOM     13  C   UNL     1      45.889 130.470  16.956  1.00  0.00    -0.037 A 
ATOM     14  C   UNL     1      45.071 131.459  16.468  1.00  0.00    -0.014 A 
ATOM     15  C   UNL     1      46.627 129.652  16.095  1.00  0.00     0.043 A 
ATOM     16  C   UNL     1      44.955 131.685  15.093  1.00  0.00     0.010 A 
ATOM     17  C   UNL     1      46.527 129.865  14.712  1.00  0.00     0.123 A 
ATOM     18  C   UNL     1      45.693 130.881  14.211  1.00  0.00     0.039 A 
ATOM     19  F   UNL     1      47.234 129.087  13.855  1.00  0.00    -0.207 F 
BRANCH  12  20
ATOM     20  O   UNL     1      42.994 131.853  17.526  1.00  0.00    -0.386 OA
ATOM     21  H   UNL     1      42.941 130.870  17.389  1.00  0.00     0.211 HD
ENDBRANCH  12  20
ENDBRANCH   1  10
TORSDOF 5
ENDMDL
MODEL 8
REMARK VINA RESULT:      -8.1      1.311      2.025
REMARK SMILES O/C(=N\[C@H]1Cc2cc(F)ccc2[C@H]1O)C1CCCC1
REMARK SMILES IDX 3 1 2 2 1 3 15 5 16 6 19 7 17 8 18 9 4 10 5 11 13 12 6 13
REMARK SMILES IDX 12 14 7 15 11 16 8 17 10 18 9 19 14 20
REMARK H PARENT 1 4 14 21
ROOT
ATOM      1  N   UNL     1      46.330 130.957  16.682  1.00  0.00    -0.249 NA
ENDROOT
BRANCH   1   2
ATOM      2  C   UNL     1      46.192 131.428  15.477  1.00  0.00     0.184 C 
BRANCH   2   3
ATOM      3  O   UNL     1      46.162 132.807  15.263  1.00  0.00    -0.496 OA
ATOM      4  H   UNL     1      45.953 133.455  16.012  1.00  0.00     0.294 HD
ENDBRANCH   2   3
BRANCH   2   5
ATOM      5  C   UNL     1      46.048 130.478  14.309  1.00  0.00     0.075 C 
ATOM      6  C   UNL     1      46.637 131.061  13.026  1.00  0.00     0.013 C 
ATOM      7  C   UNL     1      46.823 129.184  14.545  1.00  0.00     0.013 C 
ATOM      8  C   UNL     1      48.076 130.558  12.945  1.00  0.00     0.001 C 
ATOM      9  C   UNL     1      48.201 129.395  13.928  1.00  0.00     0.001 C 
ENDBRANCH   2   5
ENDBRANCH   1   2
BRANCH   1  10
ATOM     10  C   UNL     1      45.219 130.530  17.532  1.00  0.00     0.146 C 
ATOM     11  C   UNL     1      45.527 130.774  19.028  1.00  0.00     0.066 C 
ATOM     12  C   UNL     1      43.921 131.313  17.207  1.00  0.00     0.170 C 
ATOM     13  C   UNL     1      44.269 131.350  19.553  1.00  0.00    -0.037 A 
ATOM     14  C   UNL     1      43.379 131.645  18.550  1.00  0.00    -0.014 A 
ATOM     15  C   UNL     1      43.963 131.613  20.891  1.00  0.00     0.043 A 
ATOM     16  C   UNL     1      42.134 132.214  18.835  1.00  0.00     0.010 A 
ATOM     17  C   UNL     1      42.717 132.180  21.199  1.00  0.00     0.123 A 
ATOM     18  C   UNL     1      41.803 132.479  20.172  1.00  0.00     0.039 A 
ATOM     19  F   UNL     1      42.394 132.444  22.489  1.00  0.00    -0.207 F 
BRANCH  12  20
ATOM     20  O   UNL     1      44.202 132.497  16.503  1.00  0.00    -0.386 OA
ATOM     21  H   UNL     1      43.689 133.221  16.949  1.00  0.00     0.211 HD
ENDBRANCH  12  20
ENDBRANCH   1  10
TORSDOF 5
ENDMDL
MODEL 9
REMARK VINA RESULT:      -8.0      1.688      2.403
REMARK SMILES O/C(=N\[C@H]1Cc2cc(F)ccc2[C@H]1O)C1CCCC1
REMARK SMILES IDX 3 1 2 2 1 3 15 5 16 6 19 7 17 8 18 9 4 10 5 11 13 12 6 13
REMARK SMILES IDX 12 14 7 15 11 16 8 17 10 18 9 19 14 20
REMARK H PARENT 1 4 14 21
ROOT
ATOM      1  N   UNL     1      43.906 131.983  16.758  1.00  0.00    -0.249 NA
ENDROOT
BRANCH   1   2
ATOM      2  C   UNL     1      44.562 131.583  15.709  1.00  0.00     0.184 C 
BRANCH   2   3
ATOM      3  O   UNL     1      43.883 131.294  14.525  1.00  0.00    -0.496 OA
ATOM      4  H   UNL     1      43.592 130.351  14.298  1.00  0.00     0.294 HD
ENDBRANCH   2   3
BRANCH   2   5
ATOM      5  C   UNL     1      46.064 131.415  15.780  1.00  0.00     0.075 C 
ATOM      6  C   UNL     1      46.466 129.947  15.906  1.00  0.00     0.013 C 
ATOM      7  C   UNL     1      46.739 131.899  14.500  1.00  0.00     0.013 C 
ATOM      8  C   UNL     1      46.720 129.446  14.487  1.00  0.00     0.001 C 
ATOM      9  C   UNL     1      46.860 130.679  13.595  1.00  0.00     0.001 C 
ENDBRANCH   2   5
ENDBRANCH   1   2
BRANCH   1  10
ATOM     10  C   UNL     1      43.748 131.197  17.982  1.00  0.00     0.146 C 
ATOM     11  C   UNL     1      44.952 131.386  18.933  1.00  0.00     0.066 C 
ATOM     12  C   UNL     1      42.482 131.622  18.771  1.00  0.00     0.170 C 
ATOM     13  C   UNL     1      44.324 131.549  20.263  1.00  0.00    -0.037 A 
ATOM     14  C   UNL     1      42.960 131.676  20.177  1.00  0.00    -0.014 A 
ATOM     15  C   UNL     1      44.978 131.603  21.497  1.00  0.00     0.043 A 
ATOM     16  C   UNL     1      42.179 131.857  21.322  1.00  0.00     0.010 A 
ATOM     17  C   UNL     1      44.212 131.779  22.660  1.00  0.00     0.123 A 
ATOM     18  C   UNL     1      42.814 131.905  22.572  1.00  0.00     0.039 A 
ATOM     19  F   UNL     1      44.822 131.832  23.870  1.00  0.00    -0.207 F 
BRANCH  12  20
ATOM     20  O   UNL     1      42.035 132.894  18.373  1.00  0.00    -0.386 OA
ATOM     21  H   UNL     1      41.178 132.756  17.892  1.00  0.00     0.211 HD
ENDBRANCH  12  20
ENDBRANCH   1  10
TORSDOF 5
ENDMDL


