REMARK SMILES CC[C@@H](/N=C(/S)N(c1ccc2cc[nH]c2c1)c1cccc2c[nH+]oc12)c1ccccc1
REMARK SMILES IDX 5 1 6 2 4 4 3 5 26 6 27 7 31 8 28 9 30 10 29 11 2 12 1 13
REMARK SMILES IDX 7 14 8 15 9 16 16 17 10 18 15 19 11 20 14 21 12 22 13 23
REMARK SMILES IDX 17 25 18 26 25 27 19 28 24 29 21 30 20 31 23 32 22 33
REMARK H PARENT 6 3 14 24 23 34
ROOT
ATOM      1  C   UNL     1       0.505   2.413   0.404  1.00  0.00     0.165 C 
ENDROOT
BRANCH   1   2
ATOM      2  S   UNL     1       1.601   3.795   0.695  1.00  0.00    -0.105 SA
ATOM      3  H   UNL     1       1.782   4.011  -0.684  1.00  0.00     0.111 HD
ENDBRANCH   1   2
BRANCH   1   4
ATOM      4  N   UNL     1      -0.768   2.639   0.264  1.00  0.00    -0.254 NA
BRANCH   4   5
ATOM      5  C   UNL     1      -1.788   1.628  -0.031  1.00  0.00     0.138 C 
BRANCH   5   6
ATOM      6  C   UNL     1      -2.216   0.908   1.230  1.00  0.00    -0.023 A 
ATOM      7  C   UNL     1      -2.373   1.601   2.446  1.00  0.00     0.006 A 
ATOM      8  C   UNL     1      -2.516  -0.465   1.184  1.00  0.00     0.006 A 
ATOM      9  C   UNL     1      -2.771   0.920   3.600  1.00  0.00     0.000 A 
ATOM     10  C   UNL     1      -2.915  -1.141   2.341  1.00  0.00     0.000 A 
ATOM     11  C   UNL     1      -3.037  -0.451   3.549  1.00  0.00     0.000 A 
ENDBRANCH   5   6
BRANCH   5  12
ATOM     12  C   UNL     1      -3.008   2.302  -0.679  1.00  0.00     0.029 C 
ATOM     13  C   UNL     1      -2.667   2.906  -2.042  1.00  0.00     0.006 C 
ENDBRANCH   5  12
ENDBRANCH   4   5
ENDBRANCH   1   4
BRANCH   1  14
ATOM     14  N   UNL     1       1.058   1.094   0.261  1.00  0.00    -0.286 N 
BRANCH  14  15
ATOM     15  C   UNL     1       1.848   0.793  -0.908  1.00  0.00     0.050 A 
ATOM     16  C   UNL     1       3.044   0.034  -0.794  1.00  0.00     0.027 A 
ATOM     17  C   UNL     1       1.444   1.266  -2.180  1.00  0.00     0.053 A 
ATOM     18  C   UNL     1       3.820  -0.264  -1.928  1.00  0.00     0.012 A 
ATOM     19  C   UNL     1       2.236   0.953  -3.281  1.00  0.00     0.047 A 
ATOM     20  C   UNL     1       3.381   0.214  -3.159  1.00  0.00    -0.000 A 
ATOM     21  N   UNL     1       2.026   1.298  -4.562  1.00  0.00    -0.361 N 
ATOM     22  C   UNL     1       3.925   0.083  -4.418  1.00  0.00     0.028 A 
ATOM     23  C   UNL     1       3.055   0.768  -5.261  1.00  0.00     0.083 A 
ATOM     24  H   UNL     1       1.232   1.859  -4.943  1.00  0.00     0.166 HD
ENDBRANCH  14  15
BRANCH  14  25
ATOM     25  C   UNL     1       0.904   0.135   1.327  1.00  0.00     0.099 A 
ATOM     26  C   UNL     1       0.910   0.530   2.687  1.00  0.00     0.031 A 
ATOM     27  C   UNL     1       0.693  -1.223   1.064  1.00  0.00     0.240 A 
ATOM     28  C   UNL     1       0.717  -0.420   3.716  1.00  0.00     0.003 A 
ATOM     29  O   UNL     1       0.604  -1.835  -0.092  1.00  0.00    -0.236 OA
ATOM     30  C   UNL     1       0.509  -2.136   2.066  1.00  0.00     0.095 A 
ATOM     31  C   UNL     1       0.512  -1.777   3.409  1.00  0.00     0.019 A 
ATOM     32  N   UNL     1       0.376  -3.106   0.103  1.00  0.00    -0.035 N 
ATOM     33  C   UNL     1       0.307  -3.341   1.433  1.00  0.00     0.369 A 
ATOM     34  H   UNL     1       0.261  -3.812  -0.656  1.00  0.00     0.516 HD
ENDBRANCH  14  25
ENDBRANCH   1  14
TORSDOF 8


