REMARK SMILES Cc1cc(N)c([O-])c(-n2nc3ccccc3[nH+]2)c1F
REMARK SMILES IDX 1 1 2 2 3 3 4 4 6 5 7 6 8 7 18 8 19 9 5 10 9 13 10 14 17 15
REMARK SMILES IDX 11 16 16 17 12 18 15 19 13 20 14 21
REMARK H PARENT 5 11 5 12 17 22
ROOT
ATOM      1  C   UNL     1       3.685  -0.007   3.514  1.00  0.00     0.048 C 
ATOM      2  C   UNL     1       2.423  -0.627   2.986  1.00  0.00    -0.011 A 
ATOM      3  C   UNL     1       1.992  -1.871   3.468  1.00  0.00     0.031 A 
ATOM      4  C   UNL     1       0.829  -2.466   2.965  1.00  0.00     0.026 A 
ATOM      5  C   UNL     1       0.092  -1.816   1.959  1.00  0.00    -0.050 A 
ATOM      6  O   UNL     1      -1.088  -2.386   1.493  1.00  0.00    -0.869 OA
ATOM      7  C   UNL     1       0.533  -0.581   1.443  1.00  0.00     0.158 A 
ATOM      8  C   UNL     1       1.696   0.011   1.967  1.00  0.00     0.157 A 
ATOM      9  F   UNL     1       2.140   1.192   1.465  1.00  0.00    -0.204 F 
ENDROOT
BRANCH   4  10
ATOM     10  N   UNL     1       0.397  -3.728   3.487  1.00  0.00    -0.399 N 
ATOM     11  H   UNL     1       0.942  -4.209   4.237  1.00  0.00     0.156 HD
ATOM     12  H   UNL     1      -0.465  -4.198   3.131  1.00  0.00     0.156 HD
ENDBRANCH   4  10
BRANCH   7  13
ATOM     13  N   UNL     1      -0.202   0.084   0.401  1.00  0.00    -0.010 N 
ATOM     14  N   UNL     1      -0.397   1.403   0.367  1.00  0.00     0.054 NA
ATOM     15  N   UNL     1      -0.737  -0.530  -0.653  1.00  0.00    -0.161 N 
ATOM     16  C   UNL     1      -1.097   1.622  -0.761  1.00  0.00     0.249 A 
ATOM     17  C   UNL     1      -1.306   0.432  -1.390  1.00  0.00     0.198 A 
ATOM     18  C   UNL     1      -1.558   2.826  -1.284  1.00  0.00     0.064 A 
ATOM     19  C   UNL     1      -1.988   0.337  -2.599  1.00  0.00     0.058 A 
ATOM     20  C   UNL     1      -2.259   2.774  -2.506  1.00  0.00     0.005 A 
ATOM     21  C   UNL     1      -2.473   1.535  -3.160  1.00  0.00     0.005 A 
ATOM     22  H   UNL     1      -0.681  -1.549  -0.873  1.00  0.00     0.340 HD
ENDBRANCH   7  13
TORSDOF 2


