MODEL 1
REMARK VINA RESULT:      -5.9      0.000      0.000
REMARK SMILES Cc1cc(N)c(O/C(O)=C\[C@H]2CC[C@@H](C)N2)c(-n2nc3ccccc3n2)c1
REMARK SMILES IDX 8 1 9 2 7 4 6 5 4 6 17 7 3 8 27 9 2 10 1 11 5 12 18 15 19 16
REMARK SMILES IDX 26 17 20 18 25 19 21 20 24 21 22 22 23 23 10 24 11 25 16 26
REMARK SMILES IDX 12 27 14 28 13 29 15 31
REMARK H PARENT 9 3 5 13 5 14 16 30
ROOT
ATOM      1  C   UNL     1      45.541 128.739  21.539  1.00  0.00     0.279 C 
ENDROOT
BRANCH   1   2
ATOM      2  O   UNL     1      46.577 127.853  21.237  1.00  0.00    -0.481 OA
ATOM      3  H   UNL     1      47.540 128.043  21.494  1.00  0.00     0.296 HD
ENDBRANCH   1   2
BRANCH   1   4
ATOM      4  O   UNL     1      45.632 130.079  21.143  1.00  0.00    -0.422 OA
BRANCH   4   5
ATOM      5  C   UNL     1      44.531 130.942  21.125  1.00  0.00     0.181 A 
ATOM      6  C   UNL     1      43.896 131.264  22.338  1.00  0.00     0.078 A 
ATOM      7  C   UNL     1      44.045 131.484  19.910  1.00  0.00     0.131 A 
ATOM      8  C   UNL     1      42.753 132.074  22.334  1.00  0.00     0.033 A 
ATOM      9  C   UNL     1      42.887 132.276  19.926  1.00  0.00     0.037 A 
ATOM     10  C   UNL     1      42.246 132.585  21.133  1.00  0.00    -0.047 A 
ATOM     11  C   UNL     1      40.995 133.412  21.133  1.00  0.00     0.044 C 
BRANCH   6  12
ATOM     12  N   UNL     1      44.390 130.747  23.579  1.00  0.00    -0.396 N 
ATOM     13  H   UNL     1      43.860 130.870  24.470  1.00  0.00     0.156 HD
ATOM     14  H   UNL     1      45.295 130.228  23.617  1.00  0.00     0.156 HD
ENDBRANCH   6  12
BRANCH   7  15
ATOM     15  N   UNL     1      44.740 131.274  18.668  1.00  0.00    -0.146 N 
ATOM     16  N   UNL     1      44.813 132.185  17.698  1.00  0.00    -0.148 NA
ATOM     17  N   UNL     1      45.346 130.130  18.351  1.00  0.00    -0.148 NA
ATOM     18  C   UNL     1      45.517 131.594  16.724  1.00  0.00     0.113 A 
ATOM     19  C   UNL     1      45.843 130.336  17.123  1.00  0.00     0.113 A 
ATOM     20  C   UNL     1      45.899 132.104  15.487  1.00  0.00     0.032 A 
ATOM     21  C   UNL     1      46.578 129.469  16.319  1.00  0.00     0.032 A 
ATOM     22  C   UNL     1      46.647 131.259  14.644  1.00  0.00     0.002 A 
ATOM     23  C   UNL     1      46.985 129.947  15.057  1.00  0.00     0.002 A 
ENDBRANCH   7  15
ENDBRANCH   4   5
ENDBRANCH   1   4
BRANCH   1  24
ATOM     24  C   UNL     1      44.463 128.309  22.204  1.00  0.00     0.080 C 
BRANCH  24  25
ATOM     25  C   UNL     1      44.530 127.170  23.190  1.00  0.00     0.084 C 
ATOM     26  N   UNL     1      44.499 125.898  22.457  1.00  0.00    -0.308 NA
ATOM     27  C   UNL     1      43.337 127.189  24.151  1.00  0.00     0.025 C 
ATOM     28  C   UNL     1      43.360 125.127  22.962  1.00  0.00     0.051 C 
ATOM     29  C   UNL     1      42.417 126.108  23.640  1.00  0.00     0.020 C 
ATOM     30  H   UNL     1      45.381 125.365  22.647  1.00  0.00     0.123 HD
ATOM     31  C   UNL     1      42.681 124.380  21.815  1.00  0.00     0.024 C 
ENDBRANCH  24  25
ENDBRANCH   1  24
TORSDOF 7
ENDMDL
MODEL 2
REMARK VINA RESULT:      -5.8      2.623      3.290
REMARK SMILES Cc1cc(N)c(O/C(O)=C\[C@H]2CC[C@@H](C)N2)c(-n2nc3ccccc3n2)c1
REMARK SMILES IDX 8 1 9 2 7 4 6 5 4 6 17 7 3 8 27 9 2 10 1 11 5 12 18 15 19 16
REMARK SMILES IDX 26 17 20 18 25 19 21 20 24 21 22 22 23 23 10 24 11 25 16 26
REMARK SMILES IDX 12 27 14 28 13 29 15 31
REMARK H PARENT 9 3 5 13 5 14 16 30
ROOT
ATOM      1  C   UNL     1      45.273 126.977  22.191  1.00  0.00     0.279 C 
ENDROOT
BRANCH   1   2
ATOM      2  O   UNL     1      44.017 126.542  22.619  1.00  0.00    -0.481 OA
ATOM      3  H   UNL     1      43.776 125.558  22.666  1.00  0.00     0.296 HD
ENDBRANCH   1   2
BRANCH   1   4
ATOM      4  O   UNL     1      45.458 128.313  21.816  1.00  0.00    -0.422 OA
BRANCH   4   5
ATOM      5  C   UNL     1      44.860 129.382  22.492  1.00  0.00     0.181 A 
ATOM      6  C   UNL     1      44.705 129.305  23.888  1.00  0.00     0.078 A 
ATOM      7  C   UNL     1      44.403 130.527  21.795  1.00  0.00     0.131 A 
ATOM      8  C   UNL     1      44.050 130.336  24.575  1.00  0.00     0.033 A 
ATOM      9  C   UNL     1      43.732 131.538  22.500  1.00  0.00     0.037 A 
ATOM     10  C   UNL     1      43.564 131.454  23.888  1.00  0.00    -0.047 A 
ATOM     11  C   UNL     1      42.823 132.530  24.625  1.00  0.00     0.044 C 
BRANCH   6  12
ATOM     12  N   UNL     1      45.185 128.167  24.614  1.00  0.00    -0.396 N 
ATOM     13  H   UNL     1      45.799 127.453  24.163  1.00  0.00     0.156 HD
ATOM     14  H   UNL     1      44.931 128.029  25.617  1.00  0.00     0.156 HD
ENDBRANCH   6  12
BRANCH   7  15
ATOM     15  N   UNL     1      44.652 130.693  20.388  1.00  0.00    -0.146 N 
ATOM     16  N   UNL     1      43.874 131.411  19.579  1.00  0.00    -0.148 NA
ATOM     17  N   UNL     1      45.667 130.111  19.749  1.00  0.00    -0.148 NA
ATOM     18  C   UNL     1      44.435 131.291  18.368  1.00  0.00     0.113 A 
ATOM     19  C   UNL     1      45.532 130.495  18.472  1.00  0.00     0.113 A 
ATOM     20  C   UNL     1      44.035 131.853  17.160  1.00  0.00     0.032 A 
ATOM     21  C   UNL     1      46.329 130.183  17.374  1.00  0.00     0.032 A 
ATOM     22  C   UNL     1      44.817 131.563  16.024  1.00  0.00     0.002 A 
ATOM     23  C   UNL     1      45.958 130.731  16.130  1.00  0.00     0.002 A 
ENDBRANCH   7  15
ENDBRANCH   4   5
ENDBRANCH   1   4
BRANCH   1  24
ATOM     24  C   UNL     1      46.299 126.119  22.141  1.00  0.00     0.080 C 
BRANCH  24  25
ATOM     25  C   UNL     1      46.438 124.976  23.114  1.00  0.00     0.084 C 
ATOM     26  N   UNL     1      47.791 124.994  23.686  1.00  0.00    -0.308 NA
ATOM     27  C   UNL     1      46.237 123.624  22.423  1.00  0.00     0.025 C 
ATOM     28  C   UNL     1      48.404 123.694  23.404  1.00  0.00     0.051 C 
ATOM     29  C   UNL     1      47.629 123.069  22.256  1.00  0.00     0.020 C 
ATOM     30  H   UNL     1      47.729 125.124  24.723  1.00  0.00     0.123 HD
ATOM     31  C   UNL     1      49.883 123.871  23.068  1.00  0.00     0.024 C 
ENDBRANCH  24  25
ENDBRANCH   1  24
TORSDOF 7
ENDMDL
MODEL 3
REMARK VINA RESULT:      -5.7      1.872      6.597
REMARK SMILES Cc1cc(N)c(O/C(O)=C\[C@H]2CC[C@@H](C)N2)c(-n2nc3ccccc3n2)c1
REMARK SMILES IDX 8 1 9 2 7 4 6 5 4 6 17 7 3 8 27 9 2 10 1 11 5 12 18 15 19 16
REMARK SMILES IDX 26 17 20 18 25 19 21 20 24 21 22 22 23 23 10 24 11 25 16 26
REMARK SMILES IDX 12 27 14 28 13 29 15 31
REMARK H PARENT 9 3 5 13 5 14 16 30
ROOT
ATOM      1  C   UNL     1      45.997 130.719  19.521  1.00  0.00     0.279 C 
ENDROOT
BRANCH   1   2
ATOM      2  O   UNL     1      47.038 131.311  20.239  1.00  0.00    -0.481 OA
ATOM      3  H   UNL     1      47.346 132.260  20.056  1.00  0.00     0.296 HD
ENDBRANCH   1   2
BRANCH   1   4
ATOM      4  O   UNL     1      45.076 129.896  20.179  1.00  0.00    -0.422 OA
BRANCH   4   5
ATOM      5  C   UNL     1      44.293 130.337  21.251  1.00  0.00     0.181 A 
ATOM      6  C   UNL     1      43.650 131.585  21.159  1.00  0.00     0.078 A 
ATOM      7  C   UNL     1      44.147 129.555  22.423  1.00  0.00     0.131 A 
ATOM      8  C   UNL     1      42.916 132.074  22.248  1.00  0.00     0.033 A 
ATOM      9  C   UNL     1      43.425 130.073  23.509  1.00  0.00     0.037 A 
ATOM     10  C   UNL     1      42.798 131.322  23.422  1.00  0.00    -0.047 A 
ATOM     11  C   UNL     1      42.048 131.873  24.599  1.00  0.00     0.044 C 
BRANCH   6  12
ATOM     12  N   UNL     1      43.764 132.378  19.971  1.00  0.00    -0.396 N 
ATOM     13  H   UNL     1      44.573 132.271  19.320  1.00  0.00     0.156 HD
ATOM     14  H   UNL     1      43.031 133.080  19.727  1.00  0.00     0.156 HD
ENDBRANCH   6  12
BRANCH   7  15
ATOM     15  N   UNL     1      44.690 128.225  22.505  1.00  0.00    -0.146 N 
ATOM     16  N   UNL     1      45.879 127.880  22.013  1.00  0.00    -0.148 NA
ATOM     17  N   UNL     1      44.036 127.198  23.047  1.00  0.00    -0.148 NA
ATOM     18  C   UNL     1      45.992 126.571  22.274  1.00  0.00     0.113 A 
ATOM     19  C   UNL     1      44.863 126.153  22.906  1.00  0.00     0.113 A 
ATOM     20  C   UNL     1      47.046 125.709  21.987  1.00  0.00     0.032 A 
ATOM     21  C   UNL     1      44.683 124.833  23.307  1.00  0.00     0.032 A 
ATOM     22  C   UNL     1      46.904 124.364  22.379  1.00  0.00     0.002 A 
ATOM     23  C   UNL     1      45.727 123.926  23.035  1.00  0.00     0.002 A 
ENDBRANCH   7  15
ENDBRANCH   4   5
ENDBRANCH   1   4
BRANCH   1  24
ATOM     24  C   UNL     1      45.880 130.937  18.205  1.00  0.00     0.080 C 
BRANCH  24  25
ATOM     25  C   UNL     1      45.690 129.813  17.219  1.00  0.00     0.084 C 
ATOM     26  N   UNL     1      46.837 129.782  16.300  1.00  0.00    -0.308 NA
ATOM     27  C   UNL     1      44.422 130.008  16.383  1.00  0.00     0.025 C 
ATOM     28  C   UNL     1      46.311 129.911  14.939  1.00  0.00     0.051 C 
ATOM     29  C   UNL     1      44.916 130.505  15.048  1.00  0.00     0.020 C 
ATOM     30  H   UNL     1      47.330 128.863  16.389  1.00  0.00     0.123 HD
ATOM     31  C   UNL     1      47.241 130.782  14.096  1.00  0.00     0.024 C 
ENDBRANCH  24  25
ENDBRANCH   1  24
TORSDOF 7
ENDMDL
MODEL 4
REMARK VINA RESULT:      -5.1      0.534      1.195
REMARK SMILES Cc1cc(N)c(O/C(O)=C\[C@H]2CC[C@@H](C)N2)c(-n2nc3ccccc3n2)c1
REMARK SMILES IDX 8 1 9 2 7 4 6 5 4 6 17 7 3 8 27 9 2 10 1 11 5 12 18 15 19 16
REMARK SMILES IDX 26 17 20 18 25 19 21 20 24 21 22 22 23 23 10 24 11 25 16 26
REMARK SMILES IDX 12 27 14 28 13 29 15 31
REMARK H PARENT 9 3 5 13 5 14 16 30
ROOT
ATOM      1  C   UNL     1      45.716 129.040  21.118  1.00  0.00     0.279 C 
ENDROOT
BRANCH   1   2
ATOM      2  O   UNL     1      46.805 128.231  20.784  1.00  0.00    -0.481 OA
ATOM      3  H   UNL     1      47.715 128.349  21.214  1.00  0.00     0.296 HD
ENDBRANCH   1   2
BRANCH   1   4
ATOM      4  O   UNL     1      45.713 130.390  20.752  1.00  0.00    -0.422 OA
BRANCH   4   5
ATOM      5  C   UNL     1      44.552 131.172  20.741  1.00  0.00     0.181 A 
ATOM      6  C   UNL     1      43.973 131.552  21.966  1.00  0.00     0.078 A 
ATOM      7  C   UNL     1      43.951 131.575  19.524  1.00  0.00     0.131 A 
ATOM      8  C   UNL     1      42.775 132.278  21.976  1.00  0.00     0.033 A 
ATOM      9  C   UNL     1      42.741 132.284  19.557  1.00  0.00     0.037 A 
ATOM     10  C   UNL     1      42.157 132.649  20.777  1.00  0.00    -0.047 A 
ATOM     11  C   UNL     1      40.850 133.386  20.797  1.00  0.00     0.044 C 
BRANCH   6  12
ATOM     12  N   UNL     1      44.582 131.176  23.208  1.00  0.00    -0.396 N 
ATOM     13  H   UNL     1      45.245 130.371  23.268  1.00  0.00     0.156 HD
ATOM     14  H   UNL     1      44.377 131.707  24.083  1.00  0.00     0.156 HD
ENDBRANCH   6  12
BRANCH   7  15
ATOM     15  N   UNL     1      44.579 131.308  18.258  1.00  0.00    -0.146 N 
ATOM     16  N   UNL     1      44.765 130.083  17.767  1.00  0.00    -0.148 NA
ATOM     17  N   UNL     1      45.073 132.262  17.468  1.00  0.00    -0.148 NA
ATOM     18  C   UNL     1      45.392 130.271  16.599  1.00  0.00     0.113 A 
ATOM     19  C   UNL     1      45.581 131.605  16.416  1.00  0.00     0.113 A 
ATOM     20  C   UNL     1      45.811 129.326  15.668  1.00  0.00     0.032 A 
ATOM     21  C   UNL     1      46.212 132.117  15.285  1.00  0.00     0.032 A 
ATOM     22  C   UNL     1      46.452 129.803  14.508  1.00  0.00     0.002 A 
ATOM     23  C   UNL     1      46.652 131.192  14.317  1.00  0.00     0.002 A 
ENDBRANCH   7  15
ENDBRANCH   4   5
ENDBRANCH   1   4
BRANCH   1  24
ATOM     24  C   UNL     1      44.679 128.524  21.788  1.00  0.00     0.080 C 
BRANCH  24  25
ATOM     25  C   UNL     1      44.846 127.420  22.801  1.00  0.00     0.084 C 
ATOM     26  N   UNL     1      44.780 126.124  22.113  1.00  0.00    -0.308 NA
ATOM     27  C   UNL     1      43.735 127.451  23.854  1.00  0.00     0.025 C 
ATOM     28  C   UNL     1      43.700 125.353  22.733  1.00  0.00     0.051 C 
ATOM     29  C   UNL     1      42.797 126.340  23.454  1.00  0.00     0.020 C 
ATOM     30  H   UNL     1      45.684 125.612  22.247  1.00  0.00     0.123 HD
ATOM     31  C   UNL     1      42.944 124.557  21.669  1.00  0.00     0.024 C 
ENDBRANCH  24  25
ENDBRANCH   1  24
TORSDOF 7
ENDMDL
MODEL 5
REMARK VINA RESULT:      -5.0      1.932      2.655
REMARK SMILES Cc1cc(N)c(O/C(O)=C\[C@H]2CC[C@@H](C)N2)c(-n2nc3ccccc3n2)c1
REMARK SMILES IDX 8 1 9 2 7 4 6 5 4 6 17 7 3 8 27 9 2 10 1 11 5 12 18 15 19 16
REMARK SMILES IDX 26 17 20 18 25 19 21 20 24 21 22 22 23 23 10 24 11 25 16 26
REMARK SMILES IDX 12 27 14 28 13 29 15 31
REMARK H PARENT 9 3 5 13 5 14 16 30
ROOT
ATOM      1  C   UNL     1      45.490 126.978  22.448  1.00  0.00     0.279 C 
ENDROOT
BRANCH   1   2
ATOM      2  O   UNL     1      46.581 126.778  23.297  1.00  0.00    -0.481 OA
ATOM      3  H   UNL     1      46.482 126.338  24.206  1.00  0.00     0.296 HD
ENDBRANCH   1   2
BRANCH   1   4
ATOM      4  O   UNL     1      45.309 128.220  21.828  1.00  0.00    -0.422 OA
BRANCH   4   5
ATOM      5  C   UNL     1      44.726 129.315  22.476  1.00  0.00     0.181 A 
ATOM      6  C   UNL     1      44.472 129.235  23.857  1.00  0.00     0.078 A 
ATOM      7  C   UNL     1      44.383 130.490  21.764  1.00  0.00     0.131 A 
ATOM      8  C   UNL     1      43.829 130.294  24.510  1.00  0.00     0.033 A 
ATOM      9  C   UNL     1      43.721 131.530  22.434  1.00  0.00     0.037 A 
ATOM     10  C   UNL     1      43.454 131.444  23.805  1.00  0.00    -0.047 A 
ATOM     11  C   UNL     1      42.725 132.553  24.504  1.00  0.00     0.044 C 
BRANCH   6  12
ATOM     12  N   UNL     1      44.837 128.064  24.599  1.00  0.00    -0.396 N 
ATOM     13  H   UNL     1      45.779 127.970  25.038  1.00  0.00     0.156 HD
ATOM     14  H   UNL     1      44.160 127.279  24.720  1.00  0.00     0.156 HD
ENDBRANCH   6  12
BRANCH   7  15
ATOM     15  N   UNL     1      44.737 130.653  20.379  1.00  0.00    -0.146 N 
ATOM     16  N   UNL     1      44.213 131.588  19.587  1.00  0.00    -0.148 NA
ATOM     17  N   UNL     1      45.597 129.859  19.742  1.00  0.00    -0.148 NA
ATOM     18  C   UNL     1      44.784 131.387  18.392  1.00  0.00     0.113 A 
ATOM     19  C   UNL     1      45.631 130.327  18.487  1.00  0.00     0.113 A 
ATOM     20  C   UNL     1      44.605 132.092  17.207  1.00  0.00     0.032 A 
ATOM     21  C   UNL     1      46.374 129.872  17.402  1.00  0.00     0.032 A 
ATOM     22  C   UNL     1      45.341 131.664  16.084  1.00  0.00     0.002 A 
ATOM     23  C   UNL     1      46.221 130.559  16.181  1.00  0.00     0.002 A 
ENDBRANCH   7  15
ENDBRANCH   4   5
ENDBRANCH   1   4
BRANCH   1  24
ATOM     24  C   UNL     1      44.620 125.985  22.227  1.00  0.00     0.080 C 
BRANCH  24  25
ATOM     25  C   UNL     1      44.505 124.799  23.150  1.00  0.00     0.084 C 
ATOM     26  N   UNL     1      45.835 124.203  23.334  1.00  0.00    -0.308 NA
ATOM     27  C   UNL     1      43.584 123.723  22.569  1.00  0.00     0.025 C 
ATOM     28  C   UNL     1      45.747 122.799  22.925  1.00  0.00     0.051 C 
ATOM     29  C   UNL     1      44.517 122.663  22.043  1.00  0.00     0.020 C 
ATOM     30  H   UNL     1      46.100 124.246  24.346  1.00  0.00     0.123 HD
ATOM     31  C   UNL     1      47.024 122.382  22.197  1.00  0.00     0.024 C 
ENDBRANCH  24  25
ENDBRANCH   1  24
TORSDOF 7
ENDMDL
MODEL 6
REMARK VINA RESULT:      -4.8      1.793      6.531
REMARK SMILES Cc1cc(N)c(O/C(O)=C\[C@H]2CC[C@@H](C)N2)c(-n2nc3ccccc3n2)c1
REMARK SMILES IDX 8 1 9 2 7 4 6 5 4 6 17 7 3 8 27 9 2 10 1 11 5 12 18 15 19 16
REMARK SMILES IDX 26 17 20 18 25 19 21 20 24 21 22 22 23 23 10 24 11 25 16 26
REMARK SMILES IDX 12 27 14 28 13 29 15 31
REMARK H PARENT 9 3 5 13 5 14 16 30
ROOT
ATOM      1  C   UNL     1      45.474 130.892  19.604  1.00  0.00     0.279 C 
ENDROOT
BRANCH   1   2
ATOM      2  O   UNL     1      46.232 131.692  20.461  1.00  0.00    -0.481 OA
ATOM      3  H   UNL     1      47.231 131.816  20.337  1.00  0.00     0.296 HD
ENDBRANCH   1   2
BRANCH   1   4
ATOM      4  O   UNL     1      44.267 130.342  20.050  1.00  0.00    -0.422 OA
BRANCH   4   5
ATOM      5  C   UNL     1      43.576 130.828  21.165  1.00  0.00     0.181 A 
ATOM      6  C   UNL     1      42.886 132.050  21.061  1.00  0.00     0.078 A 
ATOM      7  C   UNL     1      43.569 130.119  22.390  1.00  0.00     0.131 A 
ATOM      8  C   UNL     1      42.244 132.587  22.184  1.00  0.00     0.033 A 
ATOM      9  C   UNL     1      42.937 130.684  23.508  1.00  0.00     0.037 A 
ATOM     10  C   UNL     1      42.264 131.908  23.408  1.00  0.00    -0.047 A 
ATOM     11  C   UNL     1      41.613 132.512  24.617  1.00  0.00     0.044 C 
BRANCH   6  12
ATOM     12  N   UNL     1      42.859 132.769  19.822  1.00  0.00    -0.396 N 
ATOM     13  H   UNL     1      43.054 133.794  19.782  1.00  0.00     0.156 HD
ATOM     14  H   UNL     1      42.649 132.277  18.925  1.00  0.00     0.156 HD
ENDBRANCH   6  12
BRANCH   7  15
ATOM     15  N   UNL     1      44.160 128.812  22.499  1.00  0.00    -0.146 N 
ATOM     16  N   UNL     1      43.599 127.799  23.159  1.00  0.00    -0.148 NA
ATOM     17  N   UNL     1      45.348 128.498  21.982  1.00  0.00    -0.148 NA
ATOM     18  C   UNL     1      44.468 126.787  23.038  1.00  0.00     0.113 A 
ATOM     19  C   UNL     1      45.539 127.215  22.318  1.00  0.00     0.113 A 
ATOM     20  C   UNL     1      44.372 125.488  23.527  1.00  0.00     0.032 A 
ATOM     21  C   UNL     1      46.616 126.384  22.024  1.00  0.00     0.032 A 
ATOM     22  C   UNL     1      45.442 124.614  23.249  1.00  0.00     0.002 A 
ATOM     23  C   UNL     1      46.559 125.059  22.502  1.00  0.00     0.002 A 
ENDBRANCH   7  15
ENDBRANCH   4   5
ENDBRANCH   1   4
BRANCH   1  24
ATOM     24  C   UNL     1      45.900 130.651  18.358  1.00  0.00     0.080 C 
BRANCH  24  25
ATOM     25  C   UNL     1      44.948 130.351  17.228  1.00  0.00     0.084 C 
ATOM     26  N   UNL     1      45.655 129.580  16.196  1.00  0.00    -0.308 NA
ATOM     27  C   UNL     1      44.424 131.635  16.580  1.00  0.00     0.025 C 
ATOM     28  C   UNL     1      45.547 130.327  14.940  1.00  0.00     0.051 C 
ATOM     29  C   UNL     1      45.206 131.764  15.297  1.00  0.00     0.020 C 
ATOM     30  H   UNL     1      45.192 128.648  16.079  1.00  0.00     0.123 HD
ATOM     31  C   UNL     1      46.853 130.225  14.154  1.00  0.00     0.024 C 
ENDBRANCH  24  25
ENDBRANCH   1  24
TORSDOF 7
ENDMDL
MODEL 7
REMARK VINA RESULT:      -4.7      3.202      7.188
REMARK SMILES Cc1cc(N)c(O/C(O)=C\[C@H]2CC[C@@H](C)N2)c(-n2nc3ccccc3n2)c1
REMARK SMILES IDX 8 1 9 2 7 4 6 5 4 6 17 7 3 8 27 9 2 10 1 11 5 12 18 15 19 16
REMARK SMILES IDX 26 17 20 18 25 19 21 20 24 21 22 22 23 23 10 24 11 25 16 26
REMARK SMILES IDX 12 27 14 28 13 29 15 31
REMARK H PARENT 9 3 5 13 5 14 16 30
ROOT
ATOM      1  C   UNL     1      44.393 128.912  24.003  1.00  0.00     0.279 C 
ENDROOT
BRANCH   1   2
ATOM      2  O   UNL     1      44.159 130.143  24.621  1.00  0.00    -0.481 OA
ATOM      3  H   UNL     1      44.446 130.329  25.576  1.00  0.00     0.296 HD
ENDBRANCH   1   2
BRANCH   1   4
ATOM      4  O   UNL     1      43.973 127.730  24.624  1.00  0.00    -0.422 OA
BRANCH   4   5
ATOM      5  C   UNL     1      43.069 126.841  24.032  1.00  0.00     0.181 A 
ATOM      6  C   UNL     1      41.699 127.158  24.034  1.00  0.00     0.078 A 
ATOM      7  C   UNL     1      43.510 125.630  23.444  1.00  0.00     0.131 A 
ATOM      8  C   UNL     1      40.771 126.251  23.506  1.00  0.00     0.033 A 
ATOM      9  C   UNL     1      42.562 124.726  22.940  1.00  0.00     0.037 A 
ATOM     10  C   UNL     1      41.197 125.036  22.956  1.00  0.00    -0.047 A 
ATOM     11  C   UNL     1      40.193 124.050  22.434  1.00  0.00     0.044 C 
BRANCH   6  12
ATOM     12  N   UNL     1      41.237 128.391  24.600  1.00  0.00    -0.396 N 
ATOM     13  H   UNL     1      41.428 128.638  25.596  1.00  0.00     0.156 HD
ATOM     14  H   UNL     1      40.700 129.074  24.022  1.00  0.00     0.156 HD
ENDBRANCH   6  12
BRANCH   7  15
ATOM     15  N   UNL     1      44.911 125.329  23.317  1.00  0.00    -0.146 N 
ATOM     16  N   UNL     1      45.769 125.353  24.337  1.00  0.00    -0.148 NA
ATOM     17  N   UNL     1      45.496 125.035  22.156  1.00  0.00    -0.148 NA
ATOM     18  C   UNL     1      46.954 125.041  23.797  1.00  0.00     0.113 A 
ATOM     19  C   UNL     1      46.787 124.846  22.462  1.00  0.00     0.113 A 
ATOM     20  C   UNL     1      48.191 124.910  24.419  1.00  0.00     0.032 A 
ATOM     21  C   UNL     1      47.846 124.508  21.624  1.00  0.00     0.032 A 
ATOM     22  C   UNL     1      49.289 124.566  23.606  1.00  0.00     0.002 A 
ATOM     23  C   UNL     1      49.118 124.366  22.214  1.00  0.00     0.002 A 
ENDBRANCH   7  15
ENDBRANCH   4   5
ENDBRANCH   1   4
BRANCH   1  24
ATOM     24  C   UNL     1      45.016 128.864  22.820  1.00  0.00     0.080 C 
BRANCH  24  25
ATOM     25  C   UNL     1      44.458 129.533  21.590  1.00  0.00     0.084 C 
ATOM     26  N   UNL     1      45.526 130.297  20.932  1.00  0.00    -0.308 NA
ATOM     27  C   UNL     1      43.331 130.507  21.944  1.00  0.00     0.025 C 
ATOM     28  C   UNL     1      45.075 131.688  20.838  1.00  0.00     0.051 C 
ATOM     29  C   UNL     1      43.964 131.873  21.858  1.00  0.00     0.020 C 
ATOM     30  H   UNL     1      45.679 129.923  19.966  1.00  0.00     0.123 HD
ATOM     31  C   UNL     1      46.246 132.638  21.087  1.00  0.00     0.024 C 
ENDBRANCH  24  25
ENDBRANCH   1  24
TORSDOF 7
ENDMDL
MODEL 8
REMARK VINA RESULT:      -4.7      3.936      6.000
REMARK SMILES Cc1cc(N)c(O/C(O)=C\[C@H]2CC[C@@H](C)N2)c(-n2nc3ccccc3n2)c1
REMARK SMILES IDX 8 1 9 2 7 4 6 5 4 6 17 7 3 8 27 9 2 10 1 11 5 12 18 15 19 16
REMARK SMILES IDX 26 17 20 18 25 19 21 20 24 21 22 22 23 23 10 24 11 25 16 26
REMARK SMILES IDX 12 27 14 28 13 29 15 31
REMARK H PARENT 9 3 5 13 5 14 16 30
ROOT
ATOM      1  C   UNL     1      47.334 133.258  21.620  1.00  0.00     0.279 C 
ENDROOT
BRANCH   1   2
ATOM      2  O   UNL     1      47.931 132.103  21.113  1.00  0.00    -0.481 OA
ATOM      3  H   UNL     1      48.658 132.138  20.406  1.00  0.00     0.296 HD
ENDBRANCH   1   2
BRANCH   1   4
ATOM      4  O   UNL     1      45.952 133.290  21.840  1.00  0.00    -0.422 OA
BRANCH   4   5
ATOM      5  C   UNL     1      45.258 132.247  22.463  1.00  0.00     0.181 A 
ATOM      6  C   UNL     1      45.068 132.290  23.857  1.00  0.00     0.078 A 
ATOM      7  C   UNL     1      44.756 131.152  21.718  1.00  0.00     0.131 A 
ATOM      8  C   UNL     1      44.434 131.224  24.508  1.00  0.00     0.033 A 
ATOM      9  C   UNL     1      44.142 130.086  22.393  1.00  0.00     0.037 A 
ATOM     10  C   UNL     1      43.967 130.122  23.782  1.00  0.00    -0.047 A 
ATOM     11  C   UNL     1      43.331 128.964  24.493  1.00  0.00     0.044 C 
BRANCH   6  12
ATOM     12  N   UNL     1      45.545 133.403  24.623  1.00  0.00    -0.396 N 
ATOM     13  H   UNL     1      45.040 133.734  25.475  1.00  0.00     0.156 HD
ATOM     14  H   UNL     1      46.418 133.905  24.346  1.00  0.00     0.156 HD
ENDBRANCH   6  12
BRANCH   7  15
ATOM     15  N   UNL     1      44.826 131.133  20.282  1.00  0.00    -0.146 N 
ATOM     16  N   UNL     1      43.909 131.689  19.489  1.00  0.00    -0.148 NA
ATOM     17  N   UNL     1      45.796 130.522  19.602  1.00  0.00    -0.148 NA
ATOM     18  C   UNL     1      44.331 131.432  18.244  1.00  0.00     0.113 A 
ATOM     19  C   UNL     1      45.485 130.717  18.313  1.00  0.00     0.113 A 
ATOM     20  C   UNL     1      43.753 131.797  17.032  1.00  0.00     0.032 A 
ATOM     21  C   UNL     1      46.167 130.297  17.174  1.00  0.00     0.032 A 
ATOM     22  C   UNL     1      44.414 131.394  15.855  1.00  0.00     0.002 A 
ATOM     23  C   UNL     1      45.615 130.647  15.925  1.00  0.00     0.002 A 
ENDBRANCH   7  15
ENDBRANCH   4   5
ENDBRANCH   1   4
BRANCH   1  24
ATOM     24  C   UNL     1      48.081 134.334  21.895  1.00  0.00     0.080 C 
BRANCH  24  25
ATOM     25  C   UNL     1      48.595 134.621  23.283  1.00  0.00     0.084 C 
ATOM     26  N   UNL     1      49.760 135.511  23.190  1.00  0.00    -0.308 NA
ATOM     27  C   UNL     1      49.037 133.339  23.994  1.00  0.00     0.025 C 
ATOM     28  C   UNL     1      50.881 134.837  23.850  1.00  0.00     0.051 C 
ATOM     29  C   UNL     1      50.543 133.357  23.912  1.00  0.00     0.020 C 
ATOM     30  H   UNL     1      49.556 136.406  23.694  1.00  0.00     0.123 HD
ATOM     31  C   UNL     1      52.176 135.098  23.083  1.00  0.00     0.024 C 
ENDBRANCH  24  25
ENDBRANCH   1  24
TORSDOF 7
ENDMDL
MODEL 9
REMARK VINA RESULT:      -4.4      1.475      1.693
REMARK SMILES Cc1cc(N)c(O/C(O)=C\[C@H]2CC[C@@H](C)N2)c(-n2nc3ccccc3n2)c1
REMARK SMILES IDX 8 1 9 2 7 4 6 5 4 6 17 7 3 8 27 9 2 10 1 11 5 12 18 15 19 16
REMARK SMILES IDX 26 17 20 18 25 19 21 20 24 21 22 22 23 23 10 24 11 25 16 26
REMARK SMILES IDX 12 27 14 28 13 29 15 31
REMARK H PARENT 9 3 5 13 5 14 16 30
ROOT
ATOM      1  C   UNL     1      45.321 128.827  22.112  1.00  0.00     0.279 C 
ENDROOT
BRANCH   1   2
ATOM      2  O   UNL     1      45.264 129.135  23.473  1.00  0.00    -0.481 OA
ATOM      3  H   UNL     1      44.729 129.922  23.825  1.00  0.00     0.296 HD
ENDBRANCH   1   2
BRANCH   1   4
ATOM      4  O   UNL     1      45.252 129.853  21.162  1.00  0.00    -0.422 OA
BRANCH   4   5
ATOM      5  C   UNL     1      44.226 130.804  21.142  1.00  0.00     0.181 A 
ATOM      6  C   UNL     1      43.561 131.115  22.343  1.00  0.00     0.078 A 
ATOM      7  C   UNL     1      43.844 131.446  19.939  1.00  0.00     0.131 A 
ATOM      8  C   UNL     1      42.488 132.015  22.332  1.00  0.00     0.033 A 
ATOM      9  C   UNL     1      42.753 132.328  19.948  1.00  0.00     0.037 A 
ATOM     10  C   UNL     1      42.082 132.626  21.140  1.00  0.00    -0.047 A 
ATOM     11  C   UNL     1      40.902 133.553  21.131  1.00  0.00     0.044 C 
BRANCH   6  12
ATOM     12  N   UNL     1      43.952 130.496  23.574  1.00  0.00    -0.396 N 
ATOM     13  H   UNL     1      44.165 129.475  23.627  1.00  0.00     0.156 HD
ATOM     14  H   UNL     1      44.038 131.059  24.450  1.00  0.00     0.156 HD
ENDBRANCH   6  12
BRANCH   7  15
ATOM     15  N   UNL     1      44.579 131.242  18.720  1.00  0.00    -0.146 N 
ATOM     16  N   UNL     1      44.654 132.146  17.742  1.00  0.00    -0.148 NA
ATOM     17  N   UNL     1      45.224 130.113  18.431  1.00  0.00    -0.148 NA
ATOM     18  C   UNL     1      45.401 131.565  16.794  1.00  0.00     0.113 A 
ATOM     19  C   UNL     1      45.749 130.320  17.215  1.00  0.00     0.113 A 
ATOM     20  C   UNL     1      45.804 132.074  15.564  1.00  0.00     0.032 A 
ATOM     21  C   UNL     1      46.530 129.466  16.441  1.00  0.00     0.032 A 
ATOM     22  C   UNL     1      46.598 131.241  14.750  1.00  0.00     0.002 A 
ATOM     23  C   UNL     1      46.959 129.943  15.186  1.00  0.00     0.002 A 
ENDBRANCH   7  15
ENDBRANCH   4   5
ENDBRANCH   1   4
BRANCH   1  24
ATOM     24  C   UNL     1      45.440 127.554  21.716  1.00  0.00     0.080 C 
BRANCH  24  25
ATOM     25  C   UNL     1      45.622 126.423  22.697  1.00  0.00     0.084 C 
ATOM     26  N   UNL     1      46.907 125.761  22.433  1.00  0.00    -0.308 NA
ATOM     27  C   UNL     1      44.515 125.375  22.555  1.00  0.00     0.025 C 
ATOM     28  C   UNL     1      46.626 124.346  22.177  1.00  0.00     0.051 C 
ATOM     29  C   UNL     1      45.157 124.238  21.802  1.00  0.00     0.020 C 
ATOM     30  H   UNL     1      47.519 125.839  23.279  1.00  0.00     0.123 HD
ATOM     31  C   UNL     1      47.540 123.821  21.070  1.00  0.00     0.024 C 
ENDBRANCH  24  25
ENDBRANCH   1  24
TORSDOF 7
ENDMDL


