REMARK SMILES C=CCC(=O)Sc1cccc(-c2ccc3c(c2)CC3)c1
REMARK SMILES IDX 4 1 5 2 3 3 2 4 1 5 6 6 7 7 8 8 20 9 9 10 11 11 10 12 12 13
REMARK SMILES IDX 13 14 17 15 14 16 16 17 15 18 18 19 19 20
REMARK H PARENT
ROOT
ATOM      1  C   UNL     1       1.453   3.077  -2.532  1.00  0.00     0.197 C 
ATOM      2  O   UNL     1       1.924   2.037  -2.966  1.00  0.00    -0.286 OA
ENDROOT
BRANCH   1   3
ATOM      3  C   UNL     1       0.434   3.833  -3.331  1.00  0.00     0.115 C 
BRANCH   3   4
ATOM      4  C   UNL     1      -0.821   3.015  -3.477  1.00  0.00    -0.026 C 
ATOM      5  C   UNL     1      -1.972   3.373  -2.900  1.00  0.00     0.004 C 
ENDBRANCH   3   4
ENDBRANCH   1   3
BRANCH   1   6
ATOM      6  S   UNL     1       2.008   3.697  -0.941  1.00  0.00    -0.052 SA
BRANCH   6   7
ATOM      7  C   UNL     1       0.690   2.868  -0.054  1.00  0.00     0.016 A 
ATOM      8  C   UNL     1      -0.494   3.552   0.234  1.00  0.00     0.015 A 
ATOM      9  C   UNL     1       0.846   1.537   0.353  1.00  0.00     0.024 A 
ATOM     10  C   UNL     1      -1.527   2.905   0.915  1.00  0.00     0.002 A 
ATOM     11  C   UNL     1      -0.190   0.875   1.038  1.00  0.00    -0.017 A 
ATOM     12  C   UNL     1      -1.379   1.574   1.315  1.00  0.00     0.009 A 
BRANCH  11  13
ATOM     13  C   UNL     1      -0.031  -0.540   1.458  1.00  0.00    -0.018 A 
ATOM     14  C   UNL     1       0.596  -1.485   0.571  1.00  0.00     0.009 A 
ATOM     15  C   UNL     1      -0.503  -0.953   2.738  1.00  0.00     0.012 A 
ATOM     16  C   UNL     1       0.773  -2.846   0.923  1.00  0.00     0.004 A 
ATOM     17  C   UNL     1      -0.315  -2.283   3.050  1.00  0.00    -0.044 A 
ATOM     18  C   UNL     1       0.305  -3.201   2.169  1.00  0.00    -0.044 A 
ATOM     19  C   UNL     1      -0.501  -3.355   4.067  1.00  0.00     0.040 C 
ATOM     20  C   UNL     1       0.132  -4.298   3.163  1.00  0.00     0.040 C 
ENDBRANCH  11  13
ENDBRANCH   6   7
ENDBRANCH   1   6
TORSDOF 5


