MODEL 1
REMARK VINA RESULT:      -6.5      0.000      0.000
REMARK SMILES C/C=C(C)/C(O)=[N+]1\C[C@H](c2ccc3c(C)n[nH]c3c2)[C@@H](C)C[C@H]1F
REMARK SMILES IDX 5 1 6 2 3 4 4 5 2 6 1 7 7 8 8 9 23 10 9 11 22 12 20 13 24 14
REMARK SMILES IDX 21 15 10 16 11 17 19 18 12 19 18 20 13 21 17 22 14 23 16 24
REMARK SMILES IDX 15 26
REMARK H PARENT 6 3 17 25
ROOT
ATOM      1  C   UNL     1      44.375 131.096  22.409  1.00  0.00     0.365 C 
ENDROOT
BRANCH   1   2
ATOM      2  O   UNL     1      45.031 131.714  23.473  1.00  0.00    -0.460 OA
ATOM      3  H   UNL     1      45.145 132.720  23.513  1.00  0.00     0.300 HD
ENDBRANCH   1   2
BRANCH   1   4
ATOM      4  C   UNL     1      44.041 129.661  22.575  1.00  0.00     0.056 C 
ATOM      5  C   UNL     1      42.683 129.297  23.111  1.00  0.00     0.055 C 
BRANCH   4   6
ATOM      6  C   UNL     1      44.906 128.728  22.141  1.00  0.00    -0.017 C 
ATOM      7  C   UNL     1      44.916 127.317  22.645  1.00  0.00     0.036 C 
ENDBRANCH   4   6
ENDBRANCH   1   4
BRANCH   1   8
ATOM      8  N   UNL     1      44.077 131.771  21.313  1.00  0.00    -0.166 N 
ATOM      9  C   UNL     1      44.888 131.691  20.080  1.00  0.00     0.366 C 
ATOM     10  C   UNL     1      42.916 132.685  21.206  1.00  0.00     0.445 C 
ATOM     11  C   UNL     1      44.018 131.181  18.919  1.00  0.00     0.088 C 
ATOM     12  C   UNL     1      42.000 132.215  20.069  1.00  0.00     0.119 C 
ATOM     13  C   UNL     1      42.770 132.089  18.737  1.00  0.00     0.009 C 
ATOM     14  F   UNL     1      42.166 132.766  22.367  1.00  0.00    -0.175 F 
ATOM     15  C   UNL     1      41.834 131.549  17.646  1.00  0.00     0.009 C 
BRANCH  11  16
ATOM     16  C   UNL     1      44.845 131.069  17.649  1.00  0.00    -0.036 A 
ATOM     17  C   UNL     1      45.257 132.251  16.971  1.00  0.00     0.005 A 
ATOM     18  C   UNL     1      45.206 129.803  17.124  1.00  0.00     0.032 A 
ATOM     19  C   UNL     1      46.021 132.177  15.792  1.00  0.00     0.012 A 
ATOM     20  C   UNL     1      45.964 129.773  15.957  1.00  0.00     0.066 A 
ATOM     21  C   UNL     1      46.356 130.912  15.319  1.00  0.00     0.023 A 
ATOM     22  N   UNL     1      46.410 128.701  15.281  1.00  0.00    -0.278 N 
ATOM     23  C   UNL     1      47.070 130.480  14.221  1.00  0.00     0.067 A 
ATOM     24  N   UNL     1      47.083 129.125  14.215  1.00  0.00    -0.180 NA
ATOM     25  H   UNL     1      46.259 127.698  15.526  1.00  0.00     0.190 HD
ATOM     26  C   UNL     1      47.690 131.334  13.165  1.00  0.00     0.069 C 
ENDBRANCH  11  16
ENDBRANCH   1   8
TORSDOF 5
ENDMDL
MODEL 2
REMARK VINA RESULT:      -6.1      0.805      1.249
REMARK SMILES C/C=C(C)/C(O)=[N+]1\C[C@H](c2ccc3c(C)n[nH]c3c2)[C@@H](C)C[C@H]1F
REMARK SMILES IDX 5 1 6 2 3 4 4 5 2 6 1 7 7 8 8 9 23 10 9 11 22 12 20 13 24 14
REMARK SMILES IDX 21 15 10 16 11 17 19 18 12 19 18 20 13 21 17 22 14 23 16 24
REMARK SMILES IDX 15 26
REMARK H PARENT 6 3 17 25
ROOT
ATOM      1  C   UNL     1      44.626 130.226  22.844  1.00  0.00     0.365 C 
ENDROOT
BRANCH   1   2
ATOM      2  O   UNL     1      45.102 130.602  24.100  1.00  0.00    -0.460 OA
ATOM      3  H   UNL     1      44.497 130.617  24.913  1.00  0.00     0.300 HD
ENDBRANCH   1   2
BRANCH   1   4
ATOM      4  C   UNL     1      44.376 128.780  22.631  1.00  0.00     0.056 C 
ATOM      5  C   UNL     1      45.482 127.936  22.059  1.00  0.00     0.055 C 
BRANCH   4   6
ATOM      6  C   UNL     1      43.219 128.242  23.056  1.00  0.00    -0.017 C 
ATOM      7  C   UNL     1      42.534 128.656  24.322  1.00  0.00     0.036 C 
ENDBRANCH   4   6
ENDBRANCH   1   4
BRANCH   1   8
ATOM      8  N   UNL     1      44.418 131.128  21.901  1.00  0.00    -0.166 N 
ATOM      9  C   UNL     1      45.129 131.108  20.606  1.00  0.00     0.366 C 
ATOM     10  C   UNL     1      43.469 132.256  22.043  1.00  0.00     0.445 C 
ATOM     11  C   UNL     1      44.113 130.989  19.457  1.00  0.00     0.088 C 
ATOM     12  C   UNL     1      42.416 132.180  20.930  1.00  0.00     0.119 C 
ATOM     13  C   UNL     1      43.073 132.141  19.533  1.00  0.00     0.009 C 
ATOM     14  F   UNL     1      42.813 132.277  23.263  1.00  0.00    -0.175 F 
ATOM     15  C   UNL     1      41.989 131.995  18.455  1.00  0.00     0.009 C 
BRANCH  11  16
ATOM     16  C   UNL     1      44.831 130.942  18.119  1.00  0.00    -0.036 A 
ATOM     17  C   UNL     1      45.195 132.156  17.472  1.00  0.00     0.005 A 
ATOM     18  C   UNL     1      45.137 129.704  17.501  1.00  0.00     0.032 A 
ATOM     19  C   UNL     1      45.858 132.142  16.231  1.00  0.00     0.012 A 
ATOM     20  C   UNL     1      45.796 129.733  16.275  1.00  0.00     0.066 A 
ATOM     21  C   UNL     1      46.143 130.903  15.667  1.00  0.00     0.023 A 
ATOM     22  N   UNL     1      46.176 128.697  15.509  1.00  0.00    -0.278 N 
ATOM     23  C   UNL     1      46.760 130.527  14.492  1.00  0.00     0.067 A 
ATOM     24  N   UNL     1      46.762 129.174  14.414  1.00  0.00    -0.180 NA
ATOM     25  H   UNL     1      46.038 127.683  15.713  1.00  0.00     0.190 HD
ATOM     26  C   UNL     1      47.297 131.433  13.434  1.00  0.00     0.069 C 
ENDBRANCH  11  16
ENDBRANCH   1   8
TORSDOF 5
ENDMDL
MODEL 3
REMARK VINA RESULT:      -5.9      1.391      1.766
REMARK SMILES C/C=C(C)/C(O)=[N+]1\C[C@H](c2ccc3c(C)n[nH]c3c2)[C@@H](C)C[C@H]1F
REMARK SMILES IDX 5 1 6 2 3 4 4 5 2 6 1 7 7 8 8 9 23 10 9 11 22 12 20 13 24 14
REMARK SMILES IDX 21 15 10 16 11 17 19 18 12 19 18 20 13 21 17 22 14 23 16 24
REMARK SMILES IDX 15 26
REMARK H PARENT 6 3 17 25
ROOT
ATOM      1  C   UNL     1      44.310 130.490  23.384  1.00  0.00     0.365 C 
ENDROOT
BRANCH   1   2
ATOM      2  O   UNL     1      44.808 130.903  24.619  1.00  0.00    -0.460 OA
ATOM      3  H   UNL     1      44.193 131.207  25.365  1.00  0.00     0.300 HD
ENDBRANCH   1   2
BRANCH   1   4
ATOM      4  C   UNL     1      43.944 129.058  23.257  1.00  0.00     0.056 C 
ATOM      5  C   UNL     1      42.495 128.702  23.060  1.00  0.00     0.055 C 
BRANCH   4   6
ATOM      6  C   UNL     1      44.916 128.131  23.209  1.00  0.00    -0.017 C 
ATOM      7  C   UNL     1      44.916 126.988  22.241  1.00  0.00     0.036 C 
ENDBRANCH   4   6
ENDBRANCH   1   4
BRANCH   1   8
ATOM      8  N   UNL     1      44.179 131.346  22.386  1.00  0.00    -0.166 N 
ATOM      9  C   UNL     1      44.947 131.230  21.129  1.00  0.00     0.366 C 
ATOM     10  C   UNL     1      43.267 132.512  22.423  1.00  0.00     0.445 C 
ATOM     11  C   UNL     1      43.981 131.085  19.941  1.00  0.00     0.088 C 
ATOM     12  C   UNL     1      42.265 132.413  21.266  1.00  0.00     0.119 C 
ATOM     13  C   UNL     1      42.983 132.276  19.907  1.00  0.00     0.009 C 
ATOM     14  F   UNL     1      42.557 132.624  23.607  1.00  0.00    -0.175 F 
ATOM     15  C   UNL     1      41.945 132.109  18.787  1.00  0.00     0.009 C 
BRANCH  11  16
ATOM     16  C   UNL     1      44.758 130.940  18.643  1.00  0.00    -0.036 A 
ATOM     17  C   UNL     1      45.607 129.813  18.453  1.00  0.00     0.005 A 
ATOM     18  C   UNL     1      44.655 131.916  17.621  1.00  0.00     0.032 A 
ATOM     19  C   UNL     1      46.339 129.655  17.262  1.00  0.00     0.012 A 
ATOM     20  C   UNL     1      45.394 131.721  16.457  1.00  0.00     0.066 A 
ATOM     21  C   UNL     1      46.200 130.636  16.285  1.00  0.00     0.023 A 
ATOM     22  N   UNL     1      45.460 132.509  15.371  1.00  0.00    -0.278 N 
ATOM     23  C   UNL     1      46.757 130.798  15.034  1.00  0.00     0.067 A 
ATOM     24  N   UNL     1      46.295 131.953  14.498  1.00  0.00    -0.180 NA
ATOM     25  H   UNL     1      44.957 133.410  15.219  1.00  0.00     0.190 HD
ATOM     26  C   UNL     1      47.750 129.900  14.373  1.00  0.00     0.069 C 
ENDBRANCH  11  16
ENDBRANCH   1   8
TORSDOF 5
ENDMDL
MODEL 4
REMARK VINA RESULT:      -5.8      2.866      7.324
REMARK SMILES C/C=C(C)/C(O)=[N+]1\C[C@H](c2ccc3c(C)n[nH]c3c2)[C@@H](C)C[C@H]1F
REMARK SMILES IDX 5 1 6 2 3 4 4 5 2 6 1 7 7 8 8 9 23 10 9 11 22 12 20 13 24 14
REMARK SMILES IDX 21 15 10 16 11 17 19 18 12 19 18 20 13 21 17 22 14 23 16 24
REMARK SMILES IDX 15 26
REMARK H PARENT 6 3 17 25
ROOT
ATOM      1  C   UNL     1      46.110 131.707  15.326  1.00  0.00     0.365 C 
ENDROOT
BRANCH   1   2
ATOM      2  O   UNL     1      46.526 133.033  15.445  1.00  0.00    -0.460 OA
ATOM      3  H   UNL     1      46.864 133.406  16.324  1.00  0.00     0.300 HD
ENDBRANCH   1   2
BRANCH   1   4
ATOM      4  C   UNL     1      46.928 130.827  14.457  1.00  0.00     0.056 C 
ATOM      5  C   UNL     1      47.215 129.425  14.921  1.00  0.00     0.055 C 
BRANCH   4   6
ATOM      6  C   UNL     1      47.293 131.260  13.238  1.00  0.00    -0.017 C 
ATOM      7  C   UNL     1      48.326 130.575  12.396  1.00  0.00     0.036 C 
ENDBRANCH   4   6
ENDBRANCH   1   4
BRANCH   1   8
ATOM      8  N   UNL     1      45.037 131.275  15.964  1.00  0.00    -0.166 N 
ATOM      9  C   UNL     1      45.070 130.831  17.373  1.00  0.00     0.366 C 
ATOM     10  C   UNL     1      43.698 131.175  15.337  1.00  0.00     0.445 C 
ATOM     11  C   UNL     1      44.114 131.696  18.212  1.00  0.00     0.088 C 
ATOM     12  C   UNL     1      42.701 132.035  16.124  1.00  0.00     0.119 C 
ATOM     13  C   UNL     1      42.678 131.647  17.619  1.00  0.00     0.009 C 
ATOM     14  F   UNL     1      43.674 131.580  14.013  1.00  0.00    -0.175 F 
ATOM     15  C   UNL     1      41.721 132.577  18.380  1.00  0.00     0.009 C 
BRANCH  11  16
ATOM     16  C   UNL     1      44.155 131.268  19.669  1.00  0.00    -0.036 A 
ATOM     17  C   UNL     1      45.173 130.378  20.113  1.00  0.00     0.005 A 
ATOM     18  C   UNL     1      43.187 131.735  20.593  1.00  0.00     0.032 A 
ATOM     19  C   UNL     1      45.234 129.964  21.456  1.00  0.00     0.012 A 
ATOM     20  C   UNL     1      43.284 131.304  21.913  1.00  0.00     0.066 A 
ATOM     21  C   UNL     1      44.267 130.455  22.327  1.00  0.00     0.023 A 
ATOM     22  N   UNL     1      42.483 131.605  22.948  1.00  0.00    -0.278 N 
ATOM     23  C   UNL     1      44.029 130.259  23.671  1.00  0.00     0.067 A 
ATOM     24  N   UNL     1      42.929 130.966  24.026  1.00  0.00    -0.180 NA
ATOM     25  H   UNL     1      41.644 132.226  22.932  1.00  0.00     0.190 HD
ATOM     26  C   UNL     1      44.799 129.376  24.596  1.00  0.00     0.069 C 
ENDBRANCH  11  16
ENDBRANCH   1   8
TORSDOF 5
ENDMDL
MODEL 5
REMARK VINA RESULT:      -5.3      1.941      2.495
REMARK SMILES C/C=C(C)/C(O)=[N+]1\C[C@H](c2ccc3c(C)n[nH]c3c2)[C@@H](C)C[C@H]1F
REMARK SMILES IDX 5 1 6 2 3 4 4 5 2 6 1 7 7 8 8 9 23 10 9 11 22 12 20 13 24 14
REMARK SMILES IDX 21 15 10 16 11 17 19 18 12 19 18 20 13 21 17 22 14 23 16 24
REMARK SMILES IDX 15 26
REMARK H PARENT 6 3 17 25
ROOT
ATOM      1  C   UNL     1      44.408 128.886  23.356  1.00  0.00     0.365 C 
ENDROOT
BRANCH   1   2
ATOM      2  O   UNL     1      45.386 128.521  24.281  1.00  0.00    -0.460 OA
ATOM      3  H   UNL     1      46.365 128.739  24.131  1.00  0.00     0.300 HD
ENDBRANCH   1   2
BRANCH   1   4
ATOM      4  C   UNL     1      43.311 127.915  23.128  1.00  0.00     0.056 C 
ATOM      5  C   UNL     1      41.899 128.343  23.423  1.00  0.00     0.055 C 
BRANCH   4   6
ATOM      6  C   UNL     1      43.588 126.727  22.562  1.00  0.00    -0.017 C 
ATOM      7  C   UNL     1      43.200 125.414  23.170  1.00  0.00     0.036 C 
ENDBRANCH   4   6
ENDBRANCH   1   4
BRANCH   1   8
ATOM      8  N   UNL     1      44.473 130.044  22.723  1.00  0.00    -0.166 N 
ATOM      9  C   UNL     1      44.986 130.171  21.343  1.00  0.00     0.366 C 
ATOM     10  C   UNL     1      44.057 131.331  23.326  1.00  0.00     0.445 C 
ATOM     11  C   UNL     1      43.894 130.762  20.435  1.00  0.00     0.088 C 
ATOM     12  C   UNL     1      42.951 131.962  22.470  1.00  0.00     0.119 C 
ATOM     13  C   UNL     1      43.397 132.122  21.001  1.00  0.00     0.009 C 
ATOM     14  F   UNL     1      43.587 131.208  24.624  1.00  0.00    -0.175 F 
ATOM     15  C   UNL     1      42.239 132.690  20.167  1.00  0.00     0.009 C 
BRANCH  11  16
ATOM     16  C   UNL     1      44.398 130.876  19.007  1.00  0.00    -0.036 A 
ATOM     17  C   UNL     1      45.762 130.589  18.717  1.00  0.00     0.005 A 
ATOM     18  C   UNL     1      43.531 131.272  17.958  1.00  0.00     0.032 A 
ATOM     19  C   UNL     1      46.256 130.689  17.403  1.00  0.00     0.012 A 
ATOM     20  C   UNL     1      44.058 131.356  16.673  1.00  0.00     0.066 A 
ATOM     21  C   UNL     1      45.365 131.075  16.407  1.00  0.00     0.023 A 
ATOM     22  N   UNL     1      43.434 131.715  15.538  1.00  0.00    -0.278 N 
ATOM     23  C   UNL     1      45.506 131.274  15.050  1.00  0.00     0.067 A 
ATOM     24  N   UNL     1      44.314 131.672  14.542  1.00  0.00    -0.180 NA
ATOM     25  H   UNL     1      42.434 131.991  15.434  1.00  0.00     0.190 HD
ATOM     26  C   UNL     1      46.760 131.139  14.251  1.00  0.00     0.069 C 
ENDBRANCH  11  16
ENDBRANCH   1   8
TORSDOF 5
ENDMDL
MODEL 6
REMARK VINA RESULT:      -5.1      1.137      1.274
REMARK SMILES C/C=C(C)/C(O)=[N+]1\C[C@H](c2ccc3c(C)n[nH]c3c2)[C@@H](C)C[C@H]1F
REMARK SMILES IDX 5 1 6 2 3 4 4 5 2 6 1 7 7 8 8 9 23 10 9 11 22 12 20 13 24 14
REMARK SMILES IDX 21 15 10 16 11 17 19 18 12 19 18 20 13 21 17 22 14 23 16 24
REMARK SMILES IDX 15 26
REMARK H PARENT 6 3 17 25
ROOT
ATOM      1  C   UNL     1      44.231 130.990  21.759  1.00  0.00     0.365 C 
ENDROOT
BRANCH   1   2
ATOM      2  O   UNL     1      45.493 130.474  22.059  1.00  0.00    -0.460 OA
ATOM      3  H   UNL     1      46.123 130.950  22.694  1.00  0.00     0.300 HD
ENDBRANCH   1   2
BRANCH   1   4
ATOM      4  C   UNL     1      43.142 130.685  22.717  1.00  0.00     0.056 C 
ATOM      5  C   UNL     1      42.769 131.726  23.737  1.00  0.00     0.055 C 
BRANCH   4   6
ATOM      6  C   UNL     1      42.444 129.544  22.579  1.00  0.00    -0.017 C 
ATOM      7  C   UNL     1      41.959 128.730  23.741  1.00  0.00     0.036 C 
ENDBRANCH   4   6
ENDBRANCH   1   4
BRANCH   1   8
ATOM      8  N   UNL     1      44.037 131.711  20.669  1.00  0.00    -0.166 N 
ATOM      9  C   UNL     1      44.924 131.631  19.490  1.00  0.00     0.366 C 
ATOM     10  C   UNL     1      42.928 132.681  20.517  1.00  0.00     0.445 C 
ATOM     11  C   UNL     1      44.111 131.197  18.258  1.00  0.00     0.088 C 
ATOM     12  C   UNL     1      42.068 132.287  19.309  1.00  0.00     0.119 C 
ATOM     13  C   UNL     1      42.920 132.167  18.026  1.00  0.00     0.009 C 
ATOM     14  F   UNL     1      42.106 132.762  21.629  1.00  0.00    -0.175 F 
ATOM     15  C   UNL     1      42.035 131.704  16.859  1.00  0.00     0.009 C 
BRANCH  11  16
ATOM     16  C   UNL     1      45.015 131.085  17.042  1.00  0.00    -0.036 A 
ATOM     17  C   UNL     1      45.457 132.266  16.382  1.00  0.00     0.005 A 
ATOM     18  C   UNL     1      45.418 129.819  16.548  1.00  0.00     0.032 A 
ATOM     19  C   UNL     1      46.292 132.192  15.252  1.00  0.00     0.012 A 
ATOM     20  C   UNL     1      46.246 129.789  15.430  1.00  0.00     0.066 A 
ATOM     21  C   UNL     1      46.666 130.928  14.809  1.00  0.00     0.023 A 
ATOM     22  N   UNL     1      46.741 128.718  14.788  1.00  0.00    -0.278 N 
ATOM     23  C   UNL     1      47.450 130.497  13.759  1.00  0.00     0.067 A 
ATOM     24  N   UNL     1      47.474 129.142  13.763  1.00  0.00    -0.180 NA
ATOM     25  H   UNL     1      46.585 127.715  15.031  1.00  0.00     0.190 HD
ATOM     26  C   UNL     1      48.125 131.350  12.737  1.00  0.00     0.069 C 
ENDBRANCH  11  16
ENDBRANCH   1   8
TORSDOF 5
ENDMDL
MODEL 7
REMARK VINA RESULT:      -5.0      0.885      1.295
REMARK SMILES C/C=C(C)/C(O)=[N+]1\C[C@H](c2ccc3c(C)n[nH]c3c2)[C@@H](C)C[C@H]1F
REMARK SMILES IDX 5 1 6 2 3 4 4 5 2 6 1 7 7 8 8 9 23 10 9 11 22 12 20 13 24 14
REMARK SMILES IDX 21 15 10 16 11 17 19 18 12 19 18 20 13 21 17 22 14 23 16 24
REMARK SMILES IDX 15 26
REMARK H PARENT 6 3 17 25
ROOT
ATOM      1  C   UNL     1      44.763 131.593  21.817  1.00  0.00     0.365 C 
ENDROOT
BRANCH   1   2
ATOM      2  O   UNL     1      45.811 132.178  22.527  1.00  0.00    -0.460 OA
ATOM      3  H   UNL     1      45.988 133.175  22.486  1.00  0.00     0.300 HD
ENDBRANCH   1   2
BRANCH   1   4
ATOM      4  C   UNL     1      44.123 130.405  22.432  1.00  0.00     0.056 C 
ATOM      5  C   UNL     1      44.679 129.043  22.111  1.00  0.00     0.055 C 
BRANCH   4   6
ATOM      6  C   UNL     1      43.146 130.577  23.339  1.00  0.00    -0.017 C 
ATOM      7  C   UNL     1      43.071 129.810  24.624  1.00  0.00     0.036 C 
ENDBRANCH   4   6
ENDBRANCH   1   4
BRANCH   1   8
ATOM      8  N   UNL     1      44.374 132.086  20.655  1.00  0.00    -0.166 N 
ATOM      9  C   UNL     1      45.204 132.001  19.434  1.00  0.00     0.366 C 
ATOM     10  C   UNL     1      43.083 132.783  20.452  1.00  0.00     0.445 C 
ATOM     11  C   UNL     1      44.443 131.232  18.341  1.00  0.00     0.088 C 
ATOM     12  C   UNL     1      42.269 132.048  19.380  1.00  0.00     0.119 C 
ATOM     13  C   UNL     1      43.068 131.902  18.066  1.00  0.00     0.009 C 
ATOM     14  F   UNL     1      42.314 132.870  21.600  1.00  0.00    -0.175 F 
ATOM     15  C   UNL     1      42.244 131.100  17.046  1.00  0.00     0.009 C 
BRANCH  11  16
ATOM     16  C   UNL     1      45.293 131.115  17.088  1.00  0.00    -0.036 A 
ATOM     17  C   UNL     1      45.541 132.271  16.295  1.00  0.00     0.005 A 
ATOM     18  C   UNL     1      45.838 129.868  16.691  1.00  0.00     0.032 A 
ATOM     19  C   UNL     1      46.323 132.191  15.128  1.00  0.00     0.012 A 
ATOM     20  C   UNL     1      46.608 129.832  15.532  1.00  0.00     0.066 A 
ATOM     21  C   UNL     1      46.841 130.947  14.783  1.00  0.00     0.023 A 
ATOM     22  N   UNL     1      47.210 128.774  14.965  1.00  0.00    -0.278 N 
ATOM     23  C   UNL     1      47.624 130.516  13.733  1.00  0.00     0.067 A 
ATOM     24  N   UNL     1      47.829 129.183  13.861  1.00  0.00    -0.180 NA
ATOM     25  H   UNL     1      47.201 127.789  15.309  1.00  0.00     0.190 HD
ATOM     26  C   UNL     1      48.129 131.341  12.596  1.00  0.00     0.069 C 
ENDBRANCH  11  16
ENDBRANCH   1   8
TORSDOF 5
ENDMDL
MODEL 8
REMARK VINA RESULT:      -4.9      1.271      1.618
REMARK SMILES C/C=C(C)/C(O)=[N+]1\C[C@H](c2ccc3c(C)n[nH]c3c2)[C@@H](C)C[C@H]1F
REMARK SMILES IDX 5 1 6 2 3 4 4 5 2 6 1 7 7 8 8 9 23 10 9 11 22 12 20 13 24 14
REMARK SMILES IDX 21 15 10 16 11 17 19 18 12 19 18 20 13 21 17 22 14 23 16 24
REMARK SMILES IDX 15 26
REMARK H PARENT 6 3 17 25
ROOT
ATOM      1  C   UNL     1      44.010 130.130  22.558  1.00  0.00     0.365 C 
ENDROOT
BRANCH   1   2
ATOM      2  O   UNL     1      44.491 128.857  22.251  1.00  0.00    -0.460 OA
ATOM      3  H   UNL     1      44.992 128.673  21.390  1.00  0.00     0.300 HD
ENDBRANCH   1   2
BRANCH   1   4
ATOM      4  C   UNL     1      43.605 130.369  23.964  1.00  0.00     0.056 C 
ATOM      5  C   UNL     1      43.967 131.682  24.604  1.00  0.00     0.055 C 
BRANCH   4   6
ATOM      6  C   UNL     1      42.833 129.463  24.591  1.00  0.00    -0.017 C 
ATOM      7  C   UNL     1      41.616 128.849  23.970  1.00  0.00     0.036 C 
ENDBRANCH   4   6
ENDBRANCH   1   4
BRANCH   1   8
ATOM      8  N   UNL     1      43.926 131.064  21.628  1.00  0.00    -0.166 N 
ATOM      9  C   UNL     1      44.711 131.017  20.376  1.00  0.00     0.366 C 
ATOM     10  C   UNL     1      43.056 132.257  21.742  1.00  0.00     0.445 C 
ATOM     11  C   UNL     1      43.760 130.999  19.168  1.00  0.00     0.088 C 
ATOM     12  C   UNL     1      42.070 132.283  20.567  1.00  0.00     0.119 C 
ATOM     13  C   UNL     1      42.805 132.224  19.211  1.00  0.00     0.009 C 
ATOM     14  F   UNL     1      42.331 132.303  22.921  1.00  0.00    -0.175 F 
ATOM     15  C   UNL     1      41.780 132.181  18.068  1.00  0.00     0.009 C 
BRANCH  11  16
ATOM     16  C   UNL     1      44.552 130.925  17.873  1.00  0.00    -0.036 A 
ATOM     17  C   UNL     1      44.114 131.661  16.737  1.00  0.00     0.005 A 
ATOM     18  C   UNL     1      45.719 130.126  17.778  1.00  0.00     0.032 A 
ATOM     19  C   UNL     1      44.827 131.610  15.525  1.00  0.00     0.012 A 
ATOM     20  C   UNL     1      46.396 130.103  16.562  1.00  0.00     0.066 A 
ATOM     21  C   UNL     1      45.969 130.817  15.482  1.00  0.00     0.023 A 
ATOM     22  N   UNL     1      47.507 129.419  16.240  1.00  0.00    -0.278 N 
ATOM     23  C   UNL     1      46.880 130.538  14.485  1.00  0.00     0.067 A 
ATOM     24  N   UNL     1      47.806 129.675  14.970  1.00  0.00    -0.180 NA
ATOM     25  H   UNL     1      48.053 128.783  16.861  1.00  0.00     0.190 HD
ATOM     26  C   UNL     1      46.849 131.039  13.079  1.00  0.00     0.069 C 
ENDBRANCH  11  16
ENDBRANCH   1   8
TORSDOF 5
ENDMDL
MODEL 9
REMARK VINA RESULT:      -4.6      1.434      1.964
REMARK SMILES C/C=C(C)/C(O)=[N+]1\C[C@H](c2ccc3c(C)n[nH]c3c2)[C@@H](C)C[C@H]1F
REMARK SMILES IDX 5 1 6 2 3 4 4 5 2 6 1 7 7 8 8 9 23 10 9 11 22 12 20 13 24 14
REMARK SMILES IDX 21 15 10 16 11 17 19 18 12 19 18 20 13 21 17 22 14 23 16 24
REMARK SMILES IDX 15 26
REMARK H PARENT 6 3 17 25
ROOT
ATOM      1  C   UNL     1      44.542 130.381  22.495  1.00  0.00     0.365 C 
ENDROOT
BRANCH   1   2
ATOM      2  O   UNL     1      45.225 129.171  22.365  1.00  0.00    -0.460 OA
ATOM      3  H   UNL     1      46.088 128.993  22.864  1.00  0.00     0.300 HD
ENDBRANCH   1   2
BRANCH   1   4
ATOM      4  C   UNL     1      43.928 130.661  23.815  1.00  0.00     0.056 C 
ATOM      5  C   UNL     1      44.460 131.813  24.624  1.00  0.00     0.055 C 
BRANCH   4   6
ATOM      6  C   UNL     1      42.850 129.959  24.203  1.00  0.00    -0.017 C 
ATOM      7  C   UNL     1      42.777 128.463  24.146  1.00  0.00     0.036 C 
ENDBRANCH   4   6
ENDBRANCH   1   4
BRANCH   1   8
ATOM      8  N   UNL     1      44.456 131.221  21.479  1.00  0.00    -0.166 N 
ATOM      9  C   UNL     1      45.263 131.074  20.250  1.00  0.00     0.366 C 
ATOM     10  C   UNL     1      43.560 132.401  21.468  1.00  0.00     0.445 C 
ATOM     11  C   UNL     1      44.333 130.922  19.034  1.00  0.00     0.088 C 
ATOM     12  C   UNL     1      42.594 132.296  20.281  1.00  0.00     0.119 C 
ATOM     13  C   UNL     1      43.354 132.126  18.948  1.00  0.00     0.009 C 
ATOM     14  F   UNL     1      42.815 132.542  22.626  1.00  0.00    -0.175 F 
ATOM     15  C   UNL     1      42.350 131.954  17.798  1.00  0.00     0.009 C 
BRANCH  11  16
ATOM     16  C   UNL     1      45.148 130.744  17.764  1.00  0.00    -0.036 A 
ATOM     17  C   UNL     1      45.958 129.585  17.604  1.00  0.00     0.005 A 
ATOM     18  C   UNL     1      45.121 131.722  16.739  1.00  0.00     0.032 A 
ATOM     19  C   UNL     1      46.725 129.396  16.440  1.00  0.00     0.012 A 
ATOM     20  C   UNL     1      45.892 131.496  15.602  1.00  0.00     0.066 A 
ATOM     21  C   UNL     1      46.660 130.379  15.459  1.00  0.00     0.023 A 
ATOM     22  N   UNL     1      46.027 132.279  14.518  1.00  0.00    -0.278 N 
ATOM     23  C   UNL     1      47.267 130.517  14.228  1.00  0.00     0.067 A 
ATOM     24  N   UNL     1      46.871 131.689  13.676  1.00  0.00    -0.180 NA
ATOM     25  H   UNL     1      45.566 133.199  14.349  1.00  0.00     0.190 HD
ATOM     26  C   UNL     1      48.247 129.579  13.603  1.00  0.00     0.069 C 
ENDBRANCH  11  16
ENDBRANCH   1   8
TORSDOF 5
ENDMDL


