REMARK SMILES Nc1cc(F)c[nH]/c1=N\c1c[nH]c2nccc-2c1
REMARK SMILES IDX 8 1 2 2 3 3 4 4 5 5 6 6 7 7 9 9 10 10 15 11 14 12 16 13
REMARK SMILES IDX 13 14 17 15 12 16 18 17 11 18 1 20
REMARK H PARENT 7 8 12 19 1 21 1 22
ROOT
ATOM      1  C   UNL     1       0.999   0.981   0.535  1.00  0.00     0.154 A 
ATOM      2  C   UNL     1       1.682   2.145   0.949  1.00  0.00     0.078 A 
ATOM      3  C   UNL     1       3.043   2.059   1.267  1.00  0.00     0.070 A 
ATOM      4  C   UNL     1       3.710   0.841   1.161  1.00  0.00     0.141 A 
ATOM      5  F   UNL     1       5.028   0.755   1.466  1.00  0.00    -0.205 F 
ATOM      6  C   UNL     1       3.013  -0.284   0.728  1.00  0.00     0.123 A 
ATOM      7  N   UNL     1       1.691  -0.198   0.419  1.00  0.00    -0.342 N 
ATOM      8  H   UNL     1       1.234  -1.062   0.054  1.00  0.00     0.168 HD
ENDROOT
BRANCH   1   9
ATOM      9  N   UNL     1      -0.270   1.062   0.236  1.00  0.00    -0.228 NA
BRANCH   9  10
ATOM     10  C   UNL     1      -1.156  -0.015  -0.100  1.00  0.00     0.082 A 
ATOM     11  C   UNL     1      -4.399  -2.357  -2.163  1.00  0.00     0.114 A 
ATOM     12  N   UNL     1      -3.872  -2.929  -1.048  1.00  0.00    -0.239 NA
ATOM     13  C   UNL     1      -3.820  -1.121  -2.462  1.00  0.00     0.032 A 
ATOM     14  C   UNL     1      -2.944  -2.052  -0.634  1.00  0.00     0.137 A 
ATOM     15  C   UNL     1      -2.881  -0.913  -1.485  1.00  0.00     0.021 A 
ATOM     16  N   UNL     1      -2.158  -2.163   0.462  1.00  0.00    -0.344 N 
ATOM     17  C   UNL     1      -1.997   0.121  -1.222  1.00  0.00     0.042 A 
ATOM     18  C   UNL     1      -1.274  -1.157   0.746  1.00  0.00     0.112 A 
ATOM     19  H   UNL     1      -2.231  -2.996   1.088  1.00  0.00     0.168 HD
ENDBRANCH   9  10
ENDBRANCH   1   9
BRANCH   2  20
ATOM     20  N   UNL     1       1.009   3.406   1.062  1.00  0.00    -0.396 N 
ATOM     21  H   UNL     1      -0.006   3.508   0.839  1.00  0.00     0.156 HD
ATOM     22  H   UNL     1       1.526   4.258   1.373  1.00  0.00     0.156 HD
ENDBRANCH   2  20
TORSDOF 3


