REMARK SMILES Cc1ccc(-c2ccc3[nH]ccc3c2)cc1F
REMARK SMILES IDX 6 1 7 2 8 3 9 4 10 5 11 6 12 7 13 8 14 9 5 11 2 12 3 13
REMARK SMILES IDX 16 14 4 15 15 16 1 17 17 18
REMARK H PARENT 10 10
ROOT
ATOM      1  C   UNL     1       1.407  -0.332  -0.869  1.00  0.00    -0.018 A 
ATOM      2  C   UNL     1       1.728   0.169  -2.160  1.00  0.00     0.011 A 
ATOM      3  C   UNL     1       2.820  -0.345  -2.882  1.00  0.00     0.027 A 
ATOM      4  C   UNL     1       3.573  -1.356  -2.293  1.00  0.00     0.045 A 
ATOM      5  N   UNL     1       4.645  -1.982  -2.807  1.00  0.00    -0.361 N 
ATOM      6  C   UNL     1       5.029  -2.883  -1.873  1.00  0.00     0.083 A 
ATOM      7  C   UNL     1       4.196  -2.827  -0.761  1.00  0.00     0.028 A 
ATOM      8  C   UNL     1       3.274  -1.845  -1.051  1.00  0.00    -0.000 A 
ATOM      9  C   UNL     1       2.201  -1.361  -0.307  1.00  0.00     0.019 A 
ATOM     10  H   UNL     1       5.092  -1.812  -3.735  1.00  0.00     0.166 HD
ENDROOT
BRANCH   1  11
ATOM     11  C   UNL     1       0.251   0.218  -0.116  1.00  0.00    -0.015 A 
ATOM     12  C   UNL     1      -1.942   1.272   1.312  1.00  0.00    -0.015 A 
ATOM     13  C   UNL     1      -0.747   0.960   1.977  1.00  0.00     0.007 A 
ATOM     14  C   UNL     1      -2.043   1.037  -0.068  1.00  0.00     0.126 A 
ATOM     15  C   UNL     1       0.341   0.442   1.270  1.00  0.00     0.009 A 
ATOM     16  C   UNL     1      -0.953   0.520  -0.776  1.00  0.00     0.048 A 
ATOM     17  C   UNL     1      -3.120   1.803   2.077  1.00  0.00     0.047 C 
ATOM     18  F   UNL     1      -3.198   1.304  -0.729  1.00  0.00    -0.207 F 
ENDBRANCH   1  11
TORSDOF 1


