REMARK SMILES [O-]C(N[C@H]1Cc2ccccc2[C@H]1O)=C1CCCC1
REMARK SMILES IDX 4 1 5 2 6 3 7 4 8 5 9 6 10 7 11 8 12 9 3 10 2 12 1 13 14 14
REMARK SMILES IDX 15 15 18 16 16 17 17 18 13 19
REMARK H PARENT 3 11 13 20
ROOT
ATOM      1  C   UNL     1       0.869  -0.018   0.867  1.00  0.00     0.115 C 
ATOM      2  C   UNL     1       1.774  -1.266   1.004  1.00  0.00     0.063 C 
ATOM      3  C   UNL     1       3.097  -0.776   0.555  1.00  0.00    -0.040 A 
ATOM      4  C   UNL     1       4.316  -1.452   0.648  1.00  0.00     0.004 A 
ATOM      5  C   UNL     1       5.470  -0.835   0.140  1.00  0.00     0.000 A 
ATOM      6  C   UNL     1       5.387   0.436  -0.457  1.00  0.00     0.000 A 
ATOM      7  C   UNL     1       4.150   1.093  -0.549  1.00  0.00     0.007 A 
ATOM      8  C   UNL     1       3.015   0.465  -0.029  1.00  0.00    -0.014 A 
ATOM      9  C   UNL     1       1.623   0.976  -0.057  1.00  0.00     0.167 C 
ENDROOT
BRANCH   1  10
ATOM     10  N   UNL     1      -0.468  -0.351   0.363  1.00  0.00    -0.391 N 
ATOM     11  H   UNL     1      -0.640  -1.308  -0.020  1.00  0.00     0.159 HD
BRANCH  10  12
ATOM     12  C   UNL     1      -1.546   0.600   0.424  1.00  0.00    -0.046 C 
ATOM     13  O   UNL     1      -1.313   1.858   0.976  1.00  0.00    -0.860 OA
BRANCH  12  14
ATOM     14  C   UNL     1      -2.772   0.308  -0.043  1.00  0.00    -0.062 C 
ATOM     15  C   UNL     1      -3.900   1.280  -0.021  1.00  0.00     0.032 C 
ATOM     16  C   UNL     1      -3.165  -0.996  -0.648  1.00  0.00     0.032 C 
ATOM     17  C   UNL     1      -5.001   0.611  -0.834  1.00  0.00     0.005 C 
ATOM     18  C   UNL     1      -4.667  -0.879  -0.877  1.00  0.00     0.005 C 
ENDBRANCH  12  14
ENDBRANCH  10  12
ENDBRANCH   1  10
BRANCH   9  19
ATOM     19  O   UNL     1       1.147   0.922  -1.377  1.00  0.00    -0.386 OA
ATOM     20  H   UNL     1       0.429   1.604  -1.450  1.00  0.00     0.211 HD
ENDBRANCH   9  19
TORSDOF 4


