MODEL 1
REMARK VINA RESULT:     -11.0      0.000      0.000
REMARK SMILES C=Cc1cccc(-c2ccc3cc[nH+]c(O)c3c2)c1
REMARK SMILES IDX 8 1 9 2 10 3 11 4 12 5 13 6 14 7 15 8 17 9 18 10 7 12 3 13
REMARK SMILES IDX 4 14 19 15 5 16 6 17 2 18 1 19 16 20
REMARK H PARENT 14 11 16 21
ROOT
ATOM      1  C   UNL     1      44.982 131.045  18.224  1.00  0.00    -0.017 A 
ATOM      2  C   UNL     1      45.889 130.472  19.134  1.00  0.00     0.009 A 
ATOM      3  C   UNL     1      45.647 130.524  20.507  1.00  0.00     0.010 A 
ATOM      4  C   UNL     1      44.493 131.148  20.999  1.00  0.00    -0.002 A 
ATOM      5  C   UNL     1      44.244 131.203  22.375  1.00  0.00     0.079 A 
ATOM      6  C   UNL     1      43.087 131.830  22.838  1.00  0.00     0.310 A 
ATOM      7  N   UNL     1      42.206 132.382  21.961  1.00  0.00    -0.179 N 
ATOM      8  C   UNL     1      42.416 132.348  20.614  1.00  0.00     0.371 A 
ATOM      9  C   UNL     1      43.570 131.728  20.099  1.00  0.00     0.094 A 
ATOM     10  C   UNL     1      43.822 131.671  18.717  1.00  0.00     0.028 A 
ATOM     11  H   UNL     1      41.348 132.843  22.338  1.00  0.00     0.457 HD
ENDROOT
BRANCH   1  12
ATOM     12  C   UNL     1      45.245 130.988  16.763  1.00  0.00    -0.018 A 
ATOM     13  C   UNL     1      46.593 130.192  14.881  1.00  0.00    -0.026 A 
ATOM     14  C   UNL     1      45.746 130.890  13.999  1.00  0.00     0.008 A 
ATOM     15  C   UNL     1      46.339 130.258  16.262  1.00  0.00     0.016 A 
ATOM     16  C   UNL     1      44.658 131.615  14.491  1.00  0.00     0.001 A 
ATOM     17  C   UNL     1      44.405 131.662  15.862  1.00  0.00     0.009 A 
BRANCH  13  18
ATOM     18  C   UNL     1      47.766 129.410  14.414  1.00  0.00     0.000 C 
ATOM     19  C   UNL     1      48.448 129.676  13.299  1.00  0.00     0.009 C 
ENDBRANCH  13  18
ENDBRANCH   1  12
BRANCH   8  20
ATOM     20  O   UNL     1      41.484 132.928  19.753  1.00  0.00    -0.459 OA
ATOM     21  H   UNL     1      41.583 133.887  19.440  1.00  0.00     0.300 HD
ENDBRANCH   8  20
TORSDOF 3
ENDMDL
MODEL 2
REMARK VINA RESULT:      -9.5      1.611      2.180
REMARK SMILES C=Cc1cccc(-c2ccc3cc[nH+]c(O)c3c2)c1
REMARK SMILES IDX 8 1 9 2 10 3 11 4 12 5 13 6 14 7 15 8 17 9 18 10 7 12 3 13
REMARK SMILES IDX 4 14 19 15 5 16 6 17 2 18 1 19 16 20
REMARK H PARENT 14 11 16 21
ROOT
ATOM      1  C   UNL     1      44.072 131.440  17.623  1.00  0.00    -0.017 A 
ATOM      2  C   UNL     1      42.715 131.760  17.810  1.00  0.00     0.009 A 
ATOM      3  C   UNL     1      42.203 131.963  19.092  1.00  0.00     0.010 A 
ATOM      4  C   UNL     1      43.037 131.853  20.213  1.00  0.00    -0.002 A 
ATOM      5  C   UNL     1      42.530 132.056  21.502  1.00  0.00     0.079 A 
ATOM      6  C   UNL     1      43.382 131.941  22.600  1.00  0.00     0.310 A 
ATOM      7  N   UNL     1      44.695 131.635  22.422  1.00  0.00    -0.179 N 
ATOM      8  C   UNL     1      45.224 131.430  21.183  1.00  0.00     0.371 A 
ATOM      9  C   UNL     1      44.403 131.533  20.043  1.00  0.00     0.094 A 
ATOM     10  C   UNL     1      44.910 131.330  18.747  1.00  0.00     0.028 A 
ATOM     11  H   UNL     1      45.308 131.557  23.264  1.00  0.00     0.457 HD
ENDROOT
BRANCH   1  12
ATOM     12  C   UNL     1      44.612 131.223  16.256  1.00  0.00    -0.018 A 
ATOM     13  C   UNL     1      46.360 130.351  14.780  1.00  0.00    -0.026 A 
ATOM     14  C   UNL     1      45.635 130.823  13.669  1.00  0.00     0.008 A 
ATOM     15  C   UNL     1      45.843 130.568  16.070  1.00  0.00     0.016 A 
ATOM     16  C   UNL     1      44.412 131.473  13.848  1.00  0.00     0.001 A 
ATOM     17  C   UNL     1      43.900 131.670  15.131  1.00  0.00     0.009 A 
BRANCH  13  18
ATOM     18  C   UNL     1      47.666 129.658  14.649  1.00  0.00     0.000 C 
ATOM     19  C   UNL     1      48.359 129.573  13.512  1.00  0.00     0.009 C 
ENDBRANCH  13  18
ENDBRANCH   1  12
BRANCH   8  20
ATOM     20  O   UNL     1      46.577 131.117  21.049  1.00  0.00    -0.459 OA
ATOM     21  H   UNL     1      46.987 130.926  20.142  1.00  0.00     0.300 HD
ENDBRANCH   8  20
TORSDOF 3
ENDMDL
MODEL 3
REMARK VINA RESULT:      -8.1      2.616      6.722
REMARK SMILES C=Cc1cccc(-c2ccc3cc[nH+]c(O)c3c2)c1
REMARK SMILES IDX 8 1 9 2 10 3 11 4 12 5 13 6 14 7 15 8 17 9 18 10 7 12 3 13
REMARK SMILES IDX 4 14 19 15 5 16 6 17 2 18 1 19 16 20
REMARK H PARENT 14 11 16 21
ROOT
ATOM      1  C   UNL     1      44.392 131.305  18.471  1.00  0.00    -0.017 A 
ATOM      2  C   UNL     1      45.581 130.600  18.731  1.00  0.00     0.009 A 
ATOM      3  C   UNL     1      46.399 130.174  17.684  1.00  0.00     0.010 A 
ATOM      4  C   UNL     1      46.046 130.445  16.355  1.00  0.00    -0.002 A 
ATOM      5  C   UNL     1      46.862 130.021  15.299  1.00  0.00     0.079 A 
ATOM      6  C   UNL     1      46.487 130.304  13.986  1.00  0.00     0.310 A 
ATOM      7  N   UNL     1      45.338 130.987  13.731  1.00  0.00    -0.179 N 
ATOM      8  C   UNL     1      44.519 131.415  14.733  1.00  0.00     0.371 A 
ATOM      9  C   UNL     1      44.854 131.152  16.075  1.00  0.00     0.094 A 
ATOM     10  C   UNL     1      44.036 131.577  17.137  1.00  0.00     0.028 A 
ATOM     11  H   UNL     1      45.085 131.185  12.737  1.00  0.00     0.457 HD
ENDROOT
BRANCH   1  12
ATOM     12  C   UNL     1      43.524 131.754  19.589  1.00  0.00    -0.018 A 
ATOM     13  C   UNL     1      42.998 131.796  21.980  1.00  0.00    -0.026 A 
ATOM     14  C   UNL     1      41.875 132.600  21.703  1.00  0.00     0.008 A 
ATOM     15  C   UNL     1      43.809 131.371  20.913  1.00  0.00     0.016 A 
ATOM     16  C   UNL     1      41.588 132.984  20.391  1.00  0.00     0.001 A 
ATOM     17  C   UNL     1      42.408 132.570  19.341  1.00  0.00     0.009 A 
BRANCH  13  18
ATOM     18  C   UNL     1      43.346 131.354  23.353  1.00  0.00     0.000 C 
ATOM     19  C   UNL     1      43.663 132.181  24.351  1.00  0.00     0.009 C 
ENDBRANCH  13  18
ENDBRANCH   1  12
BRANCH   8  20
ATOM     20  O   UNL     1      43.350 132.112  14.423  1.00  0.00    -0.459 OA
ATOM     21  H   UNL     1      43.344 133.123  14.350  1.00  0.00     0.300 HD
ENDBRANCH   8  20
TORSDOF 3
ENDMDL
MODEL 4
REMARK VINA RESULT:      -8.1      0.774      2.082
REMARK SMILES C=Cc1cccc(-c2ccc3cc[nH+]c(O)c3c2)c1
REMARK SMILES IDX 8 1 9 2 10 3 11 4 12 5 13 6 14 7 15 8 17 9 18 10 7 12 3 13
REMARK SMILES IDX 4 14 19 15 5 16 6 17 2 18 1 19 16 20
REMARK H PARENT 14 11 16 21
ROOT
ATOM      1  C   UNL     1      45.103 130.861  18.511  1.00  0.00    -0.017 A 
ATOM      2  C   UNL     1      45.922 130.333  19.525  1.00  0.00     0.009 A 
ATOM      3  C   UNL     1      45.576 130.481  20.869  1.00  0.00     0.010 A 
ATOM      4  C   UNL     1      44.402 131.158  21.226  1.00  0.00    -0.002 A 
ATOM      5  C   UNL     1      44.048 131.310  22.572  1.00  0.00     0.079 A 
ATOM      6  C   UNL     1      42.874 131.988  22.899  1.00  0.00     0.310 A 
ATOM      7  N   UNL     1      42.078 132.498  21.921  1.00  0.00    -0.179 N 
ATOM      8  C   UNL     1      42.391 132.370  20.601  1.00  0.00     0.371 A 
ATOM      9  C   UNL     1      43.567 131.695  20.220  1.00  0.00     0.094 A 
ATOM     10  C   UNL     1      43.925 131.541  18.869  1.00  0.00     0.028 A 
ATOM     11  H   UNL     1      41.205 133.000  22.198  1.00  0.00     0.457 HD
ENDROOT
BRANCH   1  12
ATOM     12  C   UNL     1      45.478 130.702  17.083  1.00  0.00    -0.018 A 
ATOM     13  C   UNL     1      45.003 131.082  14.711  1.00  0.00    -0.026 A 
ATOM     14  C   UNL     1      46.186 130.391  14.380  1.00  0.00     0.008 A 
ATOM     15  C   UNL     1      44.655 131.221  16.066  1.00  0.00     0.016 A 
ATOM     16  C   UNL     1      47.006 129.875  15.385  1.00  0.00     0.001 A 
ATOM     17  C   UNL     1      46.660 130.031  16.727  1.00  0.00     0.009 A 
BRANCH  13  18
ATOM     18  C   UNL     1      44.092 131.646  13.684  1.00  0.00     0.000 C 
ATOM     19  C   UNL     1      42.766 131.714  13.815  1.00  0.00     0.009 C 
ENDBRANCH  13  18
ENDBRANCH   1  12
BRANCH   8  20
ATOM     20  O   UNL     1      41.545 132.910  19.632  1.00  0.00    -0.459 OA
ATOM     21  H   UNL     1      41.331 133.901  19.613  1.00  0.00     0.300 HD
ENDBRANCH   8  20
TORSDOF 3
ENDMDL


