REMARK SMILES CC(=O)c1cc(-c2ccc(C)cc2)c(C(=O)N[C@@H]2C=CCC2)c(F)c1O
REMARK SMILES IDX 4 1 5 2 6 3 14 4 23 5 24 6 25 7 2 8 1 9 3 10 26 11 7 13 8 14
REMARK SMILES IDX 13 15 9 16 12 17 10 18 11 19 15 20 17 21 16 22 18 24 19 25
REMARK SMILES IDX 22 26 20 27 21 28
REMARK H PARENT 26 12 17 23
ROOT
ATOM      1  C   UNL     1       3.111  -1.650  -0.368  1.00  0.00     0.063 A 
ATOM      2  C   UNL     1       2.650  -0.337  -0.170  1.00  0.00     0.025 A 
ATOM      3  C   UNL     1       1.381  -0.083   0.372  1.00  0.00    -0.002 A 
ATOM      4  C   UNL     1       0.531  -1.165   0.701  1.00  0.00     0.087 A 
ATOM      5  C   UNL     1       0.995  -2.480   0.521  1.00  0.00     0.178 A 
ATOM      6  F   UNL     1       0.188  -3.530   0.824  1.00  0.00    -0.202 F 
ATOM      7  C   UNL     1       2.270  -2.727  -0.012  1.00  0.00     0.163 A 
ENDROOT
BRANCH   1   8
ATOM      8  C   UNL     1       4.471  -1.887  -0.931  1.00  0.00     0.163 C 
ATOM      9  C   UNL     1       5.207  -0.821  -1.685  1.00  0.00     0.093 C 
ATOM     10  O   UNL     1       5.046  -2.995  -0.752  1.00  0.00    -0.294 OA
ENDBRANCH   1   8
BRANCH   7  11
ATOM     11  O   UNL     1       2.695  -4.043  -0.206  1.00  0.00    -0.504 OA
ATOM     12  H   UNL     1       2.116  -4.840   0.034  1.00  0.00     0.293 HD
ENDBRANCH   7  11
BRANCH   3  13
ATOM     13  C   UNL     1       0.999   1.324   0.634  1.00  0.00    -0.017 A 
ATOM     14  C   UNL     1       0.945   2.250  -0.419  1.00  0.00     0.009 A 
ATOM     15  C   UNL     1       0.682   1.743   1.935  1.00  0.00     0.009 A 
ATOM     16  C   UNL     1       0.552   3.570  -0.179  1.00  0.00     0.004 A 
ATOM     17  C   UNL     1       0.293   3.064   2.176  1.00  0.00     0.004 A 
ATOM     18  C   UNL     1       0.233   3.987   1.122  1.00  0.00    -0.051 A 
ATOM     19  C   UNL     1      -0.242   5.388   1.370  1.00  0.00     0.044 C 
ENDBRANCH   3  13
BRANCH   4  20
ATOM     20  C   UNL     1      -0.852  -0.952   1.196  1.00  0.00     0.255 C 
ATOM     21  N   UNL     1      -1.713   0.007   0.563  1.00  0.00    -0.346 N 
ATOM     22  O   UNL     1      -1.279  -1.640   2.162  1.00  0.00    -0.269 OA
ATOM     23  H   UNL     1      -1.397   0.444  -0.333  1.00  0.00     0.164 HD
BRANCH  21  24
ATOM     24  C   UNL     1      -3.055   0.306   1.072  1.00  0.00     0.105 C 
ATOM     25  C   UNL     1      -3.766   1.239   0.152  1.00  0.00    -0.007 C 
ATOM     26  C   UNL     1      -2.994   1.075   2.404  1.00  0.00     0.033 C 
ATOM     27  C   UNL     1      -3.997   2.416   0.708  1.00  0.00    -0.029 C 
ATOM     28  C   UNL     1      -3.499   2.489   2.104  1.00  0.00     0.029 C 
ENDBRANCH  21  24
ENDBRANCH   4  20
TORSDOF 5


