REMARK SMILES CC1=CCC=C[C@H]1C(=O)Oc1c(C)c(F)c([NH2+]N)c([O-])c1-n1nc2ccccc2n1
REMARK SMILES IDX 11 1 12 2 13 3 14 4 15 5 16 6 19 7 20 8 21 9 10 10 8 11 9 12
REMARK SMILES IDX 7 13 2 14 3 15 4 16 6 17 5 18 1 19 22 20 23 21 30 22 24 23
REMARK SMILES IDX 29 24 25 25 28 26 26 27 27 28 17 29 18 32
REMARK H PARENT 17 30 17 31 18 33 18 34
ROOT
ATOM      1  C   UNL     1       0.241  -1.794   0.015  1.00  0.00     0.164 A 
ATOM      2  C   UNL     1       0.515  -3.172  -0.037  1.00  0.00     0.036 A 
ATOM      3  C   UNL     1       1.885  -3.655  -0.432  1.00  0.00     0.052 C 
ATOM      4  C   UNL     1      -0.523  -4.095   0.179  1.00  0.00     0.191 A 
ATOM      5  F   UNL     1      -0.281  -5.426   0.051  1.00  0.00    -0.200 F 
ATOM      6  C   UNL     1      -1.817  -3.654   0.509  1.00  0.00     0.179 A 
ATOM      7  C   UNL     1      -2.072  -2.272   0.601  1.00  0.00    -0.008 A 
ATOM      8  O   UNL     1      -3.347  -1.823   0.935  1.00  0.00    -0.867 OA
ATOM      9  C   UNL     1      -1.044  -1.341   0.374  1.00  0.00     0.127 A 
ENDROOT
BRANCH   1  10
ATOM     10  O   UNL     1       1.254  -0.884  -0.313  1.00  0.00    -0.423 OA
BRANCH  10  11
ATOM     11  C   UNL     1       1.165  -0.000  -1.397  1.00  0.00     0.322 C 
ATOM     12  O   UNL     1       0.157  -0.018  -2.156  1.00  0.00    -0.251 OA
BRANCH  11  13
ATOM     13  C   UNL     1       2.267   0.985  -1.662  1.00  0.00     0.147 C 
ATOM     14  C   UNL     1       1.923   2.329  -1.040  1.00  0.00    -0.059 C 
ATOM     15  C   UNL     1       2.415   2.667   0.168  1.00  0.00    -0.023 C 
ATOM     16  C   UNL     1       3.275   1.714   0.958  1.00  0.00     0.054 C 
ATOM     17  C   UNL     1       3.591   0.455  -1.154  1.00  0.00    -0.012 C 
ATOM     18  C   UNL     1       4.060   0.799   0.055  1.00  0.00    -0.026 C 
ATOM     19  C   UNL     1       1.015   3.284  -1.766  1.00  0.00     0.040 C 
ENDBRANCH  11  13
ENDBRANCH  10  11
ENDBRANCH   1  10
BRANCH   9  20
ATOM     20  N   UNL     1      -1.292   0.061   0.555  1.00  0.00    -0.147 N 
ATOM     21  N   UNL     1      -2.369   0.688   0.083  1.00  0.00    -0.148 NA
ATOM     22  N   UNL     1      -0.476   0.865   1.236  1.00  0.00    -0.148 NA
ATOM     23  C   UNL     1      -2.223   1.960   0.482  1.00  0.00     0.113 A 
ATOM     24  C   UNL     1      -1.068   2.067   1.193  1.00  0.00     0.113 A 
ATOM     25  C   UNL     1      -3.059   3.049   0.258  1.00  0.00     0.032 A 
ATOM     26  C   UNL     1      -0.650   3.269   1.754  1.00  0.00     0.032 A 
ATOM     27  C   UNL     1      -2.666   4.288   0.801  1.00  0.00     0.002 A 
ATOM     28  C   UNL     1      -1.467   4.398   1.547  1.00  0.00     0.002 A 
ENDBRANCH   9  20
BRANCH   6  29
ATOM     29  N   UNL     1      -2.880  -4.611   0.703  1.00  0.00    -0.237 N 
ATOM     30  H   UNL     1      -2.501  -5.490   1.127  1.00  0.00     0.376 HD
ATOM     31  H   UNL     1      -3.623  -4.240   1.341  1.00  0.00     0.376 HD
BRANCH  29  32
ATOM     32  N   UNL     1      -3.442  -4.916  -0.553  1.00  0.00    -0.178 NA
ATOM     33  H   UNL     1      -4.014  -4.097  -0.868  1.00  0.00     0.183 HD
ATOM     34  H   UNL     1      -4.114  -5.708  -0.421  1.00  0.00     0.183 HD
ENDBRANCH  29  32
ENDBRANCH   6  29
TORSDOF 6


