MODEL 1
REMARK VINA RESULT:     -10.5      0.000      0.000
REMARK SMILES Cc1ccc([NH2+]c2ccc([C@@H]3O[C@H]3c3ccccc3)c(N)c2[O-])cc1F
REMARK SMILES IDX 7 1 8 2 9 3 10 4 20 5 22 6 23 7 6 8 5 11 2 12 3 13 25 14
REMARK SMILES IDX 4 15 24 16 1 17 26 18 21 19 11 22 12 23 13 24 14 25 15 26
REMARK SMILES IDX 19 27 16 28 18 29 17 30
REMARK H PARENT 6 9 6 10 21 20 21 21
ROOT
ATOM      1  C   UNL     1      44.274 131.184  21.406  1.00  0.00     0.128 A 
ATOM      2  C   UNL     1      45.518 130.736  20.937  1.00  0.00     0.068 A 
ATOM      3  C   UNL     1      45.838 130.823  19.584  1.00  0.00     0.015 A 
ATOM      4  C   UNL     1      44.930 131.368  18.666  1.00  0.00     0.007 A 
ATOM      5  C   UNL     1      43.657 131.794  19.116  1.00  0.00     0.035 A 
ATOM      6  C   UNL     1      43.341 131.707  20.487  1.00  0.00    -0.021 A 
ATOM      7  O   UNL     1      42.098 132.141  20.936  1.00  0.00    -0.867 OA
ENDROOT
BRANCH   1   8
ATOM      8  N   UNL     1      43.948 131.060  22.808  1.00  0.00    -0.282 N 
ATOM      9  H   UNL     1      43.183 131.725  23.069  1.00  0.00     0.358 HD
ATOM     10  H   UNL     1      44.775 131.321  23.394  1.00  0.00     0.358 HD
BRANCH   8  11
ATOM     11  C   UNL     1      43.557 129.703  23.102  1.00  0.00     0.137 A 
ATOM     12  C   UNL     1      42.806 127.061  23.742  1.00  0.00    -0.015 A 
ATOM     13  C   UNL     1      41.872 128.104  23.831  1.00  0.00     0.012 A 
ATOM     14  C   UNL     1      44.113 127.341  23.315  1.00  0.00     0.132 A 
ATOM     15  C   UNL     1      42.246 129.414  23.520  1.00  0.00     0.068 A 
ATOM     16  C   UNL     1      44.487 128.653  23.003  1.00  0.00     0.107 A 
ATOM     17  C   UNL     1      42.399 125.649  24.054  1.00  0.00     0.047 C 
ATOM     18  F   UNL     1      45.029 126.346  23.200  1.00  0.00    -0.206 F 
ENDBRANCH   8  11
ENDBRANCH   1   8
BRANCH   5  19
ATOM     19  N   UNL     1      42.680 132.302  18.196  1.00  0.00    -0.399 N 
ATOM     20  H   UNL     1      41.739 132.622  18.512  1.00  0.00     0.156 HD
ATOM     21  H   UNL     1      42.891 132.395  17.178  1.00  0.00     0.156 HD
ENDBRANCH   5  19
BRANCH   4  22
ATOM     22  C   UNL     1      45.318 131.429  17.212  1.00  0.00     0.185 C 
ATOM     23  O   UNL     1      44.455 130.639  16.424  1.00  0.00    -0.359 OA
ATOM     24  C   UNL     1      45.764 130.152  16.593  1.00  0.00     0.183 C 
BRANCH  24  25
ATOM     25  C   UNL     1      46.532 130.251  15.308  1.00  0.00    -0.016 A 
ATOM     26  C   UNL     1      46.272 131.307  14.421  1.00  0.00     0.006 A 
ATOM     27  C   UNL     1      47.475 129.270  14.956  1.00  0.00     0.006 A 
ATOM     28  C   UNL     1      46.962 131.393  13.207  1.00  0.00     0.000 A 
ATOM     29  C   UNL     1      48.162 129.360  13.741  1.00  0.00     0.000 A 
ATOM     30  C   UNL     1      47.908 130.421  12.868  1.00  0.00     0.000 A 
ENDBRANCH  24  25
ENDBRANCH   4  22
TORSDOF 5
ENDMDL
MODEL 2
REMARK VINA RESULT:      -9.3      1.180      1.437
REMARK SMILES Cc1ccc([NH2+]c2ccc([C@@H]3O[C@H]3c3ccccc3)c(N)c2[O-])cc1F
REMARK SMILES IDX 7 1 8 2 9 3 10 4 20 5 22 6 23 7 6 8 5 11 2 12 3 13 25 14
REMARK SMILES IDX 4 15 24 16 1 17 26 18 21 19 11 22 12 23 13 24 14 25 15 26
REMARK SMILES IDX 19 27 16 28 18 29 17 30
REMARK H PARENT 6 9 6 10 21 20 21 21
ROOT
ATOM      1  C   UNL     1      44.122 130.319  22.488  1.00  0.00     0.128 A 
ATOM      2  C   UNL     1      45.204 129.698  21.847  1.00  0.00     0.068 A 
ATOM      3  C   UNL     1      45.578 130.077  20.559  1.00  0.00     0.015 A 
ATOM      4  C   UNL     1      44.888 131.093  19.882  1.00  0.00     0.007 A 
ATOM      5  C   UNL     1      43.773 131.707  20.501  1.00  0.00     0.035 A 
ATOM      6  C   UNL     1      43.403 131.322  21.805  1.00  0.00    -0.021 A 
ATOM      7  O   UNL     1      42.318 131.937  22.422  1.00  0.00    -0.867 OA
ENDROOT
BRANCH   1   8
ATOM      8  N   UNL     1      43.731 129.894  23.812  1.00  0.00    -0.282 N 
ATOM      9  H   UNL     1      43.210 130.656  24.304  1.00  0.00     0.358 HD
ATOM     10  H   UNL     1      44.581 129.698  24.392  1.00  0.00     0.358 HD
BRANCH   8  11
ATOM     11  C   UNL     1      42.920 128.704  23.724  1.00  0.00     0.137 A 
ATOM     12  C   UNL     1      41.333 126.376  23.621  1.00  0.00    -0.015 A 
ATOM     13  C   UNL     1      40.731 127.639  23.716  1.00  0.00     0.012 A 
ATOM     14  C   UNL     1      42.732 126.281  23.562  1.00  0.00     0.132 A 
ATOM     15  C   UNL     1      41.518 128.793  23.773  1.00  0.00     0.068 A 
ATOM     16  C   UNL     1      43.519 127.436  23.618  1.00  0.00     0.107 A 
ATOM     17  C   UNL     1      40.488 125.137  23.536  1.00  0.00     0.047 C 
ATOM     18  F   UNL     1      43.337 125.071  23.448  1.00  0.00    -0.206 F 
ENDBRANCH   8  11
ENDBRANCH   1   8
BRANCH   5  19
ATOM     19  N   UNL     1      43.007 132.710  19.815  1.00  0.00    -0.399 N 
ATOM     20  H   UNL     1      42.395 133.381  20.326  1.00  0.00     0.156 HD
ATOM     21  H   UNL     1      43.061 132.817  18.778  1.00  0.00     0.156 HD
ENDBRANCH   5  19
BRANCH   4  22
ATOM     22  C   UNL     1      45.323 131.458  18.487  1.00  0.00     0.185 C 
ATOM     23  O   UNL     1      44.221 131.499  17.607  1.00  0.00    -0.359 OA
ATOM     24  C   UNL     1      45.114 130.425  17.438  1.00  0.00     0.183 C 
BRANCH  24  25
ATOM     25  C   UNL     1      45.890 130.583  16.164  1.00  0.00    -0.016 A 
ATOM     26  C   UNL     1      45.936 131.833  15.526  1.00  0.00     0.006 A 
ATOM     27  C   UNL     1      46.530 129.482  15.570  1.00  0.00     0.006 A 
ATOM     28  C   UNL     1      46.633 131.984  14.323  1.00  0.00     0.000 A 
ATOM     29  C   UNL     1      47.226 129.638  14.367  1.00  0.00     0.000 A 
ATOM     30  C   UNL     1      47.279 130.888  13.745  1.00  0.00     0.000 A 
ENDBRANCH  24  25
ENDBRANCH   4  22
TORSDOF 5
ENDMDL
MODEL 3
REMARK VINA RESULT:      -8.2      1.276      1.953
REMARK SMILES Cc1ccc([NH2+]c2ccc([C@@H]3O[C@H]3c3ccccc3)c(N)c2[O-])cc1F
REMARK SMILES IDX 7 1 8 2 9 3 10 4 20 5 22 6 23 7 6 8 5 11 2 12 3 13 25 14
REMARK SMILES IDX 4 15 24 16 1 17 26 18 21 19 11 22 12 23 13 24 14 25 15 26
REMARK SMILES IDX 19 27 16 28 18 29 17 30
REMARK H PARENT 6 9 6 10 21 20 21 21
ROOT
ATOM      1  C   UNL     1      44.645 130.045  21.907  1.00  0.00     0.128 A 
ATOM      2  C   UNL     1      45.694 129.424  21.213  1.00  0.00     0.068 A 
ATOM      3  C   UNL     1      45.996 129.794  19.904  1.00  0.00     0.015 A 
ATOM      4  C   UNL     1      45.266 130.802  19.258  1.00  0.00     0.007 A 
ATOM      5  C   UNL     1      44.183 131.417  19.932  1.00  0.00     0.035 A 
ATOM      6  C   UNL     1      43.886 131.040  21.257  1.00  0.00    -0.021 A 
ATOM      7  O   UNL     1      42.833 131.654  21.927  1.00  0.00    -0.867 OA
ENDROOT
BRANCH   1   8
ATOM      8  N   UNL     1      44.328 129.628  23.253  1.00  0.00    -0.282 N 
ATOM      9  H   UNL     1      43.452 130.093  23.586  1.00  0.00     0.358 HD
ATOM     10  H   UNL     1      45.086 129.928  23.910  1.00  0.00     0.358 HD
BRANCH   8  11
ATOM     11  C   UNL     1      44.185 128.193  23.300  1.00  0.00     0.137 A 
ATOM     12  C   UNL     1      43.918 125.386  23.326  1.00  0.00    -0.015 A 
ATOM     13  C   UNL     1      45.182 125.979  23.472  1.00  0.00     0.012 A 
ATOM     14  C   UNL     1      42.786 126.203  23.183  1.00  0.00     0.132 A 
ATOM     15  C   UNL     1      45.315 127.370  23.453  1.00  0.00     0.068 A 
ATOM     16  C   UNL     1      42.919 127.595  23.165  1.00  0.00     0.107 A 
ATOM     17  C   UNL     1      43.772 123.892  23.370  1.00  0.00     0.047 C 
ATOM     18  F   UNL     1      41.551 125.654  23.062  1.00  0.00    -0.206 F 
ENDBRANCH   8  11
ENDBRANCH   1   8
BRANCH   5  19
ATOM     19  N   UNL     1      43.377 132.411  19.281  1.00  0.00    -0.399 N 
ATOM     20  H   UNL     1      43.424 133.418  19.545  1.00  0.00     0.156 HD
ATOM     21  H   UNL     1      42.733 132.159  18.499  1.00  0.00     0.156 HD
ENDBRANCH   5  19
BRANCH   4  22
ATOM     22  C   UNL     1      45.623 131.159  17.839  1.00  0.00     0.185 C 
ATOM     23  O   UNL     1      44.550 130.888  16.963  1.00  0.00    -0.359 OA
ATOM     24  C   UNL     1      45.665 130.035  16.866  1.00  0.00     0.183 C 
BRANCH  24  25
ATOM     25  C   UNL     1      46.400 130.276  15.580  1.00  0.00    -0.016 A 
ATOM     26  C   UNL     1      47.090 129.220  14.964  1.00  0.00     0.006 A 
ATOM     27  C   UNL     1      46.450 131.559  15.010  1.00  0.00     0.006 A 
ATOM     28  C   UNL     1      47.802 129.440  13.780  1.00  0.00     0.000 A 
ATOM     29  C   UNL     1      47.163 131.774  13.826  1.00  0.00     0.000 A 
ATOM     30  C   UNL     1      47.837 130.716  13.210  1.00  0.00     0.000 A 
ENDBRANCH  24  25
ENDBRANCH   4  22
TORSDOF 5
ENDMDL
MODEL 4
REMARK VINA RESULT:      -7.9      1.295      1.613
REMARK SMILES Cc1ccc([NH2+]c2ccc([C@@H]3O[C@H]3c3ccccc3)c(N)c2[O-])cc1F
REMARK SMILES IDX 7 1 8 2 9 3 10 4 20 5 22 6 23 7 6 8 5 11 2 12 3 13 25 14
REMARK SMILES IDX 4 15 24 16 1 17 26 18 21 19 11 22 12 23 13 24 14 25 15 26
REMARK SMILES IDX 19 27 16 28 18 29 17 30
REMARK H PARENT 6 9 6 10 21 20 21 21
ROOT
ATOM      1  C   UNL     1      44.447 131.244  20.930  1.00  0.00     0.128 A 
ATOM      2  C   UNL     1      45.623 130.591  20.532  1.00  0.00     0.068 A 
ATOM      3  C   UNL     1      45.903 130.397  19.181  1.00  0.00     0.015 A 
ATOM      4  C   UNL     1      45.023 130.859  18.193  1.00  0.00     0.007 A 
ATOM      5  C   UNL     1      43.816 131.491  18.577  1.00  0.00     0.035 A 
ATOM      6  C   UNL     1      43.540 131.687  19.945  1.00  0.00    -0.021 A 
ATOM      7  O   UNL     1      42.363 132.323  20.326  1.00  0.00    -0.867 OA
ENDROOT
BRANCH   1   8
ATOM      8  N   UNL     1      44.159 131.410  22.336  1.00  0.00    -0.282 N 
ATOM      9  H   UNL     1      43.496 132.207  22.484  1.00  0.00     0.358 HD
ATOM     10  H   UNL     1      45.034 131.657  22.855  1.00  0.00     0.358 HD
BRANCH   8  11
ATOM     11  C   UNL     1      43.607 130.190  22.871  1.00  0.00     0.137 A 
ATOM     12  C   UNL     1      42.503 127.788  23.854  1.00  0.00    -0.015 A 
ATOM     13  C   UNL     1      43.787 127.798  23.288  1.00  0.00     0.012 A 
ATOM     14  C   UNL     1      41.779 128.987  23.942  1.00  0.00     0.132 A 
ATOM     15  C   UNL     1      44.332 128.988  22.795  1.00  0.00     0.068 A 
ATOM     16  C   UNL     1      42.325 130.177  23.449  1.00  0.00     0.107 A 
ATOM     17  C   UNL     1      41.928 126.515  24.406  1.00  0.00     0.047 C 
ATOM     18  F   UNL     1      40.545 129.007  24.505  1.00  0.00    -0.206 F 
ENDBRANCH   8  11
ENDBRANCH   1   8
BRANCH   5  19
ATOM     19  N   UNL     1      42.863 131.925  17.594  1.00  0.00    -0.399 N 
ATOM     20  H   UNL     1      41.859 131.650  17.641  1.00  0.00     0.156 HD
ATOM     21  H   UNL     1      43.142 132.557  16.811  1.00  0.00     0.156 HD
ENDBRANCH   5  19
BRANCH   4  22
ATOM     22  C   UNL     1      45.365 130.616  16.746  1.00  0.00     0.185 C 
ATOM     23  O   UNL     1      45.797 129.287  16.545  1.00  0.00    -0.359 OA
ATOM     24  C   UNL     1      46.785 130.285  16.450  1.00  0.00     0.183 C 
BRANCH  24  25
ATOM     25  C   UNL     1      47.237 130.443  15.028  1.00  0.00    -0.016 A 
ATOM     26  C   UNL     1      46.694 131.465  14.233  1.00  0.00     0.006 A 
ATOM     27  C   UNL     1      48.162 129.548  14.464  1.00  0.00     0.006 A 
ATOM     28  C   UNL     1      47.088 131.603  12.898  1.00  0.00     0.000 A 
ATOM     29  C   UNL     1      48.553 129.690  13.129  1.00  0.00     0.000 A 
ATOM     30  C   UNL     1      48.018 130.717  12.347  1.00  0.00     0.000 A 
ENDBRANCH  24  25
ENDBRANCH   4  22
TORSDOF 5
ENDMDL


