REMARK SMILES Cc1cc(F)c(C/C=C(\[O-])c2ccccc2)c(F)c1
REMARK SMILES IDX 8 1 9 2 10 3 11 4 12 5 16 6 13 7 15 8 14 9 7 10 6 11 4 12
REMARK SMILES IDX 17 13 3 14 19 15 2 16 5 17 18 18 1 19
REMARK H PARENT
ROOT
ATOM      1  C   UNL     1      -0.843  -0.052   1.459  1.00  0.00    -0.030 C 
ENDROOT
BRANCH   1   2
ATOM      2  C   UNL     1      -1.523  -0.560   0.419  1.00  0.00    -0.105 C 
ATOM      3  O   UNL     1      -1.149  -1.794  -0.108  1.00  0.00    -0.872 OA
BRANCH   2   4
ATOM      4  C   UNL     1      -2.686   0.143  -0.180  1.00  0.00    -0.034 A 
ATOM      5  C   UNL     1      -3.703  -0.607  -0.798  1.00  0.00     0.007 A 
ATOM      6  C   UNL     1      -2.784   1.550  -0.180  1.00  0.00     0.007 A 
ATOM      7  C   UNL     1      -4.802   0.031  -1.381  1.00  0.00     0.001 A 
ATOM      8  C   UNL     1      -3.886   2.182  -0.765  1.00  0.00     0.001 A 
ATOM      9  C   UNL     1      -4.895   1.424  -1.361  1.00  0.00     0.000 A 
ENDBRANCH   2   4
ENDBRANCH   1   2
BRANCH   1  10
ATOM     10  C   UNL     1       0.351  -0.740   2.062  1.00  0.00     0.068 C 
BRANCH  10  11
ATOM     11  C   UNL     1       1.558  -0.613   1.165  1.00  0.00     0.027 A 
ATOM     12  C   UNL     1       2.184   0.637   1.001  1.00  0.00     0.129 A 
ATOM     13  C   UNL     1       2.062  -1.728   0.467  1.00  0.00     0.129 A 
ATOM     14  C   UNL     1       3.293   0.767   0.160  1.00  0.00     0.043 A 
ATOM     15  C   UNL     1       3.171  -1.591  -0.372  1.00  0.00     0.043 A 
ATOM     16  C   UNL     1       3.803  -0.348  -0.519  1.00  0.00    -0.045 A 
ATOM     17  F   UNL     1       1.716   1.733   1.652  1.00  0.00    -0.207 F 
ATOM     18  F   UNL     1       1.482  -2.948   0.596  1.00  0.00    -0.207 F 
ATOM     19  C   UNL     1       4.968  -0.198  -1.452  1.00  0.00     0.044 C 
ENDBRANCH  10  11
ENDBRANCH   1  10
TORSDOF 4


