REMARK SMILES O=C(CCF)[N-]c1cc(F)c(F)cc1Nc1ccc(F)cc1
REMARK SMILES IDX 6 1 2 2 1 3 3 4 4 5 5 6 7 7 8 8 14 9 9 10 13 11 11 12 10 13
REMARK SMILES IDX 12 14 15 15 16 17 17 18 22 19 18 20 21 21 19 22 20 23
REMARK H PARENT 15 16
ROOT
ATOM      1  N   UNL     1       0.239  -0.492   0.239  1.00  0.00    -0.625 NA
ENDROOT
BRANCH   1   2
ATOM      2  C   UNL     1      -0.370  -0.705  -1.039  1.00  0.00     0.057 C 
ATOM      3  O   UNL     1      -1.620  -0.612  -1.176  1.00  0.00    -0.320 OA
BRANCH   2   4
ATOM      4  C   UNL     1       0.479  -1.100  -2.206  1.00  0.00     0.089 C 
BRANCH   4   5
ATOM      5  C   UNL     1       0.742  -2.603  -2.205  1.00  0.00     0.220 C 
ATOM      6  F   UNL     1      -0.446  -3.298  -2.349  1.00  0.00    -0.251 F 
ENDBRANCH   4   5
ENDBRANCH   2   4
ENDBRANCH   1   2
BRANCH   1   7
ATOM      7  C   UNL     1      -0.402   0.140   1.355  1.00  0.00    -0.107 A 
ATOM      8  C   UNL     1      -0.261  -0.446   2.620  1.00  0.00     0.028 A 
ATOM      9  C   UNL     1      -1.154   1.336   1.221  1.00  0.00     0.027 A 
ATOM     10  C   UNL     1      -0.912   0.097   3.730  1.00  0.00     0.157 A 
ATOM     11  C   UNL     1      -1.825   1.853   2.339  1.00  0.00     0.067 A 
ATOM     12  C   UNL     1      -1.704   1.238   3.587  1.00  0.00     0.160 A 
ATOM     13  F   UNL     1      -0.782  -0.492   4.945  1.00  0.00    -0.204 F 
ATOM     14  F   UNL     1      -2.344   1.760   4.662  1.00  0.00    -0.204 F 
BRANCH   9  15
ATOM     15  N   UNL     1      -1.240   2.048  -0.024  1.00  0.00    -0.356 N 
ATOM     16  H   UNL     1      -2.181   2.391  -0.321  1.00  0.00     0.166 HD
BRANCH  15  17
ATOM     17  C   UNL     1      -0.100   2.414  -0.824  1.00  0.00     0.039 A 
ATOM     18  C   UNL     1       1.193   2.489  -0.272  1.00  0.00     0.029 A 
ATOM     19  C   UNL     1      -0.282   2.718  -2.182  1.00  0.00     0.029 A 
ATOM     20  C   UNL     1       2.284   2.833  -1.076  1.00  0.00     0.041 A 
ATOM     21  C   UNL     1       0.811   3.061  -2.983  1.00  0.00     0.041 A 
ATOM     22  C   UNL     1       2.094   3.115  -2.432  1.00  0.00     0.123 A 
ATOM     23  F   UNL     1       3.153   3.447  -3.210  1.00  0.00    -0.207 F 
ENDBRANCH  15  17
ENDBRANCH   9  15
ENDBRANCH   1   7
TORSDOF 6


