REMARK SMILES [O-]c1ccc(/N=c2\ccc3ccc(-c4cccnc4F)[nH]c-3c2F)c(F)c1
REMARK SMILES IDX 13 1 12 2 11 3 10 4 9 5 8 6 7 7 23 8 24 9 22 10 21 11 14 13
REMARK SMILES IDX 17 14 18 15 16 16 19 17 15 18 20 19 6 20 5 21 4 22 25 23
REMARK SMILES IDX 3 24 27 25 2 26 26 27 1 28
REMARK H PARENT 21 12
ROOT
ATOM      1  C   UNL     1      -0.192   2.150   1.475  1.00  0.00     0.050 A 
ATOM      2  C   UNL     1      -1.321   1.749   2.214  1.00  0.00     0.027 A 
ATOM      3  C   UNL     1      -1.644   0.398   2.347  1.00  0.00     0.012 A 
ATOM      4  C   UNL     1      -0.843  -0.566   1.740  1.00  0.00     0.001 A 
ATOM      5  C   UNL     1      -1.113  -1.931   1.846  1.00  0.00     0.013 A 
ATOM      6  C   UNL     1      -0.283  -2.860   1.215  1.00  0.00     0.032 A 
ATOM      7  C   UNL     1       0.834  -2.450   0.448  1.00  0.00     0.102 A 
ATOM      8  C   UNL     1       1.142  -1.082   0.344  1.00  0.00     0.172 A 
ATOM      9  F   UNL     1       2.229  -0.693  -0.375  1.00  0.00    -0.202 F 
ATOM     10  C   UNL     1       0.333  -0.119   0.964  1.00  0.00     0.084 A 
ATOM     11  N   UNL     1       0.601   1.214   0.869  1.00  0.00    -0.352 N 
ATOM     12  H   UNL     1       1.418   1.533   0.299  1.00  0.00     0.167 HD
ENDROOT
BRANCH   1  13
ATOM     13  C   UNL     1       0.134   3.591   1.352  1.00  0.00     0.053 A 
ATOM     14  C   UNL     1       0.762   6.294   1.110  1.00  0.00     0.114 A 
ATOM     15  N   UNL     1       1.723   5.386   1.422  1.00  0.00    -0.228 NA
ATOM     16  C   UNL     1      -0.555   5.877   0.913  1.00  0.00     0.021 A 
ATOM     17  C   UNL     1       1.447   4.060   1.546  1.00  0.00     0.222 A 
ATOM     18  C   UNL     1      -0.869   4.523   1.037  1.00  0.00     0.016 A 
ATOM     19  F   UNL     1       2.444   3.209   1.894  1.00  0.00    -0.184 F 
ENDBRANCH   1  13
BRANCH   7  20
ATOM     20  N   UNL     1       1.625  -3.304  -0.143  1.00  0.00    -0.243 NA
BRANCH  20  21
ATOM     21  C   UNL     1       1.458  -4.727  -0.252  1.00  0.00     0.099 A 
ATOM     22  C   UNL     1       0.267  -5.282  -0.754  1.00  0.00     0.031 A 
ATOM     23  C   UNL     1       2.540  -5.569   0.039  1.00  0.00     0.148 A 
ATOM     24  C   UNL     1       0.145  -6.666  -0.906  1.00  0.00    -0.006 A 
ATOM     25  C   UNL     1       2.415  -6.954  -0.114  1.00  0.00     0.033 A 
ATOM     26  C   UNL     1       1.217  -7.503  -0.582  1.00  0.00    -0.106 A 
ATOM     27  F   UNL     1       3.711  -5.047   0.483  1.00  0.00    -0.205 F 
ATOM     28  O   UNL     1       1.095  -8.879  -0.732  1.00  0.00    -0.872 OA
ENDBRANCH  20  21
ENDBRANCH   7  20
TORSDOF 3


