MODEL 1
REMARK VINA RESULT:      -4.7      0.000      0.000
REMARK SMILES C[C@@]1(C(=O)N(c2ccc3[nH]ccc3c2)c2cccc3c2CCC3)CC[C@H]([NH3+])C1
REMARK SMILES IDX 3 1 4 2 2 3 24 4 28 5 25 6 26 7 1 8 27 9 5 13 6 14 7 15
REMARK SMILES IDX 14 16 8 17 13 18 9 19 12 20 10 21 11 22 15 24 16 25 20 26
REMARK SMILES IDX 17 27 19 28 21 29 18 30 23 31 22 32
REMARK H PARENT 27 10 27 11 27 12 10 23
ROOT
ATOM      1  C   UNL     1      46.260 126.362  23.787  1.00  0.00     0.237 C 
ATOM      2  O   UNL     1      46.864 127.087  24.625  1.00  0.00    -0.273 OA
ENDROOT
BRANCH   1   3
ATOM      3  C   UNL     1      46.901 125.052  23.346  1.00  0.00     0.053 C 
ATOM      4  C   UNL     1      47.650 125.243  22.017  1.00  0.00     0.023 C 
ATOM      5  C   UNL     1      45.874 123.957  23.011  1.00  0.00     0.081 C 
ATOM      6  C   UNL     1      47.645 123.889  21.312  1.00  0.00     0.066 C 
ATOM      7  C   UNL     1      46.552 123.045  21.984  1.00  0.00     0.181 C 
ATOM      8  C   UNL     1      47.876 124.564  24.440  1.00  0.00     0.022 C 
BRANCH   7   9
ATOM      9  N   UNL     1      45.591 122.517  21.009  1.00  0.00    -0.355 N 
ATOM     10  H   UNL     1      44.688 122.264  21.476  1.00  0.00     0.344 HD
ATOM     11  H   UNL     1      45.406 123.240  20.275  1.00  0.00     0.344 HD
ATOM     12  H   UNL     1      45.991 121.670  20.546  1.00  0.00     0.344 HD
ENDBRANCH   7   9
ENDBRANCH   1   3
BRANCH   1  13
ATOM     13  N   UNL     1      44.999 126.817  23.262  1.00  0.00    -0.280 N 
BRANCH  13  14
ATOM     14  C   UNL     1      43.834 125.974  23.318  1.00  0.00     0.050 A 
ATOM     15  C   UNL     1      43.154 125.782  24.548  1.00  0.00     0.029 A 
ATOM     16  C   UNL     1      43.380 125.310  22.157  1.00  0.00     0.037 A 
ATOM     17  C   UNL     1      42.021 124.953  24.622  1.00  0.00     0.029 A 
ATOM     18  C   UNL     1      42.256 124.498  22.265  1.00  0.00     0.001 A 
ATOM     19  C   UNL     1      41.599 124.325  23.452  1.00  0.00     0.045 A 
ATOM     20  C   UNL     1      41.599 123.745  21.316  1.00  0.00     0.028 A 
ATOM     21  N   UNL     1      40.551 123.497  23.302  1.00  0.00    -0.361 N 
ATOM     22  C   UNL     1      40.547 123.141  21.997  1.00  0.00     0.083 A 
ATOM     23  H   UNL     1      39.878 123.190  24.038  1.00  0.00     0.166 HD
ENDBRANCH  13  14
BRANCH  13  24
ATOM     24  C   UNL     1      44.920 128.133  22.682  1.00  0.00     0.052 A 
ATOM     25  C   UNL     1      45.712 128.463  21.563  1.00  0.00     0.027 A 
ATOM     26  C   UNL     1      44.080 129.129  23.216  1.00  0.00    -0.021 A 
ATOM     27  C   UNL     1      45.647 129.746  20.997  1.00  0.00     0.002 A 
ATOM     28  C   UNL     1      44.032 130.387  22.664  1.00  0.00    -0.043 A 
ATOM     29  C   UNL     1      43.203 129.032  24.413  1.00  0.00     0.038 C 
ATOM     30  C   UNL     1      44.801 130.718  21.546  1.00  0.00     0.004 A 
ATOM     31  C   UNL     1      43.117 131.290  23.397  1.00  0.00     0.036 C 
ATOM     32  C   UNL     1      42.691 130.468  24.624  1.00  0.00     0.010 C 
ENDBRANCH  13  24
ENDBRANCH   1  13
TORSDOF 5
ENDMDL
MODEL 2
REMARK VINA RESULT:      -2.0      4.389      8.080
REMARK SMILES C[C@@]1(C(=O)N(c2ccc3[nH]ccc3c2)c2cccc3c2CCC3)CC[C@H]([NH3+])C1
REMARK SMILES IDX 3 1 4 2 2 3 24 4 28 5 25 6 26 7 1 8 27 9 5 13 6 14 7 15
REMARK SMILES IDX 14 16 8 17 13 18 9 19 12 20 10 21 11 22 15 24 16 25 20 26
REMARK SMILES IDX 17 27 19 28 21 29 18 30 23 31 22 32
REMARK H PARENT 27 10 27 11 27 12 10 23
ROOT
ATOM      1  C   UNL     1      46.503 131.962  21.026  1.00  0.00     0.237 C 
ATOM      2  O   UNL     1      47.451 131.230  20.627  1.00  0.00    -0.273 OA
ENDROOT
BRANCH   1   3
ATOM      3  C   UNL     1      46.825 133.202  21.851  1.00  0.00     0.053 C 
ATOM      4  C   UNL     1      46.520 134.475  21.045  1.00  0.00     0.023 C 
ATOM      5  C   UNL     1      48.322 133.346  22.171  1.00  0.00     0.081 C 
ATOM      6  C   UNL     1      47.454 135.562  21.570  1.00  0.00     0.066 C 
ATOM      7  C   UNL     1      48.574 134.847  22.340  1.00  0.00     0.181 C 
ATOM      8  C   UNL     1      45.992 133.184  23.151  1.00  0.00     0.022 C 
BRANCH   7   9
ATOM      9  N   UNL     1      49.904 135.233  21.854  1.00  0.00    -0.355 N 
ATOM     10  H   UNL     1      50.306 136.001  22.442  1.00  0.00     0.344 HD
ATOM     11  H   UNL     1      50.541 134.405  21.890  1.00  0.00     0.344 HD
ATOM     12  H   UNL     1      49.835 135.556  20.863  1.00  0.00     0.344 HD
ENDBRANCH   7   9
ENDBRANCH   1   3
BRANCH   1  13
ATOM     13  N   UNL     1      45.153 131.581  20.705  1.00  0.00    -0.280 N 
BRANCH  13  14
ATOM     14  C   UNL     1      44.684 131.615  19.345  1.00  0.00     0.050 A 
ATOM     15  C   UNL     1      43.307 131.821  19.073  1.00  0.00     0.029 A 
ATOM     16  C   UNL     1      45.587 131.417  18.277  1.00  0.00     0.037 A 
ATOM     17  C   UNL     1      42.832 131.847  17.749  1.00  0.00     0.029 A 
ATOM     18  C   UNL     1      45.083 131.449  16.980  1.00  0.00     0.001 A 
ATOM     19  C   UNL     1      43.756 131.657  16.724  1.00  0.00     0.045 A 
ATOM     20  C   UNL     1      45.718 131.293  15.768  1.00  0.00     0.028 A 
ATOM     21  N   UNL     1      43.517 131.642  15.402  1.00  0.00    -0.361 N 
ATOM     22  C   UNL     1      44.714 131.421  14.813  1.00  0.00     0.083 A 
ATOM     23  H   UNL     1      42.598 131.774  14.925  1.00  0.00     0.166 HD
ENDBRANCH  13  14
BRANCH  13  24
ATOM     24  C   UNL     1      44.278 131.158  21.769  1.00  0.00     0.052 A 
ATOM     25  C   UNL     1      43.351 132.063  22.325  1.00  0.00     0.027 A 
ATOM     26  C   UNL     1      44.330 129.854  22.297  1.00  0.00    -0.021 A 
ATOM     27  C   UNL     1      42.500 131.661  23.367  1.00  0.00     0.002 A 
ATOM     28  C   UNL     1      43.502 129.473  23.326  1.00  0.00    -0.043 A 
ATOM     29  C   UNL     1      45.252 128.753  21.911  1.00  0.00     0.038 C 
ATOM     30  C   UNL     1      42.571 130.358  23.873  1.00  0.00     0.004 A 
ATOM     31  C   UNL     1      43.743 128.077  23.756  1.00  0.00     0.036 C 
ATOM     32  C   UNL     1      44.981 127.650  22.950  1.00  0.00     0.010 C 
ENDBRANCH  13  24
ENDBRANCH   1  13
TORSDOF 5
ENDMDL


