MODEL 1
REMARK VINA RESULT:      -9.9      0.000      0.000
REMARK SMILES Cc1ccc(-c2cc(F)c3ncccc3c2[O-])c(F)[nH+]1
REMARK SMILES IDX 6 1 7 2 8 3 9 4 10 5 11 6 12 7 13 8 14 9 15 10 16 11 17 12
REMARK SMILES IDX 5 13 2 14 3 15 20 16 4 17 18 18 1 19 19 21
REMARK H PARENT 20 20
ROOT
ATOM      1  C   UNL     1      44.661 131.368  17.927  1.00  0.00    -0.013 A 
ATOM      2  C   UNL     1      43.344 131.839  17.801  1.00  0.00     0.050 A 
ATOM      3  C   UNL     1      42.559 132.072  18.931  1.00  0.00     0.149 A 
ATOM      4  F   UNL     1      41.286 132.519  18.783  1.00  0.00    -0.205 F 
ATOM      5  C   UNL     1      43.080 131.841  20.207  1.00  0.00     0.105 A 
ATOM      6  N   UNL     1      42.313 132.067  21.308  1.00  0.00    -0.253 NA
ATOM      7  C   UNL     1      42.785 131.860  22.565  1.00  0.00     0.112 A 
ATOM      8  C   UNL     1      44.090 131.405  22.759  1.00  0.00     0.021 A 
ATOM      9  C   UNL     1      44.906 131.164  21.651  1.00  0.00     0.011 A 
ATOM     10  C   UNL     1      44.409 131.379  20.355  1.00  0.00    -0.004 A 
ATOM     11  C   UNL     1      45.199 131.150  19.212  1.00  0.00    -0.091 A 
ATOM     12  O   UNL     1      46.520 130.727  19.349  1.00  0.00    -0.872 OA
ENDROOT
BRANCH   1  13
ATOM     13  C   UNL     1      45.467 131.125  16.708  1.00  0.00     0.085 A 
ATOM     14  C   UNL     1      46.982 130.661  14.414  1.00  0.00     0.179 A 
ATOM     15  C   UNL     1      46.568 131.963  14.720  1.00  0.00     0.075 A 
ATOM     16  N   UNL     1      46.613 129.627  15.225  1.00  0.00    -0.183 N 
ATOM     17  C   UNL     1      45.812 132.192  15.868  1.00  0.00     0.025 A 
ATOM     18  C   UNL     1      45.877 129.828  16.352  1.00  0.00     0.365 A 
ATOM     19  C   UNL     1      47.763 130.395  13.161  1.00  0.00     0.123 C 
ATOM     20  H   UNL     1      46.894 128.651  14.979  1.00  0.00     0.456 HD
ATOM     21  F   UNL     1      45.512 128.760  17.107  1.00  0.00    -0.136 F 
ENDBRANCH   1  13
TORSDOF 1
ENDMDL
MODEL 2
REMARK VINA RESULT:      -9.8      1.242      1.531
REMARK SMILES Cc1ccc(-c2cc(F)c3ncccc3c2[O-])c(F)[nH+]1
REMARK SMILES IDX 6 1 7 2 8 3 9 4 10 5 11 6 12 7 13 8 14 9 15 10 16 11 17 12
REMARK SMILES IDX 5 13 2 14 3 15 20 16 4 17 18 18 1 19 19 21
REMARK H PARENT 20 20
ROOT
ATOM      1  C   UNL     1      44.700 131.235  17.622  1.00  0.00    -0.013 A 
ATOM      2  C   UNL     1      43.404 131.761  17.498  1.00  0.00     0.050 A 
ATOM      3  C   UNL     1      42.631 132.024  18.631  1.00  0.00     0.149 A 
ATOM      4  F   UNL     1      41.378 132.524  18.486  1.00  0.00    -0.205 F 
ATOM      5  C   UNL     1      43.145 131.770  19.905  1.00  0.00     0.105 A 
ATOM      6  N   UNL     1      42.390 132.026  21.008  1.00  0.00    -0.253 NA
ATOM      7  C   UNL     1      42.856 131.797  22.264  1.00  0.00     0.112 A 
ATOM      8  C   UNL     1      44.141 131.288  22.454  1.00  0.00     0.021 A 
ATOM      9  C   UNL     1      44.943 131.016  21.345  1.00  0.00     0.011 A 
ATOM     10  C   UNL     1      44.454 131.253  20.050  1.00  0.00    -0.004 A 
ATOM     11  C   UNL     1      45.232 130.993  18.905  1.00  0.00    -0.091 A 
ATOM     12  O   UNL     1      46.534 130.516  19.039  1.00  0.00    -0.872 OA
ENDROOT
BRANCH   1  13
ATOM     13  C   UNL     1      45.493 130.961  16.401  1.00  0.00     0.085 A 
ATOM     14  C   UNL     1      46.988 130.450  14.103  1.00  0.00     0.179 A 
ATOM     15  C   UNL     1      46.453 129.382  14.834  1.00  0.00     0.075 A 
ATOM     16  N   UNL     1      46.800 131.728  14.540  1.00  0.00    -0.183 N 
ATOM     17  C   UNL     1      45.704 129.641  15.981  1.00  0.00     0.025 A 
ATOM     18  C   UNL     1      46.071 132.004  15.657  1.00  0.00     0.365 A 
ATOM     19  C   UNL     1      47.828 130.183  12.889  1.00  0.00     0.123 C 
ATOM     20  H   UNL     1      47.228 132.523  14.014  1.00  0.00     0.456 HD
ATOM     21  F   UNL     1      45.941 133.293  16.064  1.00  0.00    -0.136 F 
ENDBRANCH   1  13
TORSDOF 1
ENDMDL
MODEL 3
REMARK VINA RESULT:      -9.3      2.183      2.848
REMARK SMILES Cc1ccc(-c2cc(F)c3ncccc3c2[O-])c(F)[nH+]1
REMARK SMILES IDX 6 1 7 2 8 3 9 4 10 5 11 6 12 7 13 8 14 9 15 10 16 11 17 12
REMARK SMILES IDX 5 13 2 14 3 15 20 16 4 17 18 18 1 19 19 21
REMARK H PARENT 20 20
ROOT
ATOM      1  C   UNL     1      45.257 131.098  17.573  1.00  0.00    -0.013 A 
ATOM      2  C   UNL     1      45.916 130.744  18.761  1.00  0.00     0.050 A 
ATOM      3  C   UNL     1      45.313 130.960  20.002  1.00  0.00     0.149 A 
ATOM      4  F   UNL     1      45.974 130.618  21.137  1.00  0.00    -0.205 F 
ATOM      5  C   UNL     1      44.039 131.528  20.073  1.00  0.00     0.105 A 
ATOM      6  N   UNL     1      43.453 131.739  21.283  1.00  0.00    -0.253 NA
ATOM      7  C   UNL     1      42.213 132.284  21.394  1.00  0.00     0.112 A 
ATOM      8  C   UNL     1      41.500 132.645  20.249  1.00  0.00     0.021 A 
ATOM      9  C   UNL     1      42.071 132.441  18.991  1.00  0.00     0.011 A 
ATOM     10  C   UNL     1      43.354 131.879  18.885  1.00  0.00    -0.004 A 
ATOM     11  C   UNL     1      43.964 131.656  17.636  1.00  0.00    -0.091 A 
ATOM     12  O   UNL     1      43.282 131.966  16.461  1.00  0.00    -0.872 OA
ENDROOT
BRANCH   1  13
ATOM     13  C   UNL     1      45.926 130.863  16.272  1.00  0.00     0.085 A 
ATOM     14  C   UNL     1      47.187 130.426  13.823  1.00  0.00     0.179 A 
ATOM     15  C   UNL     1      46.866 129.336  14.642  1.00  0.00     0.075 A 
ATOM     16  N   UNL     1      46.908 131.693  14.246  1.00  0.00    -0.183 N 
ATOM     17  C   UNL     1      46.234 129.557  15.865  1.00  0.00     0.025 A 
ATOM     18  C   UNL     1      46.290 131.932  15.435  1.00  0.00     0.365 A 
ATOM     19  C   UNL     1      47.902 130.204  12.523  1.00  0.00     0.123 C 
ATOM     20  H   UNL     1      47.177 132.508  13.650  1.00  0.00     0.456 HD
ATOM     21  F   UNL     1      46.062 133.214  15.820  1.00  0.00    -0.136 F 
ENDBRANCH   1  13
TORSDOF 1
ENDMDL
MODEL 4
REMARK VINA RESULT:      -8.7      1.867      2.411
REMARK SMILES Cc1ccc(-c2cc(F)c3ncccc3c2[O-])c(F)[nH+]1
REMARK SMILES IDX 6 1 7 2 8 3 9 4 10 5 11 6 12 7 13 8 14 9 15 10 16 11 17 12
REMARK SMILES IDX 5 13 2 14 3 15 20 16 4 17 18 18 1 19 19 21
REMARK H PARENT 20 20
ROOT
ATOM      1  C   UNL     1      45.197 131.163  17.617  1.00  0.00    -0.013 A 
ATOM      2  C   UNL     1      45.863 130.796  18.798  1.00  0.00     0.050 A 
ATOM      3  C   UNL     1      45.266 130.997  20.044  1.00  0.00     0.149 A 
ATOM      4  F   UNL     1      45.933 130.641  21.172  1.00  0.00    -0.205 F 
ATOM      5  C   UNL     1      43.992 131.564  20.128  1.00  0.00     0.105 A 
ATOM      6  N   UNL     1      43.412 131.760  21.344  1.00  0.00    -0.253 NA
ATOM      7  C   UNL     1      42.173 132.304  21.467  1.00  0.00     0.112 A 
ATOM      8  C   UNL     1      41.454 132.678  20.331  1.00  0.00     0.021 A 
ATOM      9  C   UNL     1      42.018 132.489  19.068  1.00  0.00     0.011 A 
ATOM     10  C   UNL     1      43.301 131.928  18.949  1.00  0.00    -0.004 A 
ATOM     11  C   UNL     1      43.904 131.720  17.694  1.00  0.00    -0.091 A 
ATOM     12  O   UNL     1      43.217 132.044  16.526  1.00  0.00    -0.872 OA
ENDROOT
BRANCH   1  13
ATOM     13  C   UNL     1      45.859 130.943  16.310  1.00  0.00     0.085 A 
ATOM     14  C   UNL     1      47.103 130.524  13.850  1.00  0.00     0.179 A 
ATOM     15  C   UNL     1      46.954 131.828  14.338  1.00  0.00     0.075 A 
ATOM     16  N   UNL     1      46.610 129.474  14.568  1.00  0.00    -0.183 N 
ATOM     17  C   UNL     1      46.334 132.034  15.570  1.00  0.00     0.025 A 
ATOM     18  C   UNL     1      46.002 129.652  15.773  1.00  0.00     0.365 A 
ATOM     19  C   UNL     1      47.734 130.291  12.509  1.00  0.00     0.123 C 
ATOM     20  H   UNL     1      46.692 128.504  14.189  1.00  0.00     0.456 HD
ATOM     21  F   UNL     1      45.503 128.574  16.432  1.00  0.00    -0.136 F 
ENDBRANCH   1  13
TORSDOF 1
ENDMDL
MODEL 5
REMARK VINA RESULT:      -8.0      1.507      6.238
REMARK SMILES Cc1ccc(-c2cc(F)c3ncccc3c2[O-])c(F)[nH+]1
REMARK SMILES IDX 6 1 7 2 8 3 9 4 10 5 11 6 12 7 13 8 14 9 15 10 16 11 17 12
REMARK SMILES IDX 5 13 2 14 3 15 20 16 4 17 18 18 1 19 19 21
REMARK H PARENT 20 20
ROOT
ATOM      1  C   UNL     1      44.350 131.323  17.874  1.00  0.00    -0.013 A 
ATOM      2  C   UNL     1      43.515 131.796  16.849  1.00  0.00     0.050 A 
ATOM      3  C   UNL     1      43.889 131.671  15.510  1.00  0.00     0.149 A 
ATOM      4  F   UNL     1      43.069 132.143  14.537  1.00  0.00    -0.205 F 
ATOM      5  C   UNL     1      45.103 131.065  15.175  1.00  0.00     0.105 A 
ATOM      6  N   UNL     1      45.467 130.944  13.869  1.00  0.00    -0.253 NA
ATOM      7  C   UNL     1      46.636 130.357  13.503  1.00  0.00     0.112 A 
ATOM      8  C   UNL     1      47.504 129.855  14.474  1.00  0.00     0.021 A 
ATOM      9  C   UNL     1      47.161 129.960  15.823  1.00  0.00     0.011 A 
ATOM     10  C   UNL     1      45.951 130.570  16.194  1.00  0.00    -0.004 A 
ATOM     11  C   UNL     1      45.568 130.695  17.543  1.00  0.00    -0.091 A 
ATOM     12  O   UNL     1      46.382 130.181  18.550  1.00  0.00    -0.872 OA
ENDROOT
BRANCH   1  13
ATOM     13  C   UNL     1      43.928 131.477  19.286  1.00  0.00     0.085 A 
ATOM     14  C   UNL     1      43.127 131.767  21.941  1.00  0.00     0.179 A 
ATOM     15  C   UNL     1      44.443 131.385  21.651  1.00  0.00     0.075 A 
ATOM     16  N   UNL     1      42.241 131.962  20.922  1.00  0.00    -0.183 N 
ATOM     17  C   UNL     1      44.841 131.244  20.323  1.00  0.00     0.025 A 
ATOM     18  C   UNL     1      42.608 131.831  19.618  1.00  0.00     0.365 A 
ATOM     19  C   UNL     1      42.676 131.885  23.367  1.00  0.00     0.123 C 
ATOM     20  H   UNL     1      41.251 132.214  21.139  1.00  0.00     0.456 HD
ATOM     21  F   UNL     1      41.678 132.008  18.644  1.00  0.00    -0.136 F 
ENDBRANCH   1  13
TORSDOF 1
ENDMDL
MODEL 6
REMARK VINA RESULT:      -7.9      1.259      1.406
REMARK SMILES Cc1ccc(-c2cc(F)c3ncccc3c2[O-])c(F)[nH+]1
REMARK SMILES IDX 6 1 7 2 8 3 9 4 10 5 11 6 12 7 13 8 14 9 15 10 16 11 17 12
REMARK SMILES IDX 5 13 2 14 3 15 20 16 4 17 18 18 1 19 19 21
REMARK H PARENT 20 20
ROOT
ATOM      1  C   UNL     1      44.364 131.361  17.958  1.00  0.00    -0.013 A 
ATOM      2  C   UNL     1      43.075 131.919  17.938  1.00  0.00     0.050 A 
ATOM      3  C   UNL     1      42.384 132.158  19.128  1.00  0.00     0.149 A 
ATOM      4  F   UNL     1      41.136 132.690  19.083  1.00  0.00    -0.205 F 
ATOM      5  C   UNL     1      42.974 131.848  20.356  1.00  0.00     0.105 A 
ATOM      6  N   UNL     1      42.299 132.081  21.514  1.00  0.00    -0.253 NA
ATOM      7  C   UNL     1      42.840 131.798  22.728  1.00  0.00     0.112 A 
ATOM      8  C   UNL     1      44.123 131.255  22.816  1.00  0.00     0.021 A 
ATOM      9  C   UNL     1      44.844 131.005  21.647  1.00  0.00     0.011 A 
ATOM     10  C   UNL     1      44.277 131.298  20.396  1.00  0.00    -0.004 A 
ATOM     11  C   UNL     1      44.972 131.062  19.194  1.00  0.00    -0.091 A 
ATOM     12  O   UNL     1      46.268 130.553  19.226  1.00  0.00    -0.872 OA
ENDROOT
BRANCH   1  13
ATOM     13  C   UNL     1      45.068 131.113  16.679  1.00  0.00     0.085 A 
ATOM     14  C   UNL     1      46.391 130.650  14.267  1.00  0.00     0.179 A 
ATOM     15  C   UNL     1      46.992 130.268  15.473  1.00  0.00     0.075 A 
ATOM     16  N   UNL     1      45.178 131.275  14.287  1.00  0.00    -0.183 N 
ATOM     17  C   UNL     1      46.328 130.498  16.677  1.00  0.00     0.025 A 
ATOM     18  C   UNL     1      44.511 131.509  15.450  1.00  0.00     0.365 A 
ATOM     19  C   UNL     1      47.113 130.443  12.969  1.00  0.00     0.123 C 
ATOM     20  H   UNL     1      44.744 131.590  13.390  1.00  0.00     0.456 HD
ATOM     21  F   UNL     1      43.320 132.160  15.414  1.00  0.00    -0.136 F 
ENDBRANCH   1  13
TORSDOF 1
ENDMDL


