MODEL 1
REMARK VINA RESULT:      -7.5      0.000      0.000
REMARK SMILES C=C[C@@H](Oc1[nH+]cnc(C)c1C)c1cc(-c2c[n-]c3nccc-3c2)cc2[nH]ccc12
REMARK SMILES IDX 3 1 2 2 1 3 4 4 5 5 6 6 11 7 7 8 9 9 8 10 12 12 10 13 13 14
REMARK SMILES IDX 14 15 30 16 15 17 29 18 26 19 25 20 28 21 27 22 16 24 17 25
REMARK SMILES IDX 24 26 18 27 23 28 19 29 22 30 20 31 21 32
REMARK H PARENT 6 11 27 23
ROOT
ATOM      1  C   UNL     1      45.079 131.260  21.397  1.00  0.00     0.231 C 
ENDROOT
BRANCH   1   2
ATOM      2  C   UNL     1      46.128 132.304  21.695  1.00  0.00     0.014 C 
ATOM      3  C   UNL     1      46.096 133.053  22.803  1.00  0.00     0.008 C 
ENDBRANCH   1   2
BRANCH   1   4
ATOM      4  O   UNL     1      44.000 131.336  22.333  1.00  0.00    -0.450 OA
BRANCH   4   5
ATOM      5  C   UNL     1      43.410 130.245  22.995  1.00  0.00     0.289 A 
ATOM      6  N   UNL     1      42.281 130.396  23.750  1.00  0.00    -0.213 N 
ATOM      7  C   UNL     1      44.002 128.973  22.876  1.00  0.00     0.081 A 
ATOM      8  C   UNL     1      41.726 129.341  24.398  1.00  0.00     0.452 A 
ATOM      9  C   UNL     1      43.418 127.900  23.585  1.00  0.00     0.159 A 
ATOM     10  N   UNL     1      42.294 128.113  24.315  1.00  0.00    -0.054 NA
ATOM     11  H   UNL     1      41.818 131.324  23.851  1.00  0.00     0.315 HD
ATOM     12  C   UNL     1      45.265 128.783  22.070  1.00  0.00     0.057 C 
ATOM     13  C   UNL     1      43.998 126.515  23.550  1.00  0.00     0.098 C 
ENDBRANCH   4   5
ENDBRANCH   1   4
BRANCH   1  14
ATOM     14  C   UNL     1      44.561 131.446  19.988  1.00  0.00     0.006 A 
ATOM     15  C   UNL     1      45.303 131.004  18.866  1.00  0.00     0.017 A 
ATOM     16  C   UNL     1      43.295 131.994  19.739  1.00  0.00     0.007 A 
ATOM     17  C   UNL     1      44.796 131.142  17.547  1.00  0.00    -0.016 A 
ATOM     18  C   UNL     1      42.323 132.470  20.599  1.00  0.00     0.028 A 
ATOM     19  C   UNL     1      42.802 132.129  18.468  1.00  0.00     0.046 A 
ATOM     20  C   UNL     1      43.521 131.720  17.350  1.00  0.00     0.035 A 
ATOM     21  C   UNL     1      41.274 132.878  19.784  1.00  0.00     0.083 A 
ATOM     22  N   UNL     1      41.571 132.667  18.484  1.00  0.00    -0.361 N 
ATOM     23  H   UNL     1      40.960 132.873  17.662  1.00  0.00     0.166 HD
BRANCH  17  24
ATOM     24  C   UNL     1      45.592 130.672  16.386  1.00  0.00    -0.022 A 
ATOM     25  C   UNL     1      45.770 129.276  16.153  1.00  0.00    -0.014 A 
ATOM     26  C   UNL     1      46.179 131.609  15.501  1.00  0.00     0.016 A 
ATOM     27  N   UNL     1      46.494 128.816  15.087  1.00  0.00    -0.442 NA
ATOM     28  C   UNL     1      46.908 131.112  14.435  1.00  0.00    -0.026 A 
ATOM     29  C   UNL     1      47.055 129.711  14.244  1.00  0.00    -0.052 A 
ATOM     30  C   UNL     1      47.596 131.706  13.408  1.00  0.00     0.003 A 
ATOM     31  N   UNL     1      47.792 129.432  13.157  1.00  0.00    -0.442 NA
ATOM     32  C   UNL     1      48.118 130.652  12.653  1.00  0.00    -0.022 A 
ENDBRANCH  17  24
ENDBRANCH   1  14
TORSDOF 5
ENDMDL
MODEL 2
REMARK VINA RESULT:      -7.4      2.402      7.774
REMARK SMILES C=C[C@@H](Oc1[nH+]cnc(C)c1C)c1cc(-c2c[n-]c3nccc-3c2)cc2[nH]ccc12
REMARK SMILES IDX 3 1 2 2 1 3 4 4 5 5 6 6 11 7 7 8 9 9 8 10 12 12 10 13 13 14
REMARK SMILES IDX 14 15 30 16 15 17 29 18 26 19 25 20 28 21 27 22 16 24 17 25
REMARK SMILES IDX 24 26 18 27 23 28 19 29 22 30 20 31 21 32
REMARK H PARENT 6 11 27 23
ROOT
ATOM      1  C   UNL     1      45.343 130.925  19.986  1.00  0.00     0.231 C 
ENDROOT
BRANCH   1   2
ATOM      2  C   UNL     1      46.584 131.650  20.448  1.00  0.00     0.014 C 
ATOM      3  C   UNL     1      46.528 132.740  21.221  1.00  0.00     0.008 C 
ENDBRANCH   1   2
BRANCH   1   4
ATOM      4  O   UNL     1      45.657 129.967  18.972  1.00  0.00    -0.450 OA
BRANCH   4   5
ATOM      5  C   UNL     1      45.723 130.225  17.592  1.00  0.00     0.289 A 
ATOM      6  N   UNL     1      46.797 129.832  16.844  1.00  0.00    -0.213 N 
ATOM      7  C   UNL     1      44.657 130.907  16.972  1.00  0.00     0.081 A 
ATOM      8  C   UNL     1      46.859 130.098  15.515  1.00  0.00     0.452 A 
ATOM      9  C   UNL     1      44.764 131.194  15.594  1.00  0.00     0.159 A 
ATOM     10  N   UNL     1      45.855 130.773  14.905  1.00  0.00    -0.054 NA
ATOM     11  H   UNL     1      47.597 129.321  17.273  1.00  0.00     0.315 HD
ATOM     12  C   UNL     1      43.470 131.376  17.780  1.00  0.00     0.057 C 
ATOM     13  C   UNL     1      43.696 131.948  14.855  1.00  0.00     0.098 C 
ENDBRANCH   4   5
ENDBRANCH   1   4
BRANCH   1  14
ATOM     14  C   UNL     1      44.685 130.241  21.164  1.00  0.00     0.006 A 
ATOM     15  C   UNL     1      45.135 128.982  21.630  1.00  0.00     0.017 A 
ATOM     16  C   UNL     1      43.656 130.858  21.888  1.00  0.00     0.007 A 
ATOM     17  C   UNL     1      44.544 128.363  22.763  1.00  0.00    -0.016 A 
ATOM     18  C   UNL     1      43.033 132.082  21.724  1.00  0.00     0.028 A 
ATOM     19  C   UNL     1      43.082 130.263  22.980  1.00  0.00     0.046 A 
ATOM     20  C   UNL     1      43.495 129.018  23.445  1.00  0.00     0.035 A 
ATOM     21  C   UNL     1      42.095 132.160  22.746  1.00  0.00     0.083 A 
ATOM     22  N   UNL     1      42.129 131.048  23.512  1.00  0.00    -0.361 N 
ATOM     23  H   UNL     1      41.540 130.848  24.350  1.00  0.00     0.166 HD
BRANCH  17  24
ATOM     24  C   UNL     1      45.031 127.042  23.233  1.00  0.00    -0.022 A 
ATOM     25  C   UNL     1      44.125 126.104  23.812  1.00  0.00    -0.014 A 
ATOM     26  C   UNL     1      46.401 126.704  23.106  1.00  0.00     0.016 A 
ATOM     27  N   UNL     1      44.546 124.878  24.248  1.00  0.00    -0.442 NA
ATOM     28  C   UNL     1      46.796 125.456  23.559  1.00  0.00    -0.026 A 
ATOM     29  C   UNL     1      45.853 124.557  24.128  1.00  0.00    -0.052 A 
ATOM     30  C   UNL     1      48.004 124.809  23.596  1.00  0.00     0.003 A 
ATOM     31  N   UNL     1      46.430 123.403  24.503  1.00  0.00    -0.442 NA
ATOM     32  C   UNL     1      47.741 123.565  24.176  1.00  0.00    -0.022 A 
ENDBRANCH  17  24
ENDBRANCH   1  14
TORSDOF 5
ENDMDL
MODEL 3
REMARK VINA RESULT:      -7.3      0.867      1.112
REMARK SMILES C=C[C@@H](Oc1[nH+]cnc(C)c1C)c1cc(-c2c[n-]c3nccc-3c2)cc2[nH]ccc12
REMARK SMILES IDX 3 1 2 2 1 3 4 4 5 5 6 6 11 7 7 8 9 9 8 10 12 12 10 13 13 14
REMARK SMILES IDX 14 15 30 16 15 17 29 18 26 19 25 20 28 21 27 22 16 24 17 25
REMARK SMILES IDX 24 26 18 27 23 28 19 29 22 30 20 31 21 32
REMARK H PARENT 6 11 27 23
ROOT
ATOM      1  C   UNL     1      45.163 130.945  21.150  1.00  0.00     0.231 C 
ENDROOT
BRANCH   1   2
ATOM      2  C   UNL     1      46.384 131.792  21.420  1.00  0.00     0.014 C 
ATOM      3  C   UNL     1      46.380 133.120  21.261  1.00  0.00     0.008 C 
ENDBRANCH   1   2
BRANCH   1   4
ATOM      4  O   UNL     1      44.192 131.101  22.188  1.00  0.00    -0.450 OA
BRANCH   4   5
ATOM      5  C   UNL     1      43.545 130.055  22.869  1.00  0.00     0.289 A 
ATOM      6  N   UNL     1      42.386 130.267  23.562  1.00  0.00    -0.213 N 
ATOM      7  C   UNL     1      44.109 128.765  22.836  1.00  0.00     0.081 A 
ATOM      8  C   UNL     1      41.775 129.255  24.229  1.00  0.00     0.452 A 
ATOM      9  C   UNL     1      43.467 127.740  23.562  1.00  0.00     0.159 A 
ATOM     10  N   UNL     1      42.315 128.012  24.228  1.00  0.00    -0.054 NA
ATOM     11  H   UNL     1      41.942 131.208  23.600  1.00  0.00     0.315 HD
ATOM     12  C   UNL     1      45.403 128.510  22.099  1.00  0.00     0.057 C 
ATOM     13  C   UNL     1      44.012 126.342  23.616  1.00  0.00     0.098 C 
ENDBRANCH   4   5
ENDBRANCH   1   4
BRANCH   1  14
ATOM     14  C   UNL     1      44.564 131.327  19.814  1.00  0.00     0.006 A 
ATOM     15  C   UNL     1      45.242 131.060  18.600  1.00  0.00     0.017 A 
ATOM     16  C   UNL     1      43.284 131.891  19.719  1.00  0.00     0.007 A 
ATOM     17  C   UNL     1      44.658 131.381  17.346  1.00  0.00    -0.016 A 
ATOM     18  C   UNL     1      42.362 132.226  20.693  1.00  0.00     0.028 A 
ATOM     19  C   UNL     1      42.718 132.202  18.512  1.00  0.00     0.046 A 
ATOM     20  C   UNL     1      43.373 131.966  17.307  1.00  0.00     0.035 A 
ATOM     21  C   UNL     1      41.267 132.735  20.007  1.00  0.00     0.083 A 
ATOM     22  N   UNL     1      41.488 132.718  18.675  1.00  0.00    -0.361 N 
ATOM     23  H   UNL     1      40.830 133.033  17.927  1.00  0.00     0.166 HD
BRANCH  17  24
ATOM     24  C   UNL     1      45.388 131.093  16.086  1.00  0.00    -0.022 A 
ATOM     25  C   UNL     1      44.932 131.639  14.849  1.00  0.00    -0.014 A 
ATOM     26  C   UNL     1      46.544 130.275  16.105  1.00  0.00     0.016 A 
ATOM     27  N   UNL     1      45.588 131.394  13.674  1.00  0.00    -0.442 NA
ATOM     28  C   UNL     1      47.184 130.044  14.899  1.00  0.00    -0.026 A 
ATOM     29  C   UNL     1      46.691 130.612  13.693  1.00  0.00    -0.052 A 
ATOM     30  C   UNL     1      48.297 129.324  14.549  1.00  0.00     0.003 A 
ATOM     31  N   UNL     1      47.449 130.274  12.638  1.00  0.00    -0.442 NA
ATOM     32  C   UNL     1      48.425 129.489  13.167  1.00  0.00    -0.022 A 
ENDBRANCH  17  24
ENDBRANCH   1  14
TORSDOF 5
ENDMDL
MODEL 4
REMARK VINA RESULT:      -7.2      2.761      7.216
REMARK SMILES C=C[C@@H](Oc1[nH+]cnc(C)c1C)c1cc(-c2c[n-]c3nccc-3c2)cc2[nH]ccc12
REMARK SMILES IDX 3 1 2 2 1 3 4 4 5 5 6 6 11 7 7 8 9 9 8 10 12 12 10 13 13 14
REMARK SMILES IDX 14 15 30 16 15 17 29 18 26 19 25 20 28 21 27 22 16 24 17 25
REMARK SMILES IDX 24 26 18 27 23 28 19 29 22 30 20 31 21 32
REMARK H PARENT 6 11 27 23
ROOT
ATOM      1  C   UNL     1      44.605 131.414  20.212  1.00  0.00     0.231 C 
ENDROOT
BRANCH   1   2
ATOM      2  C   UNL     1      45.617 132.472  20.581  1.00  0.00     0.014 C 
ATOM      3  C   UNL     1      46.832 132.166  21.048  1.00  0.00     0.008 C 
ENDBRANCH   1   2
BRANCH   1   4
ATOM      4  O   UNL     1      45.010 130.706  19.037  1.00  0.00    -0.450 OA
BRANCH   4   5
ATOM      5  C   UNL     1      44.652 131.035  17.718  1.00  0.00     0.289 A 
ATOM      6  N   UNL     1      43.479 131.678  17.437  1.00  0.00    -0.213 N 
ATOM      7  C   UNL     1      45.524 130.688  16.667  1.00  0.00     0.081 A 
ATOM      8  C   UNL     1      43.135 131.979  16.159  1.00  0.00     0.452 A 
ATOM      9  C   UNL     1      45.125 130.989  15.347  1.00  0.00     0.159 A 
ATOM     10  N   UNL     1      43.949 131.633  15.133  1.00  0.00    -0.054 NA
ATOM     11  H   UNL     1      42.818 131.952  18.194  1.00  0.00     0.315 HD
ATOM     12  C   UNL     1      46.814 129.953  16.946  1.00  0.00     0.057 C 
ATOM     13  C   UNL     1      45.969 130.626  14.159  1.00  0.00     0.098 C 
ENDBRANCH   4   5
ENDBRANCH   1   4
BRANCH   1  14
ATOM     14  C   UNL     1      44.432 130.451  21.367  1.00  0.00     0.006 A 
ATOM     15  C   UNL     1      45.002 129.156  21.338  1.00  0.00     0.017 A 
ATOM     16  C   UNL     1      43.765 130.829  22.540  1.00  0.00     0.007 A 
ATOM     17  C   UNL     1      44.874 128.271  22.440  1.00  0.00    -0.016 A 
ATOM     18  C   UNL     1      43.150 132.014  22.898  1.00  0.00     0.028 A 
ATOM     19  C   UNL     1      43.639 129.978  23.606  1.00  0.00     0.046 A 
ATOM     20  C   UNL     1      44.174 128.693  23.593  1.00  0.00     0.035 A 
ATOM     21  C   UNL     1      42.672 131.809  24.186  1.00  0.00     0.083 A 
ATOM     22  N   UNL     1      42.973 130.565  24.615  1.00  0.00    -0.361 N 
ATOM     23  H   UNL     1      42.743 130.151  25.546  1.00  0.00     0.166 HD
BRANCH  17  24
ATOM     24  C   UNL     1      45.479 126.917  22.387  1.00  0.00    -0.022 A 
ATOM     25  C   UNL     1      44.647 125.758  22.339  1.00  0.00    -0.014 A 
ATOM     26  C   UNL     1      46.887 126.768  22.382  1.00  0.00     0.016 A 
ATOM     27  N   UNL     1      45.179 124.499  22.285  1.00  0.00    -0.442 NA
ATOM     28  C   UNL     1      47.394 125.480  22.328  1.00  0.00    -0.026 A 
ATOM     29  C   UNL     1      46.523 124.357  22.280  1.00  0.00    -0.052 A 
ATOM     30  C   UNL     1      48.667 124.970  22.308  1.00  0.00     0.003 A 
ATOM     31  N   UNL     1      47.205 123.201  22.230  1.00  0.00    -0.442 NA
ATOM     32  C   UNL     1      48.510 123.583  22.248  1.00  0.00    -0.022 A 
ENDBRANCH  17  24
ENDBRANCH   1  14
TORSDOF 5
ENDMDL
MODEL 5
REMARK VINA RESULT:      -6.6      1.173      1.613
REMARK SMILES C=C[C@@H](Oc1[nH+]cnc(C)c1C)c1cc(-c2c[n-]c3nccc-3c2)cc2[nH]ccc12
REMARK SMILES IDX 3 1 2 2 1 3 4 4 5 5 6 6 11 7 7 8 9 9 8 10 12 12 10 13 13 14
REMARK SMILES IDX 14 15 30 16 15 17 29 18 26 19 25 20 28 21 27 22 16 24 17 25
REMARK SMILES IDX 24 26 18 27 23 28 19 29 22 30 20 31 21 32
REMARK H PARENT 6 11 27 23
ROOT
ATOM      1  C   UNL     1      45.668 130.887  21.055  1.00  0.00     0.231 C 
ENDROOT
BRANCH   1   2
ATOM      2  C   UNL     1      46.498 132.060  21.517  1.00  0.00     0.014 C 
ATOM      3  C   UNL     1      46.139 133.326  21.283  1.00  0.00     0.008 C 
ENDBRANCH   1   2
BRANCH   1   4
ATOM      4  O   UNL     1      44.571 130.654  21.942  1.00  0.00    -0.450 OA
BRANCH   4   5
ATOM      5  C   UNL     1      44.229 129.417  22.517  1.00  0.00     0.289 A 
ATOM      6  N   UNL     1      45.010 128.310  22.339  1.00  0.00    -0.213 N 
ATOM      7  C   UNL     1      43.055 129.323  23.289  1.00  0.00     0.081 A 
ATOM      8  C   UNL     1      44.666 127.117  22.886  1.00  0.00     0.452 A 
ATOM      9  C   UNL     1      42.709 128.062  23.820  1.00  0.00     0.159 A 
ATOM     10  N   UNL     1      43.528 127.000  23.612  1.00  0.00    -0.054 NA
ATOM     11  H   UNL     1      45.888 128.351  21.779  1.00  0.00     0.315 HD
ATOM     12  C   UNL     1      42.160 130.525  23.479  1.00  0.00     0.057 C 
ATOM     13  C   UNL     1      41.457 127.855  24.624  1.00  0.00     0.098 C 
ENDBRANCH   4   5
ENDBRANCH   1   4
BRANCH   1  14
ATOM     14  C   UNL     1      45.159 131.146  19.653  1.00  0.00     0.006 A 
ATOM     15  C   UNL     1      45.919 130.785  18.515  1.00  0.00     0.017 A 
ATOM     16  C   UNL     1      43.885 131.684  19.425  1.00  0.00     0.007 A 
ATOM     17  C   UNL     1      45.420 130.990  17.202  1.00  0.00    -0.016 A 
ATOM     18  C   UNL     1      42.896 132.089  20.302  1.00  0.00     0.028 A 
ATOM     19  C   UNL     1      43.400 131.884  18.159  1.00  0.00     0.046 A 
ATOM     20  C   UNL     1      44.137 131.554  17.026  1.00  0.00     0.035 A 
ATOM     21  C   UNL     1      41.847 132.525  19.502  1.00  0.00     0.083 A 
ATOM     22  N   UNL     1      42.158 132.396  18.194  1.00  0.00    -0.361 N 
ATOM     23  H   UNL     1      41.551 132.639  17.380  1.00  0.00     0.166 HD
BRANCH  17  24
ATOM     24  C   UNL     1      46.236 130.605  16.023  1.00  0.00    -0.022 A 
ATOM     25  C   UNL     1      47.131 129.496  16.098  1.00  0.00    -0.014 A 
ATOM     26  C   UNL     1      46.128 131.336  14.815  1.00  0.00     0.016 A 
ATOM     27  N   UNL     1      47.890 129.116  15.025  1.00  0.00    -0.442 NA
ATOM     28  C   UNL     1      46.912 130.928  13.748  1.00  0.00    -0.026 A 
ATOM     29  C   UNL     1      47.787 129.815  13.873  1.00  0.00    -0.052 A 
ATOM     30  C   UNL     1      47.064 131.385  12.465  1.00  0.00     0.003 A 
ATOM     31  N   UNL     1      48.455 129.578  12.733  1.00  0.00    -0.442 NA
ATOM     32  C   UNL     1      48.010 130.539  11.880  1.00  0.00    -0.022 A 
ENDBRANCH  17  24
ENDBRANCH   1  14
TORSDOF 5
ENDMDL
MODEL 6
REMARK VINA RESULT:      -6.6      2.486      3.838
REMARK SMILES C=C[C@@H](Oc1[nH+]cnc(C)c1C)c1cc(-c2c[n-]c3nccc-3c2)cc2[nH]ccc12
REMARK SMILES IDX 3 1 2 2 1 3 4 4 5 5 6 6 11 7 7 8 9 9 8 10 12 12 10 13 13 14
REMARK SMILES IDX 14 15 30 16 15 17 29 18 26 19 25 20 28 21 27 22 16 24 17 25
REMARK SMILES IDX 24 26 18 27 23 28 19 29 22 30 20 31 21 32
REMARK H PARENT 6 11 27 23
ROOT
ATOM      1  C   UNL     1      45.257 128.463  22.550  1.00  0.00     0.231 C 
ENDROOT
BRANCH   1   2
ATOM      2  C   UNL     1      44.245 128.203  23.639  1.00  0.00     0.014 C 
ATOM      3  C   UNL     1      43.031 127.704  23.381  1.00  0.00     0.008 C 
ENDBRANCH   1   2
BRANCH   1   4
ATOM      4  O   UNL     1      45.444 127.303  21.735  1.00  0.00    -0.450 OA
BRANCH   4   5
ATOM      5  C   UNL     1      45.361 125.970  22.175  1.00  0.00     0.289 A 
ATOM      6  N   UNL     1      44.184 125.278  22.132  1.00  0.00    -0.213 N 
ATOM      7  C   UNL     1      46.519 125.342  22.673  1.00  0.00     0.081 A 
ATOM      8  C   UNL     1      44.109 123.996  22.572  1.00  0.00     0.452 A 
ATOM      9  C   UNL     1      46.404 124.018  23.150  1.00  0.00     0.159 A 
ATOM     10  N   UNL     1      45.206 123.382  23.076  1.00  0.00    -0.054 NA
ATOM     11  H   UNL     1      43.313 125.714  21.763  1.00  0.00     0.315 HD
ATOM     12  C   UNL     1      47.827 126.093  22.757  1.00  0.00     0.057 C 
ATOM     13  C   UNL     1      47.573 123.278  23.732  1.00  0.00     0.098 C 
ENDBRANCH   4   5
ENDBRANCH   1   4
BRANCH   1  14
ATOM     14  C   UNL     1      44.802 129.630  21.700  1.00  0.00     0.006 A 
ATOM     15  C   UNL     1      45.244 129.784  20.364  1.00  0.00     0.017 A 
ATOM     16  C   UNL     1      43.868 130.560  22.174  1.00  0.00     0.007 A 
ATOM     17  C   UNL     1      44.782 130.856  19.555  1.00  0.00    -0.016 A 
ATOM     18  C   UNL     1      43.218 130.661  23.391  1.00  0.00     0.028 A 
ATOM     19  C   UNL     1      43.419 131.596  21.397  1.00  0.00     0.046 A 
ATOM     20  C   UNL     1      43.855 131.779  20.088  1.00  0.00     0.035 A 
ATOM     21  C   UNL     1      42.399 131.778  23.282  1.00  0.00     0.083 A 
ATOM     22  N   UNL     1      42.524 132.345  22.062  1.00  0.00    -0.361 N 
ATOM     23  H   UNL     1      42.018 133.188  21.710  1.00  0.00     0.166 HD
BRANCH  17  24
ATOM     24  C   UNL     1      45.261 130.999  18.158  1.00  0.00    -0.022 A 
ATOM     25  C   UNL     1      45.048 132.216  17.445  1.00  0.00    -0.014 A 
ATOM     26  C   UNL     1      45.936 129.927  17.525  1.00  0.00     0.016 A 
ATOM     27  N   UNL     1      45.483 132.376  16.158  1.00  0.00    -0.442 NA
ATOM     28  C   UNL     1      46.361 130.119  16.221  1.00  0.00    -0.026 A 
ATOM     29  C   UNL     1      46.126 131.353  15.554  1.00  0.00    -0.052 A 
ATOM     30  C   UNL     1      47.027 129.326  15.322  1.00  0.00     0.003 A 
ATOM     31  N   UNL     1      46.615 131.343  14.304  1.00  0.00    -0.442 NA
ATOM     32  C   UNL     1      47.162 130.105  14.170  1.00  0.00    -0.022 A 
ENDBRANCH  17  24
ENDBRANCH   1  14
TORSDOF 5
ENDMDL
MODEL 7
REMARK VINA RESULT:      -6.5      2.705      4.289
REMARK SMILES C=C[C@@H](Oc1[nH+]cnc(C)c1C)c1cc(-c2c[n-]c3nccc-3c2)cc2[nH]ccc12
REMARK SMILES IDX 3 1 2 2 1 3 4 4 5 5 6 6 11 7 7 8 9 9 8 10 12 12 10 13 13 14
REMARK SMILES IDX 14 15 30 16 15 17 29 18 26 19 25 20 28 21 27 22 16 24 17 25
REMARK SMILES IDX 24 26 18 27 23 28 19 29 22 30 20 31 21 32
REMARK H PARENT 6 11 27 23
ROOT
ATOM      1  C   UNL     1      45.147 128.479  23.057  1.00  0.00     0.231 C 
ENDROOT
BRANCH   1   2
ATOM      2  C   UNL     1      44.352 128.414  24.339  1.00  0.00     0.014 C 
ATOM      3  C   UNL     1      43.480 127.432  24.590  1.00  0.00     0.008 C 
ENDBRANCH   1   2
BRANCH   1   4
ATOM      4  O   UNL     1      45.075 127.240  22.346  1.00  0.00    -0.450 OA
BRANCH   4   5
ATOM      5  C   UNL     1      45.998 126.184  22.442  1.00  0.00     0.289 A 
ATOM      6  N   UNL     1      47.345 126.411  22.412  1.00  0.00    -0.213 N 
ATOM      7  C   UNL     1      45.518 124.866  22.568  1.00  0.00     0.081 A 
ATOM      8  C   UNL     1      48.229 125.385  22.491  1.00  0.00     0.452 A 
ATOM      9  C   UNL     1      46.461 123.818  22.619  1.00  0.00     0.159 A 
ATOM     10  N   UNL     1      47.787 124.108  22.589  1.00  0.00    -0.054 NA
ATOM     11  H   UNL     1      47.729 127.376  22.326  1.00  0.00     0.315 HD
ATOM     12  C   UNL     1      44.034 124.585  22.577  1.00  0.00     0.057 C 
ATOM     13  C   UNL     1      46.045 122.378  22.717  1.00  0.00     0.098 C 
ENDBRANCH   4   5
ENDBRANCH   1   4
BRANCH   1  14
ATOM     14  C   UNL     1      44.628 129.607  22.193  1.00  0.00     0.006 A 
ATOM     15  C   UNL     1      44.955 129.693  20.818  1.00  0.00     0.017 A 
ATOM     16  C   UNL     1      43.743 130.569  22.699  1.00  0.00     0.007 A 
ATOM     17  C   UNL     1      44.432 130.729  20.000  1.00  0.00    -0.016 A 
ATOM     18  C   UNL     1      43.201 130.735  23.960  1.00  0.00     0.028 A 
ATOM     19  C   UNL     1      43.236 131.571  21.913  1.00  0.00     0.046 A 
ATOM     20  C   UNL     1      43.559 131.686  20.565  1.00  0.00     0.035 A 
ATOM     21  C   UNL     1      42.382 131.854  23.867  1.00  0.00     0.083 A 
ATOM     22  N   UNL     1      42.405 132.360  22.615  1.00  0.00    -0.361 N 
ATOM     23  H   UNL     1      41.876 133.190  22.266  1.00  0.00     0.166 HD
BRANCH  17  24
ATOM     24  C   UNL     1      44.791 130.800  18.562  1.00  0.00    -0.022 A 
ATOM     25  C   UNL     1      46.060 130.328  18.112  1.00  0.00    -0.014 A 
ATOM     26  C   UNL     1      43.872 131.334  17.626  1.00  0.00     0.016 A 
ATOM     27  N   UNL     1      46.413 130.377  16.791  1.00  0.00    -0.442 NA
ATOM     28  C   UNL     1      44.260 131.372  16.298  1.00  0.00    -0.026 A 
ATOM     29  C   UNL     1      45.537 130.888  15.899  1.00  0.00    -0.052 A 
ATOM     30  C   UNL     1      43.648 131.808  15.151  1.00  0.00     0.003 A 
ATOM     31  N   UNL     1      45.723 131.008  14.575  1.00  0.00    -0.442 NA
ATOM     32  C   UNL     1      44.568 131.570  14.126  1.00  0.00    -0.022 A 
ENDBRANCH  17  24
ENDBRANCH   1  14
TORSDOF 5
ENDMDL
MODEL 8
REMARK VINA RESULT:      -5.8      2.992      4.854
REMARK SMILES C=C[C@@H](Oc1[nH+]cnc(C)c1C)c1cc(-c2c[n-]c3nccc-3c2)cc2[nH]ccc12
REMARK SMILES IDX 3 1 2 2 1 3 4 4 5 5 6 6 11 7 7 8 9 9 8 10 12 12 10 13 13 14
REMARK SMILES IDX 14 15 30 16 15 17 29 18 26 19 25 20 28 21 27 22 16 24 17 25
REMARK SMILES IDX 24 26 18 27 23 28 19 29 22 30 20 31 21 32
REMARK H PARENT 6 11 27 23
ROOT
ATOM      1  C   UNL     1      45.105 127.530  23.033  1.00  0.00     0.231 C 
ENDROOT
BRANCH   1   2
ATOM      2  C   UNL     1      43.772 126.832  23.149  1.00  0.00     0.014 C 
ATOM      3  C   UNL     1      43.062 126.831  24.282  1.00  0.00     0.008 C 
ENDBRANCH   1   2
BRANCH   1   4
ATOM      4  O   UNL     1      46.029 126.748  22.272  1.00  0.00    -0.450 OA
BRANCH   4   5
ATOM      5  C   UNL     1      46.252 125.368  22.420  1.00  0.00     0.289 A 
ATOM      6  N   UNL     1      45.232 124.466  22.313  1.00  0.00    -0.213 N 
ATOM      7  C   UNL     1      47.558 124.912  22.687  1.00  0.00     0.081 A 
ATOM      8  C   UNL     1      45.454 123.137  22.471  1.00  0.00     0.452 A 
ATOM      9  C   UNL     1      47.752 123.527  22.875  1.00  0.00     0.159 A 
ATOM     10  N   UNL     1      46.698 122.680  22.752  1.00  0.00    -0.054 NA
ATOM     11  H   UNL     1      44.257 124.773  22.109  1.00  0.00     0.315 HD
ATOM     12  C   UNL     1      48.700 125.890  22.836  1.00  0.00     0.057 C 
ATOM     13  C   UNL     1      49.100 122.950  23.200  1.00  0.00     0.098 C 
ENDBRANCH   4   5
ENDBRANCH   1   4
BRANCH   1  14
ATOM     14  C   UNL     1      44.915 128.886  22.390  1.00  0.00     0.006 A 
ATOM     15  C   UNL     1      45.108 129.076  21.000  1.00  0.00     0.017 A 
ATOM     16  C   UNL     1      44.468 129.991  23.128  1.00  0.00     0.007 A 
ATOM     17  C   UNL     1      44.888 130.340  20.392  1.00  0.00    -0.016 A 
ATOM     18  C   UNL     1      44.148 130.123  24.466  1.00  0.00     0.028 A 
ATOM     19  C   UNL     1      44.255 131.212  22.545  1.00  0.00     0.046 A 
ATOM     20  C   UNL     1      44.456 131.427  21.185  1.00  0.00     0.035 A 
ATOM     21  C   UNL     1      43.754 131.446  24.624  1.00  0.00     0.083 A 
ATOM     22  N   UNL     1      43.819 132.107  23.448  1.00  0.00    -0.361 N 
ATOM     23  H   UNL     1      43.572 133.108  23.278  1.00  0.00     0.166 HD
BRANCH  17  24
ATOM     24  C   UNL     1      45.098 130.515  18.933  1.00  0.00    -0.022 A 
ATOM     25  C   UNL     1      46.274 130.003  18.309  1.00  0.00    -0.014 A 
ATOM     26  C   UNL     1      44.129 131.191  18.152  1.00  0.00     0.016 A 
ATOM     27  N   UNL     1      46.490 130.146  16.966  1.00  0.00    -0.442 NA
ATOM     28  C   UNL     1      44.378 131.321  16.796  1.00  0.00    -0.026 A 
ATOM     29  C   UNL     1      45.566 130.792  16.221  1.00  0.00    -0.052 A 
ATOM     30  C   UNL     1      43.684 131.898  15.764  1.00  0.00     0.003 A 
ATOM     31  N   UNL     1      45.621 131.018  14.899  1.00  0.00    -0.442 NA
ATOM     32  C   UNL     1      44.471 131.693  14.628  1.00  0.00    -0.022 A 
ENDBRANCH  17  24
ENDBRANCH   1  14
TORSDOF 5
ENDMDL
MODEL 9
REMARK VINA RESULT:      -5.7      3.563      7.345
REMARK SMILES C=C[C@@H](Oc1[nH+]cnc(C)c1C)c1cc(-c2c[n-]c3nccc-3c2)cc2[nH]ccc12
REMARK SMILES IDX 3 1 2 2 1 3 4 4 5 5 6 6 11 7 7 8 9 9 8 10 12 12 10 13 13 14
REMARK SMILES IDX 14 15 30 16 15 17 29 18 26 19 25 20 28 21 27 22 16 24 17 25
REMARK SMILES IDX 24 26 18 27 23 28 19 29 22 30 20 31 21 32
REMARK H PARENT 6 11 27 23
ROOT
ATOM      1  C   UNL     1      44.059 131.604  19.496  1.00  0.00     0.231 C 
ENDROOT
BRANCH   1   2
ATOM      2  C   UNL     1      42.692 132.244  19.456  1.00  0.00     0.014 C 
ATOM      3  C   UNL     1      41.724 131.810  18.641  1.00  0.00     0.008 C 
ENDBRANCH   1   2
BRANCH   1   4
ATOM      4  O   UNL     1      44.869 132.057  18.408  1.00  0.00    -0.450 OA
BRANCH   4   5
ATOM      5  C   UNL     1      44.797 131.590  17.084  1.00  0.00     0.289 A 
ATOM      6  N   UNL     1      43.936 132.144  16.179  1.00  0.00    -0.213 N 
ATOM      7  C   UNL     1      45.632 130.527  16.688  1.00  0.00     0.081 A 
ATOM      8  C   UNL     1      43.863 131.679  14.906  1.00  0.00     0.452 A 
ATOM      9  C   UNL     1      45.513 130.046  15.366  1.00  0.00     0.159 A 
ATOM     10  N   UNL     1      44.641 130.642  14.513  1.00  0.00    -0.054 NA
ATOM     11  H   UNL     1      43.311 132.936  16.441  1.00  0.00     0.315 HD
ATOM     12  C   UNL     1      46.575 129.879  17.674  1.00  0.00     0.057 C 
ATOM     13  C   UNL     1      46.334 128.893  14.862  1.00  0.00     0.098 C 
ENDBRANCH   4   5
ENDBRANCH   1   4
BRANCH   1  14
ATOM     14  C   UNL     1      44.731 131.922  20.814  1.00  0.00     0.006 A 
ATOM     15  C   UNL     1      45.852 132.784  20.880  1.00  0.00     0.017 A 
ATOM     16  C   UNL     1      44.227 131.439  22.029  1.00  0.00     0.007 A 
ATOM     17  C   UNL     1      46.455 133.114  22.122  1.00  0.00    -0.016 A 
ATOM     18  C   UNL     1      43.141 130.630  22.307  1.00  0.00     0.028 A 
ATOM     19  C   UNL     1      44.805 131.754  23.230  1.00  0.00     0.046 A 
ATOM     20  C   UNL     1      45.919 132.584  23.317  1.00  0.00     0.035 A 
ATOM     21  C   UNL     1      43.123 130.495  23.690  1.00  0.00     0.083 A 
ATOM     22  N   UNL     1      44.141 131.185  24.250  1.00  0.00    -0.361 N 
ATOM     23  H   UNL     1      44.358 131.263  25.268  1.00  0.00     0.166 HD
BRANCH  17  24
ATOM     24  C   UNL     1      47.631 134.019  22.167  1.00  0.00    -0.022 A 
ATOM     25  C   UNL     1      48.696 133.770  23.083  1.00  0.00    -0.014 A 
ATOM     26  C   UNL     1      47.702 135.134  21.297  1.00  0.00     0.016 A 
ATOM     27  N   UNL     1      49.794 134.585  23.140  1.00  0.00    -0.442 NA
ATOM     28  C   UNL     1      48.825 135.941  21.382  1.00  0.00    -0.026 A 
ATOM     29  C   UNL     1      49.861 135.650  22.311  1.00  0.00    -0.052 A 
ATOM     30  C   UNL     1      49.222 137.072  20.717  1.00  0.00     0.003 A 
ATOM     31  N   UNL     1      50.860 136.544  22.238  1.00  0.00    -0.442 NA
ATOM     32  C   UNL     1      50.463 137.407  21.265  1.00  0.00    -0.022 A 
ENDBRANCH  17  24
ENDBRANCH   1  14
TORSDOF 5
ENDMDL


