MODEL 1
REMARK VINA RESULT:     -10.1      0.000      0.000
REMARK SMILES Cc1ccc(-c2cc(F)c3ncccc3c2O)c(F)[nH+]1
REMARK SMILES IDX 6 1 7 2 8 3 9 4 10 5 11 6 12 7 13 8 14 9 15 10 16 11 5 12
REMARK SMILES IDX 2 13 3 14 20 15 4 16 18 17 1 18 19 20 17 21
REMARK H PARENT 20 19 17 22
ROOT
ATOM      1  C   UNL     1      44.709 131.388  17.950  1.00  0.00     0.037 A 
ATOM      2  C   UNL     1      43.379 131.813  17.801  1.00  0.00     0.054 A 
ATOM      3  C   UNL     1      42.569 132.028  18.916  1.00  0.00     0.150 A 
ATOM      4  F   UNL     1      41.284 132.429  18.743  1.00  0.00    -0.205 F 
ATOM      5  C   UNL     1      43.077 131.822  20.201  1.00  0.00     0.110 A 
ATOM      6  N   UNL     1      42.282 132.025  21.286  1.00  0.00    -0.253 NA
ATOM      7  C   UNL     1      42.738 131.842  22.553  1.00  0.00     0.112 A 
ATOM      8  C   UNL     1      44.055 131.435  22.773  1.00  0.00     0.021 A 
ATOM      9  C   UNL     1      44.897 131.217  21.681  1.00  0.00     0.016 A 
ATOM     10  C   UNL     1      44.418 131.406  20.374  1.00  0.00     0.046 A 
ATOM     11  C   UNL     1      45.242 131.201  19.248  1.00  0.00     0.133 A 
ENDROOT
BRANCH   1  12
ATOM     12  C   UNL     1      45.513 131.135  16.734  1.00  0.00     0.089 A 
ATOM     13  C   UNL     1      47.001 130.642  14.431  1.00  0.00     0.179 A 
ATOM     14  C   UNL     1      46.562 131.943  14.708  1.00  0.00     0.075 A 
ATOM     15  N   UNL     1      46.668 129.622  15.275  1.00  0.00    -0.183 N 
ATOM     16  C   UNL     1      45.820 132.187  15.862  1.00  0.00     0.025 A 
ATOM     17  C   UNL     1      45.943 129.839  16.407  1.00  0.00     0.366 A 
ATOM     18  C   UNL     1      47.768 130.360  13.173  1.00  0.00     0.123 C 
ATOM     19  H   UNL     1      46.968 128.646  15.053  1.00  0.00     0.456 HD
ATOM     20  F   UNL     1      45.625 128.790  17.208  1.00  0.00    -0.136 F 
ENDBRANCH   1  12
BRANCH  11  21
ATOM     21  O   UNL     1      46.579 130.837  19.438  1.00  0.00    -0.507 OA
ATOM     22  H   UNL     1      47.351 131.311  18.986  1.00  0.00     0.293 HD
ENDBRANCH  11  21
TORSDOF 2
ENDMDL
MODEL 2
REMARK VINA RESULT:     -10.0      1.247      1.535
REMARK SMILES Cc1ccc(-c2cc(F)c3ncccc3c2O)c(F)[nH+]1
REMARK SMILES IDX 6 1 7 2 8 3 9 4 10 5 11 6 12 7 13 8 14 9 15 10 16 11 5 12
REMARK SMILES IDX 2 13 3 14 20 15 4 16 18 17 1 18 19 20 17 21
REMARK H PARENT 20 19 17 22
ROOT
ATOM      1  C   UNL     1      44.731 131.252  17.612  1.00  0.00     0.037 A 
ATOM      2  C   UNL     1      43.428 131.757  17.471  1.00  0.00     0.054 A 
ATOM      3  C   UNL     1      42.638 132.018  18.591  1.00  0.00     0.150 A 
ATOM      4  F   UNL     1      41.379 132.496  18.425  1.00  0.00    -0.205 F 
ATOM      5  C   UNL     1      43.140 131.779  19.872  1.00  0.00     0.110 A 
ATOM      6  N   UNL     1      42.364 132.028  20.962  1.00  0.00    -0.253 NA
ATOM      7  C   UNL     1      42.814 131.816  22.226  1.00  0.00     0.112 A 
ATOM      8  C   UNL     1      44.105 131.330  22.439  1.00  0.00     0.021 A 
ATOM      9  C   UNL     1      44.927 131.064  21.342  1.00  0.00     0.016 A 
ATOM     10  C   UNL     1      44.454 131.283  20.038  1.00  0.00     0.046 A 
ATOM     11  C   UNL     1      45.258 131.031  18.907  1.00  0.00     0.133 A 
ENDROOT
BRANCH   1  12
ATOM     12  C   UNL     1      45.512 130.954  16.392  1.00  0.00     0.089 A 
ATOM     13  C   UNL     1      47.014 130.404  14.111  1.00  0.00     0.179 A 
ATOM     14  C   UNL     1      46.476 129.348  14.859  1.00  0.00     0.075 A 
ATOM     15  N   UNL     1      46.823 131.691  14.524  1.00  0.00    -0.183 N 
ATOM     16  C   UNL     1      45.724 129.627  15.999  1.00  0.00     0.025 A 
ATOM     17  C   UNL     1      46.092 131.985  15.635  1.00  0.00     0.366 A 
ATOM     18  C   UNL     1      47.856 130.116  12.904  1.00  0.00     0.123 C 
ATOM     19  H   UNL     1      47.249 132.477  13.984  1.00  0.00     0.456 HD
ATOM     20  F   UNL     1      45.944 133.280  16.013  1.00  0.00    -0.136 F 
ENDBRANCH   1  12
BRANCH  11  21
ATOM     21  O   UNL     1      46.572 130.587  19.089  1.00  0.00    -0.507 OA
ATOM     22  H   UNL     1      47.141 130.218  18.337  1.00  0.00     0.293 HD
ENDBRANCH  11  21
TORSDOF 2
ENDMDL
MODEL 3
REMARK VINA RESULT:      -9.6      2.131      2.803
REMARK SMILES Cc1ccc(-c2cc(F)c3ncccc3c2O)c(F)[nH+]1
REMARK SMILES IDX 6 1 7 2 8 3 9 4 10 5 11 6 12 7 13 8 14 9 15 10 16 11 5 12
REMARK SMILES IDX 2 13 3 14 20 15 4 16 18 17 1 18 19 20 17 21
REMARK H PARENT 20 19 17 22
ROOT
ATOM      1  C   UNL     1      45.172 131.065  17.689  1.00  0.00     0.037 A 
ATOM      2  C   UNL     1      45.848 130.608  18.831  1.00  0.00     0.054 A 
ATOM      3  C   UNL     1      45.302 130.785  20.102  1.00  0.00     0.150 A 
ATOM      4  F   UNL     1      45.981 130.342  21.191  1.00  0.00    -0.205 F 
ATOM      5  C   UNL     1      44.068 131.423  20.252  1.00  0.00     0.110 A 
ATOM      6  N   UNL     1      43.542 131.602  21.494  1.00  0.00    -0.253 NA
ATOM      7  C   UNL     1      42.343 132.211  21.684  1.00  0.00     0.112 A 
ATOM      8  C   UNL     1      41.612 132.676  20.590  1.00  0.00     0.021 A 
ATOM      9  C   UNL     1      42.123 132.509  19.302  1.00  0.00     0.016 A 
ATOM     10  C   UNL     1      43.364 131.880  19.113  1.00  0.00     0.046 A 
ATOM     11  C   UNL     1      43.909 131.690  17.826  1.00  0.00     0.133 A 
ENDROOT
BRANCH   1  12
ATOM     12  C   UNL     1      45.812 130.888  16.367  1.00  0.00     0.089 A 
ATOM     13  C   UNL     1      47.050 130.569  13.891  1.00  0.00     0.179 A 
ATOM     14  C   UNL     1      46.714 129.440  14.650  1.00  0.00     0.075 A 
ATOM     15  N   UNL     1      46.796 131.815  14.386  1.00  0.00    -0.183 N 
ATOM     16  C   UNL     1      46.094 129.603  15.888  1.00  0.00     0.025 A 
ATOM     17  C   UNL     1      46.191 131.997  15.593  1.00  0.00     0.366 A 
ATOM     18  C   UNL     1      47.751 130.408  12.575  1.00  0.00     0.123 C 
ATOM     19  H   UNL     1      47.073 132.658  13.834  1.00  0.00     0.456 HD
ATOM     20  F   UNL     1      45.973 133.257  16.047  1.00  0.00    -0.136 F 
ENDBRANCH   1  12
BRANCH  11  21
ATOM     21  O   UNL     1      43.178 132.104  16.708  1.00  0.00    -0.507 OA
ATOM     22  H   UNL     1      42.172 132.219  16.716  1.00  0.00     0.293 HD
ENDBRANCH  11  21
TORSDOF 2
ENDMDL
MODEL 4
REMARK VINA RESULT:      -8.9      1.868      2.378
REMARK SMILES Cc1ccc(-c2cc(F)c3ncccc3c2O)c(F)[nH+]1
REMARK SMILES IDX 6 1 7 2 8 3 9 4 10 5 11 6 12 7 13 8 14 9 15 10 16 11 5 12
REMARK SMILES IDX 2 13 3 14 20 15 4 16 18 17 1 18 19 20 17 21
REMARK H PARENT 20 19 17 22
ROOT
ATOM      1  C   UNL     1      45.121 131.140  17.711  1.00  0.00     0.037 A 
ATOM      2  C   UNL     1      45.811 130.655  18.834  1.00  0.00     0.054 A 
ATOM      3  C   UNL     1      45.278 130.797  20.115  1.00  0.00     0.150 A 
ATOM      4  F   UNL     1      45.970 130.327  21.184  1.00  0.00    -0.205 F 
ATOM      5  C   UNL     1      44.044 131.427  20.294  1.00  0.00     0.110 A 
ATOM      6  N   UNL     1      43.531 131.570  21.547  1.00  0.00    -0.253 NA
ATOM      7  C   UNL     1      42.332 132.171  21.766  1.00  0.00     0.112 A 
ATOM      8  C   UNL     1      41.588 132.663  20.692  1.00  0.00     0.021 A 
ATOM      9  C   UNL     1      42.086 132.532  19.395  1.00  0.00     0.016 A 
ATOM     10  C   UNL     1      43.327 131.912  19.176  1.00  0.00     0.046 A 
ATOM     11  C   UNL     1      43.859 131.758  17.879  1.00  0.00     0.133 A 
ENDROOT
BRANCH   1  12
ATOM     12  C   UNL     1      45.749 131.001  16.379  1.00  0.00     0.089 A 
ATOM     13  C   UNL     1      46.898 130.730  13.855  1.00  0.00     0.179 A 
ATOM     14  C   UNL     1      46.790 132.001  14.436  1.00  0.00     0.075 A 
ATOM     15  N   UNL     1      46.410 129.641  14.518  1.00  0.00    -0.183 N 
ATOM     16  C   UNL     1      46.216 132.132  15.699  1.00  0.00     0.025 A 
ATOM     17  C   UNL     1      45.846 129.748  15.752  1.00  0.00     0.366 A 
ATOM     18  C   UNL     1      47.479 130.579  12.481  1.00  0.00     0.123 C 
ATOM     19  H   UNL     1      46.462 128.697  14.072  1.00  0.00     0.456 HD
ATOM     20  F   UNL     1      45.362 128.637  16.364  1.00  0.00    -0.136 F 
ENDBRANCH   1  12
BRANCH  11  21
ATOM     21  O   UNL     1      43.115 132.199  16.779  1.00  0.00    -0.507 OA
ATOM     22  H   UNL     1      42.779 133.150  16.685  1.00  0.00     0.293 HD
ENDBRANCH  11  21
TORSDOF 2
ENDMDL
MODEL 5
REMARK VINA RESULT:      -8.3      1.535      6.245
REMARK SMILES Cc1ccc(-c2cc(F)c3ncccc3c2O)c(F)[nH+]1
REMARK SMILES IDX 6 1 7 2 8 3 9 4 10 5 11 6 12 7 13 8 14 9 15 10 16 11 5 12
REMARK SMILES IDX 2 13 3 14 20 15 4 16 18 17 1 18 19 20 17 21
REMARK H PARENT 20 19 17 22
ROOT
ATOM      1  C   UNL     1      44.354 131.301  17.855  1.00  0.00     0.037 A 
ATOM      2  C   UNL     1      43.521 131.783  16.834  1.00  0.00     0.054 A 
ATOM      3  C   UNL     1      43.894 131.670  15.494  1.00  0.00     0.150 A 
ATOM      4  F   UNL     1      43.075 132.154  14.527  1.00  0.00    -0.205 F 
ATOM      5  C   UNL     1      45.109 131.070  15.155  1.00  0.00     0.110 A 
ATOM      6  N   UNL     1      45.474 130.968  13.848  1.00  0.00    -0.253 NA
ATOM      7  C   UNL     1      46.644 130.387  13.473  1.00  0.00     0.112 A 
ATOM      8  C   UNL     1      47.512 129.872  14.438  1.00  0.00     0.021 A 
ATOM      9  C   UNL     1      47.168 129.961  15.788  1.00  0.00     0.016 A 
ATOM     10  C   UNL     1      45.958 130.565  16.168  1.00  0.00     0.046 A 
ATOM     11  C   UNL     1      45.575 130.668  17.521  1.00  0.00     0.133 A 
ENDROOT
BRANCH   1  12
ATOM     12  C   UNL     1      43.930 131.482  19.261  1.00  0.00     0.089 A 
ATOM     13  C   UNL     1      43.112 131.794  21.906  1.00  0.00     0.179 A 
ATOM     14  C   UNL     1      44.432 131.414  21.628  1.00  0.00     0.075 A 
ATOM     15  N   UNL     1      42.231 131.976  20.879  1.00  0.00    -0.183 N 
ATOM     16  C   UNL     1      44.838 131.260  20.304  1.00  0.00     0.025 A 
ATOM     17  C   UNL     1      42.608 131.831  19.579  1.00  0.00     0.366 A 
ATOM     18  C   UNL     1      42.652 131.926  23.327  1.00  0.00     0.123 C 
ATOM     19  H   UNL     1      41.238 132.229  21.086  1.00  0.00     0.456 HD
ATOM     20  F   UNL     1      41.691 132.009  18.594  1.00  0.00    -0.136 F 
ENDBRANCH   1  12
BRANCH  11  21
ATOM     21  O   UNL     1      46.403 130.121  18.508  1.00  0.00    -0.507 OA
ATOM     22  H   UNL     1      47.143 130.643  18.961  1.00  0.00     0.293 HD
ENDBRANCH  11  21
TORSDOF 2
ENDMDL
MODEL 6
REMARK VINA RESULT:      -7.9      1.400      1.555
REMARK SMILES Cc1ccc(-c2cc(F)c3ncccc3c2O)c(F)[nH+]1
REMARK SMILES IDX 6 1 7 2 8 3 9 4 10 5 11 6 12 7 13 8 14 9 15 10 16 11 5 12
REMARK SMILES IDX 2 13 3 14 20 15 4 16 18 17 1 18 19 20 17 21
REMARK H PARENT 20 19 17 22
ROOT
ATOM      1  C   UNL     1      44.307 131.378  18.472  1.00  0.00     0.037 A 
ATOM      2  C   UNL     1      43.079 132.059  18.495  1.00  0.00     0.054 A 
ATOM      3  C   UNL     1      42.419 132.299  19.700  1.00  0.00     0.150 A 
ATOM      4  F   UNL     1      41.229 132.951  19.693  1.00  0.00    -0.205 F 
ATOM      5  C   UNL     1      42.977 131.862  20.903  1.00  0.00     0.110 A 
ATOM      6  N   UNL     1      42.326 132.091  22.076  1.00  0.00    -0.253 NA
ATOM      7  C   UNL     1      42.836 131.688  23.270  1.00  0.00     0.112 A 
ATOM      8  C   UNL     1      44.060 131.019  23.319  1.00  0.00     0.021 A 
ATOM      9  C   UNL     1      44.754 130.767  22.134  1.00  0.00     0.016 A 
ATOM     10  C   UNL     1      44.219 131.185  20.904  1.00  0.00     0.046 A 
ATOM     11  C   UNL     1      44.894 130.953  19.687  1.00  0.00     0.133 A 
ENDROOT
BRANCH   1  12
ATOM     12  C   UNL     1      44.946 131.114  17.164  1.00  0.00     0.089 A 
ATOM     13  C   UNL     1      46.156 130.651  14.697  1.00  0.00     0.179 A 
ATOM     14  C   UNL     1      46.812 130.268  15.875  1.00  0.00     0.075 A 
ATOM     15  N   UNL     1      44.945 131.275  14.772  1.00  0.00    -0.183 N 
ATOM     16  C   UNL     1      46.203 130.500  17.107  1.00  0.00     0.025 A 
ATOM     17  C   UNL     1      44.333 131.511  15.965  1.00  0.00     0.366 A 
ATOM     18  C   UNL     1      46.816 130.441  13.367  1.00  0.00     0.123 C 
ATOM     19  H   UNL     1      44.468 131.588  13.895  1.00  0.00     0.456 HD
ATOM     20  F   UNL     1      43.135 132.149  15.987  1.00  0.00    -0.136 F 
ENDBRANCH   1  12
BRANCH  11  21
ATOM     21  O   UNL     1      46.144 130.325  19.709  1.00  0.00    -0.507 OA
ATOM     22  H   UNL     1      47.012 130.827  19.848  1.00  0.00     0.293 HD
ENDBRANCH  11  21
TORSDOF 2
ENDMDL


