MODEL 1
REMARK VINA RESULT:     -10.7      0.000      0.000
REMARK SMILES Fc1cc(F)c(-c2ccc3cc[nH]c3c2)c(F)c1F
REMARK SMILES IDX 7 1 8 2 9 3 10 4 11 5 12 6 13 7 14 8 15 9 6 11 2 12 3 13
REMARK SMILES IDX 18 14 4 15 16 16 1 17 19 18 5 19 17 20
REMARK H PARENT 13 10
ROOT
ATOM      1  C   UNL     1      45.438 131.283  16.938  1.00  0.00    -0.010 A 
ATOM      2  C   UNL     1      45.599 132.413  16.094  1.00  0.00     0.010 A 
ATOM      3  C   UNL     1      46.318 132.315  14.889  1.00  0.00     0.011 A 
ATOM      4  C   UNL     1      46.864 131.079  14.558  1.00  0.00    -0.001 A 
ATOM      5  C   UNL     1      47.605 130.689  13.462  1.00  0.00     0.028 A 
ATOM      6  C   UNL     1      47.872 129.339  13.668  1.00  0.00     0.083 A 
ATOM      7  N   UNL     1      47.329 128.913  14.831  1.00  0.00    -0.361 N 
ATOM      8  C   UNL     1      46.717 129.983  15.364  1.00  0.00     0.046 A 
ATOM      9  C   UNL     1      46.010 130.044  16.563  1.00  0.00     0.035 A 
ATOM     10  H   UNL     1      47.375 127.949  15.229  1.00  0.00     0.166 HD
ENDROOT
BRANCH   1  11
ATOM     11  C   UNL     1      44.677 131.399  18.204  1.00  0.00     0.057 A 
ATOM     12  C   UNL     1      43.235 131.619  20.607  1.00  0.00     0.164 A 
ATOM     13  C   UNL     1      44.573 131.221  20.629  1.00  0.00     0.082 A 
ATOM     14  C   UNL     1      42.611 131.907  19.389  1.00  0.00     0.195 A 
ATOM     15  C   UNL     1      45.295 131.110  19.437  1.00  0.00     0.137 A 
ATOM     16  C   UNL     1      43.326 131.799  18.191  1.00  0.00     0.172 A 
ATOM     17  F   UNL     1      42.541 131.724  21.767  1.00  0.00    -0.204 F 
ATOM     18  F   UNL     1      41.309 132.286  19.370  1.00  0.00    -0.200 F 
ATOM     19  F   UNL     1      46.603 130.751  19.491  1.00  0.00    -0.206 F 
ATOM     20  F   UNL     1      42.692 132.055  17.019  1.00  0.00    -0.203 F 
ENDBRANCH   1  11
TORSDOF 1
ENDMDL
MODEL 2
REMARK VINA RESULT:     -10.6      0.657      2.223
REMARK SMILES Fc1cc(F)c(-c2ccc3cc[nH]c3c2)c(F)c1F
REMARK SMILES IDX 7 1 8 2 9 3 10 4 11 5 12 6 13 7 14 8 15 9 6 11 2 12 3 13
REMARK SMILES IDX 18 14 4 15 16 16 1 17 19 18 5 19 17 20
REMARK H PARENT 13 10
ROOT
ATOM      1  C   UNL     1      45.374 131.279  17.083  1.00  0.00    -0.010 A 
ATOM      2  C   UNL     1      45.506 132.416  16.245  1.00  0.00     0.010 A 
ATOM      3  C   UNL     1      46.209 132.337  15.029  1.00  0.00     0.011 A 
ATOM      4  C   UNL     1      46.768 131.112  14.681  1.00  0.00    -0.001 A 
ATOM      5  C   UNL     1      47.497 130.740  13.572  1.00  0.00     0.028 A 
ATOM      6  C   UNL     1      47.787 129.392  13.764  1.00  0.00     0.083 A 
ATOM      7  N   UNL     1      47.266 128.950  14.932  1.00  0.00    -0.361 N 
ATOM      8  C   UNL     1      46.648 130.008  15.482  1.00  0.00     0.046 A 
ATOM      9  C   UNL     1      45.958 130.051  16.691  1.00  0.00     0.035 A 
ATOM     10  H   UNL     1      47.333 127.984  15.322  1.00  0.00     0.166 HD
ENDROOT
BRANCH   1  11
ATOM     11  C   UNL     1      44.630 131.375  18.361  1.00  0.00     0.057 A 
ATOM     12  C   UNL     1      43.216 131.557  20.784  1.00  0.00     0.164 A 
ATOM     13  C   UNL     1      42.579 131.861  19.579  1.00  0.00     0.082 A 
ATOM     14  C   UNL     1      44.557 131.162  20.786  1.00  0.00     0.195 A 
ATOM     15  C   UNL     1      43.278 131.772  18.371  1.00  0.00     0.137 A 
ATOM     16  C   UNL     1      45.264 131.070  19.582  1.00  0.00     0.172 A 
ATOM     17  F   UNL     1      42.532 131.645  21.952  1.00  0.00    -0.204 F 
ATOM     18  F   UNL     1      45.175 130.874  21.958  1.00  0.00    -0.200 F 
ATOM     19  F   UNL     1      42.626 132.045  17.212  1.00  0.00    -0.206 F 
ATOM     20  F   UNL     1      46.573 130.713  19.611  1.00  0.00    -0.203 F 
ENDBRANCH   1  11
TORSDOF 1
ENDMDL
MODEL 3
REMARK VINA RESULT:     -10.5      0.947      1.522
REMARK SMILES Fc1cc(F)c(-c2ccc3cc[nH]c3c2)c(F)c1F
REMARK SMILES IDX 7 1 8 2 9 3 10 4 11 5 12 6 13 7 14 8 15 9 6 11 2 12 3 13
REMARK SMILES IDX 18 14 4 15 16 16 1 17 19 18 5 19 17 20
REMARK H PARENT 13 10
ROOT
ATOM      1  C   UNL     1      45.243 130.849  16.987  1.00  0.00    -0.010 A 
ATOM      2  C   UNL     1      45.374 129.471  16.673  1.00  0.00     0.010 A 
ATOM      3  C   UNL     1      46.077 129.058  15.526  1.00  0.00     0.011 A 
ATOM      4  C   UNL     1      46.634 130.043  14.717  1.00  0.00    -0.001 A 
ATOM      5  C   UNL     1      47.364 129.941  13.552  1.00  0.00     0.028 A 
ATOM      6  C   UNL     1      47.656 131.253  13.191  1.00  0.00     0.083 A 
ATOM      7  N   UNL     1      47.134 132.124  14.084  1.00  0.00    -0.361 N 
ATOM      8  C   UNL     1      46.512 131.374  15.009  1.00  0.00     0.046 A 
ATOM      9  C   UNL     1      45.825 131.818  16.137  1.00  0.00     0.035 A 
ATOM     10  H   UNL     1      47.202 133.166  14.058  1.00  0.00     0.166 HD
ENDROOT
BRANCH   1  11
ATOM     11  C   UNL     1      44.501 131.271  18.199  1.00  0.00     0.057 A 
ATOM     12  C   UNL     1      43.096 132.072  20.498  1.00  0.00     0.164 A 
ATOM     13  C   UNL     1      44.381 131.540  20.615  1.00  0.00     0.082 A 
ATOM     14  C   UNL     1      42.506 132.206  19.237  1.00  0.00     0.195 A 
ATOM     15  C   UNL     1      45.085 131.140  19.475  1.00  0.00     0.137 A 
ATOM     16  C   UNL     1      43.203 131.808  18.090  1.00  0.00     0.172 A 
ATOM     17  F   UNL     1      42.419 132.458  21.608  1.00  0.00    -0.204 F 
ATOM     18  F   UNL     1      41.254 132.716  19.127  1.00  0.00    -0.200 F 
ATOM     19  F   UNL     1      46.344 130.655  19.615  1.00  0.00    -0.206 F 
ATOM     20  F   UNL     1      42.599 131.920  16.880  1.00  0.00    -0.203 F 
ENDBRANCH   1  11
TORSDOF 1
ENDMDL
MODEL 4
REMARK VINA RESULT:     -10.5      1.099      2.643
REMARK SMILES Fc1cc(F)c(-c2ccc3cc[nH]c3c2)c(F)c1F
REMARK SMILES IDX 7 1 8 2 9 3 10 4 11 5 12 6 13 7 14 8 15 9 6 11 2 12 3 13
REMARK SMILES IDX 18 14 4 15 16 16 1 17 19 18 5 19 17 20
REMARK H PARENT 13 10
ROOT
ATOM      1  C   UNL     1      45.165 130.896  16.979  1.00  0.00    -0.010 A 
ATOM      2  C   UNL     1      45.313 129.514  16.693  1.00  0.00     0.010 A 
ATOM      3  C   UNL     1      46.044 129.085  15.570  1.00  0.00     0.011 A 
ATOM      4  C   UNL     1      46.611 130.059  14.754  1.00  0.00    -0.001 A 
ATOM      5  C   UNL     1      47.367 129.941  13.607  1.00  0.00     0.028 A 
ATOM      6  C   UNL     1      47.658 131.248  13.229  1.00  0.00     0.083 A 
ATOM      7  N   UNL     1      47.110 132.132  14.094  1.00  0.00    -0.361 N 
ATOM      8  C   UNL     1      46.474 131.394  15.019  1.00  0.00     0.046 A 
ATOM      9  C   UNL     1      45.759 131.854  16.123  1.00  0.00     0.035 A 
ATOM     10  H   UNL     1      47.172 133.173  14.050  1.00  0.00     0.166 HD
ENDROOT
BRANCH   1  11
ATOM     11  C   UNL     1      44.394 131.335  18.165  1.00  0.00     0.057 A 
ATOM     12  C   UNL     1      42.929 132.167  20.416  1.00  0.00     0.164 A 
ATOM     13  C   UNL     1      42.371 132.274  19.140  1.00  0.00     0.082 A 
ATOM     14  C   UNL     1      44.217 131.647  20.574  1.00  0.00     0.195 A 
ATOM     15  C   UNL     1      43.095 131.862  18.018  1.00  0.00     0.137 A 
ATOM     16  C   UNL     1      44.950 131.232  19.456  1.00  0.00     0.172 A 
ATOM     17  F   UNL     1      42.221 132.569  21.500  1.00  0.00    -0.204 F 
ATOM     18  F   UNL     1      44.760 131.551  21.814  1.00  0.00    -0.200 F 
ATOM     19  F   UNL     1      42.517 131.949  16.793  1.00  0.00    -0.206 F 
ATOM     20  F   UNL     1      46.209 130.758  19.632  1.00  0.00    -0.203 F 
ENDBRANCH   1  11
TORSDOF 1
ENDMDL
MODEL 5
REMARK VINA RESULT:     -10.0      1.032      1.092
REMARK SMILES Fc1cc(F)c(-c2ccc3cc[nH]c3c2)c(F)c1F
REMARK SMILES IDX 7 1 8 2 9 3 10 4 11 5 12 6 13 7 14 8 15 9 6 11 2 12 3 13
REMARK SMILES IDX 18 14 4 15 16 16 1 17 19 18 5 19 17 20
REMARK H PARENT 13 10
ROOT
ATOM      1  C   UNL     1      44.697 131.257  17.446  1.00  0.00    -0.010 A 
ATOM      2  C   UNL     1      43.998 131.759  16.317  1.00  0.00     0.010 A 
ATOM      3  C   UNL     1      44.478 131.535  15.014  1.00  0.00     0.011 A 
ATOM      4  C   UNL     1      45.656 130.810  14.872  1.00  0.00    -0.001 A 
ATOM      5  C   UNL     1      46.353 130.440  13.742  1.00  0.00     0.028 A 
ATOM      6  C   UNL     1      47.451 129.726  14.210  1.00  0.00     0.083 A 
ATOM      7  N   UNL     1      47.439 129.656  15.561  1.00  0.00    -0.361 N 
ATOM      8  C   UNL     1      46.340 130.321  15.953  1.00  0.00     0.046 A 
ATOM      9  C   UNL     1      45.892 130.523  17.257  1.00  0.00     0.035 A 
ATOM     10  H   UNL     1      48.141 129.181  16.171  1.00  0.00     0.166 HD
ENDROOT
BRANCH   1  11
ATOM     11  C   UNL     1      44.181 131.499  18.813  1.00  0.00     0.057 A 
ATOM     12  C   UNL     1      43.202 131.957  21.409  1.00  0.00     0.164 A 
ATOM     13  C   UNL     1      44.446 131.348  21.228  1.00  0.00     0.082 A 
ATOM     14  C   UNL     1      42.443 132.338  20.298  1.00  0.00     0.195 A 
ATOM     15  C   UNL     1      44.937 131.118  19.940  1.00  0.00     0.137 A 
ATOM     16  C   UNL     1      42.926 132.112  19.005  1.00  0.00     0.172 A 
ATOM     17  F   UNL     1      42.732 132.177  22.661  1.00  0.00    -0.204 F 
ATOM     18  F   UNL     1      41.231 132.922  20.476  1.00  0.00    -0.200 F 
ATOM     19  F   UNL     1      46.162 130.552  19.794  1.00  0.00    -0.206 F 
ATOM     20  F   UNL     1      42.158 132.463  17.942  1.00  0.00    -0.203 F 
ENDBRANCH   1  11
TORSDOF 1
ENDMDL
MODEL 6
REMARK VINA RESULT:      -9.9      3.157      6.298
REMARK SMILES Fc1cc(F)c(-c2ccc3cc[nH]c3c2)c(F)c1F
REMARK SMILES IDX 7 1 8 2 9 3 10 4 11 5 12 6 13 7 14 8 15 9 6 11 2 12 3 13
REMARK SMILES IDX 18 14 4 15 16 16 1 17 19 18 5 19 17 20
REMARK H PARENT 13 10
ROOT
ATOM      1  C   UNL     1      44.975 131.136  17.278  1.00  0.00    -0.010 A 
ATOM      2  C   UNL     1      45.516 130.972  18.580  1.00  0.00     0.010 A 
ATOM      3  C   UNL     1      44.780 131.347  19.718  1.00  0.00     0.011 A 
ATOM      4  C   UNL     1      43.511 131.883  19.523  1.00  0.00    -0.001 A 
ATOM      5  C   UNL     1      42.576 132.330  20.431  1.00  0.00     0.028 A 
ATOM      6  C   UNL     1      41.496 132.752  19.661  1.00  0.00     0.083 A 
ATOM      7  N   UNL     1      41.747 132.576  18.344  1.00  0.00    -0.361 N 
ATOM      8  C   UNL     1      42.979 132.046  18.273  1.00  0.00     0.046 A 
ATOM      9  C   UNL     1      43.680 131.684  17.124  1.00  0.00     0.035 A 
ATOM     10  H   UNL     1      41.111 132.806  17.548  1.00  0.00     0.166 HD
ENDROOT
BRANCH   1  11
ATOM     11  C   UNL     1      45.760 130.736  16.087  1.00  0.00     0.057 A 
ATOM     12  C   UNL     1      47.248 129.974  13.826  1.00  0.00     0.164 A 
ATOM     13  C   UNL     1      46.607 129.004  14.600  1.00  0.00     0.082 A 
ATOM     14  C   UNL     1      47.151 131.324  14.176  1.00  0.00     0.195 A 
ATOM     15  C   UNL     1      45.866 129.377  15.725  1.00  0.00     0.137 A 
ATOM     16  C   UNL     1      46.411 131.707  15.301  1.00  0.00     0.172 A 
ATOM     17  F   UNL     1      47.966 129.605  12.737  1.00  0.00    -0.204 F 
ATOM     18  F   UNL     1      47.781 132.264  13.427  1.00  0.00    -0.200 F 
ATOM     19  F   UNL     1      45.228 128.417  16.441  1.00  0.00    -0.206 F 
ATOM     20  F   UNL     1      46.355 133.021  15.638  1.00  0.00    -0.203 F 
ENDBRANCH   1  11
TORSDOF 1
ENDMDL
MODEL 7
REMARK VINA RESULT:      -9.6      3.090      6.212
REMARK SMILES Fc1cc(F)c(-c2ccc3cc[nH]c3c2)c(F)c1F
REMARK SMILES IDX 7 1 8 2 9 3 10 4 11 5 12 6 13 7 14 8 15 9 6 11 2 12 3 13
REMARK SMILES IDX 18 14 4 15 16 16 1 17 19 18 5 19 17 20
REMARK H PARENT 13 10
ROOT
ATOM      1  C   UNL     1      44.818 131.113  17.131  1.00  0.00    -0.010 A 
ATOM      2  C   UNL     1      43.506 131.606  16.907  1.00  0.00     0.010 A 
ATOM      3  C   UNL     1      42.681 131.975  17.986  1.00  0.00     0.011 A 
ATOM      4  C   UNL     1      43.195 131.840  19.271  1.00  0.00    -0.001 A 
ATOM      5  C   UNL     1      42.630 132.117  20.498  1.00  0.00     0.028 A 
ATOM      6  C   UNL     1      43.609 131.789  21.430  1.00  0.00     0.083 A 
ATOM      7  N   UNL     1      44.724 131.330  20.816  1.00  0.00    -0.361 N 
ATOM      8  C   UNL     1      44.458 131.366  19.500  1.00  0.00     0.046 A 
ATOM      9  C   UNL     1      45.302 130.992  18.455  1.00  0.00     0.035 A 
ATOM     10  H   UNL     1      45.608 131.015  21.274  1.00  0.00     0.166 HD
ENDROOT
BRANCH   1  11
ATOM     11  C   UNL     1      45.677 130.729  15.987  1.00  0.00     0.057 A 
ATOM     12  C   UNL     1      47.307 129.998  13.816  1.00  0.00     0.164 A 
ATOM     13  C   UNL     1      46.622 129.017  14.537  1.00  0.00     0.082 A 
ATOM     14  C   UNL     1      47.183 131.344  14.174  1.00  0.00     0.195 A 
ATOM     15  C   UNL     1      45.811 129.376  15.617  1.00  0.00     0.137 A 
ATOM     16  C   UNL     1      46.373 131.712  15.254  1.00  0.00     0.172 A 
ATOM     17  F   UNL     1      48.092 129.644  12.769  1.00  0.00    -0.204 F 
ATOM     18  F   UNL     1      47.854 132.294  13.476  1.00  0.00    -0.200 F 
ATOM     19  F   UNL     1      45.133 128.405  16.282  1.00  0.00    -0.206 F 
ATOM     20  F   UNL     1      46.291 133.021  15.602  1.00  0.00    -0.203 F 
ENDBRANCH   1  11
TORSDOF 1
ENDMDL
MODEL 8
REMARK VINA RESULT:      -9.3      3.086      6.379
REMARK SMILES Fc1cc(F)c(-c2ccc3cc[nH]c3c2)c(F)c1F
REMARK SMILES IDX 7 1 8 2 9 3 10 4 11 5 12 6 13 7 14 8 15 9 6 11 2 12 3 13
REMARK SMILES IDX 18 14 4 15 16 16 1 17 19 18 5 19 17 20
REMARK H PARENT 13 10
ROOT
ATOM      1  C   UNL     1      45.067 131.293  17.322  1.00  0.00    -0.010 A 
ATOM      2  C   UNL     1      45.618 131.062  18.610  1.00  0.00     0.010 A 
ATOM      3  C   UNL     1      44.871 131.333  19.771  1.00  0.00     0.011 A 
ATOM      4  C   UNL     1      43.583 131.834  19.613  1.00  0.00    -0.001 A 
ATOM      5  C   UNL     1      42.635 132.186  20.549  1.00  0.00     0.028 A 
ATOM      6  C   UNL     1      41.538 132.618  19.810  1.00  0.00     0.083 A 
ATOM      7  N   UNL     1      41.792 132.541  18.483  1.00  0.00    -0.361 N 
ATOM      8  C   UNL     1      43.042 132.061  18.376  1.00  0.00     0.046 A 
ATOM      9  C   UNL     1      43.753 131.803  17.206  1.00  0.00     0.035 A 
ATOM     10  H   UNL     1      41.146 132.800  17.705  1.00  0.00     0.166 HD
ENDROOT
BRANCH   1  11
ATOM     11  C   UNL     1      45.863 131.002  16.107  1.00  0.00     0.057 A 
ATOM     12  C   UNL     1      47.374 130.453  13.800  1.00  0.00     0.164 A 
ATOM     13  C   UNL     1      47.064 131.773  14.134  1.00  0.00     0.082 A 
ATOM     14  C   UNL     1      46.932 129.404  14.612  1.00  0.00     0.195 A 
ATOM     15  C   UNL     1      46.313 132.052  15.280  1.00  0.00     0.137 A 
ATOM     16  C   UNL     1      46.180 129.673  15.761  1.00  0.00     0.172 A 
ATOM     17  F   UNL     1      48.102 130.189  12.687  1.00  0.00    -0.204 F 
ATOM     18  F   UNL     1      47.228 128.122  14.282  1.00  0.00    -0.200 F 
ATOM     19  F   UNL     1      46.052 133.345  15.597  1.00  0.00    -0.206 F 
ATOM     20  F   UNL     1      45.737 128.638  16.518  1.00  0.00    -0.203 F 
ENDBRANCH   1  11
TORSDOF 1
ENDMDL
MODEL 9
REMARK VINA RESULT:      -9.2      2.950      6.251
REMARK SMILES Fc1cc(F)c(-c2ccc3cc[nH]c3c2)c(F)c1F
REMARK SMILES IDX 7 1 8 2 9 3 10 4 11 5 12 6 13 7 14 8 15 9 6 11 2 12 3 13
REMARK SMILES IDX 18 14 4 15 16 16 1 17 19 18 5 19 17 20
REMARK H PARENT 13 10
ROOT
ATOM      1  C   UNL     1      44.943 131.254  17.598  1.00  0.00    -0.010 A 
ATOM      2  C   UNL     1      43.581 131.650  17.546  1.00  0.00     0.010 A 
ATOM      3  C   UNL     1      42.841 131.842  18.728  1.00  0.00     0.011 A 
ATOM      4  C   UNL     1      43.489 131.631  19.940  1.00  0.00    -0.001 A 
ATOM      5  C   UNL     1      43.029 131.740  21.235  1.00  0.00     0.028 A 
ATOM      6  C   UNL     1      44.118 131.411  22.036  1.00  0.00     0.083 A 
ATOM      7  N   UNL     1      45.198 131.111  21.279  1.00  0.00    -0.361 N 
ATOM      8  C   UNL     1      44.801 131.248  20.003  1.00  0.00     0.046 A 
ATOM      9  C   UNL     1      45.563 131.050  18.853  1.00  0.00     0.035 A 
ATOM     10  H   UNL     1      46.145 130.831  21.619  1.00  0.00     0.166 HD
ENDROOT
BRANCH   1  11
ATOM     11  C   UNL     1      45.711 131.056  16.347  1.00  0.00     0.057 A 
ATOM     12  C   UNL     1      47.171 130.683  13.973  1.00  0.00     0.164 A 
ATOM     13  C   UNL     1      46.850 131.973  14.401  1.00  0.00     0.082 A 
ATOM     14  C   UNL     1      46.765 129.576  14.725  1.00  0.00     0.195 A 
ATOM     15  C   UNL     1      46.125 132.164  15.581  1.00  0.00     0.137 A 
ATOM     16  C   UNL     1      46.038 129.758  15.908  1.00  0.00     0.172 A 
ATOM     17  F   UNL     1      47.874 130.505  12.828  1.00  0.00    -0.204 F 
ATOM     18  F   UNL     1      47.071 128.324  14.304  1.00  0.00    -0.200 F 
ATOM     19  F   UNL     1      45.854 133.430  15.989  1.00  0.00    -0.206 F 
ATOM     20  F   UNL     1      45.630 128.668  16.605  1.00  0.00    -0.203 F 
ENDBRANCH   1  11
TORSDOF 1
ENDMDL


