REMARK SMILES CC(=O)c1ccc(-c2ccc([O-])cc2)c2c[nH]nc12
REMARK SMILES IDX 4 1 5 2 6 3 7 4 15 5 16 6 17 7 18 8 19 9 2 11 1 12 3 13 8 14
REMARK SMILES IDX 9 15 14 16 10 17 13 18 11 19 12 20
REMARK H PARENT 17 10
ROOT
ATOM      1  C   UNL     1       1.872  -0.636  -0.755  1.00  0.00     0.045 A 
ATOM      2  C   UNL     1       1.438   0.684  -0.481  1.00  0.00     0.015 A 
ATOM      3  C   UNL     1       0.067   1.017  -0.488  1.00  0.00     0.010 A 
ATOM      4  C   UNL     1      -0.916   0.043  -0.761  1.00  0.00    -0.007 A 
ATOM      5  C   UNL     1      -0.462  -1.254  -1.034  1.00  0.00     0.028 A 
ATOM      6  C   UNL     1      -1.121  -2.413  -1.385  1.00  0.00     0.114 A 
ATOM      7  N   UNL     1      -0.189  -3.373  -1.564  1.00  0.00    -0.284 N 
ATOM      8  N   UNL     1       1.026  -2.879  -1.355  1.00  0.00    -0.175 NA
ATOM      9  C   UNL     1       0.871  -1.581  -1.032  1.00  0.00     0.103 A 
ATOM     10  H   UNL     1      -0.378  -4.362  -1.838  1.00  0.00     0.189 HD
ENDROOT
BRANCH   1  11
ATOM     11  C   UNL     1       3.316  -1.000  -0.756  1.00  0.00     0.162 C 
ATOM     12  C   UNL     1       4.385   0.016  -0.488  1.00  0.00     0.093 C 
ATOM     13  O   UNL     1       3.666  -2.190  -0.984  1.00  0.00    -0.294 OA
ENDBRANCH   1  11
BRANCH   4  14
ATOM     14  C   UNL     1      -2.355   0.395  -0.756  1.00  0.00    -0.018 A 
ATOM     15  C   UNL     1      -2.807   1.535  -1.444  1.00  0.00     0.008 A 
ATOM     16  C   UNL     1      -3.281  -0.387  -0.044  1.00  0.00     0.008 A 
ATOM     17  C   UNL     1      -4.163   1.875  -1.433  1.00  0.00    -0.008 A 
ATOM     18  C   UNL     1      -4.637  -0.043  -0.034  1.00  0.00    -0.008 A 
ATOM     19  C   UNL     1      -5.078   1.087  -0.730  1.00  0.00    -0.109 A 
ATOM     20  O   UNL     1      -6.426   1.426  -0.720  1.00  0.00    -0.872 OA
ENDBRANCH   4  14
TORSDOF 2


