MODEL 1
REMARK VINA RESULT:      -8.7      0.000      0.000
REMARK SMILES C[NH2+]/C=C(\O)N1CCC[C@H](Cc2cc3ccccc3[nH]2)C1
REMARK SMILES IDX 6 1 7 2 8 3 9 4 10 5 21 6 4 7 5 8 3 10 2 11 1 14 11 15 12 16
REMARK SMILES IDX 13 17 20 18 14 19 19 20 15 21 18 22 16 23 17 24
REMARK H PARENT 5 9 2 12 2 13 20 25
ROOT
ATOM      1  N   UNL     1      43.814 131.623  21.152  1.00  0.00    -0.338 N 
ATOM      2  C   UNL     1      45.233 131.523  21.508  1.00  0.00     0.120 C 
ATOM      3  C   UNL     1      45.979 130.683  20.467  1.00  0.00     0.022 C 
ATOM      4  C   UNL     1      45.712 131.201  19.048  1.00  0.00     0.007 C 
ATOM      5  C   UNL     1      44.200 131.229  18.747  1.00  0.00     0.014 C 
ATOM      6  C   UNL     1      43.474 132.089  19.801  1.00  0.00     0.123 C 
ENDROOT
BRANCH   1   7
ATOM      7  C   UNL     1      42.814 131.594  22.186  1.00  0.00     0.242 C 
BRANCH   7   8
ATOM      8  O   UNL     1      41.727 132.467  22.129  1.00  0.00    -0.491 OA
ATOM      9  H   UNL     1      41.828 133.415  21.787  1.00  0.00     0.295 HD
ENDBRANCH   7   8
BRANCH   7  10
ATOM     10  C   UNL     1      42.925 130.743  23.214  1.00  0.00     0.286 C 
BRANCH  10  11
ATOM     11  N   UNL     1      42.250 129.471  23.204  1.00  0.00    -0.318 N 
ATOM     12  H   UNL     1      42.961 128.703  23.188  1.00  0.00     0.351 HD
ATOM     13  H   UNL     1      41.643 129.408  22.355  1.00  0.00     0.351 HD
ATOM     14  C   UNL     1      41.414 129.314  24.396  1.00  0.00     0.336 C 
ENDBRANCH  10  11
ENDBRANCH   7  10
ENDBRANCH   1   7
BRANCH   5  15
ATOM     15  C   UNL     1      43.950 131.751  17.317  1.00  0.00     0.059 C 
BRANCH  15  16
ATOM     16  C   UNL     1      45.029 131.311  16.371  1.00  0.00     0.016 A 
ATOM     17  C   UNL     1      45.552 130.022  16.297  1.00  0.00     0.031 A 
ATOM     18  N   UNL     1      45.557 132.108  15.412  1.00  0.00    -0.358 N 
ATOM     19  C   UNL     1      46.440 130.061  15.245  1.00  0.00    -0.000 A 
ATOM     20  C   UNL     1      46.419 131.333  14.734  1.00  0.00     0.046 A 
ATOM     21  C   UNL     1      47.244 129.063  14.701  1.00  0.00     0.010 A 
ATOM     22  C   UNL     1      47.200 131.694  13.637  1.00  0.00     0.026 A 
ATOM     23  C   UNL     1      48.048 129.399  13.595  1.00  0.00     0.001 A 
ATOM     24  C   UNL     1      48.026 130.708  13.065  1.00  0.00     0.002 A 
ATOM     25  H   UNL     1      45.326 133.109  15.223  1.00  0.00     0.166 HD
ENDBRANCH  15  16
ENDBRANCH   5  15
TORSDOF 6
ENDMDL
MODEL 2
REMARK VINA RESULT:      -8.3      0.943      1.477
REMARK SMILES C[NH2+]/C=C(\O)N1CCC[C@H](Cc2cc3ccccc3[nH]2)C1
REMARK SMILES IDX 6 1 7 2 8 3 9 4 10 5 21 6 4 7 5 8 3 10 2 11 1 14 11 15 12 16
REMARK SMILES IDX 13 17 20 18 14 19 19 20 15 21 18 22 16 23 17 24
REMARK H PARENT 5 9 2 12 2 13 20 25
ROOT
ATOM      1  N   UNL     1      43.587 131.840  20.589  1.00  0.00    -0.338 N 
ATOM      2  C   UNL     1      45.016 131.705  20.886  1.00  0.00     0.120 C 
ATOM      3  C   UNL     1      45.665 130.714  19.915  1.00  0.00     0.022 C 
ATOM      4  C   UNL     1      45.347 131.080  18.460  1.00  0.00     0.007 C 
ATOM      5  C   UNL     1      43.824 131.154  18.230  1.00  0.00     0.014 C 
ATOM      6  C   UNL     1      43.197 132.166  19.210  1.00  0.00     0.123 C 
ENDROOT
BRANCH   1   7
ATOM      7  C   UNL     1      42.643 131.983  21.666  1.00  0.00     0.242 C 
BRANCH   7   8
ATOM      8  O   UNL     1      41.399 132.568  21.429  1.00  0.00    -0.491 OA
ATOM      9  H   UNL     1      40.895 132.408  20.566  1.00  0.00     0.295 HD
ENDBRANCH   7   8
BRANCH   7  10
ATOM     10  C   UNL     1      42.955 131.570  22.901  1.00  0.00     0.286 C 
BRANCH  10  11
ATOM     11  N   UNL     1      42.324 130.412  23.480  1.00  0.00    -0.318 N 
ATOM     12  H   UNL     1      41.344 130.337  23.123  1.00  0.00     0.351 HD
ATOM     13  H   UNL     1      42.315 130.507  24.522  1.00  0.00     0.351 HD
ATOM     14  C   UNL     1      43.049 129.190  23.125  1.00  0.00     0.336 C 
ENDBRANCH  10  11
ENDBRANCH   7  10
ENDBRANCH   1   7
BRANCH   5  15
ATOM     15  C   UNL     1      43.523 131.523  16.763  1.00  0.00     0.059 C 
BRANCH  15  16
ATOM     16  C   UNL     1      44.646 131.124  15.851  1.00  0.00     0.016 A 
ATOM     17  C   UNL     1      45.316 131.984  14.984  1.00  0.00     0.031 A 
ATOM     18  N   UNL     1      45.198 129.888  15.838  1.00  0.00    -0.358 N 
ATOM     19  C   UNL     1      46.311 131.213  14.422  1.00  0.00    -0.000 A 
ATOM     20  C   UNL     1      46.212 129.956  14.959  1.00  0.00     0.046 A 
ATOM     21  C   UNL     1      47.298 131.543  13.496  1.00  0.00     0.010 A 
ATOM     22  C   UNL     1      47.098 128.939  14.608  1.00  0.00     0.026 A 
ATOM     23  C   UNL     1      48.204 130.534  13.118  1.00  0.00     0.001 A 
ATOM     24  C   UNL     1      48.105 129.238  13.671  1.00  0.00     0.002 A 
ATOM     25  H   UNL     1      44.913 129.061  16.408  1.00  0.00     0.166 HD
ENDBRANCH  15  16
ENDBRANCH   5  15
TORSDOF 6
ENDMDL
MODEL 3
REMARK VINA RESULT:      -7.5      1.165      1.347
REMARK SMILES C[NH2+]/C=C(\O)N1CCC[C@H](Cc2cc3ccccc3[nH]2)C1
REMARK SMILES IDX 6 1 7 2 8 3 9 4 10 5 21 6 4 7 5 8 3 10 2 11 1 14 11 15 12 16
REMARK SMILES IDX 13 17 20 18 14 19 19 20 15 21 18 22 16 23 17 24
REMARK H PARENT 5 9 2 12 2 13 20 25
ROOT
ATOM      1  N   UNL     1      43.374 131.406  22.148  1.00  0.00    -0.338 N 
ATOM      2  C   UNL     1      44.713 131.873  22.521  1.00  0.00     0.120 C 
ATOM      3  C   UNL     1      45.720 131.512  21.426  1.00  0.00     0.022 C 
ATOM      4  C   UNL     1      45.236 131.991  20.052  1.00  0.00     0.007 C 
ATOM      5  C   UNL     1      43.844 131.415  19.726  1.00  0.00     0.014 C 
ATOM      6  C   UNL     1      42.846 131.802  20.836  1.00  0.00     0.123 C 
ENDROOT
BRANCH   1   7
ATOM      7  C   UNL     1      42.495 130.876  23.157  1.00  0.00     0.242 C 
BRANCH   7   8
ATOM      8  O   UNL     1      41.524 131.693  23.734  1.00  0.00    -0.491 OA
ATOM      9  H   UNL     1      40.749 132.058  23.193  1.00  0.00     0.295 HD
ENDBRANCH   7   8
BRANCH   7  10
ATOM     10  C   UNL     1      42.612 129.603  23.559  1.00  0.00     0.286 C 
BRANCH  10  11
ATOM     11  N   UNL     1      41.460 128.745  23.654  1.00  0.00    -0.318 N 
ATOM     12  H   UNL     1      40.919 128.790  22.759  1.00  0.00     0.351 HD
ATOM     13  H   UNL     1      40.856 129.061  24.448  1.00  0.00     0.351 HD
ATOM     14  C   UNL     1      41.862 127.357  23.892  1.00  0.00     0.336 C 
ENDBRANCH  10  11
ENDBRANCH   7  10
ENDBRANCH   1   7
BRANCH   5  15
ATOM     15  C   UNL     1      43.373 131.907  18.342  1.00  0.00     0.059 C 
BRANCH  15  16
ATOM     16  C   UNL     1      44.343 131.528  17.261  1.00  0.00     0.016 A 
ATOM     17  C   UNL     1      45.401 130.635  17.413  1.00  0.00     0.031 A 
ATOM     18  N   UNL     1      44.240 131.950  15.979  1.00  0.00    -0.358 N 
ATOM     19  C   UNL     1      45.957 130.530  16.157  1.00  0.00    -0.000 A 
ATOM     20  C   UNL     1      45.233 131.335  15.316  1.00  0.00     0.046 A 
ATOM     21  C   UNL     1      47.033 129.770  15.703  1.00  0.00     0.010 A 
ATOM     22  C   UNL     1      45.534 131.434  13.959  1.00  0.00     0.026 A 
ATOM     23  C   UNL     1      47.364 129.853  14.338  1.00  0.00     0.001 A 
ATOM     24  C   UNL     1      46.618 130.681  13.469  1.00  0.00     0.002 A 
ATOM     25  H   UNL     1      43.524 132.599  15.581  1.00  0.00     0.166 HD
ENDBRANCH  15  16
ENDBRANCH   5  15
TORSDOF 6
ENDMDL
MODEL 4
REMARK VINA RESULT:      -7.1      2.504      8.152
REMARK SMILES C[NH2+]/C=C(\O)N1CCC[C@H](Cc2cc3ccccc3[nH]2)C1
REMARK SMILES IDX 6 1 7 2 8 3 9 4 10 5 21 6 4 7 5 8 3 10 2 11 1 14 11 15 12 16
REMARK SMILES IDX 13 17 20 18 14 19 19 20 15 21 18 22 16 23 17 24
REMARK H PARENT 5 9 2 12 2 13 20 25
ROOT
ATOM      1  N   UNL     1      45.496 130.924  16.757  1.00  0.00    -0.338 N 
ATOM      2  C   UNL     1      44.348 131.603  16.149  1.00  0.00     0.120 C 
ATOM      3  C   UNL     1      43.142 131.543  17.089  1.00  0.00     0.022 C 
ATOM      4  C   UNL     1      43.510 132.044  18.491  1.00  0.00     0.007 C 
ATOM      5  C   UNL     1      44.695 131.245  19.069  1.00  0.00     0.014 C 
ATOM      6  C   UNL     1      45.900 131.331  18.110  1.00  0.00     0.123 C 
ENDROOT
BRANCH   1   7
ATOM      7  C   UNL     1      46.385 130.146  15.935  1.00  0.00     0.242 C 
BRANCH   7   8
ATOM      8  O   UNL     1      47.464 129.479  16.514  1.00  0.00    -0.491 OA
ATOM      9  H   UNL     1      48.412 129.624  16.188  1.00  0.00     0.295 HD
ENDBRANCH   7   8
BRANCH   7  10
ATOM     10  C   UNL     1      46.193 130.069  14.612  1.00  0.00     0.286 C 
BRANCH  10  11
ATOM     11  N   UNL     1      47.301 129.911  13.707  1.00  0.00    -0.318 N 
ATOM     12  H   UNL     1      47.006 129.315  12.899  1.00  0.00     0.351 HD
ATOM     13  H   UNL     1      48.097 129.455  14.210  1.00  0.00     0.351 HD
ATOM     14  C   UNL     1      47.747 131.209  13.196  1.00  0.00     0.336 C 
ENDBRANCH  10  11
ENDBRANCH   7  10
ENDBRANCH   1   7
BRANCH   5  15
ATOM     15  C   UNL     1      45.052 131.762  20.478  1.00  0.00     0.059 C 
BRANCH  15  16
ATOM     16  C   UNL     1      44.571 130.827  21.548  1.00  0.00     0.016 A 
ATOM     17  C   UNL     1      43.314 130.875  22.147  1.00  0.00     0.031 A 
ATOM     18  N   UNL     1      45.283 129.763  21.991  1.00  0.00    -0.358 N 
ATOM     19  C   UNL     1      43.285 129.789  22.994  1.00  0.00    -0.000 A 
ATOM     20  C   UNL     1      44.487 129.140  22.874  1.00  0.00     0.046 A 
ATOM     21  C   UNL     1      42.280 129.326  23.839  1.00  0.00     0.010 A 
ATOM     22  C   UNL     1      44.766 127.978  23.592  1.00  0.00     0.026 A 
ATOM     23  C   UNL     1      42.534 128.157  24.581  1.00  0.00     0.001 A 
ATOM     24  C   UNL     1      43.771 127.485  24.458  1.00  0.00     0.002 A 
ATOM     25  H   UNL     1      46.240 129.474  21.690  1.00  0.00     0.166 HD
ENDBRANCH  15  16
ENDBRANCH   5  15
TORSDOF 6
ENDMDL
MODEL 5
REMARK VINA RESULT:      -7.0      1.685      2.345
REMARK SMILES C[NH2+]/C=C(\O)N1CCC[C@H](Cc2cc3ccccc3[nH]2)C1
REMARK SMILES IDX 6 1 7 2 8 3 9 4 10 5 21 6 4 7 5 8 3 10 2 11 1 14 11 15 12 16
REMARK SMILES IDX 13 17 20 18 14 19 19 20 15 21 18 22 16 23 17 24
REMARK H PARENT 5 9 2 12 2 13 20 25
ROOT
ATOM      1  N   UNL     1      44.053 131.349  19.963  1.00  0.00    -0.338 N 
ATOM      2  C   UNL     1      42.795 131.676  20.641  1.00  0.00     0.120 C 
ATOM      3  C   UNL     1      42.044 132.760  19.862  1.00  0.00     0.022 C 
ATOM      4  C   UNL     1      41.893 132.372  18.385  1.00  0.00     0.007 C 
ATOM      5  C   UNL     1      43.266 132.090  17.745  1.00  0.00     0.014 C 
ATOM      6  C   UNL     1      43.996 130.989  18.540  1.00  0.00     0.123 C 
ENDROOT
BRANCH   1   7
ATOM      7  C   UNL     1      45.230 131.062  20.740  1.00  0.00     0.242 C 
BRANCH   7   8
ATOM      8  O   UNL     1      46.353 130.509  20.126  1.00  0.00    -0.491 OA
ATOM      9  H   UNL     1      46.511 129.509  20.114  1.00  0.00     0.295 HD
ENDBRANCH   7   8
BRANCH   7  10
ATOM     10  C   UNL     1      45.251 131.310  22.056  1.00  0.00     0.286 C 
BRANCH  10  11
ATOM     11  N   UNL     1      44.790 130.330  23.006  1.00  0.00    -0.318 N 
ATOM     12  H   UNL     1      45.606 129.962  23.547  1.00  0.00     0.351 HD
ATOM     13  H   UNL     1      44.323 129.546  22.495  1.00  0.00     0.351 HD
ATOM     14  C   UNL     1      43.832 130.921  23.942  1.00  0.00     0.336 C 
ENDBRANCH  10  11
ENDBRANCH   7  10
ENDBRANCH   1   7
BRANCH   5  15
ATOM     15  C   UNL     1      43.095 131.702  16.262  1.00  0.00     0.059 C 
BRANCH  15  16
ATOM     16  C   UNL     1      44.391 131.251  15.655  1.00  0.00     0.016 A 
ATOM     17  C   UNL     1      44.929 129.972  15.777  1.00  0.00     0.031 A 
ATOM     18  N   UNL     1      45.145 132.023  14.837  1.00  0.00    -0.358 N 
ATOM     19  C   UNL     1      46.064 129.991  14.997  1.00  0.00    -0.000 A 
ATOM     20  C   UNL     1      46.164 131.242  14.444  1.00  0.00     0.046 A 
ATOM     21  C   UNL     1      46.995 128.991  14.727  1.00  0.00     0.010 A 
ATOM     22  C   UNL     1      47.204 131.578  13.578  1.00  0.00     0.026 A 
ATOM     23  C   UNL     1      48.059 129.302  13.860  1.00  0.00     0.001 A 
ATOM     24  C   UNL     1      48.163 130.590  13.288  1.00  0.00     0.002 A 
ATOM     25  H   UNL     1      44.960 133.010  14.550  1.00  0.00     0.166 HD
ENDBRANCH  15  16
ENDBRANCH   5  15
TORSDOF 6
ENDMDL
MODEL 6
REMARK VINA RESULT:      -6.8      1.957      3.069
REMARK SMILES C[NH2+]/C=C(\O)N1CCC[C@H](Cc2cc3ccccc3[nH]2)C1
REMARK SMILES IDX 6 1 7 2 8 3 9 4 10 5 21 6 4 7 5 8 3 10 2 11 1 14 11 15 12 16
REMARK SMILES IDX 13 17 20 18 14 19 19 20 15 21 18 22 16 23 17 24
REMARK H PARENT 5 9 2 12 2 13 20 25
ROOT
ATOM      1  N   UNL     1      44.261 131.278  20.008  1.00  0.00    -0.338 N 
ATOM      2  C   UNL     1      43.021 131.589  20.726  1.00  0.00     0.120 C 
ATOM      3  C   UNL     1      42.256 132.698  19.999  1.00  0.00     0.022 C 
ATOM      4  C   UNL     1      42.066 132.356  18.516  1.00  0.00     0.007 C 
ATOM      5  C   UNL     1      43.423 132.090  17.834  1.00  0.00     0.014 C 
ATOM      6  C   UNL     1      44.168 130.962  18.577  1.00  0.00     0.123 C 
ENDROOT
BRANCH   1   7
ATOM      7  C   UNL     1      45.456 130.965  20.747  1.00  0.00     0.242 C 
BRANCH   7   8
ATOM      8  O   UNL     1      45.563 129.744  21.413  1.00  0.00    -0.491 OA
ATOM      9  H   UNL     1      45.842 129.695  22.386  1.00  0.00     0.295 HD
ENDBRANCH   7   8
BRANCH   7  10
ATOM     10  C   UNL     1      46.464 131.844  20.813  1.00  0.00     0.286 C 
BRANCH  10  11
ATOM     11  N   UNL     1      46.503 132.857  21.836  1.00  0.00    -0.318 N 
ATOM     12  H   UNL     1      46.407 132.404  22.775  1.00  0.00     0.351 HD
ATOM     13  H   UNL     1      45.716 133.530  21.687  1.00  0.00     0.351 HD
ATOM     14  C   UNL     1      47.768 133.592  21.795  1.00  0.00     0.336 C 
ENDBRANCH  10  11
ENDBRANCH   7  10
ENDBRANCH   1   7
BRANCH   5  15
ATOM     15  C   UNL     1      43.214 131.748  16.345  1.00  0.00     0.059 C 
BRANCH  15  16
ATOM     16  C   UNL     1      44.486 131.283  15.700  1.00  0.00     0.016 A 
ATOM     17  C   UNL     1      45.057 130.024  15.872  1.00  0.00     0.031 A 
ATOM     18  N   UNL     1      45.181 132.015  14.797  1.00  0.00    -0.358 N 
ATOM     19  C   UNL     1      46.151 130.015  15.034  1.00  0.00    -0.000 A 
ATOM     20  C   UNL     1      46.195 131.230  14.400  1.00  0.00     0.046 A 
ATOM     21  C   UNL     1      47.088 129.016  14.779  1.00  0.00     0.010 A 
ATOM     22  C   UNL     1      47.182 131.529  13.462  1.00  0.00     0.026 A 
ATOM     23  C   UNL     1      48.099 129.292  13.840  1.00  0.00     0.001 A 
ATOM     24  C   UNL     1      48.146 130.543  13.184  1.00  0.00     0.002 A 
ATOM     25  H   UNL     1      44.961 132.979  14.460  1.00  0.00     0.166 HD
ENDBRANCH  15  16
ENDBRANCH   5  15
TORSDOF 6
ENDMDL
MODEL 7
REMARK VINA RESULT:      -6.7      2.441      8.199
REMARK SMILES C[NH2+]/C=C(\O)N1CCC[C@H](Cc2cc3ccccc3[nH]2)C1
REMARK SMILES IDX 6 1 7 2 8 3 9 4 10 5 21 6 4 7 5 8 3 10 2 11 1 14 11 15 12 16
REMARK SMILES IDX 13 17 20 18 14 19 19 20 15 21 18 22 16 23 17 24
REMARK H PARENT 5 9 2 12 2 13 20 25
ROOT
ATOM      1  N   UNL     1      45.533 130.643  15.931  1.00  0.00    -0.338 N 
ATOM      2  C   UNL     1      44.553 131.723  15.779  1.00  0.00     0.120 C 
ATOM      3  C   UNL     1      43.565 131.707  16.949  1.00  0.00     0.022 C 
ATOM      4  C   UNL     1      44.304 131.700  18.293  1.00  0.00     0.007 C 
ATOM      5  C   UNL     1      45.277 130.507  18.381  1.00  0.00     0.014 C 
ATOM      6  C   UNL     1      46.267 130.553  17.200  1.00  0.00     0.123 C 
ENDROOT
BRANCH   1   7
ATOM      7  C   UNL     1      45.992 129.926  14.771  1.00  0.00     0.242 C 
BRANCH   7   8
ATOM      8  O   UNL     1      46.125 128.538  14.818  1.00  0.00    -0.491 OA
ATOM      9  H   UNL     1      45.338 127.925  14.645  1.00  0.00     0.295 HD
ENDBRANCH   7   8
BRANCH   7  10
ATOM     10  C   UNL     1      46.307 130.583  13.647  1.00  0.00     0.286 C 
BRANCH  10  11
ATOM     11  N   UNL     1      47.680 130.755  13.246  1.00  0.00    -0.318 N 
ATOM     12  H   UNL     1      48.124 131.492  13.842  1.00  0.00     0.351 HD
ATOM     13  H   UNL     1      47.714 131.045  12.242  1.00  0.00     0.351 HD
ATOM     14  C   UNL     1      48.430 129.507  13.403  1.00  0.00     0.336 C 
ENDBRANCH  10  11
ENDBRANCH   7  10
ENDBRANCH   1   7
BRANCH   5  15
ATOM     15  C   UNL     1      46.011 130.516  19.739  1.00  0.00     0.059 C 
BRANCH  15  16
ATOM     16  C   UNL     1      45.047 130.477  20.888  1.00  0.00     0.016 A 
ATOM     17  C   UNL     1      44.914 129.421  21.786  1.00  0.00     0.031 A 
ATOM     18  N   UNL     1      44.253 131.517  21.237  1.00  0.00    -0.358 N 
ATOM     19  C   UNL     1      43.988 129.855  22.708  1.00  0.00    -0.000 A 
ATOM     20  C   UNL     1      43.611 131.123  22.348  1.00  0.00     0.046 A 
ATOM     21  C   UNL     1      43.473 129.228  23.840  1.00  0.00     0.010 A 
ATOM     22  C   UNL     1      42.691 131.854  23.100  1.00  0.00     0.026 A 
ATOM     23  C   UNL     1      42.539 129.939  24.616  1.00  0.00     0.001 A 
ATOM     24  C   UNL     1      42.150 131.247  24.248  1.00  0.00     0.002 A 
ATOM     25  H   UNL     1      44.175 132.442  20.758  1.00  0.00     0.166 HD
ENDBRANCH  15  16
ENDBRANCH   5  15
TORSDOF 6
ENDMDL
MODEL 8
REMARK VINA RESULT:      -6.5      2.391      8.152
REMARK SMILES C[NH2+]/C=C(\O)N1CCC[C@H](Cc2cc3ccccc3[nH]2)C1
REMARK SMILES IDX 6 1 7 2 8 3 9 4 10 5 21 6 4 7 5 8 3 10 2 11 1 14 11 15 12 16
REMARK SMILES IDX 13 17 20 18 14 19 19 20 15 21 18 22 16 23 17 24
REMARK H PARENT 5 9 2 12 2 13 20 25
ROOT
ATOM      1  N   UNL     1      45.378 131.094  16.490  1.00  0.00    -0.338 N 
ATOM      2  C   UNL     1      44.188 131.671  15.856  1.00  0.00     0.120 C 
ATOM      3  C   UNL     1      42.970 131.499  16.767  1.00  0.00     0.022 C 
ATOM      4  C   UNL     1      43.259 132.024  18.179  1.00  0.00     0.007 C 
ATOM      5  C   UNL     1      44.497 131.331  18.783  1.00  0.00     0.014 C 
ATOM      6  C   UNL     1      45.711 131.529  17.853  1.00  0.00     0.123 C 
ENDROOT
BRANCH   1   7
ATOM      7  C   UNL     1      46.351 130.403  15.687  1.00  0.00     0.242 C 
BRANCH   7   8
ATOM      8  O   UNL     1      47.368 129.671  16.301  1.00  0.00    -0.491 OA
ATOM      9  H   UNL     1      48.169 130.127  16.721  1.00  0.00     0.295 HD
ENDBRANCH   7   8
BRANCH   7  10
ATOM     10  C   UNL     1      46.299 130.468  14.350  1.00  0.00     0.286 C 
BRANCH  10  11
ATOM     11  N   UNL     1      47.482 130.720  13.570  1.00  0.00    -0.318 N 
ATOM     12  H   UNL     1      48.068 131.440  14.053  1.00  0.00     0.351 HD
ATOM     13  H   UNL     1      47.206 131.068  12.623  1.00  0.00     0.351 HD
ATOM     14  C   UNL     1      48.274 129.499  13.412  1.00  0.00     0.336 C 
ENDBRANCH  10  11
ENDBRANCH   7  10
ENDBRANCH   1   7
BRANCH   5  15
ATOM     15  C   UNL     1      44.773 131.871  20.201  1.00  0.00     0.059 C 
BRANCH  15  16
ATOM     16  C   UNL     1      44.280 130.926  21.258  1.00  0.00     0.016 A 
ATOM     17  C   UNL     1      45.007 129.856  21.775  1.00  0.00     0.031 A 
ATOM     18  N   UNL     1      43.095 131.067  21.897  1.00  0.00    -0.358 N 
ATOM     19  C   UNL     1      44.205 129.331  22.766  1.00  0.00    -0.000 A 
ATOM     20  C   UNL     1      43.061 130.086  22.813  1.00  0.00     0.046 A 
ATOM     21  C   UNL     1      44.418 128.261  23.631  1.00  0.00     0.010 A 
ATOM     22  C   UNL     1      42.049 129.821  23.735  1.00  0.00     0.026 A 
ATOM     23  C   UNL     1      43.411 127.967  24.569  1.00  0.00     0.001 A 
ATOM     24  C   UNL     1      42.231 128.744  24.621  1.00  0.00     0.002 A 
ATOM     25  H   UNL     1      42.369 131.799  21.730  1.00  0.00     0.166 HD
ENDBRANCH  15  16
ENDBRANCH   5  15
TORSDOF 6
ENDMDL
MODEL 9
REMARK VINA RESULT:      -6.5      1.239      1.651
REMARK SMILES C[NH2+]/C=C(\O)N1CCC[C@H](Cc2cc3ccccc3[nH]2)C1
REMARK SMILES IDX 6 1 7 2 8 3 9 4 10 5 21 6 4 7 5 8 3 10 2 11 1 14 11 15 12 16
REMARK SMILES IDX 13 17 20 18 14 19 19 20 15 21 18 22 16 23 17 24
REMARK H PARENT 5 9 2 12 2 13 20 25
ROOT
ATOM      1  N   UNL     1      43.952 131.215  21.056  1.00  0.00    -0.338 N 
ATOM      2  C   UNL     1      45.364 131.023  21.400  1.00  0.00     0.120 C 
ATOM      3  C   UNL     1      46.072 130.230  20.297  1.00  0.00     0.022 C 
ATOM      4  C   UNL     1      45.831 130.864  18.922  1.00  0.00     0.007 C 
ATOM      5  C   UNL     1      44.322 130.986  18.627  1.00  0.00     0.014 C 
ATOM      6  C   UNL     1      43.636 131.797  19.744  1.00  0.00     0.123 C 
ENDROOT
BRANCH   1   7
ATOM      7  C   UNL     1      42.950 131.156  22.087  1.00  0.00     0.242 C 
BRANCH   7   8
ATOM      8  O   UNL     1      42.598 129.928  22.647  1.00  0.00    -0.491 OA
ATOM      9  H   UNL     1      42.495 129.097  22.077  1.00  0.00     0.295 HD
ENDBRANCH   7   8
BRANCH   7  10
ATOM     10  C   UNL     1      42.339 132.272  22.505  1.00  0.00     0.286 C 
BRANCH  10  11
ATOM     11  N   UNL     1      41.100 132.708  21.915  1.00  0.00    -0.318 N 
ATOM     12  H   UNL     1      40.544 133.234  22.628  1.00  0.00     0.351 HD
ATOM     13  H   UNL     1      40.558 131.874  21.590  1.00  0.00     0.351 HD
ATOM     14  C   UNL     1      41.347 133.586  20.770  1.00  0.00     0.336 C 
ENDBRANCH  10  11
ENDBRANCH   7  10
ENDBRANCH   1   7
BRANCH   5  15
ATOM     15  C   UNL     1      44.099 131.625  17.241  1.00  0.00     0.059 C 
BRANCH  15  16
ATOM     16  C   UNL     1      45.176 131.234  16.272  1.00  0.00     0.016 A 
ATOM     17  C   UNL     1      45.733 129.962  16.166  1.00  0.00     0.031 A 
ATOM     18  N   UNL     1      45.667 132.064  15.321  1.00  0.00    -0.358 N 
ATOM     19  C   UNL     1      46.605 130.046  15.102  1.00  0.00    -0.000 A 
ATOM     20  C   UNL     1      46.540 131.326  14.616  1.00  0.00     0.046 A 
ATOM     21  C   UNL     1      47.429 129.081  14.527  1.00  0.00     0.010 A 
ATOM     22  C   UNL     1      47.294 131.730  13.515  1.00  0.00     0.026 A 
ATOM     23  C   UNL     1      48.206 129.461  13.417  1.00  0.00     0.001 A 
ATOM     24  C   UNL     1      48.139 130.779  12.913  1.00  0.00     0.002 A 
ATOM     25  H   UNL     1      45.404 133.061  15.154  1.00  0.00     0.166 HD
ENDBRANCH  15  16
ENDBRANCH   5  15
TORSDOF 6
ENDMDL


