REMARK SMILES CCOC(=O)c1cc([NH2+]C(=S)n2[n-]c(=O)/c(=N/N)cc2-c2ccc3[nH]ccc3c2)ccc1F
REMARK SMILES IDX 9 1 8 4 31 5 30 6 32 7 6 8 7 9 33 10 4 11 5 12 3 13 2 14
REMARK SMILES IDX 1 15 10 16 11 17 12 18 13 19 20 20 14 21 19 22 16 23 15 24
REMARK SMILES IDX 21 25 22 26 29 27 23 28 28 29 24 30 27 31 25 32 26 33 17 35
REMARK SMILES IDX 18 36
REMARK H PARENT 9 2 9 3 25 34 18 37 18 38
ROOT
ATOM      1  N   UNL     1       0.976  -2.067  -2.717  1.00  0.00    -0.258 N 
ATOM      2  H   UNL     1       0.255  -1.701  -3.382  1.00  0.00     0.360 HD
ATOM      3  H   UNL     1       1.689  -2.585  -3.281  1.00  0.00     0.360 HD
ENDROOT
BRANCH   1   4
ATOM      4  C   UNL     1       1.615  -0.975  -2.027  1.00  0.00     0.137 A 
ATOM      5  C   UNL     1       3.577  -0.011  -0.970  1.00  0.00     0.046 A 
ATOM      6  C   UNL     1       2.964  -1.065  -1.648  1.00  0.00     0.071 A 
ATOM      7  C   UNL     1       2.848   1.134  -0.636  1.00  0.00     0.138 A 
ATOM      8  C   UNL     1       1.483   1.231  -0.979  1.00  0.00     0.101 A 
ATOM      9  C   UNL     1       0.884   0.176  -1.689  1.00  0.00     0.087 A 
ATOM     10  F   UNL     1       3.468   2.122   0.058  1.00  0.00    -0.206 F 
BRANCH   8  11
ATOM     11  C   UNL     1       0.657   2.385  -0.558  1.00  0.00     0.341 C 
ATOM     12  O   UNL     1       1.199   3.430  -0.103  1.00  0.00    -0.246 OA
BRANCH  11  13
ATOM     13  O   UNL     1      -0.736   2.302  -0.649  1.00  0.00    -0.462 OA
BRANCH  13  14
ATOM     14  C   UNL     1      -1.604   3.341  -0.210  1.00  0.00     0.230 C 
ATOM     15  C   UNL     1      -3.048   2.904  -0.392  1.00  0.00     0.049 C 
ENDBRANCH  13  14
ENDBRANCH  11  13
ENDBRANCH   8  11
ENDBRANCH   1   4
BRANCH   1  16
ATOM     16  C   UNL     1       0.336  -2.952  -1.776  1.00  0.00     0.265 C 
ATOM     17  S   UNL     1       0.395  -4.569  -2.057  1.00  0.00     0.003 S 
BRANCH  16  18
ATOM     18  N   UNL     1      -0.741  -2.454  -0.966  1.00  0.00    -0.358 N 
ATOM     19  N   UNL     1      -1.934  -2.329  -1.551  1.00  0.00    -0.549 NA
ATOM     20  C   UNL     1      -0.556  -2.049   0.335  1.00  0.00     0.042 A 
ATOM     21  C   UNL     1      -3.007  -1.796  -0.915  1.00  0.00     0.118 A 
ATOM     22  C   UNL     1      -1.633  -1.478   1.029  1.00  0.00     0.058 A 
ATOM     23  C   UNL     1      -2.881  -1.337   0.400  1.00  0.00     0.111 A 
ATOM     24  O   UNL     1      -4.107  -1.710  -1.525  1.00  0.00    -0.312 OA
BRANCH  20  25
ATOM     25  C   UNL     1       0.759  -2.148   1.017  1.00  0.00    -0.002 A 
ATOM     26  C   UNL     1       1.441  -3.388   1.106  1.00  0.00     0.012 A 
ATOM     27  C   UNL     1       1.330  -0.995   1.604  1.00  0.00     0.020 A 
ATOM     28  C   UNL     1       2.704  -3.472   1.720  1.00  0.00     0.027 A 
ATOM     29  C   UNL     1       2.581  -1.114   2.202  1.00  0.00     0.000 A 
ATOM     30  C   UNL     1       3.248  -2.307   2.252  1.00  0.00     0.045 A 
ATOM     31  C   UNL     1       3.379  -0.168   2.805  1.00  0.00     0.028 A 
ATOM     32  N   UNL     1       4.435  -2.163   2.863  1.00  0.00    -0.361 N 
ATOM     33  C   UNL     1       4.521  -0.856   3.202  1.00  0.00     0.083 A 
ATOM     34  H   UNL     1       5.149  -2.905   3.040  1.00  0.00     0.166 HD
ENDBRANCH  20  25
BRANCH  23  35
ATOM     35  N   UNL     1      -3.922  -0.812   0.988  1.00  0.00    -0.181 NA
BRANCH  35  36
ATOM     36  N   UNL     1      -3.948  -0.257   2.280  1.00  0.00    -0.323 N 
ATOM     37  H   UNL     1      -3.086  -0.024   2.817  1.00  0.00     0.179 HD
ATOM     38  H   UNL     1      -4.861   0.056   2.675  1.00  0.00     0.179 HD
ENDBRANCH  35  36
ENDBRANCH  23  35
ENDBRANCH  16  18
ENDBRANCH   1  16
TORSDOF 9


