MODEL 1
REMARK VINA RESULT:      -9.0      0.000      0.000
REMARK SMILES c1nc2cc(-c3ncc([C@H]4CO4)c[nH+]3)c[nH+]c2o1
REMARK SMILES IDX 1 1 2 2 3 3 4 4 5 5 15 6 16 7 17 8 18 9 6 11 7 12 14 13 8 14
REMARK SMILES IDX 13 15 9 16 10 18 11 19 12 20
REMARK H PARENT 16 10 14 17
ROOT
ATOM      1  C   UNL     1      47.699 129.896  13.340  1.00  0.00     0.316 A 
ATOM      2  N   UNL     1      47.577 129.260  14.537  1.00  0.00    -0.209 NA
ATOM      3  C   UNL     1      46.877 130.152  15.257  1.00  0.00     0.180 A 
ATOM      4  C   UNL     1      46.446 130.060  16.574  1.00  0.00     0.062 A 
ATOM      5  C   UNL     1      45.710 131.149  17.102  1.00  0.00     0.134 A 
ATOM      6  C   UNL     1      45.468 132.281  16.269  1.00  0.00     0.326 A 
ATOM      7  N   UNL     1      45.922 132.310  14.979  1.00  0.00    -0.177 N 
ATOM      8  C   UNL     1      46.614 131.245  14.506  1.00  0.00     0.399 A 
ATOM      9  O   UNL     1      47.122 131.088  13.316  1.00  0.00    -0.391 OA
ATOM     10  H   UNL     1      45.746 133.141  14.372  1.00  0.00     0.457 HD
ENDROOT
BRANCH   5  11
ATOM     11  C   UNL     1      45.231 131.106  18.504  1.00  0.00     0.334 A 
ATOM     12  N   UNL     1      44.072 131.741  18.833  1.00  0.00    -0.049 NA
ATOM     13  N   UNL     1      45.934 130.451  19.477  1.00  0.00    -0.243 N 
ATOM     14  C   UNL     1      43.593 131.732  20.103  1.00  0.00     0.264 A 
ATOM     15  C   UNL     1      45.486 130.417  20.760  1.00  0.00     0.208 A 
ATOM     16  C   UNL     1      44.302 131.072  21.109  1.00  0.00     0.066 A 
ATOM     17  H   UNL     1      46.843 129.985  19.262  1.00  0.00     0.312 HD
BRANCH  16  18
ATOM     18  C   UNL     1      43.777 131.015  22.513  1.00  0.00     0.181 C 
ATOM     19  C   UNL     1      43.011 129.799  22.872  1.00  0.00     0.198 C 
ATOM     20  O   UNL     1      44.359 129.961  23.245  1.00  0.00    -0.368 OA
ENDBRANCH  16  18
ENDBRANCH   5  11
TORSDOF 2
ENDMDL
MODEL 2
REMARK VINA RESULT:      -8.8      0.249      1.143
REMARK SMILES c1nc2cc(-c3ncc([C@H]4CO4)c[nH+]3)c[nH+]c2o1
REMARK SMILES IDX 1 1 2 2 3 3 4 4 5 5 15 6 16 7 17 8 18 9 6 11 7 12 14 13 8 14
REMARK SMILES IDX 13 15 9 16 10 18 11 19 12 20
REMARK H PARENT 16 10 14 17
ROOT
ATOM      1  C   UNL     1      47.712 129.837  13.462  1.00  0.00     0.316 A 
ATOM      2  N   UNL     1      47.457 129.207  14.641  1.00  0.00    -0.209 NA
ATOM      3  C   UNL     1      46.791 130.153  15.325  1.00  0.00     0.180 A 
ATOM      4  C   UNL     1      46.268 130.091  16.609  1.00  0.00     0.062 A 
ATOM      5  C   UNL     1      45.597 131.236  17.101  1.00  0.00     0.134 A 
ATOM      6  C   UNL     1      45.509 132.390  16.268  1.00  0.00     0.326 A 
ATOM      7  N   UNL     1      46.047 132.387  15.011  1.00  0.00    -0.177 N 
ATOM      8  C   UNL     1      46.673 131.269  14.571  1.00  0.00     0.399 A 
ATOM      9  O   UNL     1      47.243 131.075  13.415  1.00  0.00    -0.391 OA
ATOM     10  H   UNL     1      45.984 133.234  14.403  1.00  0.00     0.457 HD
ENDROOT
BRANCH   5  11
ATOM     11  C   UNL     1      45.025 131.227  18.469  1.00  0.00     0.334 A 
ATOM     12  N   UNL     1      45.746 130.685  19.489  1.00  0.00    -0.049 NA
ATOM     13  N   UNL     1      43.784 131.740  18.726  1.00  0.00    -0.243 N 
ATOM     14  C   UNL     1      45.265 130.651  20.759  1.00  0.00     0.264 A 
ATOM     15  C   UNL     1      43.269 131.726  19.984  1.00  0.00     0.208 A 
ATOM     16  C   UNL     1      43.998 131.166  21.037  1.00  0.00     0.066 A 
ATOM     17  H   UNL     1      43.194 132.130  17.958  1.00  0.00     0.312 HD
BRANCH  16  18
ATOM     18  C   UNL     1      43.457 131.175  22.436  1.00  0.00     0.181 C 
ATOM     19  C   UNL     1      43.000 129.869  22.965  1.00  0.00     0.198 C 
ATOM     20  O   UNL     1      44.255 130.409  23.308  1.00  0.00    -0.368 OA
ENDBRANCH  16  18
ENDBRANCH   5  11
TORSDOF 2
ENDMDL
MODEL 3
REMARK VINA RESULT:      -8.7      1.499      7.096
REMARK SMILES c1nc2cc(-c3ncc([C@H]4CO4)c[nH+]3)c[nH+]c2o1
REMARK SMILES IDX 1 1 2 2 3 3 4 4 5 5 15 6 16 7 17 8 18 9 6 11 7 12 14 13 8 14
REMARK SMILES IDX 13 15 9 16 10 18 11 19 12 20
REMARK H PARENT 16 10 14 17
ROOT
ATOM      1  C   UNL     1      42.518 132.167  22.401  1.00  0.00     0.316 A 
ATOM      2  N   UNL     1      42.307 132.382  21.074  1.00  0.00    -0.209 NA
ATOM      3  C   UNL     1      43.402 131.829  20.524  1.00  0.00     0.180 A 
ATOM      4  C   UNL     1      43.752 131.742  19.184  1.00  0.00     0.062 A 
ATOM      5  C   UNL     1      44.970 131.096  18.863  1.00  0.00     0.134 A 
ATOM      6  C   UNL     1      45.777 130.588  19.924  1.00  0.00     0.326 A 
ATOM      7  N   UNL     1      45.375 130.708  21.227  1.00  0.00    -0.177 N 
ATOM      8  C   UNL     1      44.198 131.323  21.493  1.00  0.00     0.399 A 
ATOM      9  O   UNL     1      43.651 131.531  22.658  1.00  0.00    -0.391 OA
ATOM     10  H   UNL     1      45.969 130.338  22.002  1.00  0.00     0.457 HD
ENDROOT
BRANCH   5  11
ATOM     11  C   UNL     1      45.395 130.981  17.448  1.00  0.00     0.334 A 
ATOM     12  N   UNL     1      44.843 131.807  16.517  1.00  0.00    -0.049 NA
ATOM     13  N   UNL     1      46.322 130.056  17.055  1.00  0.00    -0.243 N 
ATOM     14  C   UNL     1      45.198 131.739  15.208  1.00  0.00     0.264 A 
ATOM     15  C   UNL     1      46.705 129.958  15.754  1.00  0.00     0.208 A 
ATOM     16  C   UNL     1      46.139 130.796  14.790  1.00  0.00     0.066 A 
ATOM     17  H   UNL     1      46.736 129.386  17.740  1.00  0.00     0.312 HD
BRANCH  16  18
ATOM     18  C   UNL     1      46.577 130.724  13.357  1.00  0.00     0.181 C 
ATOM     19  C   UNL     1      47.909 131.296  13.054  1.00  0.00     0.198 C 
ATOM     20  O   UNL     1      47.715 129.909  13.200  1.00  0.00    -0.368 OA
ENDBRANCH  16  18
ENDBRANCH   5  11
TORSDOF 2
ENDMDL
MODEL 4
REMARK VINA RESULT:      -8.6      1.531      7.166
REMARK SMILES c1nc2cc(-c3ncc([C@H]4CO4)c[nH+]3)c[nH+]c2o1
REMARK SMILES IDX 1 1 2 2 3 3 4 4 5 5 15 6 16 7 17 8 18 9 6 11 7 12 14 13 8 14
REMARK SMILES IDX 13 15 9 16 10 18 11 19 12 20
REMARK H PARENT 16 10 14 17
ROOT
ATOM      1  C   UNL     1      42.398 132.210  22.294  1.00  0.00     0.316 A 
ATOM      2  N   UNL     1      42.217 132.386  20.957  1.00  0.00    -0.209 NA
ATOM      3  C   UNL     1      43.347 131.865  20.451  1.00  0.00     0.180 A 
ATOM      4  C   UNL     1      43.738 131.761  19.123  1.00  0.00     0.062 A 
ATOM      5  C   UNL     1      44.989 131.156  18.851  1.00  0.00     0.134 A 
ATOM      6  C   UNL     1      45.784 130.704  19.946  1.00  0.00     0.326 A 
ATOM      7  N   UNL     1      45.341 130.837  21.233  1.00  0.00    -0.177 N 
ATOM      8  C   UNL     1      44.134 131.412  21.453  1.00  0.00     0.399 A 
ATOM      9  O   UNL     1      43.547 131.625  22.597  1.00  0.00    -0.391 OA
ATOM     10  H   UNL     1      45.926 130.508  22.033  1.00  0.00     0.457 HD
ENDROOT
BRANCH   5  11
ATOM     11  C   UNL     1      45.458 131.026  17.451  1.00  0.00     0.334 A 
ATOM     12  N   UNL     1      45.937 129.828  17.017  1.00  0.00    -0.049 NA
ATOM     13  N   UNL     1      45.431 132.087  16.589  1.00  0.00    -0.243 N 
ATOM     14  C   UNL     1      46.381 129.659  15.745  1.00  0.00     0.264 A 
ATOM     15  C   UNL     1      45.863 131.958  15.307  1.00  0.00     0.208 A 
ATOM     16  C   UNL     1      46.363 130.734  14.854  1.00  0.00     0.066 A 
ATOM     17  H   UNL     1      45.101 133.027  16.904  1.00  0.00     0.312 HD
BRANCH  16  18
ATOM     18  C   UNL     1      46.812 130.567  13.432  1.00  0.00     0.181 C 
ATOM     19  C   UNL     1      48.066 131.262  13.059  1.00  0.00     0.198 C 
ATOM     20  O   UNL     1      48.042 129.885  13.350  1.00  0.00    -0.368 OA
ENDBRANCH  16  18
ENDBRANCH   5  11
TORSDOF 2
ENDMDL
MODEL 5
REMARK VINA RESULT:      -8.6      1.798      7.091
REMARK SMILES c1nc2cc(-c3ncc([C@H]4CO4)c[nH+]3)c[nH+]c2o1
REMARK SMILES IDX 1 1 2 2 3 3 4 4 5 5 15 6 16 7 17 8 18 9 6 11 7 12 14 13 8 14
REMARK SMILES IDX 13 15 9 16 10 18 11 19 12 20
REMARK H PARENT 16 10 14 17
ROOT
ATOM      1  C   UNL     1      43.576 131.816  23.196  1.00  0.00     0.316 A 
ATOM      2  N   UNL     1      44.636 131.456  22.421  1.00  0.00    -0.209 NA
ATOM      3  C   UNL     1      44.132 131.581  21.182  1.00  0.00     0.180 A 
ATOM      4  C   UNL     1      44.754 131.346  19.963  1.00  0.00     0.062 A 
ATOM      5  C   UNL     1      43.997 131.562  18.787  1.00  0.00     0.134 A 
ATOM      6  C   UNL     1      42.641 131.987  18.913  1.00  0.00     0.326 A 
ATOM      7  N   UNL     1      42.087 132.200  20.145  1.00  0.00    -0.177 N 
ATOM      8  C   UNL     1      42.846 131.992  21.248  1.00  0.00     0.399 A 
ATOM      9  O   UNL     1      42.499 132.139  22.495  1.00  0.00    -0.391 OA
ATOM     10  H   UNL     1      41.093 132.508  20.235  1.00  0.00     0.457 HD
ENDROOT
BRANCH   5  11
ATOM     11  C   UNL     1      44.610 131.320  17.459  1.00  0.00     0.334 A 
ATOM     12  N   UNL     1      45.662 130.461  17.357  1.00  0.00    -0.049 NA
ATOM     13  N   UNL     1      44.149 131.949  16.336  1.00  0.00    -0.243 N 
ATOM     14  C   UNL     1      46.258 130.209  16.164  1.00  0.00     0.264 A 
ATOM     15  C   UNL     1      44.718 131.721  15.123  1.00  0.00     0.208 A 
ATOM     16  C   UNL     1      45.803 130.848  15.009  1.00  0.00     0.066 A 
ATOM     17  H   UNL     1      43.367 132.639  16.390  1.00  0.00     0.312 HD
BRANCH  16  18
ATOM     18  C   UNL     1      46.419 130.559  13.672  1.00  0.00     0.181 C 
ATOM     19  C   UNL     1      47.682 131.272  13.370  1.00  0.00     0.198 C 
ATOM     20  O   UNL     1      47.674 129.931  13.800  1.00  0.00    -0.368 OA
ENDBRANCH  16  18
ENDBRANCH   5  11
TORSDOF 2
ENDMDL
MODEL 6
REMARK VINA RESULT:      -8.4      1.796      7.001
REMARK SMILES c1nc2cc(-c3ncc([C@H]4CO4)c[nH+]3)c[nH+]c2o1
REMARK SMILES IDX 1 1 2 2 3 3 4 4 5 5 15 6 16 7 17 8 18 9 6 11 7 12 14 13 8 14
REMARK SMILES IDX 13 15 9 16 10 18 11 19 12 20
REMARK H PARENT 16 10 14 17
ROOT
ATOM      1  C   UNL     1      43.433 131.723  23.064  1.00  0.00     0.316 A 
ATOM      2  N   UNL     1      44.490 131.301  22.317  1.00  0.00    -0.209 NA
ATOM      3  C   UNL     1      44.041 131.488  21.065  1.00  0.00     0.180 A 
ATOM      4  C   UNL     1      44.687 131.233  19.863  1.00  0.00     0.062 A 
ATOM      5  C   UNL     1      43.989 131.528  18.667  1.00  0.00     0.134 A 
ATOM      6  C   UNL     1      42.665 132.051  18.757  1.00  0.00     0.326 A 
ATOM      7  N   UNL     1      42.084 132.278  19.974  1.00  0.00    -0.177 N 
ATOM      8  C   UNL     1      42.787 131.993  21.097  1.00  0.00     0.399 A 
ATOM      9  O   UNL     1      42.408 132.139  22.335  1.00  0.00    -0.391 OA
ATOM     10  H   UNL     1      41.113 132.658  20.038  1.00  0.00     0.457 HD
ENDROOT
BRANCH   5  11
ATOM     11  C   UNL     1      44.629 131.269  17.355  1.00  0.00     0.334 A 
ATOM     12  N   UNL     1      44.004 131.677  16.216  1.00  0.00    -0.049 NA
ATOM     13  N   UNL     1      45.828 130.619  17.263  1.00  0.00    -0.243 N 
ATOM     14  C   UNL     1      44.549 131.461  14.991  1.00  0.00     0.264 A 
ATOM     15  C   UNL     1      46.407 130.386  16.056  1.00  0.00     0.208 A 
ATOM     16  C   UNL     1      45.771 130.794  14.881  1.00  0.00     0.066 A 
ATOM     17  H   UNL     1      46.313 130.263  18.117  1.00  0.00     0.312 HD
BRANCH  16  18
ATOM     18  C   UNL     1      46.413 130.575  13.543  1.00  0.00     0.181 C 
ATOM     19  C   UNL     1      47.699 131.272  13.317  1.00  0.00     0.198 C 
ATOM     20  O   UNL     1      47.649 129.908  13.661  1.00  0.00    -0.368 OA
ENDBRANCH  16  18
ENDBRANCH   5  11
TORSDOF 2
ENDMDL
MODEL 7
REMARK VINA RESULT:      -7.7      1.069      1.598
REMARK SMILES c1nc2cc(-c3ncc([C@H]4CO4)c[nH+]3)c[nH+]c2o1
REMARK SMILES IDX 1 1 2 2 3 3 4 4 5 5 15 6 16 7 17 8 18 9 6 11 7 12 14 13 8 14
REMARK SMILES IDX 13 15 9 16 10 18 11 19 12 20
REMARK H PARENT 16 10 14 17
ROOT
ATOM      1  C   UNL     1      47.614 130.986  13.006  1.00  0.00     0.316 A 
ATOM      2  N   UNL     1      47.312 131.908  13.960  1.00  0.00    -0.209 NA
ATOM      3  C   UNL     1      46.704 131.157  14.893  1.00  0.00     0.180 A 
ATOM      4  C   UNL     1      46.169 131.550  16.112  1.00  0.00     0.062 A 
ATOM      5  C   UNL     1      45.583 130.549  16.925  1.00  0.00     0.134 A 
ATOM      6  C   UNL     1      45.557 129.206  16.448  1.00  0.00     0.326 A 
ATOM      7  N   UNL     1      46.101 128.884  15.235  1.00  0.00    -0.177 N 
ATOM      8  C   UNL     1      46.662 129.867  14.490  1.00  0.00     0.399 A 
ATOM      9  O   UNL     1      47.226 129.759  13.320  1.00  0.00    -0.391 OA
ATOM     10  H   UNL     1      46.078 127.900  14.886  1.00  0.00     0.457 HD
ENDROOT
BRANCH   5  11
ATOM     11  C   UNL     1      44.990 130.915  18.234  1.00  0.00     0.334 A 
ATOM     12  N   UNL     1      43.769 131.518  18.268  1.00  0.00    -0.049 NA
ATOM     13  N   UNL     1      45.648 130.671  19.407  1.00  0.00    -0.243 N 
ATOM     14  C   UNL     1      43.186 131.873  19.441  1.00  0.00     0.264 A 
ATOM     15  C   UNL     1      45.096 131.010  20.603  1.00  0.00     0.208 A 
ATOM     16  C   UNL     1      43.847 131.635  20.648  1.00  0.00     0.066 A 
ATOM     17  H   UNL     1      46.600 130.242  19.411  1.00  0.00     0.312 HD
BRANCH  16  18
ATOM     18  C   UNL     1      43.210 131.984  21.960  1.00  0.00     0.181 C 
ATOM     19  C   UNL     1      42.829 130.842  22.822  1.00  0.00     0.198 C 
ATOM     20  O   UNL     1      44.006 131.580  23.050  1.00  0.00    -0.368 OA
ENDBRANCH  16  18
ENDBRANCH   5  11
TORSDOF 2
ENDMDL
MODEL 8
REMARK VINA RESULT:      -7.7      1.168      2.010
REMARK SMILES c1nc2cc(-c3ncc([C@H]4CO4)c[nH+]3)c[nH+]c2o1
REMARK SMILES IDX 1 1 2 2 3 3 4 4 5 5 15 6 16 7 17 8 18 9 6 11 7 12 14 13 8 14
REMARK SMILES IDX 13 15 9 16 10 18 11 19 12 20
REMARK H PARENT 16 10 14 17
ROOT
ATOM      1  C   UNL     1      47.737 130.963  12.914  1.00  0.00     0.316 A 
ATOM      2  N   UNL     1      47.367 131.905  13.824  1.00  0.00    -0.209 NA
ATOM      3  C   UNL     1      46.730 131.166  14.748  1.00  0.00     0.180 A 
ATOM      4  C   UNL     1      46.125 131.581  15.927  1.00  0.00     0.062 A 
ATOM      5  C   UNL     1      45.522 130.591  16.739  1.00  0.00     0.134 A 
ATOM      6  C   UNL     1      45.549 129.234  16.300  1.00  0.00     0.326 A 
ATOM      7  N   UNL     1      46.160 128.891  15.126  1.00  0.00    -0.177 N 
ATOM      8  C   UNL     1      46.736 129.865  14.381  1.00  0.00     0.399 A 
ATOM      9  O   UNL     1      47.360 129.737  13.244  1.00  0.00    -0.391 OA
ATOM     10  H   UNL     1      46.177 127.897  14.805  1.00  0.00     0.457 HD
ENDROOT
BRANCH   5  11
ATOM     11  C   UNL     1      44.856 130.979  18.006  1.00  0.00     0.334 A 
ATOM     12  N   UNL     1      45.479 130.728  19.190  1.00  0.00    -0.049 NA
ATOM     13  N   UNL     1      43.625 131.575  18.010  1.00  0.00    -0.243 N 
ATOM     14  C   UNL     1      44.910 131.063  20.376  1.00  0.00     0.264 A 
ATOM     15  C   UNL     1      43.024 131.927  19.177  1.00  0.00     0.208 A 
ATOM     16  C   UNL     1      43.651 131.667  20.398  1.00  0.00     0.066 A 
ATOM     17  H   UNL     1      43.109 131.748  17.119  1.00  0.00     0.312 HD
BRANCH  16  18
ATOM     18  C   UNL     1      43.015 132.081  21.692  1.00  0.00     0.181 C 
ATOM     19  C   UNL     1      42.663 130.986  22.624  1.00  0.00     0.198 C 
ATOM     20  O   UNL     1      43.826 131.760  22.798  1.00  0.00    -0.368 OA
ENDBRANCH  16  18
ENDBRANCH   5  11
TORSDOF 2
ENDMDL
MODEL 9
REMARK VINA RESULT:      -7.7      0.951      1.543
REMARK SMILES c1nc2cc(-c3ncc([C@H]4CO4)c[nH+]3)c[nH+]c2o1
REMARK SMILES IDX 1 1 2 2 3 3 4 4 5 5 15 6 16 7 17 8 18 9 6 11 7 12 14 13 8 14
REMARK SMILES IDX 13 15 9 16 10 18 11 19 12 20
REMARK H PARENT 16 10 14 17
ROOT
ATOM      1  C   UNL     1      47.150 130.194  13.558  1.00  0.00     0.316 A 
ATOM      2  N   UNL     1      47.407 129.755  14.820  1.00  0.00    -0.209 NA
ATOM      3  C   UNL     1      46.453 130.377  15.532  1.00  0.00     0.180 A 
ATOM      4  C   UNL     1      46.209 130.317  16.898  1.00  0.00     0.062 A 
ATOM      5  C   UNL     1      45.123 131.070  17.405  1.00  0.00     0.134 A 
ATOM      6  C   UNL     1      44.354 131.860  16.499  1.00  0.00     0.326 A 
ATOM      7  N   UNL     1      44.647 131.877  15.164  1.00  0.00    -0.177 N 
ATOM      8  C   UNL     1      45.688 131.134  14.714  1.00  0.00     0.399 A 
ATOM      9  O   UNL     1      46.118 131.022  13.489  1.00  0.00    -0.391 OA
ATOM     10  H   UNL     1      44.085 132.458  14.503  1.00  0.00     0.457 HD
ENDROOT
BRANCH   5  11
ATOM     11  C   UNL     1      44.822 131.047  18.857  1.00  0.00     0.334 A 
ATOM     12  N   UNL     1      45.678 130.414  19.705  1.00  0.00    -0.049 NA
ATOM     13  N   UNL     1      43.697 131.639  19.360  1.00  0.00    -0.243 N 
ATOM     14  C   UNL     1      45.446 130.364  21.041  1.00  0.00     0.264 A 
ATOM     15  C   UNL     1      43.430 131.612  20.693  1.00  0.00     0.208 A 
ATOM     16  C   UNL     1      44.298 130.959  21.571  1.00  0.00     0.066 A 
ATOM     17  H   UNL     1      43.005 132.101  18.730  1.00  0.00     0.312 HD
BRANCH  16  18
ATOM     18  C   UNL     1      44.035 130.950  23.048  1.00  0.00     0.181 C 
ATOM     19  C   UNL     1      43.666 132.252  23.650  1.00  0.00     0.198 C 
ATOM     20  O   UNL     1      42.697 131.278  23.341  1.00  0.00    -0.368 OA
ENDBRANCH  16  18
ENDBRANCH   5  11
TORSDOF 2
ENDMDL


