MODEL 1
REMARK VINA RESULT:      -3.1      0.000      0.000
REMARK SMILES C=C[C@@H]1CN[C@H](c2c[nH+]c3ocnc3c2)N(/C(S)=[NH+]\c2cccc(SC(F)(F)F)c2)C1
REMARK SMILES IDX 19 1 17 3 18 4 16 6 31 7 6 8 3 9 5 10 4 11 7 13 15 14 8 15
REMARK SMILES IDX 14 16 9 17 13 18 10 19 12 20 11 21 2 23 1 24 20 25 21 26
REMARK SMILES IDX 30 27 22 28 24 29 23 30 25 31 26 32 27 33 28 34 29 35
REMARK H PARENT 19 2 18 5 5 12 9 22
ROOT
ATOM      1  N   UNL     1      45.134 130.723  19.248  1.00  0.00    -0.235 N 
ATOM      2  H   UNL     1      45.795 130.012  19.632  1.00  0.00     0.313 HD
ENDROOT
BRANCH   1   3
ATOM      3  C   UNL     1      44.446 131.464  20.071  1.00  0.00     0.309 C 
BRANCH   3   4
ATOM      4  S   UNL     1      42.724 131.805  19.699  1.00  0.00    -0.056 SA
ATOM      5  H   UNL     1      43.051 133.004  19.038  1.00  0.00     0.116 HD
ENDBRANCH   3   4
BRANCH   3   6
ATOM      6  N   UNL     1      45.062 132.109  21.207  1.00  0.00    -0.235 N 
ATOM      7  C   UNL     1      45.705 133.401  20.923  1.00  0.00     0.248 C 
ATOM      8  C   UNL     1      44.478 131.914  22.556  1.00  0.00     0.284 C 
ATOM      9  C   UNL     1      46.636 133.825  22.063  1.00  0.00     0.067 C 
ATOM     10  N   UNL     1      45.409 132.363  23.607  1.00  0.00    -0.274 NA
ATOM     11  C   UNL     1      45.861 133.739  23.381  1.00  0.00     0.097 C 
ATOM     12  H   UNL     1      44.901 132.346  24.524  1.00  0.00     0.127 HD
BRANCH   8  13
ATOM     13  C   UNL     1      44.155 130.454  22.801  1.00  0.00     0.078 A 
ATOM     14  C   UNL     1      42.876 130.076  23.269  1.00  0.00     0.055 A 
ATOM     15  C   UNL     1      45.132 129.446  22.569  1.00  0.00     0.319 A 
ATOM     16  C   UNL     1      42.649 128.724  23.493  1.00  0.00     0.179 A 
ATOM     17  N   UNL     1      44.847 128.129  22.808  1.00  0.00    -0.177 N 
ATOM     18  N   UNL     1      41.536 128.122  23.942  1.00  0.00    -0.209 NA
ATOM     19  C   UNL     1      43.614 127.803  23.265  1.00  0.00     0.399 A 
ATOM     20  C   UNL     1      41.910 126.813  23.959  1.00  0.00     0.316 A 
ATOM     21  O   UNL     1      43.156 126.616  23.553  1.00  0.00    -0.391 OA
ATOM     22  H   UNL     1      45.564 127.389  22.642  1.00  0.00     0.457 HD
ENDBRANCH   8  13
BRANCH   9  23
ATOM     23  C   UNL     1      47.881 132.965  22.102  1.00  0.00    -0.026 C 
ATOM     24  C   UNL     1      49.009 133.393  22.676  1.00  0.00     0.004 C 
ENDBRANCH   9  23
ENDBRANCH   3   6
ENDBRANCH   1   3
BRANCH   1  25
ATOM     25  C   UNL     1      45.035 130.819  17.822  1.00  0.00     0.126 A 
ATOM     26  C   UNL     1      44.042 131.614  17.236  1.00  0.00     0.052 A 
ATOM     27  C   UNL     1      45.985 130.186  17.010  1.00  0.00     0.067 A 
ATOM     28  C   UNL     1      43.960 131.723  15.844  1.00  0.00     0.006 A 
ATOM     29  C   UNL     1      45.899 130.286  15.615  1.00  0.00     0.020 A 
ATOM     30  C   UNL     1      44.884 131.056  15.034  1.00  0.00     0.015 A 
BRANCH  29  31
ATOM     31  S   UNL     1      47.109 129.460  14.578  1.00  0.00    -0.014 SA
BRANCH  31  32
ATOM     32  C   UNL     1      47.211 130.803  13.349  1.00  0.00     0.446 C 
ATOM     33  F   UNL     1      48.020 130.422  12.294  1.00  0.00    -0.160 F 
ATOM     34  F   UNL     1      45.944 131.070  12.869  1.00  0.00    -0.160 F 
ATOM     35  F   UNL     1      47.720 131.948  13.935  1.00  0.00    -0.160 F 
ENDBRANCH  31  32
ENDBRANCH  29  31
ENDBRANCH   1  25
TORSDOF 8
ENDMDL
MODEL 2
REMARK VINA RESULT:      -2.8      5.606      8.536
REMARK SMILES C=C[C@@H]1CN[C@H](c2c[nH+]c3ocnc3c2)N(/C(S)=[NH+]\c2cccc(SC(F)(F)F)c2)C1
REMARK SMILES IDX 19 1 17 3 18 4 16 6 31 7 6 8 3 9 5 10 4 11 7 13 15 14 8 15
REMARK SMILES IDX 14 16 9 17 13 18 10 19 12 20 11 21 2 23 1 24 20 25 21 26
REMARK SMILES IDX 30 27 22 28 24 29 23 30 25 31 26 32 27 33 28 34 29 35
REMARK H PARENT 19 2 18 5 5 12 9 22
ROOT
ATOM      1  N   UNL     1      46.706 124.046  23.239  1.00  0.00    -0.235 N 
ATOM      2  H   UNL     1      46.432 123.062  23.021  1.00  0.00     0.313 HD
ENDROOT
BRANCH   1   3
ATOM      3  C   UNL     1      45.812 124.863  23.722  1.00  0.00     0.309 C 
BRANCH   3   4
ATOM      4  S   UNL     1      46.362 126.319  24.616  1.00  0.00    -0.056 SA
ATOM      5  H   UNL     1      46.003 127.170  23.553  1.00  0.00     0.116 HD
ENDBRANCH   3   4
BRANCH   3   6
ATOM      6  N   UNL     1      44.400 124.567  23.659  1.00  0.00    -0.235 N 
ATOM      7  C   UNL     1      44.054 123.140  23.730  1.00  0.00     0.248 C 
ATOM      8  C   UNL     1      43.431 125.539  24.221  1.00  0.00     0.284 C 
ATOM      9  C   UNL     1      42.608 122.893  23.286  1.00  0.00     0.067 C 
ATOM     10  N   UNL     1      42.057 125.234  23.779  1.00  0.00    -0.274 NA
ATOM     11  C   UNL     1      41.692 123.843  24.062  1.00  0.00     0.097 C 
ATOM     12  H   UNL     1      41.397 125.847  24.314  1.00  0.00     0.127 HD
BRANCH   8  13
ATOM     13  C   UNL     1      43.765 126.951  23.787  1.00  0.00     0.078 A 
ATOM     14  C   UNL     1      44.408 127.183  22.549  1.00  0.00     0.055 A 
ATOM     15  C   UNL     1      43.443 128.062  24.616  1.00  0.00     0.319 A 
ATOM     16  C   UNL     1      44.705 128.499  22.217  1.00  0.00     0.179 A 
ATOM     17  N   UNL     1      43.761 129.335  24.232  1.00  0.00    -0.177 N 
ATOM     18  N   UNL     1      45.315 128.971  21.118  1.00  0.00    -0.209 NA
ATOM     19  C   UNL     1      44.386 129.520  23.044  1.00  0.00     0.399 A 
ATOM     20  C   UNL     1      45.328 130.311  21.356  1.00  0.00     0.316 A 
ATOM     21  O   UNL     1      44.771 130.647  22.510  1.00  0.00    -0.391 OA
ATOM     22  H   UNL     1      43.528 130.150  24.842  1.00  0.00     0.457 HD
ENDBRANCH   8  13
BRANCH   9  23
ATOM     23  C   UNL     1      42.454 123.081  21.792  1.00  0.00    -0.026 C 
ATOM     24  C   UNL     1      43.219 122.418  20.921  1.00  0.00     0.004 C 
ENDBRANCH   9  23
ENDBRANCH   3   6
ENDBRANCH   1   3
BRANCH   1  25
ATOM     25  C   UNL     1      48.063 124.419  22.975  1.00  0.00     0.126 A 
ATOM     26  C   UNL     1      48.597 125.584  23.540  1.00  0.00     0.052 A 
ATOM     27  C   UNL     1      48.888 123.575  22.220  1.00  0.00     0.067 A 
ATOM     28  C   UNL     1      49.928 125.936  23.299  1.00  0.00     0.006 A 
ATOM     29  C   UNL     1      50.219 123.930  21.969  1.00  0.00     0.020 A 
ATOM     30  C   UNL     1      50.738 125.113  22.510  1.00  0.00     0.015 A 
BRANCH  29  31
ATOM     31  S   UNL     1      51.267 122.853  20.988  1.00  0.00    -0.014 SA
BRANCH  31  32
ATOM     32  C   UNL     1      50.738 123.533  19.381  1.00  0.00     0.446 C 
ATOM     33  F   UNL     1      49.454 123.112  19.086  1.00  0.00    -0.160 F 
ATOM     34  F   UNL     1      50.753 124.912  19.450  1.00  0.00    -0.160 F 
ATOM     35  F   UNL     1      51.602 123.123  18.382  1.00  0.00    -0.160 F 
ENDBRANCH  31  32
ENDBRANCH  29  31
ENDBRANCH   1  25
TORSDOF 8
ENDMDL
MODEL 3
REMARK VINA RESULT:      -1.9      4.085      7.258
REMARK SMILES C=C[C@@H]1CN[C@H](c2c[nH+]c3ocnc3c2)N(/C(S)=[NH+]\c2cccc(SC(F)(F)F)c2)C1
REMARK SMILES IDX 19 1 17 3 18 4 16 6 31 7 6 8 3 9 5 10 4 11 7 13 15 14 8 15
REMARK SMILES IDX 14 16 9 17 13 18 10 19 12 20 11 21 2 23 1 24 20 25 21 26
REMARK SMILES IDX 30 27 22 28 24 29 23 30 25 31 26 32 27 33 28 34 29 35
REMARK H PARENT 19 2 18 5 5 12 9 22
ROOT
ATOM      1  N   UNL     1      46.567 133.689  21.249  1.00  0.00    -0.235 N 
ATOM      2  H   UNL     1      45.987 134.407  20.761  1.00  0.00     0.313 HD
ENDROOT
BRANCH   1   3
ATOM      3  C   UNL     1      46.245 132.430  21.142  1.00  0.00     0.309 C 
BRANCH   3   4
ATOM      4  S   UNL     1      47.447 131.283  20.462  1.00  0.00    -0.056 SA
ATOM      5  H   UNL     1      48.450 132.271  20.434  1.00  0.00     0.116 HD
ENDBRANCH   3   4
BRANCH   3   6
ATOM      6  N   UNL     1      44.915 131.958  21.445  1.00  0.00    -0.235 N 
ATOM      7  C   UNL     1      44.495 132.121  22.845  1.00  0.00     0.248 C 
ATOM      8  C   UNL     1      43.866 132.030  20.399  1.00  0.00     0.284 C 
ATOM      9  C   UNL     1      43.256 131.276  23.158  1.00  0.00     0.067 C 
ATOM     10  N   UNL     1      42.692 131.218  20.770  1.00  0.00    -0.274 NA
ATOM     11  C   UNL     1      42.187 131.567  22.101  1.00  0.00     0.097 C 
ATOM     12  H   UNL     1      41.926 131.416  20.082  1.00  0.00     0.127 HD
BRANCH   8  13
ATOM     13  C   UNL     1      44.390 131.525  19.070  1.00  0.00     0.078 A 
ATOM     14  C   UNL     1      43.803 131.963  17.860  1.00  0.00     0.055 A 
ATOM     15  C   UNL     1      45.473 130.604  19.019  1.00  0.00     0.319 A 
ATOM     16  C   UNL     1      44.315 131.450  16.676  1.00  0.00     0.179 A 
ATOM     17  N   UNL     1      45.933 130.135  17.819  1.00  0.00    -0.177 N 
ATOM     18  N   UNL     1      43.927 131.698  15.415  1.00  0.00    -0.209 NA
ATOM     19  C   UNL     1      45.342 130.569  16.680  1.00  0.00     0.399 A 
ATOM     20  C   UNL     1      44.782 130.918  14.698  1.00  0.00     0.316 A 
ATOM     21  O   UNL     1      45.633 130.238  15.452  1.00  0.00    -0.391 OA
ATOM     22  H   UNL     1      46.725 129.455  17.781  1.00  0.00     0.457 HD
ENDBRANCH   8  13
BRANCH   9  23
ATOM     23  C   UNL     1      43.596 129.802  23.202  1.00  0.00    -0.026 C 
ATOM     24  C   UNL     1      44.660 129.348  23.870  1.00  0.00     0.004 C 
ENDBRANCH   9  23
ENDBRANCH   3   6
ENDBRANCH   1   3
BRANCH   1  25
ATOM     25  C   UNL     1      47.682 134.162  22.014  1.00  0.00     0.126 A 
ATOM     26  C   UNL     1      47.960 133.609  23.271  1.00  0.00     0.052 A 
ATOM     27  C   UNL     1      48.549 135.119  21.471  1.00  0.00     0.067 A 
ATOM     28  C   UNL     1      49.061 134.056  24.007  1.00  0.00     0.006 A 
ATOM     29  C   UNL     1      49.647 135.575  22.211  1.00  0.00     0.020 A 
ATOM     30  C   UNL     1      49.901 135.042  23.480  1.00  0.00     0.015 A 
BRANCH  29  31
ATOM     31  S   UNL     1      50.746 136.813  21.517  1.00  0.00    -0.014 SA
BRANCH  31  32
ATOM     32  C   UNL     1      49.486 137.556  20.429  1.00  0.00     0.446 C 
ATOM     33  F   UNL     1      48.219 137.256  20.894  1.00  0.00    -0.160 F 
ATOM     34  F   UNL     1      49.649 138.928  20.424  1.00  0.00    -0.160 F 
ATOM     35  F   UNL     1      49.632 137.082  19.138  1.00  0.00    -0.160 F 
ENDBRANCH  31  32
ENDBRANCH  29  31
ENDBRANCH   1  25
TORSDOF 8
ENDMDL
MODEL 4
REMARK VINA RESULT:      -1.5      4.700      7.869
REMARK SMILES C=C[C@@H]1CN[C@H](c2c[nH+]c3ocnc3c2)N(/C(S)=[NH+]\c2cccc(SC(F)(F)F)c2)C1
REMARK SMILES IDX 19 1 17 3 18 4 16 6 31 7 6 8 3 9 5 10 4 11 7 13 15 14 8 15
REMARK SMILES IDX 14 16 9 17 13 18 10 19 12 20 11 21 2 23 1 24 20 25 21 26
REMARK SMILES IDX 30 27 22 28 24 29 23 30 25 31 26 32 27 33 28 34 29 35
REMARK H PARENT 19 2 18 5 5 12 9 22
ROOT
ATOM      1  N   UNL     1      45.719 129.797  20.592  1.00  0.00    -0.235 N 
ATOM      2  H   UNL     1      46.262 129.208  19.922  1.00  0.00     0.313 HD
ENDROOT
BRANCH   1   3
ATOM      3  C   UNL     1      45.588 131.073  20.354  1.00  0.00     0.309 C 
BRANCH   3   4
ATOM      4  S   UNL     1      46.877 132.194  20.903  1.00  0.00    -0.056 SA
ATOM      5  H   UNL     1      47.885 131.251  20.627  1.00  0.00     0.116 HD
ENDBRANCH   3   4
BRANCH   3   6
ATOM      6  N   UNL     1      44.384 131.616  19.769  1.00  0.00    -0.235 N 
ATOM      7  C   UNL     1      43.384 132.105  20.730  1.00  0.00     0.248 C 
ATOM      8  C   UNL     1      44.461 132.293  18.452  1.00  0.00     0.284 C 
ATOM      9  C   UNL     1      42.020 132.308  20.063  1.00  0.00     0.067 C 
ATOM     10  N   UNL     1      43.118 132.482  17.874  1.00  0.00    -0.274 NA
ATOM     11  C   UNL     1      42.215 133.162  18.807  1.00  0.00     0.097 C 
ATOM     12  H   UNL     1      43.209 133.091  17.025  1.00  0.00     0.127 HD
BRANCH   8  13
ATOM     13  C   UNL     1      45.289 131.484  17.474  1.00  0.00     0.078 A 
ATOM     14  C   UNL     1      45.564 131.992  16.184  1.00  0.00     0.055 A 
ATOM     15  C   UNL     1      45.796 130.205  17.836  1.00  0.00     0.319 A 
ATOM     16  C   UNL     1      46.311 131.195  15.327  1.00  0.00     0.179 A 
ATOM     17  N   UNL     1      46.527 129.467  16.946  1.00  0.00    -0.177 N 
ATOM     18  N   UNL     1      46.691 131.444  14.063  1.00  0.00    -0.209 NA
ATOM     19  C   UNL     1      46.764 129.980  15.714  1.00  0.00     0.399 A 
ATOM     20  C   UNL     1      47.383 130.315  13.748  1.00  0.00     0.316 A 
ATOM     21  O   UNL     1      47.431 129.433  14.735  1.00  0.00    -0.391 OA
ATOM     22  H   UNL     1      46.896 128.526  17.209  1.00  0.00     0.457 HD
ENDBRANCH   8  13
BRANCH   9  23
ATOM     23  C   UNL     1      41.371 130.982  19.728  1.00  0.00    -0.026 C 
ATOM     24  C   UNL     1      40.948 130.702  18.492  1.00  0.00     0.004 C 
ENDBRANCH   9  23
ENDBRANCH   3   6
ENDBRANCH   1   3
BRANCH   1  25
ATOM     25  C   UNL     1      45.163 129.142  21.737  1.00  0.00     0.126 A 
ATOM     26  C   UNL     1      44.335 129.846  22.621  1.00  0.00     0.052 A 
ATOM     27  C   UNL     1      45.375 127.770  21.931  1.00  0.00     0.067 A 
ATOM     28  C   UNL     1      43.777 129.199  23.727  1.00  0.00     0.006 A 
ATOM     29  C   UNL     1      44.824 127.122  23.044  1.00  0.00     0.020 A 
ATOM     30  C   UNL     1      44.024 127.840  23.941  1.00  0.00     0.015 A 
BRANCH  29  31
ATOM     31  S   UNL     1      45.112 125.369  23.296  1.00  0.00    -0.014 SA
BRANCH  31  32
ATOM     32  C   UNL     1      46.915 125.463  23.042  1.00  0.00     0.446 C 
ATOM     33  F   UNL     1      47.193 125.895  21.758  1.00  0.00    -0.160 F 
ATOM     34  F   UNL     1      47.449 126.362  23.943  1.00  0.00    -0.160 F 
ATOM     35  F   UNL     1      47.491 124.223  23.250  1.00  0.00    -0.160 F 
ENDBRANCH  31  32
ENDBRANCH  29  31
ENDBRANCH   1  25
TORSDOF 8
ENDMDL
MODEL 5
REMARK VINA RESULT:      -1.1      0.738      1.575
REMARK SMILES C=C[C@@H]1CN[C@H](c2c[nH+]c3ocnc3c2)N(/C(S)=[NH+]\c2cccc(SC(F)(F)F)c2)C1
REMARK SMILES IDX 19 1 17 3 18 4 16 6 31 7 6 8 3 9 5 10 4 11 7 13 15 14 8 15
REMARK SMILES IDX 14 16 9 17 13 18 10 19 12 20 11 21 2 23 1 24 20 25 21 26
REMARK SMILES IDX 30 27 22 28 24 29 23 30 25 31 26 32 27 33 28 34 29 35
REMARK H PARENT 19 2 18 5 5 12 9 22
ROOT
ATOM      1  N   UNL     1      45.071 130.551  19.246  1.00  0.00    -0.235 N 
ATOM      2  H   UNL     1      45.558 129.698  19.601  1.00  0.00     0.313 HD
ENDROOT
BRANCH   1   3
ATOM      3  C   UNL     1      44.368 131.273  20.074  1.00  0.00     0.309 C 
BRANCH   3   4
ATOM      4  S   UNL     1      42.634 131.564  19.713  1.00  0.00    -0.056 SA
ATOM      5  H   UNL     1      42.536 132.541  20.722  1.00  0.00     0.116 HD
ENDBRANCH   3   4
BRANCH   3   6
ATOM      6  N   UNL     1      44.973 131.936  21.205  1.00  0.00    -0.235 N 
ATOM      7  C   UNL     1      45.553 133.257  20.921  1.00  0.00     0.248 C 
ATOM      8  C   UNL     1      44.419 131.705  22.561  1.00  0.00     0.284 C 
ATOM      9  C   UNL     1      46.482 133.714  22.051  1.00  0.00     0.067 C 
ATOM     10  N   UNL     1      45.346 132.188  23.602  1.00  0.00    -0.274 NA
ATOM     11  C   UNL     1      45.733 133.584  23.380  1.00  0.00     0.097 C 
ATOM     12  H   UNL     1      44.854 132.141  24.526  1.00  0.00     0.127 HD
BRANCH   8  13
ATOM     13  C   UNL     1      44.166 130.230  22.799  1.00  0.00     0.078 A 
ATOM     14  C   UNL     1      45.096 129.265  22.348  1.00  0.00     0.055 A 
ATOM     15  C   UNL     1      42.991 129.795  23.474  1.00  0.00     0.319 A 
ATOM     16  C   UNL     1      44.797 127.929  22.580  1.00  0.00     0.179 A 
ATOM     17  N   UNL     1      42.754 128.463  23.673  1.00  0.00    -0.177 N 
ATOM     18  N   UNL     1      45.504 126.839  22.243  1.00  0.00    -0.209 NA
ATOM     19  C   UNL     1      43.661 127.565  23.219  1.00  0.00     0.399 A 
ATOM     20  C   UNL     1      44.720 125.834  22.721  1.00  0.00     0.316 A 
ATOM     21  O   UNL     1      43.613 126.264  23.308  1.00  0.00    -0.391 OA
ATOM     22  H   UNL     1      41.890 128.143  24.164  1.00  0.00     0.457 HD
ENDBRANCH   8  13
BRANCH   9  23
ATOM     23  C   UNL     1      47.765 132.911  22.063  1.00  0.00    -0.026 C 
ATOM     24  C   UNL     1      48.213 132.291  20.968  1.00  0.00     0.004 C 
ENDBRANCH   9  23
ENDBRANCH   3   6
ENDBRANCH   1   3
BRANCH   1  25
ATOM     25  C   UNL     1      45.217 130.855  17.854  1.00  0.00     0.126 A 
ATOM     26  C   UNL     1      44.531 131.940  17.294  1.00  0.00     0.052 A 
ATOM     27  C   UNL     1      46.112 130.119  17.066  1.00  0.00     0.067 A 
ATOM     28  C   UNL     1      44.690 132.248  15.939  1.00  0.00     0.006 A 
ATOM     29  C   UNL     1      46.266 130.420  15.707  1.00  0.00     0.020 A 
ATOM     30  C   UNL     1      45.553 131.486  15.145  1.00  0.00     0.015 A 
BRANCH  29  31
ATOM     31  S   UNL     1      47.402 129.464  14.698  1.00  0.00    -0.014 SA
BRANCH  31  32
ATOM     32  C   UNL     1      47.399 130.634  13.299  1.00  0.00     0.446 C 
ATOM     33  F   UNL     1      47.956 131.840  13.686  1.00  0.00    -0.160 F 
ATOM     34  F   UNL     1      48.148 130.104  12.268  1.00  0.00    -0.160 F 
ATOM     35  F   UNL     1      46.106 130.842  12.854  1.00  0.00    -0.160 F 
ENDBRANCH  31  32
ENDBRANCH  29  31
ENDBRANCH   1  25
TORSDOF 8
ENDMDL
MODEL 6
REMARK VINA RESULT:      -0.8      2.812      4.483
REMARK SMILES C=C[C@@H]1CN[C@H](c2c[nH+]c3ocnc3c2)N(/C(S)=[NH+]\c2cccc(SC(F)(F)F)c2)C1
REMARK SMILES IDX 19 1 17 3 18 4 16 6 31 7 6 8 3 9 5 10 4 11 7 13 15 14 8 15
REMARK SMILES IDX 14 16 9 17 13 18 10 19 12 20 11 21 2 23 1 24 20 25 21 26
REMARK SMILES IDX 30 27 22 28 24 29 23 30 25 31 26 32 27 33 28 34 29 35
REMARK H PARENT 19 2 18 5 5 12 9 22
ROOT
ATOM      1  N   UNL     1      45.797 129.526  19.283  1.00  0.00    -0.235 N 
ATOM      2  H   UNL     1      45.938 128.518  19.053  1.00  0.00     0.313 HD
ENDROOT
BRANCH   1   3
ATOM      3  C   UNL     1      45.793 129.900  20.532  1.00  0.00     0.309 C 
BRANCH   3   4
ATOM      4  S   UNL     1      46.486 131.499  20.961  1.00  0.00    -0.056 SA
ATOM      5  H   UNL     1      45.584 131.660  22.029  1.00  0.00     0.116 HD
ENDBRANCH   3   4
BRANCH   3   6
ATOM      6  N   UNL     1      45.356 129.016  21.587  1.00  0.00    -0.235 N 
ATOM      7  C   UNL     1      46.160 127.797  21.758  1.00  0.00     0.248 C 
ATOM      8  C   UNL     1      44.713 129.591  22.793  1.00  0.00     0.284 C 
ATOM      9  C   UNL     1      45.429 126.761  22.618  1.00  0.00     0.067 C 
ATOM     10  N   UNL     1      44.049 128.542  23.590  1.00  0.00    -0.274 NA
ATOM     11  C   UNL     1      44.962 127.441  23.908  1.00  0.00     0.097 C 
ATOM     12  H   UNL     1      43.742 128.967  24.498  1.00  0.00     0.127 HD
BRANCH   8  13
ATOM     13  C   UNL     1      43.675 130.626  22.413  1.00  0.00     0.078 A 
ATOM     14  C   UNL     1      43.456 130.951  21.054  1.00  0.00     0.055 A 
ATOM     15  C   UNL     1      42.909 131.288  23.413  1.00  0.00     0.319 A 
ATOM     16  C   UNL     1      42.504 131.921  20.772  1.00  0.00     0.179 A 
ATOM     17  N   UNL     1      41.985 132.237  23.070  1.00  0.00    -0.177 N 
ATOM     18  N   UNL     1      42.127 132.407  19.578  1.00  0.00    -0.209 NA
ATOM     19  C   UNL     1      41.807 132.529  21.759  1.00  0.00     0.399 A 
ATOM     20  C   UNL     1      41.180 133.320  19.930  1.00  0.00     0.316 A 
ATOM     21  O   UNL     1      40.985 133.398  21.238  1.00  0.00    -0.391 OA
ATOM     22  H   UNL     1      41.426 132.726  23.804  1.00  0.00     0.457 HD
ENDBRANCH   8  13
BRANCH   9  23
ATOM     23  C   UNL     1      44.264 126.151  21.867  1.00  0.00    -0.026 C 
ATOM     24  C   UNL     1      43.835 124.913  22.129  1.00  0.00     0.004 C 
ENDBRANCH   9  23
ENDBRANCH   3   6
ENDBRANCH   1   3
BRANCH   1  25
ATOM     25  C   UNL     1      45.607 130.426  18.185  1.00  0.00     0.126 A 
ATOM     26  C   UNL     1      45.245 131.759  18.419  1.00  0.00     0.052 A 
ATOM     27  C   UNL     1      45.867 129.999  16.876  1.00  0.00     0.067 A 
ATOM     28  C   UNL     1      45.081 132.641  17.347  1.00  0.00     0.006 A 
ATOM     29  C   UNL     1      45.694 130.879  15.800  1.00  0.00     0.020 A 
ATOM     30  C   UNL     1      45.301 132.201  16.038  1.00  0.00     0.015 A 
BRANCH  29  31
ATOM     31  S   UNL     1      46.014 130.322  14.123  1.00  0.00    -0.014 SA
BRANCH  31  32
ATOM     32  C   UNL     1      47.470 129.316  14.562  1.00  0.00     0.446 C 
ATOM     33  F   UNL     1      47.106 127.990  14.705  1.00  0.00    -0.160 F 
ATOM     34  F   UNL     1      48.407 129.418  13.552  1.00  0.00    -0.160 F 
ATOM     35  F   UNL     1      48.029 129.775  15.741  1.00  0.00    -0.160 F 
ENDBRANCH  31  32
ENDBRANCH  29  31
ENDBRANCH   1  25
TORSDOF 8
ENDMDL
MODEL 7
REMARK VINA RESULT:      -0.7      3.031      5.185
REMARK SMILES C=C[C@@H]1CN[C@H](c2c[nH+]c3ocnc3c2)N(/C(S)=[NH+]\c2cccc(SC(F)(F)F)c2)C1
REMARK SMILES IDX 19 1 17 3 18 4 16 6 31 7 6 8 3 9 5 10 4 11 7 13 15 14 8 15
REMARK SMILES IDX 14 16 9 17 13 18 10 19 12 20 11 21 2 23 1 24 20 25 21 26
REMARK SMILES IDX 30 27 22 28 24 29 23 30 25 31 26 32 27 33 28 34 29 35
REMARK H PARENT 19 2 18 5 5 12 9 22
ROOT
ATOM      1  N   UNL     1      45.107 132.357  18.333  1.00  0.00    -0.235 N 
ATOM      2  H   UNL     1      45.066 133.383  18.523  1.00  0.00     0.313 HD
ENDROOT
BRANCH   1   3
ATOM      3  C   UNL     1      45.328 131.535  19.321  1.00  0.00     0.309 C 
BRANCH   3   4
ATOM      4  S   UNL     1      46.459 130.164  19.071  1.00  0.00    -0.056 SA
ATOM      5  H   UNL     1      47.583 130.989  19.266  1.00  0.00     0.116 HD
ENDBRANCH   3   4
BRANCH   3   6
ATOM      6  N   UNL     1      44.602 131.631  20.565  1.00  0.00    -0.235 N 
ATOM      7  C   UNL     1      43.311 130.928  20.594  1.00  0.00     0.248 C 
ATOM      8  C   UNL     1      45.356 131.736  21.837  1.00  0.00     0.284 C 
ATOM      9  C   UNL     1      42.454 131.381  21.781  1.00  0.00     0.067 C 
ATOM     10  N   UNL     1      44.474 132.151  22.944  1.00  0.00    -0.274 NA
ATOM     11  C   UNL     1      43.298 131.284  23.055  1.00  0.00     0.097 C 
ATOM     12  H   UNL     1      45.011 132.067  23.840  1.00  0.00     0.127 HD
BRANCH   8  13
ATOM     13  C   UNL     1      46.478 132.748  21.721  1.00  0.00     0.078 A 
ATOM     14  C   UNL     1      46.194 134.090  21.378  1.00  0.00     0.055 A 
ATOM     15  C   UNL     1      47.829 132.365  21.950  1.00  0.00     0.319 A 
ATOM     16  C   UNL     1      47.266 134.965  21.268  1.00  0.00     0.179 A 
ATOM     17  N   UNL     1      48.843 133.275  21.827  1.00  0.00    -0.177 N 
ATOM     18  N   UNL     1      47.258 136.269  20.947  1.00  0.00    -0.209 NA
ATOM     19  C   UNL     1      48.535 134.550  21.487  1.00  0.00     0.399 A 
ATOM     20  C   UNL     1      48.583 136.580  20.995  1.00  0.00     0.316 A 
ATOM     21  O   UNL     1      49.354 135.552  21.319  1.00  0.00    -0.391 OA
ATOM     22  H   UNL     1      49.834 132.994  21.991  1.00  0.00     0.457 HD
ENDBRANCH   8  13
BRANCH   9  23
ATOM     23  C   UNL     1      41.933 132.787  21.575  1.00  0.00    -0.026 C 
ATOM     24  C   UNL     1      41.624 133.248  20.360  1.00  0.00     0.004 C 
ENDBRANCH   9  23
ENDBRANCH   3   6
ENDBRANCH   1   3
BRANCH   1  25
ATOM     25  C   UNL     1      44.920 131.936  16.977  1.00  0.00     0.126 A 
ATOM     26  C   UNL     1      43.630 131.706  16.481  1.00  0.00     0.052 A 
ATOM     27  C   UNL     1      46.020 131.837  16.115  1.00  0.00     0.067 A 
ATOM     28  C   UNL     1      43.447 131.315  15.151  1.00  0.00     0.006 A 
ATOM     29  C   UNL     1      45.841 131.438  14.785  1.00  0.00     0.020 A 
ATOM     30  C   UNL     1      44.552 131.177  14.305  1.00  0.00     0.015 A 
BRANCH  29  31
ATOM     31  S   UNL     1      47.256 131.297  13.690  1.00  0.00    -0.014 SA
BRANCH  31  32
ATOM     32  C   UNL     1      47.656 129.582  14.163  1.00  0.00     0.446 C 
ATOM     33  F   UNL     1      46.497 128.836  14.274  1.00  0.00    -0.160 F 
ATOM     34  F   UNL     1      48.458 129.022  13.187  1.00  0.00    -0.160 F 
ATOM     35  F   UNL     1      48.336 129.566  15.366  1.00  0.00    -0.160 F 
ENDBRANCH  31  32
ENDBRANCH  29  31
ENDBRANCH   1  25
TORSDOF 8
ENDMDL
MODEL 8
REMARK VINA RESULT:      -0.5      3.968      7.159
REMARK SMILES C=C[C@@H]1CN[C@H](c2c[nH+]c3ocnc3c2)N(/C(S)=[NH+]\c2cccc(SC(F)(F)F)c2)C1
REMARK SMILES IDX 19 1 17 3 18 4 16 6 31 7 6 8 3 9 5 10 4 11 7 13 15 14 8 15
REMARK SMILES IDX 14 16 9 17 13 18 10 19 12 20 11 21 2 23 1 24 20 25 21 26
REMARK SMILES IDX 30 27 22 28 24 29 23 30 25 31 26 32 27 33 28 34 29 35
REMARK H PARENT 19 2 18 5 5 12 9 22
ROOT
ATOM      1  N   UNL     1      47.216 132.485  21.737  1.00  0.00    -0.235 N 
ATOM      2  H   UNL     1      47.700 131.581  21.539  1.00  0.00     0.313 HD
ENDROOT
BRANCH   1   3
ATOM      3  C   UNL     1      45.995 132.659  21.314  1.00  0.00     0.309 C 
BRANCH   3   4
ATOM      4  S   UNL     1      45.652 134.011  20.185  1.00  0.00    -0.056 SA
ATOM      5  H   UNL     1      45.498 134.924  21.245  1.00  0.00     0.116 HD
ENDBRANCH   3   4
BRANCH   3   6
ATOM      6  N   UNL     1      44.897 131.867  21.818  1.00  0.00    -0.235 N 
ATOM      7  C   UNL     1      44.805 131.784  23.283  1.00  0.00     0.248 C 
ATOM      8  C   UNL     1      43.633 131.806  21.045  1.00  0.00     0.284 C 
ATOM      9  C   UNL     1      43.871 130.651  23.721  1.00  0.00     0.067 C 
ATOM     10  N   UNL     1      42.768 130.714  21.529  1.00  0.00    -0.274 NA
ATOM     11  C   UNL     1      42.543 130.800  22.975  1.00  0.00     0.097 C 
ATOM     12  H   UNL     1      41.835 130.803  21.060  1.00  0.00     0.127 HD
BRANCH   8  13
ATOM     13  C   UNL     1      43.909 131.575  19.573  1.00  0.00     0.078 A 
ATOM     14  C   UNL     1      45.087 130.910  19.164  1.00  0.00     0.055 A 
ATOM     15  C   UNL     1      42.991 132.027  18.584  1.00  0.00     0.319 A 
ATOM     16  C   UNL     1      45.291 130.746  17.800  1.00  0.00     0.179 A 
ATOM     17  N   UNL     1      43.249 131.835  17.254  1.00  0.00    -0.177 N 
ATOM     18  N   UNL     1      46.323 130.166  17.169  1.00  0.00    -0.209 NA
ATOM     19  C   UNL     1      44.392 131.201  16.897  1.00  0.00     0.399 A 
ATOM     20  C   UNL     1      45.971 130.309  15.861  1.00  0.00     0.316 A 
ATOM     21  O   UNL     1      44.813 130.930  15.692  1.00  0.00    -0.391 OA
ATOM     22  H   UNL     1      42.578 132.169  16.527  1.00  0.00     0.457 HD
ENDBRANCH   8  13
BRANCH   9  23
ATOM     23  C   UNL     1      44.496 129.296  23.464  1.00  0.00    -0.026 C 
ATOM     24  C   UNL     1      44.963 128.959  22.259  1.00  0.00     0.004 C 
ENDBRANCH   9  23
ENDBRANCH   3   6
ENDBRANCH   1   3
BRANCH   1  25
ATOM     25  C   UNL     1      47.953 133.476  22.463  1.00  0.00     0.126 A 
ATOM     26  C   UNL     1      47.882 133.524  23.861  1.00  0.00     0.052 A 
ATOM     27  C   UNL     1      48.815 134.346  21.783  1.00  0.00     0.067 A 
ATOM     28  C   UNL     1      48.618 134.478  24.569  1.00  0.00     0.006 A 
ATOM     29  C   UNL     1      49.547 135.309  22.490  1.00  0.00     0.020 A 
ATOM     30  C   UNL     1      49.446 135.373  23.885  1.00  0.00     0.015 A 
BRANCH  29  31
ATOM     31  S   UNL     1      50.638 136.432  21.612  1.00  0.00    -0.014 SA
BRANCH  31  32
ATOM     32  C   UNL     1      49.310 137.224  20.646  1.00  0.00     0.446 C 
ATOM     33  F   UNL     1      48.081 136.707  21.012  1.00  0.00    -0.160 F 
ATOM     34  F   UNL     1      49.320 138.582  20.899  1.00  0.00    -0.160 F 
ATOM     35  F   UNL     1      49.516 137.018  19.294  1.00  0.00    -0.160 F 
ENDBRANCH  31  32
ENDBRANCH  29  31
ENDBRANCH   1  25
TORSDOF 8
ENDMDL
MODEL 9
REMARK VINA RESULT:      -0.1      1.234      1.797
REMARK SMILES C=C[C@@H]1CN[C@H](c2c[nH+]c3ocnc3c2)N(/C(S)=[NH+]\c2cccc(SC(F)(F)F)c2)C1
REMARK SMILES IDX 19 1 17 3 18 4 16 6 31 7 6 8 3 9 5 10 4 11 7 13 15 14 8 15
REMARK SMILES IDX 14 16 9 17 13 18 10 19 12 20 11 21 2 23 1 24 20 25 21 26
REMARK SMILES IDX 30 27 22 28 24 29 23 30 25 31 26 32 27 33 28 34 29 35
REMARK H PARENT 19 2 18 5 5 12 9 22
ROOT
ATOM      1  N   UNL     1      44.433 131.208  19.343  1.00  0.00    -0.235 N 
ATOM      2  H   UNL     1      44.888 130.322  19.657  1.00  0.00     0.313 HD
ENDROOT
BRANCH   1   3
ATOM      3  C   UNL     1      44.024 132.065  20.237  1.00  0.00     0.309 C 
BRANCH   3   4
ATOM      4  S   UNL     1      42.368 132.742  20.095  1.00  0.00    -0.056 SA
ATOM      5  H   UNL     1      41.948 131.678  19.274  1.00  0.00     0.116 HD
ENDBRANCH   3   4
BRANCH   3   6
ATOM      6  N   UNL     1      44.905 132.568  21.265  1.00  0.00    -0.235 N 
ATOM      7  C   UNL     1      45.734 133.717  20.873  1.00  0.00     0.248 C 
ATOM      8  C   UNL     1      44.490 132.471  22.685  1.00  0.00     0.284 C 
ATOM      9  C   UNL     1      46.880 133.944  21.865  1.00  0.00     0.067 C 
ATOM     10  N   UNL     1      45.628 132.723  23.588  1.00  0.00    -0.274 NA
ATOM     11  C   UNL     1      46.296 133.991  23.280  1.00  0.00     0.097 C 
ATOM     12  H   UNL     1      45.260 132.792  24.567  1.00  0.00     0.127 HD
BRANCH   8  13
ATOM     13  C   UNL     1      43.935 131.096  22.995  1.00  0.00     0.078 A 
ATOM     14  C   UNL     1      44.748 129.949  22.849  1.00  0.00     0.055 A 
ATOM     15  C   UNL     1      42.590 130.938  23.432  1.00  0.00     0.319 A 
ATOM     16  C   UNL     1      44.175 128.716  23.131  1.00  0.00     0.179 A 
ATOM     17  N   UNL     1      42.083 129.694  23.694  1.00  0.00    -0.177 N 
ATOM     18  N   UNL     1      44.730 127.495  23.058  1.00  0.00    -0.209 NA
ATOM     19  C   UNL     1      42.888 128.616  23.535  1.00  0.00     0.399 A 
ATOM     20  C   UNL     1      43.698 126.693  23.442  1.00  0.00     0.316 A 
ATOM     21  O   UNL     1      42.591 127.361  23.730  1.00  0.00    -0.391 OA
ATOM     22  H   UNL     1      41.095 129.577  24.011  1.00  0.00     0.457 HD
ENDBRANCH   8  13
BRANCH   9  23
ATOM     23  C   UNL     1      47.932 132.863  21.742  1.00  0.00    -0.026 C 
ATOM     24  C   UNL     1      47.758 131.804  20.947  1.00  0.00     0.004 C 
ENDBRANCH   9  23
ENDBRANCH   3   6
ENDBRANCH   1   3
BRANCH   1  25
ATOM     25  C   UNL     1      44.291 131.404  17.931  1.00  0.00     0.126 A 
ATOM     26  C   UNL     1      43.028 131.657  17.378  1.00  0.00     0.052 A 
ATOM     27  C   UNL     1      45.424 131.430  17.109  1.00  0.00     0.067 A 
ATOM     28  C   UNL     1      42.894 131.869  16.003  1.00  0.00     0.006 A 
ATOM     29  C   UNL     1      45.291 131.632  15.730  1.00  0.00     0.020 A 
ATOM     30  C   UNL     1      44.023 131.852  15.178  1.00  0.00     0.015 A 
BRANCH  29  31
ATOM     31  S   UNL     1      46.745 131.648  14.678  1.00  0.00    -0.014 SA
BRANCH  31  32
ATOM     32  C   UNL     1      46.971 129.838  14.688  1.00  0.00     0.446 C 
ATOM     33  F   UNL     1      47.763 129.451  13.622  1.00  0.00    -0.160 F 
ATOM     34  F   UNL     1      47.591 129.469  15.865  1.00  0.00    -0.160 F 
ATOM     35  F   UNL     1      45.744 129.205  14.610  1.00  0.00    -0.160 F 
ENDBRANCH  31  32
ENDBRANCH  29  31
ENDBRANCH   1  25
TORSDOF 8
ENDMDL


