REMARK SMILES Fc1ccc2cc(-c3[nH+]cncc3F)[nH]c2c1
REMARK SMILES IDX 1 1 2 2 3 3 4 4 5 5 6 6 7 7 15 8 16 9 17 10 8 12 9 13 13 14
REMARK SMILES IDX 10 15 12 16 11 17 14 19
REMARK H PARENT 15 11 9 18
ROOT
ATOM      1  F   UNL     1      -0.175  -3.771  -3.838  1.00  0.00    -0.207 F 
ATOM      2  C   UNL     1      -0.049  -3.059  -2.692  1.00  0.00     0.125 A 
ATOM      3  C   UNL     1       0.499  -3.670  -1.541  1.00  0.00     0.040 A 
ATOM      4  C   UNL     1       0.636  -2.941  -0.345  1.00  0.00     0.013 A 
ATOM      5  C   UNL     1       0.215  -1.613  -0.342  1.00  0.00     0.000 A 
ATOM      6  C   UNL     1       0.225  -0.673   0.661  1.00  0.00     0.041 A 
ATOM      7  C   UNL     1      -0.319   0.490   0.097  1.00  0.00     0.090 A 
ATOM      8  N   UNL     1      -0.645   0.257  -1.204  1.00  0.00    -0.351 N 
ATOM      9  C   UNL     1      -0.316  -1.020  -1.453  1.00  0.00     0.049 A 
ATOM     10  C   UNL     1      -0.464  -1.715  -2.653  1.00  0.00     0.066 A 
ATOM     11  H   UNL     1      -1.066   0.901  -1.906  1.00  0.00     0.167 HD
ENDROOT
BRANCH   7  12
ATOM     12  C   UNL     1      -0.508   1.790   0.824  1.00  0.00     0.188 A 
ATOM     13  N   UNL     1      -0.136   1.891   2.139  1.00  0.00    -0.239 N 
ATOM     14  C   UNL     1      -1.063   2.933   0.203  1.00  0.00     0.215 A 
ATOM     15  C   UNL     1      -0.288   3.047   2.838  1.00  0.00     0.449 A 
ATOM     16  C   UNL     1      -1.206   4.104   0.946  1.00  0.00     0.297 A 
ATOM     17  N   UNL     1      -0.819   4.141   2.243  1.00  0.00    -0.054 NA
ATOM     18  H   UNL     1       0.278   1.083   2.650  1.00  0.00     0.312 HD
ATOM     19  F   UNL     1      -1.465   2.950  -1.089  1.00  0.00    -0.198 F 
ENDBRANCH   7  12
TORSDOF 1


