REMARK SMILES c1cc([NH2+]c2ccc3cc[nH]c3c2)c2o[nH+]cc2c1
REMARK SMILES IDX 4 1 3 4 1 5 2 6 19 7 18 8 14 9 17 10 15 11 16 12 5 14 6 15
REMARK SMILES IDX 13 16 7 17 12 18 8 19 11 20 9 21 10 22
REMARK H PARENT 4 2 4 3 16 13 11 23
ROOT
ATOM      1  N   UNL     1       1.256   0.158   1.626  1.00  0.00    -0.278 N 
ATOM      2  H   UNL     1       2.207   0.301   2.040  1.00  0.00     0.358 HD
ATOM      3  H   UNL     1       0.640   0.913   2.009  1.00  0.00     0.358 HD
ENDROOT
BRANCH   1   4
ATOM      4  C   UNL     1       0.747  -1.135   2.002  1.00  0.00     0.185 A 
ATOM      5  C   UNL     1       1.089  -3.514   2.525  1.00  0.00     0.007 A 
ATOM      6  C   UNL     1       1.610  -2.241   2.192  1.00  0.00     0.072 A 
ATOM      7  C   UNL     1      -0.298  -3.705   2.666  1.00  0.00     0.019 A 
ATOM      8  C   UNL     1      -1.121  -2.602   2.466  1.00  0.00     0.099 A 
ATOM      9  C   UNL     1      -0.626  -1.368   2.146  1.00  0.00     0.277 A 
ATOM     10  C   UNL     1      -2.488  -2.447   2.517  1.00  0.00     0.370 A 
ATOM     11  O   UNL     1      -1.623  -0.528   2.013  1.00  0.00    -0.232 OA
ATOM     12  N   UNL     1      -2.750  -1.151   2.230  1.00  0.00    -0.035 N 
ATOM     13  H   UNL     1      -3.693  -0.707   2.186  1.00  0.00     0.516 HD
ENDBRANCH   1   4
BRANCH   1  14
ATOM     14  C   UNL     1       1.324   0.250   0.190  1.00  0.00     0.136 A 
ATOM     15  C   UNL     1       2.481  -0.199  -0.502  1.00  0.00     0.069 A 
ATOM     16  C   UNL     1       0.221   0.745  -0.545  1.00  0.00     0.094 A 
ATOM     17  C   UNL     1       2.546  -0.147  -1.906  1.00  0.00     0.016 A 
ATOM     18  C   UNL     1       0.319   0.782  -1.935  1.00  0.00     0.051 A 
ATOM     19  C   UNL     1       1.441   0.352  -2.589  1.00  0.00    -0.000 A 
ATOM     20  N   UNL     1      -0.607   1.212  -2.807  1.00  0.00    -0.361 N 
ATOM     21  C   UNL     1       1.220   0.516  -3.939  1.00  0.00     0.028 A 
ATOM     22  C   UNL     1      -0.061   1.052  -4.034  1.00  0.00     0.083 A 
ATOM     23  H   UNL     1      -1.555   1.592  -2.587  1.00  0.00     0.166 HD
ENDBRANCH   1  14
TORSDOF 2


