MODEL 1
REMARK VINA RESULT:      -8.0      0.000      0.000
REMARK SMILES C=Cc1cc(-c2ccc(C(C)=O)[nH+]c2)cc(Nc2ccc(C)c(F)c2)c1[O-]
REMARK SMILES IDX 3 1 4 2 5 3 15 4 16 5 26 6 27 7 2 8 1 9 6 10 7 11 14 12 8 13
REMARK SMILES IDX 13 14 9 15 10 17 11 18 12 19 17 20 18 22 19 23 25 24 20 25
REMARK SMILES IDX 23 26 21 27 24 28 22 29
REMARK H PARENT 13 16 17 21
ROOT
ATOM      1  C   UNL     1      43.256 132.000  20.475  1.00  0.00    -0.031 A 
ATOM      2  C   UNL     1      43.837 131.874  19.199  1.00  0.00     0.016 A 
ATOM      3  C   UNL     1      44.902 130.984  18.974  1.00  0.00    -0.010 A 
ATOM      4  C   UNL     1      45.382 130.212  20.043  1.00  0.00     0.034 A 
ATOM      5  C   UNL     1      44.810 130.312  21.315  1.00  0.00     0.032 A 
ATOM      6  C   UNL     1      43.766 131.230  21.539  1.00  0.00    -0.077 A 
ATOM      7  O   UNL     1      43.247 131.384  22.822  1.00  0.00    -0.871 OA
ENDROOT
BRANCH   1   8
ATOM      8  C   UNL     1      42.152 132.961  20.734  1.00  0.00    -0.000 C 
ATOM      9  C   UNL     1      41.135 133.161  19.895  1.00  0.00     0.009 C 
ENDBRANCH   1   8
BRANCH   3  10
ATOM     10  C   UNL     1      45.513 130.867  17.626  1.00  0.00     0.046 A 
ATOM     11  C   UNL     1      46.169 129.691  17.235  1.00  0.00     0.022 A 
ATOM     12  C   UNL     1      45.451 131.929  16.711  1.00  0.00     0.315 A 
ATOM     13  C   UNL     1      46.741 129.594  15.967  1.00  0.00     0.084 A 
ATOM     14  N   UNL     1      46.013 131.816  15.476  1.00  0.00    -0.208 N 
ATOM     15  C   UNL     1      46.658 130.678  15.077  1.00  0.00     0.246 A 
ATOM     16  H   UNL     1      45.933 132.636  14.836  1.00  0.00     0.454 HD
BRANCH  15  17
ATOM     17  C   UNL     1      47.268 130.575  13.723  1.00  0.00     0.223 C 
ATOM     18  C   UNL     1      48.338 129.573  13.416  1.00  0.00     0.100 C 
ATOM     19  O   UNL     1      46.884 131.346  12.803  1.00  0.00    -0.288 OA
ENDBRANCH  15  17
ENDBRANCH   3  10
BRANCH   5  20
ATOM     20  N   UNL     1      45.337 129.509  22.383  1.00  0.00    -0.356 N 
ATOM     21  H   UNL     1      46.174 129.873  22.895  1.00  0.00     0.166 HD
BRANCH  20  22
ATOM     22  C   UNL     1      44.856 128.196  22.719  1.00  0.00     0.041 A 
ATOM     23  C   UNL     1      43.744 128.065  23.563  1.00  0.00     0.026 A 
ATOM     24  C   UNL     1      45.510 127.036  22.265  1.00  0.00     0.065 A 
ATOM     25  C   UNL     1      43.270 126.800  23.921  1.00  0.00     0.008 A 
ATOM     26  C   UNL     1      45.037 125.770  22.622  1.00  0.00     0.128 A 
ATOM     27  C   UNL     1      43.902 125.643  23.440  1.00  0.00    -0.015 A 
ATOM     28  F   UNL     1      45.689 124.667  22.175  1.00  0.00    -0.207 F 
ATOM     29  C   UNL     1      43.410 124.286  23.848  1.00  0.00     0.047 C 
ENDBRANCH  20  22
ENDBRANCH   5  20
TORSDOF 5
ENDMDL
MODEL 2
REMARK VINA RESULT:      -6.3      3.258      7.938
REMARK SMILES C=Cc1cc(-c2ccc(C(C)=O)[nH+]c2)cc(Nc2ccc(C)c(F)c2)c1[O-]
REMARK SMILES IDX 3 1 4 2 5 3 15 4 16 5 26 6 27 7 2 8 1 9 6 10 7 11 14 12 8 13
REMARK SMILES IDX 13 14 9 15 10 17 11 18 12 19 17 20 18 22 19 23 25 24 20 25
REMARK SMILES IDX 23 26 21 27 24 28 22 29
REMARK H PARENT 13 16 17 21
ROOT
ATOM      1  C   UNL     1      43.645 130.601  22.201  1.00  0.00    -0.031 A 
ATOM      2  C   UNL     1      43.890 129.321  22.733  1.00  0.00     0.016 A 
ATOM      3  C   UNL     1      44.857 128.474  22.164  1.00  0.00    -0.010 A 
ATOM      4  C   UNL     1      45.586 128.922  21.052  1.00  0.00     0.034 A 
ATOM      5  C   UNL     1      45.367 130.195  20.516  1.00  0.00     0.032 A 
ATOM      6  C   UNL     1      44.374 131.024  21.072  1.00  0.00    -0.077 A 
ATOM      7  O   UNL     1      44.104 132.260  20.492  1.00  0.00    -0.871 OA
ENDROOT
BRANCH   1   8
ATOM      8  C   UNL     1      42.603 131.493  22.773  1.00  0.00    -0.000 C 
ATOM      9  C   UNL     1      42.466 131.727  24.079  1.00  0.00     0.009 C 
ENDBRANCH   1   8
BRANCH   3  10
ATOM     10  C   UNL     1      45.100 127.122  22.729  1.00  0.00     0.046 A 
ATOM     11  C   UNL     1      45.334 126.948  24.100  1.00  0.00     0.022 A 
ATOM     12  C   UNL     1      45.103 125.986  21.904  1.00  0.00     0.315 A 
ATOM     13  C   UNL     1      45.563 125.674  24.618  1.00  0.00     0.084 A 
ATOM     14  N   UNL     1      45.328 124.749  22.427  1.00  0.00    -0.208 N 
ATOM     15  C   UNL     1      45.558 124.559  23.762  1.00  0.00     0.246 A 
ATOM     16  H   UNL     1      45.314 123.941  21.768  1.00  0.00     0.454 HD
BRANCH  15  17
ATOM     17  C   UNL     1      45.802 123.199  24.313  1.00  0.00     0.223 C 
ATOM     18  C   UNL     1      47.185 122.709  24.618  1.00  0.00     0.100 C 
ATOM     19  O   UNL     1      44.829 122.427  24.533  1.00  0.00    -0.288 OA
ENDBRANCH  15  17
ENDBRANCH   3  10
BRANCH   5  20
ATOM     20  N   UNL     1      46.130 130.611  19.371  1.00  0.00    -0.356 N 
ATOM     21  H   UNL     1      47.132 130.867  19.525  1.00  0.00     0.166 HD
BRANCH  20  22
ATOM     22  C   UNL     1      45.576 130.798  18.057  1.00  0.00     0.041 A 
ATOM     23  C   UNL     1      44.330 131.426  17.918  1.00  0.00     0.026 A 
ATOM     24  C   UNL     1      46.232 130.316  16.910  1.00  0.00     0.065 A 
ATOM     25  C   UNL     1      43.762 131.602  16.653  1.00  0.00     0.008 A 
ATOM     26  C   UNL     1      45.664 130.490  15.644  1.00  0.00     0.128 A 
ATOM     27  C   UNL     1      44.432 131.149  15.505  1.00  0.00    -0.015 A 
ATOM     28  F   UNL     1      46.314 130.009  14.553  1.00  0.00    -0.207 F 
ATOM     29  C   UNL     1      43.808 131.312  14.150  1.00  0.00     0.047 C 
ENDBRANCH  20  22
ENDBRANCH   5  20
TORSDOF 5
ENDMDL
MODEL 3
REMARK VINA RESULT:      -5.9      1.211      1.601
REMARK SMILES C=Cc1cc(-c2ccc(C(C)=O)[nH+]c2)cc(Nc2ccc(C)c(F)c2)c1[O-]
REMARK SMILES IDX 3 1 4 2 5 3 15 4 16 5 26 6 27 7 2 8 1 9 6 10 7 11 14 12 8 13
REMARK SMILES IDX 13 14 9 15 10 17 11 18 12 19 17 20 18 22 19 23 25 24 20 25
REMARK SMILES IDX 23 26 21 27 24 28 22 29
REMARK H PARENT 13 16 17 21
ROOT
ATOM      1  C   UNL     1      43.383 131.474  21.488  1.00  0.00    -0.031 A 
ATOM      2  C   UNL     1      43.788 131.550  20.141  1.00  0.00     0.016 A 
ATOM      3  C   UNL     1      44.782 130.694  19.635  1.00  0.00    -0.010 A 
ATOM      4  C   UNL     1      45.370 129.750  20.492  1.00  0.00     0.034 A 
ATOM      5  C   UNL     1      44.972 129.650  21.829  1.00  0.00     0.032 A 
ATOM      6  C   UNL     1      44.000 130.533  22.336  1.00  0.00    -0.077 A 
ATOM      7  O   UNL     1      43.660 130.483  23.685  1.00  0.00    -0.871 OA
ENDROOT
BRANCH   1   8
ATOM      8  C   UNL     1      42.358 132.395  22.044  1.00  0.00    -0.000 C 
ATOM      9  C   UNL     1      41.382 132.939  21.316  1.00  0.00     0.009 C 
ENDBRANCH   1   8
BRANCH   3  10
ATOM     10  C   UNL     1      45.207 130.790  18.215  1.00  0.00     0.046 A 
ATOM     11  C   UNL     1      45.967 129.771  17.624  1.00  0.00     0.022 A 
ATOM     12  C   UNL     1      44.860 131.902  17.433  1.00  0.00     0.315 A 
ATOM     13  C   UNL     1      46.362 129.874  16.291  1.00  0.00     0.084 A 
ATOM     14  N   UNL     1      45.253 131.985  16.132  1.00  0.00    -0.208 N 
ATOM     15  C   UNL     1      45.996 131.002  15.537  1.00  0.00     0.246 A 
ATOM     16  H   UNL     1      44.963 132.831  15.596  1.00  0.00     0.454 HD
BRANCH  15  17
ATOM     17  C   UNL     1      46.416 131.112  14.114  1.00  0.00     0.223 C 
ATOM     18  C   UNL     1      47.861 131.176  13.722  1.00  0.00     0.100 C 
ATOM     19  O   UNL     1      45.545 131.156  13.204  1.00  0.00    -0.288 OA
ENDBRANCH  15  17
ENDBRANCH   3  10
BRANCH   5  20
ATOM     20  N   UNL     1      45.606 128.675  22.674  1.00  0.00    -0.356 N 
ATOM     21  H   UNL     1      46.468 128.968  23.189  1.00  0.00     0.166 HD
BRANCH  20  22
ATOM     22  C   UNL     1      45.192 127.301  22.772  1.00  0.00     0.041 A 
ATOM     23  C   UNL     1      45.975 126.302  22.175  1.00  0.00     0.026 A 
ATOM     24  C   UNL     1      43.989 126.940  23.405  1.00  0.00     0.065 A 
ATOM     25  C   UNL     1      45.584 124.961  22.239  1.00  0.00     0.008 A 
ATOM     26  C   UNL     1      43.597 125.599  23.470  1.00  0.00     0.128 A 
ATOM     27  C   UNL     1      44.401 124.599  22.900  1.00  0.00    -0.015 A 
ATOM     28  F   UNL     1      42.428 125.279  24.081  1.00  0.00    -0.207 F 
ATOM     29  C   UNL     1      43.967 123.163  22.943  1.00  0.00     0.047 C 
ENDBRANCH  20  22
ENDBRANCH   5  20
TORSDOF 5
ENDMDL
MODEL 4
REMARK VINA RESULT:      -5.3      4.621      8.003
REMARK SMILES C=Cc1cc(-c2ccc(C(C)=O)[nH+]c2)cc(Nc2ccc(C)c(F)c2)c1[O-]
REMARK SMILES IDX 3 1 4 2 5 3 15 4 16 5 26 6 27 7 2 8 1 9 6 10 7 11 14 12 8 13
REMARK SMILES IDX 13 14 9 15 10 17 11 18 12 19 17 20 18 22 19 23 25 24 20 25
REMARK SMILES IDX 23 26 21 27 24 28 22 29
REMARK H PARENT 13 16 17 21
ROOT
ATOM      1  C   UNL     1      43.934 124.668  22.766  1.00  0.00    -0.031 A 
ATOM      2  C   UNL     1      45.258 124.223  22.591  1.00  0.00     0.016 A 
ATOM      3  C   UNL     1      46.346 125.085  22.814  1.00  0.00    -0.010 A 
ATOM      4  C   UNL     1      46.099 126.405  23.221  1.00  0.00     0.034 A 
ATOM      5  C   UNL     1      44.791 126.863  23.413  1.00  0.00     0.032 A 
ATOM      6  C   UNL     1      43.706 126.003  23.155  1.00  0.00    -0.077 A 
ATOM      7  O   UNL     1      42.404 126.482  23.274  1.00  0.00    -0.871 OA
ENDROOT
BRANCH   1   8
ATOM      8  C   UNL     1      42.774 123.778  22.502  1.00  0.00    -0.000 C 
ATOM      9  C   UNL     1      42.774 122.821  21.572  1.00  0.00     0.009 C 
ENDBRANCH   1   8
BRANCH   3  10
ATOM     10  C   UNL     1      47.739 124.606  22.617  1.00  0.00     0.046 A 
ATOM     11  C   UNL     1      48.266 124.444  21.328  1.00  0.00     0.022 A 
ATOM     12  C   UNL     1      48.559 124.305  23.715  1.00  0.00     0.315 A 
ATOM     13  C   UNL     1      49.573 123.992  21.157  1.00  0.00     0.084 A 
ATOM     14  N   UNL     1      49.834 123.866  23.529  1.00  0.00    -0.208 N 
ATOM     15  C   UNL     1      50.367 123.700  22.279  1.00  0.00     0.246 A 
ATOM     16  H   UNL     1      50.400 123.661  24.380  1.00  0.00     0.454 HD
BRANCH  15  17
ATOM     17  C   UNL     1      51.762 123.218  22.097  1.00  0.00     0.223 C 
ATOM     18  C   UNL     1      52.158 122.375  20.923  1.00  0.00     0.100 C 
ATOM     19  O   UNL     1      52.645 123.517  22.946  1.00  0.00    -0.288 OA
ENDBRANCH  15  17
ENDBRANCH   3  10
BRANCH   5  20
ATOM     20  N   UNL     1      44.582 128.225  23.822  1.00  0.00    -0.356 N 
ATOM     21  H   UNL     1      44.589 128.429  24.848  1.00  0.00     0.166 HD
BRANCH  20  22
ATOM     22  C   UNL     1      44.260 129.298  22.920  1.00  0.00     0.041 A 
ATOM     23  C   UNL     1      43.121 130.080  23.159  1.00  0.00     0.026 A 
ATOM     24  C   UNL     1      45.032 129.547  21.771  1.00  0.00     0.065 A 
ATOM     25  C   UNL     1      42.776 131.116  22.287  1.00  0.00     0.008 A 
ATOM     26  C   UNL     1      44.688 130.583  20.897  1.00  0.00     0.128 A 
ATOM     27  C   UNL     1      43.566 131.385  21.158  1.00  0.00    -0.015 A 
ATOM     28  F   UNL     1      45.446 130.798  19.791  1.00  0.00    -0.207 F 
ATOM     29  C   UNL     1      43.178 132.479  20.206  1.00  0.00     0.047 C 
ENDBRANCH  20  22
ENDBRANCH   5  20
TORSDOF 5
ENDMDL
MODEL 5
REMARK VINA RESULT:      -5.1      5.124      7.478
REMARK SMILES C=Cc1cc(-c2ccc(C(C)=O)[nH+]c2)cc(Nc2ccc(C)c(F)c2)c1[O-]
REMARK SMILES IDX 3 1 4 2 5 3 15 4 16 5 26 6 27 7 2 8 1 9 6 10 7 11 14 12 8 13
REMARK SMILES IDX 13 14 9 15 10 17 11 18 12 19 17 20 18 22 19 23 25 24 20 25
REMARK SMILES IDX 23 26 21 27 24 28 22 29
REMARK H PARENT 13 16 17 21
ROOT
ATOM      1  C   UNL     1      44.782 131.951  22.577  1.00  0.00    -0.031 A 
ATOM      2  C   UNL     1      45.800 132.907  22.766  1.00  0.00     0.016 A 
ATOM      3  C   UNL     1      46.878 133.001  21.869  1.00  0.00    -0.010 A 
ATOM      4  C   UNL     1      46.931 132.128  20.771  1.00  0.00     0.034 A 
ATOM      5  C   UNL     1      45.924 131.181  20.559  1.00  0.00     0.032 A 
ATOM      6  C   UNL     1      44.864 131.071  21.480  1.00  0.00    -0.077 A 
ATOM      7  O   UNL     1      43.902 130.079  21.310  1.00  0.00    -0.871 OA
ENDROOT
BRANCH   1   8
ATOM      8  C   UNL     1      43.654 131.819  23.536  1.00  0.00    -0.000 C 
ATOM      9  C   UNL     1      43.513 132.584  24.620  1.00  0.00     0.009 C 
ENDBRANCH   1   8
BRANCH   3  10
ATOM     10  C   UNL     1      47.950 134.006  22.083  1.00  0.00     0.046 A 
ATOM     11  C   UNL     1      48.928 133.814  23.070  1.00  0.00     0.022 A 
ATOM     12  C   UNL     1      48.010 135.172  21.305  1.00  0.00     0.315 A 
ATOM     13  C   UNL     1      49.927 134.766  23.263  1.00  0.00     0.084 A 
ATOM     14  N   UNL     1      48.995 136.091  21.507  1.00  0.00    -0.208 N 
ATOM     15  C   UNL     1      49.957 135.922  22.465  1.00  0.00     0.246 A 
ATOM     16  H   UNL     1      48.993 136.937  20.897  1.00  0.00     0.454 HD
BRANCH  15  17
ATOM     17  C   UNL     1      51.024 136.939  22.669  1.00  0.00     0.223 C 
ATOM     18  C   UNL     1      51.974 136.862  23.825  1.00  0.00     0.100 C 
ATOM     19  O   UNL     1      51.142 137.896  21.857  1.00  0.00    -0.288 OA
ENDBRANCH  15  17
ENDBRANCH   3  10
BRANCH   5  20
ATOM     20  N   UNL     1      46.020 130.301  19.427  1.00  0.00    -0.356 N 
ATOM     21  H   UNL     1      46.571 129.420  19.544  1.00  0.00     0.166 HD
BRANCH  20  22
ATOM     22  C   UNL     1      45.499 130.606  18.121  1.00  0.00     0.041 A 
ATOM     23  C   UNL     1      44.386 131.450  18.004  1.00  0.00     0.026 A 
ATOM     24  C   UNL     1      46.047 130.031  16.961  1.00  0.00     0.065 A 
ATOM     25  C   UNL     1      43.849 131.745  16.747  1.00  0.00     0.008 A 
ATOM     26  C   UNL     1      45.511 130.325  15.703  1.00  0.00     0.128 A 
ATOM     27  C   UNL     1      44.417 131.198  15.587  1.00  0.00    -0.015 A 
ATOM     28  F   UNL     1      46.054 129.751  14.599  1.00  0.00    -0.207 F 
ATOM     29  C   UNL     1      43.822 131.492  14.241  1.00  0.00     0.047 C 
ENDBRANCH  20  22
ENDBRANCH   5  20
TORSDOF 5
ENDMDL


