REMARK SMILES Cc1c(Nc2c3o[n-]cc-3cc(-n3nc4ccccc4n3)c2=O)cc(-c2ccc(O)cc2)c2cc[nH]c12
REMARK SMILES IDX 1 1 2 2 3 3 24 4 25 5 33 6 34 7 35 8 36 9 37 10 4 12 5 14
REMARK SMILES IDX 6 15 22 16 7 17 10 18 12 19 8 20 9 21 11 22 23 23 13 24
REMARK SMILES IDX 14 25 21 26 15 27 20 28 16 29 19 30 17 31 18 32 26 33 27 34
REMARK SMILES IDX 32 35 28 36 31 37 29 38 30 39
REMARK H PARENT 36 11 4 13 30 40
ROOT
ATOM      1  C   UNL     1       5.105  -1.457   1.571  1.00  0.00     0.049 C 
ATOM      2  C   UNL     1       3.672  -1.149   1.918  1.00  0.00    -0.003 A 
ATOM      3  C   UNL     1       2.989  -0.044   1.341  1.00  0.00     0.044 A 
ATOM      4  C   UNL     1       1.642   0.218   1.698  1.00  0.00     0.035 A 
ATOM      5  C   UNL     1       0.951  -0.603   2.611  1.00  0.00    -0.007 A 
ATOM      6  C   UNL     1       1.663  -1.665   3.182  1.00  0.00     0.008 A 
ATOM      7  C   UNL     1       1.296  -2.579   4.153  1.00  0.00     0.028 A 
ATOM      8  C   UNL     1       2.420  -3.364   4.367  1.00  0.00     0.083 A 
ATOM      9  N   UNL     1       3.439  -2.962   3.577  1.00  0.00    -0.361 N 
ATOM     10  C   UNL     1       2.973  -1.924   2.857  1.00  0.00     0.051 A 
ATOM     11  H   UNL     1       4.399  -3.373   3.564  1.00  0.00     0.166 HD
ENDROOT
BRANCH   3  12
ATOM     12  N   UNL     1       3.674   0.845   0.439  1.00  0.00    -0.349 N 
ATOM     13  H   UNL     1       4.658   1.113   0.666  1.00  0.00     0.167 HD
BRANCH  12  14
ATOM     14  C   UNL     1       3.034   1.516  -0.661  1.00  0.00     0.131 A 
ATOM     15  C   UNL     1       3.381   2.821  -0.976  1.00  0.00     0.140 A 
ATOM     16  C   UNL     1       2.067   0.881  -1.490  1.00  0.00     0.233 A 
ATOM     17  O   UNL     1       4.241   3.625  -0.403  1.00  0.00    -0.555 OA
ATOM     18  C   UNL     1       2.773   3.515  -2.055  1.00  0.00     0.000 A 
ATOM     19  C   UNL     1       1.437   1.588  -2.571  1.00  0.00     0.136 A 
ATOM     20  N   UNL     1       4.255   4.785  -1.009  1.00  0.00    -0.513 NA
ATOM     21  C   UNL     1       3.362   4.756  -2.031  1.00  0.00    -0.098 A 
ATOM     22  C   UNL     1       1.806   2.929  -2.850  1.00  0.00     0.044 A 
ATOM     23  O   UNL     1       1.784  -0.329  -1.282  1.00  0.00    -0.285 OA
BRANCH  19  24
ATOM     24  N   UNL     1       0.428   0.956  -3.390  1.00  0.00    -0.146 N 
ATOM     25  N   UNL     1      -0.077  -0.256  -3.157  1.00  0.00    -0.148 NA
ATOM     26  N   UNL     1      -0.116   1.539  -4.460  1.00  0.00    -0.148 NA
ATOM     27  C   UNL     1      -0.981  -0.450  -4.128  1.00  0.00     0.113 A 
ATOM     28  C   UNL     1      -1.005   0.649  -4.926  1.00  0.00     0.113 A 
ATOM     29  C   UNL     1      -1.800  -1.551  -4.354  1.00  0.00     0.032 A 
ATOM     30  C   UNL     1      -1.851   0.751  -6.026  1.00  0.00     0.032 A 
ATOM     31  C   UNL     1      -2.673  -1.490  -5.460  1.00  0.00     0.002 A 
ATOM     32  C   UNL     1      -2.698  -0.344  -6.292  1.00  0.00     0.002 A 
ENDBRANCH  19  24
ENDBRANCH  12  14
ENDBRANCH   3  12
BRANCH   5  33
ATOM     33  C   UNL     1      -0.464  -0.325   2.951  1.00  0.00    -0.017 A 
ATOM     34  C   UNL     1      -0.867   0.976   3.298  1.00  0.00     0.012 A 
ATOM     35  C   UNL     1      -1.426  -1.349   2.896  1.00  0.00     0.012 A 
ATOM     36  C   UNL     1      -2.205   1.243   3.602  1.00  0.00     0.047 A 
ATOM     37  C   UNL     1      -2.763  -1.078   3.201  1.00  0.00     0.047 A 
ATOM     38  C   UNL     1      -3.157   0.216   3.555  1.00  0.00     0.115 A 
BRANCH  38  39
ATOM     39  O   UNL     1      -4.493   0.471   3.856  1.00  0.00    -0.508 OA
ATOM     40  H   UNL     1      -4.809   1.398   4.116  1.00  0.00     0.293 HD
ENDBRANCH  38  39
ENDBRANCH   5  33
TORSDOF 5


