REMARK SMILES O=C([N-]Cc1ccc[nH]1)c1ccc2cc[nH]c2c1N=C=S
REMARK SMILES IDX 2 1 1 2 10 3 11 4 12 5 18 6 13 7 17 8 14 9 16 10 15 11 19 13
REMARK SMILES IDX 20 14 21 15 3 16 4 17 5 18 6 19 9 20 7 21 8 22
REMARK H PARENT 16 12 9 23
ROOT
ATOM      1  C   UNL     1       2.449   1.194   1.394  1.00  0.00     0.085 C 
ATOM      2  O   UNL     1       3.241   1.791   2.170  1.00  0.00    -0.315 OA
ENDROOT
BRANCH   1   3
ATOM      3  C   UNL     1       2.165  -0.235   1.617  1.00  0.00     0.028 A 
ATOM      4  C   UNL     1       1.422  -0.578   2.774  1.00  0.00     0.013 A 
ATOM      5  C   UNL     1       1.044  -1.906   3.025  1.00  0.00     0.011 A 
ATOM      6  C   UNL     1       2.569  -1.260   0.702  1.00  0.00     0.107 A 
ATOM      7  C   UNL     1       1.422  -2.872   2.103  1.00  0.00     0.002 A 
ATOM      8  C   UNL     1       2.152  -2.566   0.986  1.00  0.00     0.073 A 
ATOM      9  C   UNL     1       1.193  -4.231   2.092  1.00  0.00     0.028 A 
ATOM     10  N   UNL     1       2.400  -3.676   0.268  1.00  0.00    -0.359 N 
ATOM     11  C   UNL     1       1.814  -4.694   0.938  1.00  0.00     0.083 A 
ATOM     12  H   UNL     1       2.936  -3.747  -0.626  1.00  0.00     0.166 HD
BRANCH   6  13
ATOM     13  N   UNL     1       3.379  -1.044  -0.469  1.00  0.00    -0.192 NA
BRANCH  13  14
ATOM     14  C   UNL     1       4.077  -0.008  -0.710  1.00  0.00     0.064 C 
ATOM     15  S   UNL     1       4.968   1.297  -1.030  1.00  0.00    -0.006 S 
ENDBRANCH  13  14
ENDBRANCH   6  13
ENDBRANCH   1   3
BRANCH   1  16
ATOM     16  N   UNL     1       1.815   1.930   0.343  1.00  0.00    -0.644 NA
BRANCH  16  17
ATOM     17  C   UNL     1       0.765   1.390  -0.511  1.00  0.00    -0.062 C 
BRANCH  17  18
ATOM     18  C   UNL     1       0.339   2.435  -1.489  1.00  0.00    -0.003 A 
ATOM     19  C   UNL     1       0.956   2.700  -2.696  1.00  0.00     0.021 A 
ATOM     20  N   UNL     1      -0.655   3.315  -1.267  1.00  0.00    -0.366 N 
ATOM     21  C   UNL     1       0.289   3.781  -3.238  1.00  0.00     0.019 A 
ATOM     22  C   UNL     1      -0.694   4.134  -2.334  1.00  0.00     0.082 A 
ATOM     23  H   UNL     1      -1.271   3.364  -0.426  1.00  0.00     0.166 HD
ENDBRANCH  17  18
ENDBRANCH  16  17
ENDBRANCH   1  16
TORSDOF 6


