REMARK SMILES O=C=Nc1cc([O-])c(F)cc1[NH2+]c1ccc2cc[nH]c2c1
REMARK SMILES IDX 5 1 6 2 7 3 8 4 9 5 10 6 11 7 4 8 3 9 2 10 1 11 12 12 13 15
REMARK SMILES IDX 14 16 21 17 15 18 20 19 16 20 19 21 17 22 18 23
REMARK H PARENT 12 13 12 14 19 24
ROOT
ATOM      1  C   UNL     1       1.271  -1.584   2.286  1.00  0.00     0.030 A 
ATOM      2  C   UNL     1       1.486  -2.705   1.482  1.00  0.00    -0.069 A 
ATOM      3  O   UNL     1       2.272  -3.752   1.950  1.00  0.00    -0.870 OA
ATOM      4  C   UNL     1       0.913  -2.775   0.212  1.00  0.00     0.121 A 
ATOM      5  F   UNL     1       1.122  -3.863  -0.571  1.00  0.00    -0.207 F 
ATOM      6  C   UNL     1       0.124  -1.724  -0.258  1.00  0.00     0.109 A 
ATOM      7  C   UNL     1      -0.108  -0.586   0.538  1.00  0.00     0.164 A 
ATOM      8  C   UNL     1       0.476  -0.512   1.826  1.00  0.00     0.137 A 
ENDROOT
BRANCH   8   9
ATOM      9  N   UNL     1       0.243   0.649   2.642  1.00  0.00    -0.162 NA
BRANCH   9  10
ATOM     10  C   UNL     1       0.733   0.818   3.805  1.00  0.00     0.240 C 
ATOM     11  O   UNL     1       1.209   0.982   4.935  1.00  0.00    -0.211 OA
ENDBRANCH   9  10
ENDBRANCH   8   9
BRANCH   7  12
ATOM     12  N   UNL     1      -0.902   0.502   0.014  1.00  0.00    -0.280 N 
ATOM     13  H   UNL     1      -1.596   0.140  -0.682  1.00  0.00     0.358 HD
ATOM     14  H   UNL     1      -1.462   0.947   0.778  1.00  0.00     0.358 HD
BRANCH  12  15
ATOM     15  C   UNL     1      -0.048   1.472  -0.625  1.00  0.00     0.136 A 
ATOM     16  C   UNL     1       0.336   2.657   0.061  1.00  0.00     0.069 A 
ATOM     17  C   UNL     1       0.433   1.241  -1.936  1.00  0.00     0.094 A 
ATOM     18  C   UNL     1       1.188   3.596  -0.546  1.00  0.00     0.016 A 
ATOM     19  C   UNL     1       1.275   2.193  -2.507  1.00  0.00     0.051 A 
ATOM     20  C   UNL     1       1.639   3.328  -1.835  1.00  0.00    -0.000 A 
ATOM     21  N   UNL     1       1.835   2.161  -3.727  1.00  0.00    -0.361 N 
ATOM     22  C   UNL     1       2.468   4.051  -2.664  1.00  0.00     0.028 A 
ATOM     23  C   UNL     1       2.566   3.295  -3.828  1.00  0.00     0.083 A 
ATOM     24  H   UNL     1       1.732   1.416  -4.451  1.00  0.00     0.166 HD
ENDBRANCH  12  15
ENDBRANCH   7  12
TORSDOF 4


