REMARK SMILES O/C(=N\c1ccc(Br)nc1Cl)N(c1cc2ccccc2[nH]1)c1cn2ccccc2[nH+]1
REMARK SMILES IDX 2 1 1 2 3 4 4 5 10 6 5 7 9 8 6 9 7 10 11 11 8 12 12 13 13 14
REMARK SMILES IDX 14 15 21 16 15 17 20 18 16 19 19 20 17 21 18 22 22 24 23 25
REMARK SMILES IDX 30 26 24 27 29 28 25 29 28 30 26 31 27 32
REMARK H PARENT 1 3 21 23 30 33
ROOT
ATOM      1  C   UNL     1      -0.458   1.204  -0.777  1.00  0.00     0.364 C 
ENDROOT
BRANCH   1   2
ATOM      2  O   UNL     1       0.215   2.073  -1.639  1.00  0.00    -0.468 OA
ATOM      3  H   UNL     1       1.162   1.889  -1.946  1.00  0.00     0.298 HD
ENDBRANCH   1   2
BRANCH   1   4
ATOM      4  N   UNL     1      -1.699   1.433  -0.461  1.00  0.00    -0.179 NA
BRANCH   4   5
ATOM      5  C   UNL     1      -2.483   2.508  -0.993  1.00  0.00     0.108 A 
ATOM      6  C   UNL     1      -2.758   2.623  -2.370  1.00  0.00     0.156 A 
ATOM      7  C   UNL     1      -3.047   3.438  -0.114  1.00  0.00     0.034 A 
ATOM      8  N   UNL     1      -3.523   3.652  -2.822  1.00  0.00    -0.227 NA
ATOM      9  C   UNL     1      -3.824   4.487  -0.607  1.00  0.00     0.038 A 
ATOM     10  C   UNL     1      -4.047   4.583  -1.982  1.00  0.00     0.108 A 
ATOM     11  Cl  UNL     1      -2.200   1.423  -3.527  1.00  0.00    -0.060 Cl
ATOM     12  Br  UNL     1      -5.107   6.004  -2.688  1.00  0.00    -0.029 Br
ENDBRANCH   4   5
ENDBRANCH   1   4
BRANCH   1  13
ATOM     13  N   UNL     1       0.223   0.067  -0.217  1.00  0.00    -0.160 N 
BRANCH  13  14
ATOM     14  C   UNL     1       1.621   0.163   0.112  1.00  0.00     0.180 A 
ATOM     15  C   UNL     1       2.541  -0.882   0.022  1.00  0.00     0.073 A 
ATOM     16  N   UNL     1       2.213   1.306   0.536  1.00  0.00    -0.328 N 
ATOM     17  C   UNL     1       3.738  -0.327   0.418  1.00  0.00     0.003 A 
ATOM     18  C   UNL     1       3.506   0.991   0.721  1.00  0.00     0.048 A 
ATOM     19  C   UNL     1       5.006  -0.894   0.528  1.00  0.00     0.010 A 
ATOM     20  C   UNL     1       4.528   1.833   1.157  1.00  0.00     0.027 A 
ATOM     21  C   UNL     1       6.058  -0.068   0.965  1.00  0.00     0.001 A 
ATOM     22  C   UNL     1       5.820   1.289   1.279  1.00  0.00     0.002 A 
ATOM     23  H   UNL     1       1.762   2.233   0.698  1.00  0.00     0.169 HD
ENDBRANCH  13  14
BRANCH  13  24
ATOM     24  C   UNL     1      -0.503  -1.153   0.034  1.00  0.00     0.269 A 
ATOM     25  C   UNL     1      -0.235  -2.070   1.044  1.00  0.00     0.249 A 
ATOM     26  N   UNL     1      -1.577  -1.560  -0.684  1.00  0.00    -0.243 N 
ATOM     27  N   UNL     1      -1.153  -3.046   0.935  1.00  0.00    -0.233 N 
ATOM     28  C   UNL     1      -1.942  -2.718  -0.104  1.00  0.00     0.230 A 
ATOM     29  C   UNL     1      -1.324  -4.167   1.680  1.00  0.00     0.168 A 
ATOM     30  C   UNL     1      -3.005  -3.536  -0.483  1.00  0.00     0.081 A 
ATOM     31  C   UNL     1      -2.379  -5.029   1.345  1.00  0.00     0.035 A 
ATOM     32  C   UNL     1      -3.219  -4.709   0.260  1.00  0.00     0.010 A 
ATOM     33  H   UNL     1      -2.017  -1.094  -1.509  1.00  0.00     0.267 HD
ENDBRANCH  13  24
ENDBRANCH   1  13
TORSDOF 6


