MODEL 1
REMARK VINA RESULT:      -9.9      0.000      0.000
REMARK SMILES Cc1cc(F)ncc1-c1ccc2c(C)n[nH]c2c1
REMARK SMILES IDX 9 1 10 2 11 3 12 4 13 5 14 6 15 7 16 8 17 9 18 10 8 12 2 13
REMARK SMILES IDX 3 14 4 15 7 16 6 17 1 18 5 19
REMARK H PARENT 16 11
ROOT
ATOM      1  C   UNL     1      45.020 131.291  17.361  1.00  0.00    -0.014 A 
ATOM      2  C   UNL     1      45.434 132.400  16.575  1.00  0.00     0.009 A 
ATOM      3  C   UNL     1      46.155 132.207  15.381  1.00  0.00     0.013 A 
ATOM      4  C   UNL     1      46.446 130.897  15.011  1.00  0.00     0.023 A 
ATOM      5  C   UNL     1      47.126 130.354  13.940  1.00  0.00     0.067 A 
ATOM      6  C   UNL     1      47.793 131.101  12.833  1.00  0.00     0.069 C 
ATOM      7  N   UNL     1      47.147 129.006  14.076  1.00  0.00    -0.180 NA
ATOM      8  N   UNL     1      46.493 128.693  15.190  1.00  0.00    -0.278 N 
ATOM      9  C   UNL     1      46.064 129.828  15.766  1.00  0.00     0.066 A 
ATOM     10  C   UNL     1      45.352 129.978  16.953  1.00  0.00     0.037 A 
ATOM     11  H   UNL     1      46.356 127.720  15.543  1.00  0.00     0.190 HD
ENDROOT
BRANCH   1  12
ATOM     12  C   UNL     1      44.274 131.516  18.619  1.00  0.00     0.003 A 
ATOM     13  C   UNL     1      44.863 131.323  19.893  1.00  0.00    -0.037 A 
ATOM     14  C   UNL     1      44.106 131.600  21.042  1.00  0.00     0.064 A 
ATOM     15  C   UNL     1      42.782 132.024  20.916  1.00  0.00     0.213 A 
ATOM     16  C   UNL     1      42.935 131.932  18.550  1.00  0.00     0.123 A 
ATOM     17  N   UNL     1      42.230 132.175  19.685  1.00  0.00    -0.228 NA
ATOM     18  C   UNL     1      46.281 130.842  20.053  1.00  0.00     0.045 C 
ATOM     19  F   UNL     1      42.045 132.283  22.022  1.00  0.00    -0.185 F 
ENDBRANCH   1  12
TORSDOF 1
ENDMDL
MODEL 2
REMARK VINA RESULT:      -9.6      0.946      1.675
REMARK SMILES Cc1cc(F)ncc1-c1ccc2c(C)n[nH]c2c1
REMARK SMILES IDX 9 1 10 2 11 3 12 4 13 5 14 6 15 7 16 8 17 9 18 10 8 12 2 13
REMARK SMILES IDX 3 14 4 15 7 16 6 17 1 18 5 19
REMARK H PARENT 16 11
ROOT
ATOM      1  C   UNL     1      45.300 131.219  17.574  1.00  0.00    -0.014 A 
ATOM      2  C   UNL     1      45.464 132.348  16.728  1.00  0.00     0.009 A 
ATOM      3  C   UNL     1      46.060 132.216  15.459  1.00  0.00     0.013 A 
ATOM      4  C   UNL     1      46.481 130.946  15.076  1.00  0.00     0.023 A 
ATOM      5  C   UNL     1      47.097 130.465  13.939  1.00  0.00     0.067 A 
ATOM      6  C   UNL     1      47.523 131.258  12.749  1.00  0.00     0.069 C 
ATOM      7  N   UNL     1      47.317 129.136  14.092  1.00  0.00    -0.180 NA
ATOM      8  N   UNL     1      46.847 128.773  15.281  1.00  0.00    -0.278 N 
ATOM      9  C   UNL     1      46.338 129.858  15.888  1.00  0.00     0.066 A 
ATOM     10  C   UNL     1      45.757 129.950  17.149  1.00  0.00     0.037 A 
ATOM     11  H   UNL     1      46.886 127.803  15.662  1.00  0.00     0.190 HD
ENDROOT
BRANCH   1  12
ATOM     12  C   UNL     1      44.683 131.382  18.910  1.00  0.00     0.003 A 
ATOM     13  C   UNL     1      43.319 131.727  19.077  1.00  0.00    -0.037 A 
ATOM     14  C   UNL     1      42.795 131.820  20.376  1.00  0.00     0.064 A 
ATOM     15  C   UNL     1      43.626 131.609  21.477  1.00  0.00     0.213 A 
ATOM     16  C   UNL     1      45.477 131.194  20.052  1.00  0.00     0.123 A 
ATOM     17  N   UNL     1      44.937 131.309  21.293  1.00  0.00    -0.228 NA
ATOM     18  C   UNL     1      42.410 131.982  17.903  1.00  0.00     0.045 C 
ATOM     19  F   UNL     1      43.126 131.709  22.732  1.00  0.00    -0.185 F 
ENDBRANCH   1  12
TORSDOF 1
ENDMDL
MODEL 3
REMARK VINA RESULT:      -9.5      3.032      6.586
REMARK SMILES Cc1cc(F)ncc1-c1ccc2c(C)n[nH]c2c1
REMARK SMILES IDX 9 1 10 2 11 3 12 4 13 5 14 6 15 7 16 8 17 9 18 10 8 12 2 13
REMARK SMILES IDX 3 14 4 15 7 16 6 17 1 18 5 19
REMARK H PARENT 16 11
ROOT
ATOM      1  C   UNL     1      44.983 131.290  17.121  1.00  0.00    -0.014 A 
ATOM      2  C   UNL     1      45.584 130.989  18.373  1.00  0.00     0.009 A 
ATOM      3  C   UNL     1      44.884 131.202  19.577  1.00  0.00     0.013 A 
ATOM      4  C   UNL     1      43.595 131.720  19.487  1.00  0.00     0.023 A 
ATOM      5  C   UNL     1      42.651 132.056  20.435  1.00  0.00     0.067 A 
ATOM      6  C   UNL     1      42.800 131.961  21.918  1.00  0.00     0.069 C 
ATOM      7  N   UNL     1      41.558 132.552  19.806  1.00  0.00    -0.180 NA
ATOM      8  N   UNL     1      41.787 132.524  18.497  1.00  0.00    -0.278 N 
ATOM      9  C   UNL     1      43.016 132.023  18.289  1.00  0.00     0.066 A 
ATOM     10  C   UNL     1      43.676 131.829  17.079  1.00  0.00     0.037 A 
ATOM     11  H   UNL     1      41.112 132.850  17.771  1.00  0.00     0.190 HD
ENDROOT
BRANCH   1  12
ATOM     12  C   UNL     1      45.741 131.070  15.868  1.00  0.00     0.003 A 
ATOM     13  C   UNL     1      45.789 129.810  15.224  1.00  0.00    -0.037 A 
ATOM     14  C   UNL     1      46.492 129.690  14.015  1.00  0.00     0.064 A 
ATOM     15  C   UNL     1      47.160 130.797  13.487  1.00  0.00     0.213 A 
ATOM     16  C   UNL     1      46.441 132.146  15.301  1.00  0.00     0.123 A 
ATOM     17  N   UNL     1      47.124 131.987  14.137  1.00  0.00    -0.228 NA
ATOM     18  C   UNL     1      45.097 128.597  15.788  1.00  0.00     0.045 C 
ATOM     19  F   UNL     1      47.848 130.683  12.326  1.00  0.00    -0.185 F 
ENDBRANCH   1  12
TORSDOF 1
ENDMDL
MODEL 4
REMARK VINA RESULT:      -9.4      1.170      1.702
REMARK SMILES Cc1cc(F)ncc1-c1ccc2c(C)n[nH]c2c1
REMARK SMILES IDX 9 1 10 2 11 3 12 4 13 5 14 6 15 7 16 8 17 9 18 10 8 12 2 13
REMARK SMILES IDX 3 14 4 15 7 16 6 17 1 18 5 19
REMARK H PARENT 16 11
ROOT
ATOM      1  C   UNL     1      45.088 131.134  17.422  1.00  0.00    -0.014 A 
ATOM      2  C   UNL     1      45.598 129.809  17.370  1.00  0.00     0.009 A 
ATOM      3  C   UNL     1      46.436 129.401  16.314  1.00  0.00     0.013 A 
ATOM      4  C   UNL     1      46.734 130.341  15.331  1.00  0.00     0.023 A 
ATOM      5  C   UNL     1      47.493 130.286  14.180  1.00  0.00     0.067 A 
ATOM      6  C   UNL     1      48.222 129.098  13.646  1.00  0.00     0.069 C 
ATOM      7  N   UNL     1      47.429 131.488  13.558  1.00  0.00    -0.180 NA
ATOM      8  N   UNL     1      46.666 132.292  14.291  1.00  0.00    -0.278 N 
ATOM      9  C   UNL     1      46.238 131.611  15.367  1.00  0.00     0.066 A 
ATOM     10  C   UNL     1      45.406 132.050  16.393  1.00  0.00     0.037 A 
ATOM     11  H   UNL     1      46.443 133.282  14.047  1.00  0.00     0.190 HD
ENDROOT
BRANCH   1  12
ATOM     12  C   UNL     1      44.198 131.538  18.534  1.00  0.00     0.003 A 
ATOM     13  C   UNL     1      44.612 131.497  19.888  1.00  0.00    -0.037 A 
ATOM     14  C   UNL     1      43.727 131.939  20.884  1.00  0.00     0.064 A 
ATOM     15  C   UNL     1      42.449 132.374  20.533  1.00  0.00     0.213 A 
ATOM     16  C   UNL     1      42.896 131.973  18.239  1.00  0.00     0.123 A 
ATOM     17  N   UNL     1      42.064 132.378  19.232  1.00  0.00    -0.228 NA
ATOM     18  C   UNL     1      45.978 131.007  20.291  1.00  0.00     0.045 C 
ATOM     19  F   UNL     1      41.588 132.791  21.493  1.00  0.00    -0.185 F 
ENDBRANCH   1  12
TORSDOF 1
ENDMDL
MODEL 5
REMARK VINA RESULT:      -9.2      2.896      6.682
REMARK SMILES Cc1cc(F)ncc1-c1ccc2c(C)n[nH]c2c1
REMARK SMILES IDX 9 1 10 2 11 3 12 4 13 5 14 6 15 7 16 8 17 9 18 10 8 12 2 13
REMARK SMILES IDX 3 14 4 15 7 16 6 17 1 18 5 19
REMARK H PARENT 16 11
ROOT
ATOM      1  C   UNL     1      44.947 131.048  17.257  1.00  0.00    -0.014 A 
ATOM      2  C   UNL     1      45.511 130.770  18.532  1.00  0.00     0.009 A 
ATOM      3  C   UNL     1      44.814 131.089  19.713  1.00  0.00     0.013 A 
ATOM      4  C   UNL     1      43.564 131.687  19.579  1.00  0.00     0.023 A 
ATOM      5  C   UNL     1      42.634 132.132  20.495  1.00  0.00     0.067 A 
ATOM      6  C   UNL     1      42.759 132.102  21.983  1.00  0.00     0.069 C 
ATOM      7  N   UNL     1      41.585 132.669  19.826  1.00  0.00    -0.180 NA
ATOM      8  N   UNL     1      41.826 132.561  18.524  1.00  0.00    -0.278 N 
ATOM      9  C   UNL     1      43.021 131.969  18.359  1.00  0.00     0.066 A 
ATOM     10  C   UNL     1      43.680 131.670  17.170  1.00  0.00     0.037 A 
ATOM     11  H   UNL     1      41.184 132.895  17.773  1.00  0.00     0.190 HD
ENDROOT
BRANCH   1  12
ATOM     12  C   UNL     1      45.702 130.716  16.029  1.00  0.00     0.003 A 
ATOM     13  C   UNL     1      45.249 131.085  14.738  1.00  0.00    -0.037 A 
ATOM     14  C   UNL     1      46.044 130.774  13.623  1.00  0.00     0.064 A 
ATOM     15  C   UNL     1      47.241 130.078  13.796  1.00  0.00     0.213 A 
ATOM     16  C   UNL     1      46.908 130.006  16.143  1.00  0.00     0.123 A 
ATOM     17  N   UNL     1      47.641 129.709  15.039  1.00  0.00    -0.228 NA
ATOM     18  C   UNL     1      43.949 131.814  14.527  1.00  0.00     0.045 C 
ATOM     19  F   UNL     1      48.005 129.767  12.722  1.00  0.00    -0.185 F 
ENDBRANCH   1  12
TORSDOF 1
ENDMDL
MODEL 6
REMARK VINA RESULT:      -8.9      1.625      2.457
REMARK SMILES Cc1cc(F)ncc1-c1ccc2c(C)n[nH]c2c1
REMARK SMILES IDX 9 1 10 2 11 3 12 4 13 5 14 6 15 7 16 8 17 9 18 10 8 12 2 13
REMARK SMILES IDX 3 14 4 15 7 16 6 17 1 18 5 19
REMARK H PARENT 16 11
ROOT
ATOM      1  C   UNL     1      45.108 131.141  18.338  1.00  0.00    -0.014 A 
ATOM      2  C   UNL     1      45.788 129.905  18.169  1.00  0.00     0.009 A 
ATOM      3  C   UNL     1      46.433 129.598  16.955  1.00  0.00     0.013 A 
ATOM      4  C   UNL     1      46.370 130.546  15.938  1.00  0.00     0.023 A 
ATOM      5  C   UNL     1      46.864 130.574  14.650  1.00  0.00     0.067 A 
ATOM      6  C   UNL     1      47.633 129.493  13.964  1.00  0.00     0.069 C 
ATOM      7  N   UNL     1      46.490 131.737  14.064  1.00  0.00    -0.180 NA
ATOM      8  N   UNL     1      45.789 132.438  14.949  1.00  0.00    -0.278 N 
ATOM      9  C   UNL     1      45.708 131.730  16.088  1.00  0.00     0.066 A 
ATOM     10  C   UNL     1      45.058 132.068  17.271  1.00  0.00     0.037 A 
ATOM     11  H   UNL     1      45.373 133.378  14.765  1.00  0.00     0.190 HD
ENDROOT
BRANCH   1  12
ATOM     12  C   UNL     1      44.426 131.438  19.618  1.00  0.00     0.003 A 
ATOM     13  C   UNL     1      43.072 131.850  19.677  1.00  0.00    -0.037 A 
ATOM     14  C   UNL     1      42.481 132.070  20.931  1.00  0.00     0.064 A 
ATOM     15  C   UNL     1      43.240 131.918  22.092  1.00  0.00     0.213 A 
ATOM     16  C   UNL     1      45.146 131.313  20.817  1.00  0.00     0.123 A 
ATOM     17  N   UNL     1      44.544 131.551  22.010  1.00  0.00    -0.228 NA
ATOM     18  C   UNL     1      42.242 132.045  18.435  1.00  0.00     0.045 C 
ATOM     19  F   UNL     1      42.676 132.139  23.304  1.00  0.00    -0.185 F 
ENDBRANCH   1  12
TORSDOF 1
ENDMDL
MODEL 7
REMARK VINA RESULT:      -8.5      3.125      6.459
REMARK SMILES Cc1cc(F)ncc1-c1ccc2c(C)n[nH]c2c1
REMARK SMILES IDX 9 1 10 2 11 3 12 4 13 5 14 6 15 7 16 8 17 9 18 10 8 12 2 13
REMARK SMILES IDX 3 14 4 15 7 16 6 17 1 18 5 19
REMARK H PARENT 16 11
ROOT
ATOM      1  C   UNL     1      45.119 131.258  17.374  1.00  0.00    -0.014 A 
ATOM      2  C   UNL     1      43.782 131.731  17.475  1.00  0.00     0.009 A 
ATOM      3  C   UNL     1      43.163 131.875  18.731  1.00  0.00     0.013 A 
ATOM      4  C   UNL     1      43.907 131.532  19.857  1.00  0.00     0.023 A 
ATOM      5  C   UNL     1      43.622 131.537  21.207  1.00  0.00     0.067 A 
ATOM      6  C   UNL     1      42.328 131.920  21.846  1.00  0.00     0.069 C 
ATOM      7  N   UNL     1      44.702 131.075  21.882  1.00  0.00    -0.180 NA
ATOM      8  N   UNL     1      45.653 130.794  20.997  1.00  0.00    -0.278 N 
ATOM      9  C   UNL     1      45.186 131.065  19.768  1.00  0.00     0.066 A 
ATOM     10  C   UNL     1      45.831 130.908  18.544  1.00  0.00     0.037 A 
ATOM     11  H   UNL     1      46.596 130.418  21.240  1.00  0.00     0.190 HD
ENDROOT
BRANCH   1  12
ATOM     12  C   UNL     1      45.746 131.103  16.042  1.00  0.00     0.003 A 
ATOM     13  C   UNL     1      45.713 129.880  15.328  1.00  0.00    -0.037 A 
ATOM     14  C   UNL     1      46.291 129.822  14.050  1.00  0.00     0.064 A 
ATOM     15  C   UNL     1      46.920 130.950  13.521  1.00  0.00     0.213 A 
ATOM     16  C   UNL     1      46.403 132.202  15.468  1.00  0.00     0.123 A 
ATOM     17  N   UNL     1      46.965 132.102  14.236  1.00  0.00    -0.228 NA
ATOM     18  C   UNL     1      45.062 128.644  15.890  1.00  0.00     0.045 C 
ATOM     19  F   UNL     1      47.489 130.895  12.293  1.00  0.00    -0.185 F 
ENDBRANCH   1  12
TORSDOF 1
ENDMDL
MODEL 8
REMARK VINA RESULT:      -8.3      1.674      2.020
REMARK SMILES Cc1cc(F)ncc1-c1ccc2c(C)n[nH]c2c1
REMARK SMILES IDX 9 1 10 2 11 3 12 4 13 5 14 6 15 7 16 8 17 9 18 10 8 12 2 13
REMARK SMILES IDX 3 14 4 15 7 16 6 17 1 18 5 19
REMARK H PARENT 16 11
ROOT
ATOM      1  C   UNL     1      44.463 131.288  18.366  1.00  0.00    -0.014 A 
ATOM      2  C   UNL     1      45.722 130.655  18.185  1.00  0.00     0.009 A 
ATOM      3  C   UNL     1      46.243 130.446  16.893  1.00  0.00     0.013 A 
ATOM      4  C   UNL     1      45.477 130.877  15.814  1.00  0.00     0.023 A 
ATOM      5  C   UNL     1      45.667 130.826  14.449  1.00  0.00     0.067 A 
ATOM      6  C   UNL     1      46.828 130.223  13.730  1.00  0.00     0.069 C 
ATOM      7  N   UNL     1      44.586 131.368  13.838  1.00  0.00    -0.180 NA
ATOM      8  N   UNL     1      43.736 131.766  14.779  1.00  0.00    -0.278 N 
ATOM      9  C   UNL     1      44.262 131.474  15.980  1.00  0.00     0.066 A 
ATOM     10  C   UNL     1      43.713 131.696  17.240  1.00  0.00     0.037 A 
ATOM     11  H   UNL     1      42.814 132.219  14.591  1.00  0.00     0.190 HD
ENDROOT
BRANCH   1  12
ATOM     12  C   UNL     1      43.928 131.486  19.732  1.00  0.00     0.003 A 
ATOM     13  C   UNL     1      44.580 130.976  20.882  1.00  0.00    -0.037 A 
ATOM     14  C   UNL     1      44.035 131.243  22.148  1.00  0.00     0.064 A 
ATOM     15  C   UNL     1      42.849 131.970  22.254  1.00  0.00     0.213 A 
ATOM     16  C   UNL     1      42.731 132.200  19.896  1.00  0.00     0.123 A 
ATOM     17  N   UNL     1      42.226 132.425  21.137  1.00  0.00    -0.228 NA
ATOM     18  C   UNL     1      45.847 130.168  20.789  1.00  0.00     0.045 C 
ATOM     19  F   UNL     1      42.315 132.222  23.473  1.00  0.00    -0.185 F 
ENDBRANCH   1  12
TORSDOF 1
ENDMDL
MODEL 9
REMARK VINA RESULT:      -8.2      3.092      6.576
REMARK SMILES Cc1cc(F)ncc1-c1ccc2c(C)n[nH]c2c1
REMARK SMILES IDX 9 1 10 2 11 3 12 4 13 5 14 6 15 7 16 8 17 9 18 10 8 12 2 13
REMARK SMILES IDX 3 14 4 15 7 16 6 17 1 18 5 19
REMARK H PARENT 16 11
ROOT
ATOM      1  C   UNL     1      45.087 131.042  17.429  1.00  0.00    -0.014 A 
ATOM      2  C   UNL     1      43.776 131.591  17.455  1.00  0.00     0.009 A 
ATOM      3  C   UNL     1      43.135 131.864  18.678  1.00  0.00     0.013 A 
ATOM      4  C   UNL     1      43.831 131.572  19.848  1.00  0.00     0.023 A 
ATOM      5  C   UNL     1      43.513 131.697  21.184  1.00  0.00     0.067 A 
ATOM      6  C   UNL     1      42.227 132.197  21.755  1.00  0.00     0.069 C 
ATOM      7  N   UNL     1      44.549 131.233  21.924  1.00  0.00    -0.180 NA
ATOM      8  N   UNL     1      45.505 130.834  21.091  1.00  0.00    -0.278 N 
ATOM      9  C   UNL     1      45.084 131.033  19.831  1.00  0.00     0.066 A 
ATOM     10  C   UNL     1      45.750 130.747  18.643  1.00  0.00     0.037 A 
ATOM     11  H   UNL     1      46.419 130.429  21.390  1.00  0.00     0.190 HD
ENDROOT
BRANCH   1  12
ATOM     12  C   UNL     1      45.738 130.750  16.132  1.00  0.00     0.003 A 
ATOM     13  C   UNL     1      45.183 131.163  14.896  1.00  0.00    -0.037 A 
ATOM     14  C   UNL     1      45.882 130.888  13.710  1.00  0.00     0.064 A 
ATOM     15  C   UNL     1      47.086 130.184  13.761  1.00  0.00     0.213 A 
ATOM     16  C   UNL     1      46.946 130.034  16.124  1.00  0.00     0.123 A 
ATOM     17  N   UNL     1      47.585 129.773  14.955  1.00  0.00    -0.228 NA
ATOM     18  C   UNL     1      43.873 131.901  14.816  1.00  0.00     0.045 C 
ATOM     19  F   UNL     1      47.758 129.908  12.618  1.00  0.00    -0.185 F 
ENDBRANCH   1  12
TORSDOF 1
ENDMDL


