REMARK SMILES [NH-]C(=O)c1ccc(-c2cc(F)cc(F)c2OC(O)=C2CSC2)cc1
REMARK SMILES IDX 8 1 9 2 10 3 11 4 12 5 13 6 14 7 15 8 7 9 4 10 5 11 24 12
REMARK SMILES IDX 6 13 23 14 2 15 3 16 1 17 16 19 17 20 18 21 19 23 20 24
REMARK SMILES IDX 22 25 21 26
REMARK H PARENT 1 18 18 22
ROOT
ATOM      1  C   UNL     1      -0.551   1.124  -0.443  1.00  0.00     0.031 A 
ATOM      2  C   UNL     1      -1.256   1.786   0.577  1.00  0.00     0.052 A 
ATOM      3  C   UNL     1      -1.378   3.177   0.568  1.00  0.00     0.127 A 
ATOM      4  F   UNL     1      -2.069   3.804   1.552  1.00  0.00    -0.207 F 
ATOM      5  C   UNL     1      -0.803   3.923  -0.462  1.00  0.00     0.082 A 
ATOM      6  C   UNL     1      -0.088   3.282  -1.477  1.00  0.00     0.169 A 
ATOM      7  F   UNL     1       0.481   4.019  -2.463  1.00  0.00    -0.203 F 
ATOM      8  C   UNL     1       0.069   1.890  -1.463  1.00  0.00     0.174 A 
ENDROOT
BRANCH   1   9
ATOM      9  C   UNL     1      -0.493  -0.356  -0.436  1.00  0.00    -0.014 A 
ATOM     10  C   UNL     1      -0.328  -3.174  -0.440  1.00  0.00    -0.001 A 
ATOM     11  C   UNL     1       0.031  -2.438   0.704  1.00  0.00     0.011 A 
ATOM     12  C   UNL     1      -0.795  -2.483  -1.572  1.00  0.00     0.011 A 
ATOM     13  C   UNL     1      -0.053  -1.043   0.705  1.00  0.00     0.009 A 
ATOM     14  C   UNL     1      -0.876  -1.088  -1.570  1.00  0.00     0.009 A 
BRANCH  10  15
ATOM     15  C   UNL     1      -0.244  -4.655  -0.460  1.00  0.00     0.080 C 
ATOM     16  O   UNL     1      -0.934  -5.309  -1.286  1.00  0.00    -0.315 OA
BRANCH  15  17
ATOM     17  N   UNL     1       0.619  -5.370   0.425  1.00  0.00    -0.664 NA
ATOM     18  H   UNL     1       1.291  -4.900   1.069  1.00  0.00    -0.121 HD
ENDBRANCH  15  17
ENDBRANCH  10  15
ENDBRANCH   1   9
BRANCH   8  19
ATOM     19  O   UNL     1       0.830   1.296  -2.481  1.00  0.00    -0.423 OA
BRANCH  19  20
ATOM     20  C   UNL     1       1.882   0.391  -2.271  1.00  0.00     0.283 C 
BRANCH  20  21
ATOM     21  O   UNL     1       2.138  -0.576  -3.236  1.00  0.00    -0.481 OA
ATOM     22  H   UNL     1       1.561  -0.642  -4.065  1.00  0.00     0.297 HD
ENDBRANCH  20  21
BRANCH  20  23
ATOM     23  C   UNL     1       2.669   0.448  -1.194  1.00  0.00     0.030 C 
ATOM     24  C   UNL     1       3.846  -0.351  -0.692  1.00  0.00     0.109 C 
ATOM     25  C   UNL     1       2.835   1.332   0.022  1.00  0.00     0.109 C 
ATOM     26  S   UNL     1       4.247   0.552   0.805  1.00  0.00    -0.152 SA
ENDBRANCH  20  23
ENDBRANCH  19  20
ENDBRANCH   8  19
TORSDOF 7


