REMARK SMILES C=Cc1cc([NH2+]N)c([O-])c(-n2[nH+]c3ccccc3[nH+]2)c1
REMARK SMILES IDX 3 1 4 2 5 3 8 4 9 5 10 6 20 7 2 8 1 9 6 10 7 13 11 16 12 17
REMARK SMILES IDX 19 18 13 19 18 20 14 21 17 22 15 23 16 24
REMARK H PARENT 6 11 6 12 7 14 7 15 12 25 19 26
ROOT
ATOM      1  C   UNL     1       2.364   1.853   0.526  1.00  0.00    -0.018 A 
ATOM      2  C   UNL     1       2.442   2.238   1.877  1.00  0.00     0.077 A 
ATOM      3  C   UNL     1       1.627   1.632   2.847  1.00  0.00     0.143 A 
ATOM      4  C   UNL     1       0.699   0.647   2.454  1.00  0.00    -0.007 A 
ATOM      5  O   UNL     1      -0.157   0.090   3.399  1.00  0.00    -0.867 OA
ATOM      6  C   UNL     1       0.614   0.252   1.106  1.00  0.00     0.167 A 
ATOM      7  C   UNL     1       1.439   0.868   0.154  1.00  0.00     0.046 A 
ENDROOT
BRANCH   1   8
ATOM      8  C   UNL     1       3.203   2.472  -0.530  1.00  0.00     0.000 C 
ATOM      9  C   UNL     1       4.332   3.142  -0.294  1.00  0.00     0.009 C 
ENDBRANCH   1   8
BRANCH   3  10
ATOM     10  N   UNL     1       1.700   2.070   4.224  1.00  0.00    -0.240 N 
ATOM     11  H   UNL     1       1.478   1.286   4.880  1.00  0.00     0.376 HD
ATOM     12  H   UNL     1       2.663   2.412   4.451  1.00  0.00     0.376 HD
BRANCH  10  13
ATOM     13  N   UNL     1       0.788   3.123   4.450  1.00  0.00    -0.178 NA
ATOM     14  H   UNL     1      -0.182   2.791   4.236  1.00  0.00     0.183 HD
ATOM     15  H   UNL     1       1.012   3.918   3.806  1.00  0.00     0.183 HD
ENDBRANCH  10  13
ENDBRANCH   3  10
BRANCH   6  16
ATOM     16  N   UNL     1      -0.316  -0.764   0.691  1.00  0.00     0.079 N 
ATOM     17  N   UNL     1      -1.019  -0.715  -0.439  1.00  0.00    -0.062 N 
ATOM     18  N   UNL     1      -0.555  -1.889   1.364  1.00  0.00    -0.062 N 
ATOM     19  C   UNL     1      -1.738  -1.849  -0.481  1.00  0.00     0.306 A 
ATOM     20  C   UNL     1      -1.449  -2.576   0.635  1.00  0.00     0.306 A 
ATOM     21  C   UNL     1      -2.631  -2.296  -1.450  1.00  0.00     0.089 A 
ATOM     22  C   UNL     1      -2.023  -3.820   0.880  1.00  0.00     0.089 A 
ATOM     23  C   UNL     1      -3.238  -3.550  -1.236  1.00  0.00     0.007 A 
ATOM     24  C   UNL     1      -2.936  -4.308  -0.078  1.00  0.00     0.007 A 
ATOM     25  H   UNL     1      -1.011   0.060  -1.139  1.00  0.00     0.495 HD
ATOM     26  H   UNL     1      -0.100  -2.187   2.256  1.00  0.00     0.495 HD
ENDBRANCH   6  16
TORSDOF 4


