MODEL 1
REMARK VINA RESULT:      -7.0      0.000      0.000
REMARK SMILES [H]/N=c1\c([NH2+]c2ccc3c(c2)nnn3C)cccn1C(=O)OCc1ccccc1
REMARK SMILES IDX 3 1 4 2 16 3 17 4 18 5 19 6 2 7 1 8 5 9 6 12 7 13 11 14 8 15
REMARK SMILES IDX 10 16 9 17 12 18 14 19 13 20 15 21 20 22 21 23 22 24 23 25
REMARK SMILES IDX 24 26 25 27 29 28 26 29 28 30 27 31
REMARK H PARENT 5 10 5 11
ROOT
ATOM      1  C   UNL     1      44.289 131.047  20.478  1.00  0.00     0.197 A 
ATOM      2  C   UNL     1      43.692 131.488  21.695  1.00  0.00     0.178 A 
ATOM      3  C   UNL     1      42.590 132.353  21.622  1.00  0.00     0.074 A 
ATOM      4  C   UNL     1      42.097 132.768  20.395  1.00  0.00     0.025 A 
ATOM      5  C   UNL     1      42.694 132.308  19.226  1.00  0.00     0.100 A 
ATOM      6  N   UNL     1      43.762 131.455  19.268  1.00  0.00    -0.232 N 
ENDROOT
BRANCH   1   7
ATOM      7  N   UNL     1      45.342 130.284  20.490  1.00  0.00    -0.279 NA
ATOM      8  H   UNL     1      45.373 129.299  20.825  1.00  0.00     0.190 HD
ENDBRANCH   1   7
BRANCH   2   9
ATOM      9  N   UNL     1      44.161 131.055  22.997  1.00  0.00    -0.278 N 
ATOM     10  H   UNL     1      43.771 131.668  23.750  1.00  0.00     0.358 HD
ATOM     11  H   UNL     1      45.199 131.161  23.055  1.00  0.00     0.358 HD
BRANCH   9  12
ATOM     12  C   UNL     1      43.742 129.699  23.269  1.00  0.00     0.137 A 
ATOM     13  C   UNL     1      44.643 128.613  23.071  1.00  0.00     0.070 A 
ATOM     14  C   UNL     1      42.447 129.442  23.792  1.00  0.00     0.100 A 
ATOM     15  C   UNL     1      44.254 127.289  23.349  1.00  0.00     0.036 A 
ATOM     16  C   UNL     1      42.104 128.120  24.052  1.00  0.00     0.119 A 
ATOM     17  C   UNL     1      42.965 127.093  23.835  1.00  0.00     0.089 A 
ATOM     18  N   UNL     1      40.950 127.629  24.541  1.00  0.00    -0.130 NA
ATOM     19  N   UNL     1      42.335 125.965  24.191  1.00  0.00    -0.248 N 
ATOM     20  N   UNL     1      41.122 126.309  24.616  1.00  0.00    -0.066 NA
ATOM     21  C   UNL     1      42.854 124.604  24.166  1.00  0.00     0.176 C 
ENDBRANCH   9  12
ENDBRANCH   2   9
BRANCH   6  22
ATOM     22  C   UNL     1      44.311 130.991  18.011  1.00  0.00     0.420 C 
ATOM     23  O   UNL     1      43.715 130.093  17.352  1.00  0.00    -0.223 OA
BRANCH  22  24
ATOM     24  O   UNL     1      45.517 131.517  17.533  1.00  0.00    -0.444 OA
BRANCH  24  25
ATOM     25  C   UNL     1      45.629 132.180  16.280  1.00  0.00     0.270 C 
BRANCH  25  26
ATOM     26  C   UNL     1      46.367 131.293  15.321  1.00  0.00    -0.011 A 
ATOM     27  C   UNL     1      46.674 131.751  14.030  1.00  0.00     0.007 A 
ATOM     28  C   UNL     1      46.822 130.029  15.731  1.00  0.00     0.007 A 
ATOM     29  C   UNL     1      47.401 130.943  13.151  1.00  0.00     0.000 A 
ATOM     30  C   UNL     1      47.549 129.223  14.848  1.00  0.00     0.000 A 
ATOM     31  C   UNL     1      47.836 129.679  13.558  1.00  0.00     0.000 A 
ENDBRANCH  25  26
ENDBRANCH  24  25
ENDBRANCH  22  24
ENDBRANCH   6  22
TORSDOF 7
ENDMDL
MODEL 2
REMARK VINA RESULT:      -6.5      4.974      7.893
REMARK SMILES [H]/N=c1\c([NH2+]c2ccc3c(c2)nnn3C)cccn1C(=O)OCc1ccccc1
REMARK SMILES IDX 3 1 4 2 16 3 17 4 18 5 19 6 2 7 1 8 5 9 6 12 7 13 11 14 8 15
REMARK SMILES IDX 10 16 9 17 12 18 14 19 13 20 15 21 20 22 21 23 22 24 23 25
REMARK SMILES IDX 24 26 25 27 29 28 26 29 28 30 27 31
REMARK H PARENT 5 10 5 11
ROOT
ATOM      1  C   UNL     1      45.839 125.816  23.631  1.00  0.00     0.197 A 
ATOM      2  C   UNL     1      46.029 124.440  23.311  1.00  0.00     0.178 A 
ATOM      3  C   UNL     1      45.002 123.765  22.635  1.00  0.00     0.074 A 
ATOM      4  C   UNL     1      43.832 124.422  22.290  1.00  0.00     0.025 A 
ATOM      5  C   UNL     1      43.684 125.768  22.605  1.00  0.00     0.100 A 
ATOM      6  N   UNL     1      44.674 126.455  23.252  1.00  0.00    -0.232 N 
ENDROOT
BRANCH   1   7
ATOM      7  N   UNL     1      46.740 126.476  24.299  1.00  0.00    -0.279 NA
ATOM      8  H   UNL     1      46.623 127.432  24.692  1.00  0.00     0.190 HD
ENDBRANCH   1   7
BRANCH   2   9
ATOM      9  N   UNL     1      47.249 123.725  23.630  1.00  0.00    -0.278 N 
ATOM     10  H   UNL     1      47.039 122.729  23.870  1.00  0.00     0.358 HD
ATOM     11  H   UNL     1      47.689 124.135  24.485  1.00  0.00     0.358 HD
BRANCH   9  12
ATOM     12  C   UNL     1      48.156 123.727  22.505  1.00  0.00     0.137 A 
ATOM     13  C   UNL     1      47.792 123.084  21.285  1.00  0.00     0.070 A 
ATOM     14  C   UNL     1      49.393 124.418  22.585  1.00  0.00     0.100 A 
ATOM     15  C   UNL     1      48.659 123.093  20.176  1.00  0.00     0.036 A 
ATOM     16  C   UNL     1      50.219 124.401  21.466  1.00  0.00     0.119 A 
ATOM     17  C   UNL     1      49.869 123.764  20.319  1.00  0.00     0.089 A 
ATOM     18  N   UNL     1      51.426 124.972  21.299  1.00  0.00    -0.130 NA
ATOM     19  N   UNL     1      50.869 123.944  19.444  1.00  0.00    -0.248 N 
ATOM     20  N   UNL     1      51.797 124.677  20.054  1.00  0.00    -0.066 NA
ATOM     21  C   UNL     1      50.949 123.473  18.068  1.00  0.00     0.176 C 
ENDBRANCH   9  12
ENDBRANCH   2   9
BRANCH   6  22
ATOM     22  C   UNL     1      44.464 127.862  23.518  1.00  0.00     0.420 C 
ATOM     23  O   UNL     1      43.982 128.233  24.625  1.00  0.00    -0.223 OA
BRANCH  22  24
ATOM     24  O   UNL     1      44.770 128.816  22.540  1.00  0.00    -0.444 OA
BRANCH  24  25
ATOM     25  C   UNL     1      44.487 130.201  22.696  1.00  0.00     0.270 C 
BRANCH  25  26
ATOM     26  C   UNL     1      44.233 130.804  21.345  1.00  0.00    -0.011 A 
ATOM     27  C   UNL     1      43.004 131.423  21.068  1.00  0.00     0.007 A 
ATOM     28  C   UNL     1      45.249 130.821  20.375  1.00  0.00     0.007 A 
ATOM     29  C   UNL     1      42.784 132.025  19.825  1.00  0.00     0.000 A 
ATOM     30  C   UNL     1      45.024 131.424  19.132  1.00  0.00     0.000 A 
ATOM     31  C   UNL     1      43.791 132.023  18.857  1.00  0.00     0.000 A 
ENDBRANCH  25  26
ENDBRANCH  24  25
ENDBRANCH  22  24
ENDBRANCH   6  22
TORSDOF 7
ENDMDL
MODEL 3
REMARK VINA RESULT:      -5.9      2.930      8.898
REMARK SMILES [H]/N=c1\c([NH2+]c2ccc3c(c2)nnn3C)cccn1C(=O)OCc1ccccc1
REMARK SMILES IDX 3 1 4 2 16 3 17 4 18 5 19 6 2 7 1 8 5 9 6 12 7 13 11 14 8 15
REMARK SMILES IDX 10 16 9 17 12 18 14 19 13 20 15 21 20 22 21 23 22 24 23 25
REMARK SMILES IDX 24 26 25 27 29 28 26 29 28 30 27 31
REMARK H PARENT 5 10 5 11
ROOT
ATOM      1  C   UNL     1      43.429 131.344  20.717  1.00  0.00     0.197 A 
ATOM      2  C   UNL     1      44.252 131.854  19.670  1.00  0.00     0.178 A 
ATOM      3  C   UNL     1      45.582 132.183  19.968  1.00  0.00     0.074 A 
ATOM      4  C   UNL     1      46.081 132.017  21.251  1.00  0.00     0.025 A 
ATOM      5  C   UNL     1      45.256 131.506  22.246  1.00  0.00     0.100 A 
ATOM      6  N   UNL     1      43.958 131.165  21.981  1.00  0.00    -0.232 N 
ENDROOT
BRANCH   1   7
ATOM      7  N   UNL     1      42.175 131.070  20.506  1.00  0.00    -0.279 NA
ATOM      8  H   UNL     1      41.485 131.701  20.049  1.00  0.00     0.190 HD
ENDBRANCH   1   7
BRANCH   2   9
ATOM      9  N   UNL     1      43.775 132.014  18.311  1.00  0.00    -0.278 N 
ATOM     10  H   UNL     1      43.654 133.028  18.081  1.00  0.00     0.358 HD
ATOM     11  H   UNL     1      42.827 131.587  18.213  1.00  0.00     0.358 HD
BRANCH   9  12
ATOM     12  C   UNL     1      44.716 131.458  17.366  1.00  0.00     0.137 A 
ATOM     13  C   UNL     1      45.171 130.113  17.509  1.00  0.00     0.070 A 
ATOM     14  C   UNL     1      45.154 132.225  16.255  1.00  0.00     0.100 A 
ATOM     15  C   UNL     1      46.074 129.553  16.586  1.00  0.00     0.036 A 
ATOM     16  C   UNL     1      46.047 131.633  15.369  1.00  0.00     0.119 A 
ATOM     17  C   UNL     1      46.489 130.360  15.530  1.00  0.00     0.089 A 
ATOM     18  N   UNL     1      46.600 132.151  14.257  1.00  0.00    -0.130 NA
ATOM     19  N   UNL     1      47.321 130.096  14.513  1.00  0.00    -0.248 N 
ATOM     20  N   UNL     1      47.372 131.188  13.755  1.00  0.00    -0.066 NA
ATOM     21  C   UNL     1      48.026 128.852  14.234  1.00  0.00     0.176 C 
ENDBRANCH   9  12
ENDBRANCH   2   9
BRANCH   6  22
ATOM     22  C   UNL     1      43.167 130.607  23.057  1.00  0.00     0.420 C 
ATOM     23  O   UNL     1      42.535 131.371  23.840  1.00  0.00    -0.223 OA
BRANCH  22  24
ATOM     24  O   UNL     1      43.120 129.222  23.252  1.00  0.00    -0.444 OA
BRANCH  24  25
ATOM     25  C   UNL     1      42.918 128.626  24.527  1.00  0.00     0.270 C 
BRANCH  25  26
ATOM     26  C   UNL     1      42.173 127.336  24.353  1.00  0.00    -0.011 A 
ATOM     27  C   UNL     1      42.805 126.112  24.623  1.00  0.00     0.007 A 
ATOM     28  C   UNL     1      40.815 127.346  23.992  1.00  0.00     0.007 A 
ATOM     29  C   UNL     1      42.097 124.913  24.505  1.00  0.00     0.000 A 
ATOM     30  C   UNL     1      40.110 126.143  23.875  1.00  0.00     0.000 A 
ATOM     31  C   UNL     1      40.752 124.927  24.129  1.00  0.00     0.000 A 
ENDBRANCH  25  26
ENDBRANCH  24  25
ENDBRANCH  22  24
ENDBRANCH   6  22
TORSDOF 7
ENDMDL
MODEL 4
REMARK VINA RESULT:      -5.8      0.977      1.402
REMARK SMILES [H]/N=c1\c([NH2+]c2ccc3c(c2)nnn3C)cccn1C(=O)OCc1ccccc1
REMARK SMILES IDX 3 1 4 2 16 3 17 4 18 5 19 6 2 7 1 8 5 9 6 12 7 13 11 14 8 15
REMARK SMILES IDX 10 16 9 17 12 18 14 19 13 20 15 21 20 22 21 23 22 24 23 25
REMARK SMILES IDX 24 26 25 27 29 28 26 29 28 30 27 31
REMARK H PARENT 5 10 5 11
ROOT
ATOM      1  C   UNL     1      43.963 131.804  20.174  1.00  0.00     0.197 A 
ATOM      2  C   UNL     1      42.851 131.916  21.059  1.00  0.00     0.178 A 
ATOM      3  C   UNL     1      41.573 132.083  20.506  1.00  0.00     0.074 A 
ATOM      4  C   UNL     1      41.400 132.138  19.132  1.00  0.00     0.025 A 
ATOM      5  C   UNL     1      42.504 132.011  18.296  1.00  0.00     0.100 A 
ATOM      6  N   UNL     1      43.760 131.836  18.809  1.00  0.00    -0.232 N 
ENDROOT
BRANCH   1   7
ATOM      7  N   UNL     1      45.175 131.697  20.637  1.00  0.00    -0.279 NA
ATOM      8  H   UNL     1      46.043 131.968  20.131  1.00  0.00     0.190 HD
ENDBRANCH   1   7
BRANCH   2   9
ATOM      9  N   UNL     1      42.988 131.836  22.500  1.00  0.00    -0.278 N 
ATOM     10  H   UNL     1      42.182 132.307  22.973  1.00  0.00     0.358 HD
ATOM     11  H   UNL     1      43.840 132.358  22.807  1.00  0.00     0.358 HD
BRANCH   9  12
ATOM     12  C   UNL     1      43.013 130.459  22.939  1.00  0.00     0.137 A 
ATOM     13  C   UNL     1      44.256 129.803  23.179  1.00  0.00     0.070 A 
ATOM     14  C   UNL     1      41.800 129.766  23.189  1.00  0.00     0.100 A 
ATOM     15  C   UNL     1      44.295 128.467  23.623  1.00  0.00     0.036 A 
ATOM     16  C   UNL     1      41.885 128.449  23.626  1.00  0.00     0.119 A 
ATOM     17  C   UNL     1      43.075 127.829  23.828  1.00  0.00     0.089 A 
ATOM     18  N   UNL     1      40.889 127.594  23.925  1.00  0.00    -0.130 NA
ATOM     19  N   UNL     1      42.809 126.584  24.250  1.00  0.00    -0.248 N 
ATOM     20  N   UNL     1      41.486 126.463  24.304  1.00  0.00    -0.066 NA
ATOM     21  C   UNL     1      43.758 125.544  24.623  1.00  0.00     0.176 C 
ENDBRANCH   9  12
ENDBRANCH   2   9
BRANCH   6  22
ATOM     22  C   UNL     1      44.858 131.678  17.879  1.00  0.00     0.420 C 
ATOM     23  O   UNL     1      45.904 131.064  18.232  1.00  0.00    -0.223 OA
BRANCH  22  24
ATOM     24  O   UNL     1      44.776 132.226  16.594  1.00  0.00    -0.444 OA
BRANCH  24  25
ATOM     25  C   UNL     1      45.921 132.602  15.838  1.00  0.00     0.270 C 
BRANCH  25  26
ATOM     26  C   UNL     1      46.498 131.382  15.183  1.00  0.00    -0.011 A 
ATOM     27  C   UNL     1      46.331 130.118  15.772  1.00  0.00     0.007 A 
ATOM     28  C   UNL     1      47.141 131.483  13.938  1.00  0.00     0.007 A 
ATOM     29  C   UNL     1      46.828 128.975  15.139  1.00  0.00     0.000 A 
ATOM     30  C   UNL     1      47.637 130.337  13.308  1.00  0.00     0.000 A 
ATOM     31  C   UNL     1      47.483 129.084  13.909  1.00  0.00     0.000 A 
ENDBRANCH  25  26
ENDBRANCH  24  25
ENDBRANCH  22  24
ENDBRANCH   6  22
TORSDOF 7
ENDMDL
MODEL 5
REMARK VINA RESULT:      -5.4      3.069      8.810
REMARK SMILES [H]/N=c1\c([NH2+]c2ccc3c(c2)nnn3C)cccn1C(=O)OCc1ccccc1
REMARK SMILES IDX 3 1 4 2 16 3 17 4 18 5 19 6 2 7 1 8 5 9 6 12 7 13 11 14 8 15
REMARK SMILES IDX 10 16 9 17 12 18 14 19 13 20 15 21 20 22 21 23 22 24 23 25
REMARK SMILES IDX 24 26 25 27 29 28 26 29 28 30 27 31
REMARK H PARENT 5 10 5 11
ROOT
ATOM      1  C   UNL     1      42.948 132.173  18.913  1.00  0.00     0.197 A 
ATOM      2  C   UNL     1      43.969 131.841  17.974  1.00  0.00     0.178 A 
ATOM      3  C   UNL     1      45.213 131.417  18.463  1.00  0.00     0.074 A 
ATOM      4  C   UNL     1      45.442 131.327  19.827  1.00  0.00     0.025 A 
ATOM      5  C   UNL     1      44.421 131.646  20.716  1.00  0.00     0.100 A 
ATOM      6  N   UNL     1      43.195 132.050  20.266  1.00  0.00    -0.232 N 
ENDROOT
BRANCH   1   7
ATOM      7  N   UNL     1      41.793 132.618  18.512  1.00  0.00    -0.279 NA
ATOM      8  H   UNL     1      41.472 132.667  17.524  1.00  0.00     0.190 HD
ENDBRANCH   1   7
BRANCH   2   9
ATOM      9  N   UNL     1      43.758 131.896  16.540  1.00  0.00    -0.278 N 
ATOM     10  H   UNL     1      43.652 132.887  16.223  1.00  0.00     0.358 HD
ATOM     11  H   UNL     1      42.860 131.422  16.293  1.00  0.00     0.358 HD
BRANCH   9  12
ATOM     12  C   UNL     1      44.881 131.323  15.833  1.00  0.00     0.137 A 
ATOM     13  C   UNL     1      45.653 130.283  16.429  1.00  0.00     0.070 A 
ATOM     14  C   UNL     1      45.191 131.752  14.516  1.00  0.00     0.100 A 
ATOM     15  C   UNL     1      46.739 129.705  15.744  1.00  0.00     0.036 A 
ATOM     16  C   UNL     1      46.271 131.154  13.877  1.00  0.00     0.119 A 
ATOM     17  C   UNL     1      47.012 130.181  14.466  1.00  0.00     0.089 A 
ATOM     18  N   UNL     1      46.757 131.389  12.644  1.00  0.00    -0.130 NA
ATOM     19  N   UNL     1      47.960 129.818  13.590  1.00  0.00    -0.248 N 
ATOM     20  N   UNL     1      47.787 130.556  12.497  1.00  0.00    -0.066 NA
ATOM     21  C   UNL     1      48.981 128.792  13.751  1.00  0.00     0.176 C 
ENDBRANCH   9  12
ENDBRANCH   2   9
BRANCH   6  22
ATOM     22  C   UNL     1      42.170 132.333  21.248  1.00  0.00     0.420 C 
ATOM     23  O   UNL     1      41.286 133.203  21.009  1.00  0.00    -0.223 OA
BRANCH  22  24
ATOM     24  O   UNL     1      42.169 131.664  22.478  1.00  0.00    -0.444 OA
BRANCH  24  25
ATOM     25  C   UNL     1      43.343 131.479  23.259  1.00  0.00     0.270 C 
BRANCH  25  26
ATOM     26  C   UNL     1      43.419 130.046  23.697  1.00  0.00    -0.011 A 
ATOM     27  C   UNL     1      42.296 129.418  24.259  1.00  0.00     0.007 A 
ATOM     28  C   UNL     1      44.588 129.298  23.476  1.00  0.00     0.007 A 
ATOM     29  C   UNL     1      42.352 128.070  24.625  1.00  0.00     0.000 A 
ATOM     30  C   UNL     1      44.640 127.949  23.844  1.00  0.00     0.000 A 
ATOM     31  C   UNL     1      43.524 127.337  24.420  1.00  0.00     0.000 A 
ENDBRANCH  25  26
ENDBRANCH  24  25
ENDBRANCH  22  24
ENDBRANCH   6  22
TORSDOF 7
ENDMDL
MODEL 6
REMARK VINA RESULT:      -4.2      1.827      2.730
REMARK SMILES [H]/N=c1\c([NH2+]c2ccc3c(c2)nnn3C)cccn1C(=O)OCc1ccccc1
REMARK SMILES IDX 3 1 4 2 16 3 17 4 18 5 19 6 2 7 1 8 5 9 6 12 7 13 11 14 8 15
REMARK SMILES IDX 10 16 9 17 12 18 14 19 13 20 15 21 20 22 21 23 22 24 23 25
REMARK SMILES IDX 24 26 25 27 29 28 26 29 28 30 27 31
REMARK H PARENT 5 10 5 11
ROOT
ATOM      1  C   UNL     1      43.810 130.793  22.390  1.00  0.00     0.197 A 
ATOM      2  C   UNL     1      43.074 130.992  23.595  1.00  0.00     0.178 A 
ATOM      3  C   UNL     1      43.434 132.062  24.427  1.00  0.00     0.074 A 
ATOM      4  C   UNL     1      44.482 132.902  24.085  1.00  0.00     0.025 A 
ATOM      5  C   UNL     1      45.171 132.688  22.896  1.00  0.00     0.100 A 
ATOM      6  N   UNL     1      44.833 131.660  22.060  1.00  0.00    -0.232 N 
ENDROOT
BRANCH   1   7
ATOM      7  N   UNL     1      43.548 129.787  21.608  1.00  0.00    -0.279 NA
ATOM      8  H   UNL     1      43.067 128.909  21.890  1.00  0.00     0.190 HD
ENDBRANCH   1   7
BRANCH   2   9
ATOM      9  N   UNL     1      41.954 130.152  23.974  1.00  0.00    -0.278 N 
ATOM     10  H   UNL     1      41.184 130.228  23.270  1.00  0.00     0.358 HD
ATOM     11  H   UNL     1      41.547 130.487  24.876  1.00  0.00     0.358 HD
BRANCH   9  12
ATOM     12  C   UNL     1      42.352 128.765  24.045  1.00  0.00     0.137 A 
ATOM     13  C   UNL     1      43.666 128.414  24.474  1.00  0.00     0.070 A 
ATOM     14  C   UNL     1      41.421 127.738  23.742  1.00  0.00     0.100 A 
ATOM     15  C   UNL     1      44.061 127.066  24.565  1.00  0.00     0.036 A 
ATOM     16  C   UNL     1      41.854 126.420  23.844  1.00  0.00     0.119 A 
ATOM     17  C   UNL     1      43.115 126.101  24.232  1.00  0.00     0.089 A 
ATOM     18  N   UNL     1      41.167 125.286  23.611  1.00  0.00    -0.130 NA
ATOM     19  N   UNL     1      43.204 124.763  24.234  1.00  0.00    -0.248 N 
ATOM     20  N   UNL     1      42.019 124.291  23.859  1.00  0.00    -0.066 NA
ATOM     21  C   UNL     1      44.350 123.943  24.603  1.00  0.00     0.176 C 
ENDBRANCH   9  12
ENDBRANCH   2   9
BRANCH   6  22
ATOM     22  C   UNL     1      45.572 131.519  20.823  1.00  0.00     0.420 C 
ATOM     23  O   UNL     1      46.829 131.645  20.819  1.00  0.00    -0.223 OA
BRANCH  22  24
ATOM     24  O   UNL     1      44.896 131.266  19.624  1.00  0.00    -0.444 OA
BRANCH  24  25
ATOM     25  C   UNL     1      44.891 132.178  18.532  1.00  0.00     0.270 C 
BRANCH  25  26
ATOM     26  C   UNL     1      45.253 131.441  17.277  1.00  0.00    -0.011 A 
ATOM     27  C   UNL     1      45.217 130.038  17.246  1.00  0.00     0.007 A 
ATOM     28  C   UNL     1      45.556 132.148  16.101  1.00  0.00     0.007 A 
ATOM     29  C   UNL     1      45.509 129.351  16.064  1.00  0.00     0.000 A 
ATOM     30  C   UNL     1      45.848 131.457  14.920  1.00  0.00     0.000 A 
ATOM     31  C   UNL     1      45.827 130.060  14.902  1.00  0.00     0.000 A 
ENDBRANCH  25  26
ENDBRANCH  24  25
ENDBRANCH  22  24
ENDBRANCH   6  22
TORSDOF 7
ENDMDL


