MODEL 1
REMARK VINA RESULT:      -4.4      0.000      0.000
REMARK SMILES Cc1cc(N)c(/N=C(\O)OC(C)(C)C)c(-n2nc3ccccc3[nH+]2)c1
REMARK SMILES IDX 8 1 9 2 7 4 6 5 4 6 15 7 3 8 25 9 2 10 1 11 5 12 16 15 17 16
REMARK SMILES IDX 24 17 18 18 23 19 19 20 22 21 20 22 21 23 10 25 11 26 12 27
REMARK SMILES IDX 13 28 14 29
REMARK H PARENT 9 3 5 13 5 14 24 24
ROOT
ATOM      1  C   UNL     1      44.137 124.350  23.941  1.00  0.00     0.386 C 
ENDROOT
BRANCH   1   2
ATOM      2  O   UNL     1      45.059 123.446  24.461  1.00  0.00    -0.466 OA
ATOM      3  H   UNL     1      45.976 123.346  24.042  1.00  0.00     0.298 HD
ENDBRANCH   1   2
BRANCH   1   4
ATOM      4  N   UNL     1      43.801 125.407  24.621  1.00  0.00    -0.174 NA
BRANCH   4   5
ATOM      5  C   UNL     1      43.713 126.726  24.062  1.00  0.00     0.125 A 
ATOM      6  C   UNL     1      42.469 127.390  24.048  1.00  0.00     0.061 A 
ATOM      7  C   UNL     1      44.857 127.370  23.530  1.00  0.00     0.156 A 
ATOM      8  C   UNL     1      42.382 128.695  23.546  1.00  0.00     0.031 A 
ATOM      9  C   UNL     1      44.749 128.683  23.046  1.00  0.00     0.040 A 
ATOM     10  C   UNL     1      43.514 129.343  23.038  1.00  0.00    -0.047 A 
ATOM     11  C   UNL     1      43.417 130.756  22.543  1.00  0.00     0.044 C 
BRANCH   6  12
ATOM     12  N   UNL     1      41.293 126.760  24.571  1.00  0.00    -0.397 N 
ATOM     13  H   UNL     1      40.368 127.242  24.577  1.00  0.00     0.156 HD
ATOM     14  H   UNL     1      41.336 125.789  24.954  1.00  0.00     0.156 HD
ENDBRANCH   6  12
BRANCH   7  15
ATOM     15  N   UNL     1      46.118 126.687  23.435  1.00  0.00    -0.010 N 
ATOM     16  N   UNL     1      46.572 126.123  22.315  1.00  0.00     0.054 NA
ATOM     17  N   UNL     1      46.979 126.563  24.444  1.00  0.00    -0.161 N 
ATOM     18  C   UNL     1      47.771 125.612  22.643  1.00  0.00     0.249 A 
ATOM     19  C   UNL     1      48.023 125.882  23.955  1.00  0.00     0.198 A 
ATOM     20  C   UNL     1      48.669 124.908  21.848  1.00  0.00     0.064 A 
ATOM     21  C   UNL     1      49.190 125.470  24.590  1.00  0.00     0.058 A 
ATOM     22  C   UNL     1      49.866 124.474  22.452  1.00  0.00     0.005 A 
ATOM     23  C   UNL     1      50.125 124.754  23.817  1.00  0.00     0.005 A 
ATOM     24  H   UNL     1      46.844 126.910  25.419  1.00  0.00     0.340 HD
ENDBRANCH   7  15
ENDBRANCH   4   5
ENDBRANCH   1   4
BRANCH   1  25
ATOM     25  O   UNL     1      43.575 124.087  22.681  1.00  0.00    -0.445 OA
BRANCH  25  26
ATOM     26  C   UNL     1      42.332 123.418  22.412  1.00  0.00     0.106 C 
ATOM     27  C   UNL     1      41.289 124.507  22.120  1.00  0.00     0.056 C 
ATOM     28  C   UNL     1      41.875 122.610  23.642  1.00  0.00     0.056 C 
ATOM     29  C   UNL     1      42.455 122.506  21.176  1.00  0.00     0.056 C 
ENDBRANCH  25  26
ENDBRANCH   1  25
TORSDOF 7
ENDMDL
MODEL 2
REMARK VINA RESULT:      -4.2      3.727      5.548
REMARK SMILES Cc1cc(N)c(/N=C(\O)OC(C)(C)C)c(-n2nc3ccccc3[nH+]2)c1
REMARK SMILES IDX 8 1 9 2 7 4 6 5 4 6 15 7 3 8 25 9 2 10 1 11 5 12 16 15 17 16
REMARK SMILES IDX 24 17 18 18 23 19 19 20 22 21 20 22 21 23 10 25 11 26 12 27
REMARK SMILES IDX 13 28 14 29
REMARK H PARENT 9 3 5 13 5 14 24 24
ROOT
ATOM      1  C   UNL     1      45.485 127.001  22.259  1.00  0.00     0.386 C 
ENDROOT
BRANCH   1   2
ATOM      2  O   UNL     1      46.523 126.446  23.002  1.00  0.00    -0.466 OA
ATOM      3  H   UNL     1      47.459 126.831  22.949  1.00  0.00     0.298 HD
ENDBRANCH   1   2
BRANCH   1   4
ATOM      4  N   UNL     1      45.550 128.239  21.863  1.00  0.00    -0.174 NA
BRANCH   4   5
ATOM      5  C   UNL     1      44.878 129.326  22.516  1.00  0.00     0.125 A 
ATOM      6  C   UNL     1      44.525 129.205  23.875  1.00  0.00     0.061 A 
ATOM      7  C   UNL     1      44.568 130.517  21.814  1.00  0.00     0.156 A 
ATOM      8  C   UNL     1      43.908 130.278  24.533  1.00  0.00     0.031 A 
ATOM      9  C   UNL     1      43.964 131.584  22.497  1.00  0.00     0.040 A 
ATOM     10  C   UNL     1      43.619 131.465  23.849  1.00  0.00    -0.047 A 
ATOM     11  C   UNL     1      42.998 132.622  24.574  1.00  0.00     0.044 C 
BRANCH   6  12
ATOM     12  N   UNL     1      44.817 128.008  24.608  1.00  0.00    -0.397 N 
ATOM     13  H   UNL     1      44.896 128.006  25.648  1.00  0.00     0.156 HD
ATOM     14  H   UNL     1      44.950 127.100  24.110  1.00  0.00     0.156 HD
ENDBRANCH   6  12
BRANCH   7  15
ATOM     15  N   UNL     1      44.821 130.637  20.404  1.00  0.00    -0.010 N 
ATOM     16  N   UNL     1      44.209 131.520  19.615  1.00  0.00     0.054 NA
ATOM     17  N   UNL     1      45.708 129.899  19.738  1.00  0.00    -0.161 N 
ATOM     18  C   UNL     1      44.731 131.317  18.394  1.00  0.00     0.249 A 
ATOM     19  C   UNL     1      45.654 130.318  18.468  1.00  0.00     0.198 A 
ATOM     20  C   UNL     1      44.437 131.964  17.197  1.00  0.00     0.064 A 
ATOM     21  C   UNL     1      46.362 129.873  17.357  1.00  0.00     0.058 A 
ATOM     22  C   UNL     1      45.134 131.545  16.047  1.00  0.00     0.005 A 
ATOM     23  C   UNL     1      46.092 130.504  16.126  1.00  0.00     0.005 A 
ATOM     24  H   UNL     1      46.300 129.136  20.135  1.00  0.00     0.340 HD
ENDBRANCH   7  15
ENDBRANCH   4   5
ENDBRANCH   1   4
BRANCH   1  25
ATOM     25  O   UNL     1      44.370 126.201  21.961  1.00  0.00    -0.445 OA
BRANCH  25  26
ATOM     26  C   UNL     1      43.685 125.307  22.854  1.00  0.00     0.106 C 
ATOM     27  C   UNL     1      43.033 124.219  21.988  1.00  0.00     0.056 C 
ATOM     28  C   UNL     1      42.581 126.055  23.627  1.00  0.00     0.056 C 
ATOM     29  C   UNL     1      44.675 124.639  23.828  1.00  0.00     0.056 C 
ENDBRANCH  25  26
ENDBRANCH   1  25
TORSDOF 7
ENDMDL
MODEL 3
REMARK VINA RESULT:      -4.0      4.914      6.712
REMARK SMILES Cc1cc(N)c(/N=C(\O)OC(C)(C)C)c(-n2nc3ccccc3[nH+]2)c1
REMARK SMILES IDX 8 1 9 2 7 4 6 5 4 6 15 7 3 8 25 9 2 10 1 11 5 12 16 15 17 16
REMARK SMILES IDX 24 17 18 18 23 19 19 20 22 21 20 22 21 23 10 25 11 26 12 27
REMARK SMILES IDX 13 28 14 29
REMARK H PARENT 9 3 5 13 5 14 24 24
ROOT
ATOM      1  C   UNL     1      45.535 128.934  21.499  1.00  0.00     0.386 C 
ENDROOT
BRANCH   1   2
ATOM      2  O   UNL     1      46.563 128.093  21.080  1.00  0.00    -0.466 OA
ATOM      3  H   UNL     1      47.446 128.475  20.765  1.00  0.00     0.298 HD
ENDBRANCH   1   2
BRANCH   1   4
ATOM      4  N   UNL     1      45.538 130.190  21.161  1.00  0.00    -0.174 NA
BRANCH   4   5
ATOM      5  C   UNL     1      44.360 131.008  21.104  1.00  0.00     0.125 A 
ATOM      6  C   UNL     1      43.597 131.205  22.273  1.00  0.00     0.061 A 
ATOM      7  C   UNL     1      43.957 131.622  19.892  1.00  0.00     0.156 A 
ATOM      8  C   UNL     1      42.471 132.038  22.237  1.00  0.00     0.031 A 
ATOM      9  C   UNL     1      42.835 132.464  19.884  1.00  0.00     0.040 A 
ATOM     10  C   UNL     1      42.081 132.664  21.047  1.00  0.00    -0.047 A 
ATOM     11  C   UNL     1      40.899 133.587  21.031  1.00  0.00     0.044 C 
BRANCH   6  12
ATOM     12  N   UNL     1      43.975 130.590  23.511  1.00  0.00    -0.397 N 
ATOM     13  H   UNL     1      43.330 130.562  24.330  1.00  0.00     0.156 HD
ATOM     14  H   UNL     1      44.913 130.143  23.617  1.00  0.00     0.156 HD
ENDBRANCH   6  12
BRANCH   7  15
ATOM     15  N   UNL     1      44.651 131.362  18.660  1.00  0.00    -0.010 N 
ATOM     16  N   UNL     1      44.787 132.259  17.684  1.00  0.00     0.054 NA
ATOM     17  N   UNL     1      45.254 130.210  18.370  1.00  0.00    -0.161 N 
ATOM     18  C   UNL     1      45.500 131.634  16.732  1.00  0.00     0.249 A 
ATOM     19  C   UNL     1      45.787 130.371  17.153  1.00  0.00     0.198 A 
ATOM     20  C   UNL     1      45.915 132.112  15.493  1.00  0.00     0.064 A 
ATOM     21  C   UNL     1      46.511 129.472  16.376  1.00  0.00     0.058 A 
ATOM     22  C   UNL     1      46.653 131.234  14.675  1.00  0.00     0.005 A 
ATOM     23  C   UNL     1      46.949 129.920  15.114  1.00  0.00     0.005 A 
ATOM     24  H   UNL     1      45.276 129.355  18.970  1.00  0.00     0.340 HD
ENDBRANCH   7  15
ENDBRANCH   4   5
ENDBRANCH   1   4
BRANCH   1  25
ATOM     25  O   UNL     1      44.513 128.398  22.299  1.00  0.00    -0.445 OA
BRANCH  25  26
ATOM     26  C   UNL     1      44.542 127.156  23.022  1.00  0.00     0.106 C 
ATOM     27  C   UNL     1      45.587 127.310  24.136  1.00  0.00     0.056 C 
ATOM     28  C   UNL     1      44.969 126.001  22.096  1.00  0.00     0.056 C 
ATOM     29  C   UNL     1      43.172 126.863  23.664  1.00  0.00     0.056 C 
ENDBRANCH  25  26
ENDBRANCH   1  25
TORSDOF 7
ENDMDL
MODEL 4
REMARK VINA RESULT:      -3.8      4.905      6.725
REMARK SMILES Cc1cc(N)c(/N=C(\O)OC(C)(C)C)c(-n2nc3ccccc3[nH+]2)c1
REMARK SMILES IDX 8 1 9 2 7 4 6 5 4 6 15 7 3 8 25 9 2 10 1 11 5 12 16 15 17 16
REMARK SMILES IDX 24 17 18 18 23 19 19 20 22 21 20 22 21 23 10 25 11 26 12 27
REMARK SMILES IDX 13 28 14 29
REMARK H PARENT 9 3 5 13 5 14 24 24
ROOT
ATOM      1  C   UNL     1      45.470 128.916  21.470  1.00  0.00     0.386 C 
ENDROOT
BRANCH   1   2
ATOM      2  O   UNL     1      46.527 128.095  21.086  1.00  0.00    -0.466 OA
ATOM      3  H   UNL     1      47.065 127.588  21.778  1.00  0.00     0.298 HD
ENDBRANCH   1   2
BRANCH   1   4
ATOM      4  N   UNL     1      45.488 130.184  21.180  1.00  0.00    -0.174 NA
BRANCH   4   5
ATOM      5  C   UNL     1      44.316 131.011  21.126  1.00  0.00     0.125 A 
ATOM      6  C   UNL     1      43.545 131.196  22.291  1.00  0.00     0.061 A 
ATOM      7  C   UNL     1      43.927 131.646  19.920  1.00  0.00     0.156 A 
ATOM      8  C   UNL     1      42.425 132.036  22.259  1.00  0.00     0.031 A 
ATOM      9  C   UNL     1      42.810 132.495  19.916  1.00  0.00     0.040 A 
ATOM     10  C   UNL     1      42.049 132.683  21.075  1.00  0.00    -0.047 A 
ATOM     11  C   UNL     1      40.873 133.614  21.064  1.00  0.00     0.044 C 
BRANCH   6  12
ATOM     12  N   UNL     1      43.909 130.559  23.523  1.00  0.00    -0.397 N 
ATOM     13  H   UNL     1      44.347 129.612  23.543  1.00  0.00     0.156 HD
ATOM     14  H   UNL     1      43.750 131.039  24.436  1.00  0.00     0.156 HD
ENDBRANCH   6  12
BRANCH   7  15
ATOM     15  N   UNL     1      44.629 131.400  18.690  1.00  0.00    -0.010 N 
ATOM     16  N   UNL     1      45.231 130.247  18.399  1.00  0.00     0.054 NA
ATOM     17  N   UNL     1      44.735 132.285  17.700  1.00  0.00    -0.161 N 
ATOM     18  C   UNL     1      45.748 130.423  17.171  1.00  0.00     0.249 A 
ATOM     19  C   UNL     1      45.443 131.679  16.739  1.00  0.00     0.198 A 
ATOM     20  C   UNL     1      46.487 129.534  16.397  1.00  0.00     0.064 A 
ATOM     21  C   UNL     1      45.851 132.161  15.500  1.00  0.00     0.058 A 
ATOM     22  C   UNL     1      46.918 129.983  15.132  1.00  0.00     0.005 A 
ATOM     23  C   UNL     1      46.602 131.290  14.686  1.00  0.00     0.005 A 
ATOM     24  H   UNL     1      44.357 133.259  17.697  1.00  0.00     0.340 HD
ENDBRANCH   7  15
ENDBRANCH   4   5
ENDBRANCH   1   4
BRANCH   1  25
ATOM     25  O   UNL     1      44.402 128.348  22.182  1.00  0.00    -0.445 OA
BRANCH  25  26
ATOM     26  C   UNL     1      44.452 127.197  23.042  1.00  0.00     0.106 C 
ATOM     27  C   UNL     1      44.683 125.974  22.143  1.00  0.00     0.056 C 
ATOM     28  C   UNL     1      43.115 127.020  23.787  1.00  0.00     0.056 C 
ATOM     29  C   UNL     1      45.621 127.308  24.040  1.00  0.00     0.056 C 
ENDBRANCH  25  26
ENDBRANCH   1  25
TORSDOF 7
ENDMDL
MODEL 5
REMARK VINA RESULT:      -3.1      6.940      8.953
REMARK SMILES Cc1cc(N)c(/N=C(\O)OC(C)(C)C)c(-n2nc3ccccc3[nH+]2)c1
REMARK SMILES IDX 8 1 9 2 7 4 6 5 4 6 15 7 3 8 25 9 2 10 1 11 5 12 16 15 17 16
REMARK SMILES IDX 24 17 18 18 23 19 19 20 22 21 20 22 21 23 10 25 11 26 12 27
REMARK SMILES IDX 13 28 14 29
REMARK H PARENT 9 3 5 13 5 14 24 24
ROOT
ATOM      1  C   UNL     1      47.206 132.112  21.066  1.00  0.00     0.386 C 
ENDROOT
BRANCH   1   2
ATOM      2  O   UNL     1      48.522 131.856  20.688  1.00  0.00    -0.466 OA
ATOM      3  H   UNL     1      49.141 132.614  20.426  1.00  0.00     0.298 HD
ENDBRANCH   1   2
BRANCH   1   4
ATOM      4  N   UNL     1      46.257 131.288  20.732  1.00  0.00    -0.174 NA
BRANCH   4   5
ATOM      5  C   UNL     1      44.871 131.653  20.647  1.00  0.00     0.125 A 
ATOM      6  C   UNL     1      44.135 131.857  21.832  1.00  0.00     0.061 A 
ATOM      7  C   UNL     1      44.236 131.815  19.391  1.00  0.00     0.156 A 
ATOM      8  C   UNL     1      42.794 132.256  21.759  1.00  0.00     0.031 A 
ATOM      9  C   UNL     1      42.897 132.231  19.343  1.00  0.00     0.040 A 
ATOM     10  C   UNL     1      42.169 132.439  20.520  1.00  0.00    -0.047 A 
ATOM     11  C   UNL     1      40.745 132.908  20.455  1.00  0.00     0.044 C 
BRANCH   6  12
ATOM     12  N   UNL     1      44.749 131.691  23.117  1.00  0.00    -0.397 N 
ATOM     13  H   UNL     1      45.385 132.414  23.519  1.00  0.00     0.156 HD
ATOM     14  H   UNL     1      44.563 130.837  23.688  1.00  0.00     0.156 HD
ENDBRANCH   6  12
BRANCH   7  15
ATOM     15  N   UNL     1      44.926 131.518  18.165  1.00  0.00    -0.010 N 
ATOM     16  N   UNL     1      45.527 130.354  17.918  1.00  0.00     0.054 NA
ATOM     17  N   UNL     1      45.018 132.359  17.136  1.00  0.00    -0.161 N 
ATOM     18  C   UNL     1      46.030 130.478  16.678  1.00  0.00     0.249 A 
ATOM     19  C   UNL     1      45.718 131.713  16.196  1.00  0.00     0.198 A 
ATOM     20  C   UNL     1      46.763 129.558  15.934  1.00  0.00     0.064 A 
ATOM     21  C   UNL     1      46.111 132.143  14.932  1.00  0.00     0.058 A 
ATOM     22  C   UNL     1      47.179 129.952  14.647  1.00  0.00     0.005 A 
ATOM     23  C   UNL     1      46.855 131.238  14.148  1.00  0.00     0.005 A 
ATOM     24  H   UNL     1      44.638 133.331  17.096  1.00  0.00     0.340 HD
ENDBRANCH   7  15
ENDBRANCH   4   5
ENDBRANCH   1   4
BRANCH   1  25
ATOM     25  O   UNL     1      46.933 133.279  21.798  1.00  0.00    -0.445 OA
BRANCH  25  26
ATOM     26  C   UNL     1      47.890 134.155  22.417  1.00  0.00     0.106 C 
ATOM     27  C   UNL     1      47.234 134.708  23.690  1.00  0.00     0.056 C 
ATOM     28  C   UNL     1      48.231 135.331  21.482  1.00  0.00     0.056 C 
ATOM     29  C   UNL     1      49.165 133.384  22.810  1.00  0.00     0.056 C 
ENDBRANCH  25  26
ENDBRANCH   1  25
TORSDOF 7
ENDMDL
MODEL 6
REMARK VINA RESULT:      -3.0      3.830      5.994
REMARK SMILES Cc1cc(N)c(/N=C(\O)OC(C)(C)C)c(-n2nc3ccccc3[nH+]2)c1
REMARK SMILES IDX 8 1 9 2 7 4 6 5 4 6 15 7 3 8 25 9 2 10 1 11 5 12 16 15 17 16
REMARK SMILES IDX 24 17 18 18 23 19 19 20 22 21 20 22 21 23 10 25 11 26 12 27
REMARK SMILES IDX 13 28 14 29
REMARK H PARENT 9 3 5 13 5 14 24 24
ROOT
ATOM      1  C   UNL     1      45.424 126.880  22.063  1.00  0.00     0.386 C 
ENDROOT
BRANCH   1   2
ATOM      2  O   UNL     1      44.559 125.791  22.104  1.00  0.00    -0.466 OA
ATOM      3  H   UNL     1      44.884 124.864  21.857  1.00  0.00     0.298 HD
ENDBRANCH   1   2
BRANCH   1   4
ATOM      4  N   UNL     1      45.041 128.002  21.526  1.00  0.00    -0.174 NA
BRANCH   4   5
ATOM      5  C   UNL     1      44.723 129.183  22.276  1.00  0.00     0.125 A 
ATOM      6  C   UNL     1      44.384 129.067  23.639  1.00  0.00     0.061 A 
ATOM      7  C   UNL     1      44.750 130.462  21.667  1.00  0.00     0.156 A 
ATOM      8  C   UNL     1      44.115 130.218  24.391  1.00  0.00     0.031 A 
ATOM      9  C   UNL     1      44.493 131.602  22.443  1.00  0.00     0.040 A 
ATOM     10  C   UNL     1      44.162 131.486  23.799  1.00  0.00    -0.047 A 
ATOM     11  C   UNL     1      43.915 132.715  24.624  1.00  0.00     0.044 C 
BRANCH   6  12
ATOM     12  N   UNL     1      44.340 127.785  24.280  1.00  0.00    -0.397 N 
ATOM     13  H   UNL     1      43.887 126.961  23.828  1.00  0.00     0.156 HD
ATOM     14  H   UNL     1      44.772 127.646  25.220  1.00  0.00     0.156 HD
ENDBRANCH   6  12
BRANCH   7  15
ATOM     15  N   UNL     1      44.992 130.610  20.258  1.00  0.00    -0.010 N 
ATOM     16  N   UNL     1      45.762 129.785  19.548  1.00  0.00     0.054 NA
ATOM     17  N   UNL     1      44.456 131.569  19.504  1.00  0.00    -0.161 N 
ATOM     18  C   UNL     1      45.714 130.258  18.291  1.00  0.00     0.249 A 
ATOM     19  C   UNL     1      44.911 131.357  18.263  1.00  0.00     0.198 A 
ATOM     20  C   UNL     1      46.349 129.776  17.151  1.00  0.00     0.064 A 
ATOM     21  C   UNL     1      44.671 132.076  17.096  1.00  0.00     0.058 A 
ATOM     22  C   UNL     1      46.131 130.474  15.946  1.00  0.00     0.005 A 
ATOM     23  C   UNL     1      45.296 131.619  15.919  1.00  0.00     0.005 A 
ATOM     24  H   UNL     1      43.830 132.338  19.833  1.00  0.00     0.340 HD
ENDBRANCH   7  15
ENDBRANCH   4   5
ENDBRANCH   1   4
BRANCH   1  25
ATOM     25  O   UNL     1      46.714 126.735  22.599  1.00  0.00    -0.445 OA
BRANCH  25  26
ATOM     26  C   UNL     1      47.233 125.595  23.305  1.00  0.00     0.106 C 
ATOM     27  C   UNL     1      47.855 126.118  24.607  1.00  0.00     0.056 C 
ATOM     28  C   UNL     1      48.328 124.898  22.475  1.00  0.00     0.056 C 
ATOM     29  C   UNL     1      46.104 124.607  23.656  1.00  0.00     0.056 C 
ENDBRANCH  25  26
ENDBRANCH   1  25
TORSDOF 7
ENDMDL
MODEL 7
REMARK VINA RESULT:      -2.4      5.041      7.184
REMARK SMILES Cc1cc(N)c(/N=C(\O)OC(C)(C)C)c(-n2nc3ccccc3[nH+]2)c1
REMARK SMILES IDX 8 1 9 2 7 4 6 5 4 6 15 7 3 8 25 9 2 10 1 11 5 12 16 15 17 16
REMARK SMILES IDX 24 17 18 18 23 19 19 20 22 21 20 22 21 23 10 25 11 26 12 27
REMARK SMILES IDX 13 28 14 29
REMARK H PARENT 9 3 5 13 5 14 24 24
ROOT
ATOM      1  C   UNL     1      45.527 129.468  21.044  1.00  0.00     0.386 C 
ENDROOT
BRANCH   1   2
ATOM      2  O   UNL     1      45.438 128.766  19.846  1.00  0.00    -0.466 OA
ATOM      3  H   UNL     1      45.907 129.103  19.014  1.00  0.00     0.298 HD
ENDBRANCH   1   2
BRANCH   1   4
ATOM      4  N   UNL     1      45.387 130.762  21.058  1.00  0.00    -0.174 NA
BRANCH   4   5
ATOM      5  C   UNL     1      44.125 131.431  21.193  1.00  0.00     0.125 A 
ATOM      6  C   UNL     1      43.557 131.585  22.473  1.00  0.00     0.061 A 
ATOM      7  C   UNL     1      43.447 131.943  20.059  1.00  0.00     0.156 A 
ATOM      8  C   UNL     1      42.346 132.275  22.620  1.00  0.00     0.031 A 
ATOM      9  C   UNL     1      42.244 132.645  20.231  1.00  0.00     0.040 A 
ATOM     10  C   UNL     1      41.684 132.802  21.504  1.00  0.00    -0.047 A 
ATOM     11  C   UNL     1      40.411 133.577  21.679  1.00  0.00     0.044 C 
BRANCH   6  12
ATOM     12  N   UNL     1      44.215 131.069  23.637  1.00  0.00    -0.397 N 
ATOM     13  H   UNL     1      45.189 131.350  23.887  1.00  0.00     0.156 HD
ATOM     14  H   UNL     1      43.725 130.400  24.272  1.00  0.00     0.156 HD
ENDBRANCH   6  12
BRANCH   7  15
ATOM     15  N   UNL     1      43.945 131.717  18.729  1.00  0.00    -0.010 N 
ATOM     16  N   UNL     1      43.164 131.601  17.655  1.00  0.00     0.054 NA
ATOM     17  N   UNL     1      45.238 131.623  18.422  1.00  0.00    -0.161 N 
ATOM     18  C   UNL     1      44.009 131.415  16.628  1.00  0.00     0.249 A 
ATOM     19  C   UNL     1      45.287 131.427  17.098  1.00  0.00     0.198 A 
ATOM     20  C   UNL     1      43.720 131.227  15.280  1.00  0.00     0.064 A 
ATOM     21  C   UNL     1      46.390 131.249  16.269  1.00  0.00     0.058 A 
ATOM     22  C   UNL     1      44.809 131.045  14.403  1.00  0.00     0.005 A 
ATOM     23  C   UNL     1      46.137 131.056  14.895  1.00  0.00     0.005 A 
ATOM     24  H   UNL     1      46.039 131.669  19.091  1.00  0.00     0.340 HD
ENDBRANCH   7  15
ENDBRANCH   4   5
ENDBRANCH   1   4
BRANCH   1  25
ATOM     25  O   UNL     1      45.782 128.752  22.225  1.00  0.00    -0.445 OA
BRANCH  25  26
ATOM     26  C   UNL     1      44.987 127.692  22.781  1.00  0.00     0.106 C 
ATOM     27  C   UNL     1      43.591 128.270  23.052  1.00  0.00     0.056 C 
ATOM     28  C   UNL     1      45.590 127.204  24.113  1.00  0.00     0.056 C 
ATOM     29  C   UNL     1      44.855 126.524  21.784  1.00  0.00     0.056 C 
ENDBRANCH  25  26
ENDBRANCH   1  25
TORSDOF 7
ENDMDL
MODEL 8
REMARK VINA RESULT:      -2.3      4.904      6.751
REMARK SMILES Cc1cc(N)c(/N=C(\O)OC(C)(C)C)c(-n2nc3ccccc3[nH+]2)c1
REMARK SMILES IDX 8 1 9 2 7 4 6 5 4 6 15 7 3 8 25 9 2 10 1 11 5 12 16 15 17 16
REMARK SMILES IDX 24 17 18 18 23 19 19 20 22 21 20 22 21 23 10 25 11 26 12 27
REMARK SMILES IDX 13 28 14 29
REMARK H PARENT 9 3 5 13 5 14 24 24
ROOT
ATOM      1  C   UNL     1      45.240 128.995  21.939  1.00  0.00     0.386 C 
ENDROOT
BRANCH   1   2
ATOM      2  O   UNL     1      45.544 129.284  23.267  1.00  0.00    -0.466 OA
ATOM      3  H   UNL     1      45.442 128.578  23.986  1.00  0.00     0.298 HD
ENDBRANCH   1   2
BRANCH   1   4
ATOM      4  N   UNL     1      45.095 129.957  21.076  1.00  0.00    -0.174 NA
BRANCH   4   5
ATOM      5  C   UNL     1      43.996 130.880  21.080  1.00  0.00     0.125 A 
ATOM      6  C   UNL     1      43.268 131.082  22.270  1.00  0.00     0.061 A 
ATOM      7  C   UNL     1      43.637 131.590  19.908  1.00  0.00     0.156 A 
ATOM      8  C   UNL     1      42.221 132.014  22.296  1.00  0.00     0.031 A 
ATOM      9  C   UNL     1      42.595 132.529  19.962  1.00  0.00     0.040 A 
ATOM     10  C   UNL     1      41.877 132.735  21.146  1.00  0.00    -0.047 A 
ATOM     11  C   UNL     1      40.783 133.760  21.197  1.00  0.00     0.044 C 
BRANCH   6  12
ATOM     12  N   UNL     1      43.602 130.370  23.468  1.00  0.00    -0.397 N 
ATOM     13  H   UNL     1      44.593 130.184  23.738  1.00  0.00     0.156 HD
ATOM     14  H   UNL     1      42.852 130.027  24.108  1.00  0.00     0.156 HD
ENDBRANCH   6  12
BRANCH   7  15
ATOM     15  N   UNL     1      44.290 131.335  18.654  1.00  0.00    -0.010 N 
ATOM     16  N   UNL     1      45.383 130.582  18.528  1.00  0.00     0.054 NA
ATOM     17  N   UNL     1      43.864 131.801  17.480  1.00  0.00    -0.161 N 
ATOM     18  C   UNL     1      45.659 130.585  17.213  1.00  0.00     0.249 A 
ATOM     19  C   UNL     1      44.725 131.337  16.566  1.00  0.00     0.198 A 
ATOM     20  C   UNL     1      46.704 129.962  16.537  1.00  0.00     0.064 A 
ATOM     21  C   UNL     1      44.751 131.537  15.190  1.00  0.00     0.058 A 
ATOM     22  C   UNL     1      46.766 130.137  15.140  1.00  0.00     0.005 A 
ATOM     23  C   UNL     1      45.794 130.921  14.470  1.00  0.00     0.005 A 
ATOM     24  H   UNL     1      43.039 132.421  17.323  1.00  0.00     0.340 HD
ENDBRANCH   7  15
ENDBRANCH   4   5
ENDBRANCH   1   4
BRANCH   1  25
ATOM     25  O   UNL     1      45.083 127.651  21.564  1.00  0.00    -0.445 OA
BRANCH  25  26
ATOM     26  C   UNL     1      45.223 126.496  22.407  1.00  0.00     0.106 C 
ATOM     27  C   UNL     1      44.954 126.956  23.847  1.00  0.00     0.056 C 
ATOM     28  C   UNL     1      46.655 125.934  22.323  1.00  0.00     0.056 C 
ATOM     29  C   UNL     1      44.191 125.414  22.032  1.00  0.00     0.056 C 
ENDBRANCH  25  26
ENDBRANCH   1  25
TORSDOF 7
ENDMDL
MODEL 9
REMARK VINA RESULT:      -2.2      6.992      8.971
REMARK SMILES Cc1cc(N)c(/N=C(\O)OC(C)(C)C)c(-n2nc3ccccc3[nH+]2)c1
REMARK SMILES IDX 8 1 9 2 7 4 6 5 4 6 15 7 3 8 25 9 2 10 1 11 5 12 16 15 17 16
REMARK SMILES IDX 24 17 18 18 23 19 19 20 22 21 20 22 21 23 10 25 11 26 12 27
REMARK SMILES IDX 13 28 14 29
REMARK H PARENT 9 3 5 13 5 14 24 24
ROOT
ATOM      1  C   UNL     1      47.313 132.193  20.965  1.00  0.00     0.386 C 
ENDROOT
BRANCH   1   2
ATOM      2  O   UNL     1      48.648 131.872  20.735  1.00  0.00    -0.466 OA
ATOM      3  H   UNL     1      49.050 131.026  21.121  1.00  0.00     0.298 HD
ENDBRANCH   1   2
BRANCH   1   4
ATOM      4  N   UNL     1      46.376 131.332  20.692  1.00  0.00    -0.174 NA
BRANCH   4   5
ATOM      5  C   UNL     1      44.982 131.662  20.613  1.00  0.00     0.125 A 
ATOM      6  C   UNL     1      44.252 131.872  21.800  1.00  0.00     0.061 A 
ATOM      7  C   UNL     1      44.332 131.782  19.360  1.00  0.00     0.156 A 
ATOM      8  C   UNL     1      42.902 132.238  21.732  1.00  0.00     0.031 A 
ATOM      9  C   UNL     1      42.982 132.165  19.316  1.00  0.00     0.040 A 
ATOM     10  C   UNL     1      42.260 132.380  20.496  1.00  0.00    -0.047 A 
ATOM     11  C   UNL     1      40.826 132.814  20.434  1.00  0.00     0.044 C 
BRANCH   6  12
ATOM     12  N   UNL     1      44.881 131.748  23.082  1.00  0.00    -0.397 N 
ATOM     13  H   UNL     1      45.696 131.114  23.235  1.00  0.00     0.156 HD
ATOM     14  H   UNL     1      44.539 132.303  23.898  1.00  0.00     0.156 HD
ENDBRANCH   6  12
BRANCH   7  15
ATOM     15  N   UNL     1      45.017 131.476  18.134  1.00  0.00    -0.010 N 
ATOM     16  N   UNL     1      45.086 132.311  17.096  1.00  0.00     0.054 NA
ATOM     17  N   UNL     1      45.676 130.340  17.909  1.00  0.00    -0.161 N 
ATOM     18  C   UNL     1      45.815 131.660  16.173  1.00  0.00     0.249 A 
ATOM     19  C   UNL     1      46.178 130.446  16.672  1.00  0.00     0.198 A 
ATOM     20  C   UNL     1      46.181 132.074  14.896  1.00  0.00     0.064 A 
ATOM     21  C   UNL     1      46.935 129.535  15.942  1.00  0.00     0.058 A 
ATOM     22  C   UNL     1      46.951 131.182  14.124  1.00  0.00     0.005 A 
ATOM     23  C   UNL     1      47.326 129.919  14.644  1.00  0.00     0.005 A 
ATOM     24  H   UNL     1      45.755 129.531  18.564  1.00  0.00     0.340 HD
ENDBRANCH   7  15
ENDBRANCH   4   5
ENDBRANCH   1   4
BRANCH   1  25
ATOM     25  O   UNL     1      47.006 133.462  21.482  1.00  0.00    -0.445 OA
BRANCH  25  26
ATOM     26  C   UNL     1      47.868 134.311  22.258  1.00  0.00     0.106 C 
ATOM     27  C   UNL     1      46.966 135.297  23.013  1.00  0.00     0.056 C 
ATOM     28  C   UNL     1      48.814 135.107  21.338  1.00  0.00     0.056 C 
ATOM     29  C   UNL     1      48.671 133.487  23.283  1.00  0.00     0.056 C 
ENDBRANCH  25  26
ENDBRANCH   1  25
TORSDOF 7
ENDMDL


