REMARK SMILES N[NH2+]c1ccccc1-c1nc2ccccc2[n-]1
REMARK SMILES IDX 2 1 1 4 3 7 4 8 8 9 5 10 7 11 6 12 9 13 10 14 17 15 11 16
REMARK SMILES IDX 16 17 12 18 15 19 13 20 14 21
REMARK H PARENT 2 2 2 3 1 5 1 6
ROOT
ATOM      1  N   UNL     1       0.834   1.001  -2.502  1.00  0.00    -0.239 N 
ATOM      2  H   UNL     1       1.271   0.173  -2.035  1.00  0.00     0.376 HD
ATOM      3  H   UNL     1       1.252   1.077  -3.460  1.00  0.00     0.376 HD
ENDROOT
BRANCH   1   4
ATOM      4  N   UNL     1       1.131   2.171  -1.774  1.00  0.00    -0.178 NA
ATOM      5  H   UNL     1       2.165   2.196  -1.612  1.00  0.00     0.183 HD
ATOM      6  H   UNL     1       0.905   3.001  -2.372  1.00  0.00     0.183 HD
ENDBRANCH   1   4
BRANCH   1   7
ATOM      7  C   UNL     1      -0.600   0.850  -2.575  1.00  0.00     0.155 A 
ATOM      8  C   UNL     1      -1.275   1.340  -3.710  1.00  0.00     0.070 A 
ATOM      9  C   UNL     1      -1.353   0.222  -1.540  1.00  0.00     0.036 A 
ATOM     10  C   UNL     1      -2.654   1.183  -3.846  1.00  0.00     0.006 A 
ATOM     11  C   UNL     1      -2.741   0.060  -1.709  1.00  0.00     0.014 A 
ATOM     12  C   UNL     1      -3.384   0.538  -2.851  1.00  0.00     0.001 A 
BRANCH   9  13
ATOM     13  C   UNL     1      -0.742  -0.274  -0.281  1.00  0.00    -0.045 A 
ATOM     14  N   UNL     1      -1.270  -1.310   0.427  1.00  0.00    -0.435 NA
ATOM     15  N   UNL     1       0.350   0.293   0.299  1.00  0.00    -0.435 NA
ATOM     16  C   UNL     1      -0.453  -1.394   1.486  1.00  0.00    -0.038 A 
ATOM     17  C   UNL     1       0.511  -0.439   1.410  1.00  0.00    -0.038 A 
ATOM     18  C   UNL     1      -0.522  -2.291   2.549  1.00  0.00     0.004 A 
ATOM     19  C   UNL     1       1.492  -0.299   2.390  1.00  0.00     0.004 A 
ATOM     20  C   UNL     1       0.453  -2.182   3.559  1.00  0.00     0.000 A 
ATOM     21  C   UNL     1       1.456  -1.189   3.480  1.00  0.00     0.000 A 
ENDBRANCH   9  13
ENDBRANCH   1   7
TORSDOF 3


