REMARK SMILES C=C[C@@H]1C[C@](N)(c2ccc3[nH]ccc3c2)[C@@H](Nc2ccc(C)[nH+]c2F)C[C@@H]1F
REMARK SMILES IDX 3 1 4 2 5 3 16 4 26 5 27 6 28 7 2 8 1 9 6 10 7 13 8 14 15 15
REMARK SMILES IDX 9 16 14 17 10 18 13 19 11 20 12 21 17 23 18 25 19 26 24 27
REMARK SMILES IDX 20 28 23 29 21 30 25 31 22 33
REMARK H PARENT 6 11 6 12 11 22 17 24 23 32
ROOT
ATOM      1  C   UNL     1      -1.081   2.786  -2.396  1.00  0.00     0.048 C 
ATOM      2  C   UNL     1      -1.671   1.669  -1.502  1.00  0.00     0.040 C 
ATOM      3  C   UNL     1      -0.653   0.544  -1.157  1.00  0.00     0.062 C 
ATOM      4  C   UNL     1       0.636   1.198  -0.532  1.00  0.00     0.107 C 
ATOM      5  C   UNL     1       1.240   2.269  -1.466  1.00  0.00     0.065 C 
ATOM      6  C   UNL     1       0.213   3.366  -1.786  1.00  0.00     0.175 C 
ATOM      7  F   UNL     1      -0.079   4.076  -0.630  1.00  0.00    -0.247 F 
ENDROOT
BRANCH   1   8
ATOM      8  C   UNL     1      -2.106   3.879  -2.610  1.00  0.00    -0.028 C 
ATOM      9  C   UNL     1      -1.942   4.821  -3.544  1.00  0.00     0.004 C 
ENDBRANCH   1   8
BRANCH   3  10
ATOM     10  N   UNL     1      -0.332  -0.196  -2.399  1.00  0.00    -0.320 NA
ATOM     11  H   UNL     1       0.096   0.412  -3.128  1.00  0.00     0.119 HD
ATOM     12  H   UNL     1       0.354  -0.961  -2.220  1.00  0.00     0.119 HD
ENDBRANCH   3  10
BRANCH   3  13
ATOM     13  C   UNL     1      -1.326  -0.408  -0.143  1.00  0.00    -0.025 A 
ATOM     14  C   UNL     1      -1.636   0.040   1.179  1.00  0.00     0.008 A 
ATOM     15  C   UNL     1      -1.716  -1.728  -0.510  1.00  0.00     0.016 A 
ATOM     16  C   UNL     1      -2.260  -0.805   2.112  1.00  0.00     0.027 A 
ATOM     17  C   UNL     1      -2.331  -2.534   0.443  1.00  0.00    -0.000 A 
ATOM     18  C   UNL     1      -2.590  -2.092   1.708  1.00  0.00     0.045 A 
ATOM     19  C   UNL     1      -2.794  -3.829   0.356  1.00  0.00     0.028 A 
ATOM     20  N   UNL     1      -3.196  -3.045   2.434  1.00  0.00    -0.361 N 
ATOM     21  C   UNL     1      -3.322  -4.111   1.611  1.00  0.00     0.083 A 
ATOM     22  H   UNL     1      -3.511  -2.980   3.428  1.00  0.00     0.166 HD
ENDBRANCH   3  13
BRANCH   4  23
ATOM     23  N   UNL     1       1.648   0.196  -0.155  1.00  0.00    -0.372 N 
ATOM     24  H   UNL     1       1.478  -0.807  -0.387  1.00  0.00     0.161 HD
BRANCH  23  25
ATOM     25  C   UNL     1       2.840   0.482   0.606  1.00  0.00     0.140 A 
ATOM     26  C   UNL     1       2.970   1.647   1.383  1.00  0.00     0.042 A 
ATOM     27  C   UNL     1       3.903  -0.437   0.604  1.00  0.00     0.381 A 
ATOM     28  C   UNL     1       4.133   1.876   2.116  1.00  0.00     0.076 A 
ATOM     29  N   UNL     1       5.030  -0.192   1.327  1.00  0.00    -0.182 N 
ATOM     30  C   UNL     1       5.164   0.931   2.090  1.00  0.00     0.179 A 
ATOM     31  F   UNL     1       3.823  -1.572  -0.136  1.00  0.00    -0.134 F 
ATOM     32  H   UNL     1       5.808  -0.889   1.291  1.00  0.00     0.456 HD
ATOM     33  C   UNL     1       6.436   1.184   2.844  1.00  0.00     0.123 C 
ENDBRANCH  23  25
ENDBRANCH   4  23
TORSDOF 5


