MODEL 1
REMARK VINA RESULT:      -4.4      0.000      0.000
REMARK SMILES CC(=O)c1ccc([C@H]2[C@H](F)[C@H](C)CCN2C(=S)[NH2+]c2[nH+]c3ccccc3s2)cc1F
REMARK SMILES IDX 8 1 9 2 10 3 11 4 12 5 13 6 14 7 15 8 7 9 4 10 5 11 29 12
REMARK SMILES IDX 6 13 28 14 30 15 2 16 1 17 3 18 16 19 17 20 18 21 19 24
REMARK SMILES IDX 20 25 27 26 21 27 26 28 22 29 25 30 23 31 24 32
REMARK H PARENT 18 22 18 23 20 33
ROOT
ATOM      1  C   UNL     1      43.296 129.861  22.942  1.00  0.00     0.153 C 
ATOM      2  C   UNL     1      42.767 130.213  24.353  1.00  0.00     0.196 C 
ATOM      3  F   UNL     1      41.593 129.521  24.604  1.00  0.00    -0.245 F 
ATOM      4  C   UNL     1      42.539 131.731  24.498  1.00  0.00     0.024 C 
ATOM      5  C   UNL     1      41.403 132.236  23.589  1.00  0.00     0.011 C 
ATOM      6  C   UNL     1      43.848 132.528  24.250  1.00  0.00     0.028 C 
ATOM      7  C   UNL     1      44.919 131.756  23.454  1.00  0.00     0.124 C 
ATOM      8  N   UNL     1      44.307 130.835  22.484  1.00  0.00    -0.308 N 
ENDROOT
BRANCH   1   9
ATOM      9  C   UNL     1      43.851 128.450  22.891  1.00  0.00    -0.019 A 
ATOM     10  C   UNL     1      44.896 125.821  22.745  1.00  0.00     0.053 A 
ATOM     11  C   UNL     1      45.646 126.922  22.295  1.00  0.00     0.015 A 
ATOM     12  C   UNL     1      43.617 126.057  23.296  1.00  0.00     0.134 A 
ATOM     13  C   UNL     1      45.129 128.217  22.360  1.00  0.00     0.007 A 
ATOM     14  C   UNL     1      43.115 127.359  23.383  1.00  0.00     0.046 A 
ATOM     15  F   UNL     1      42.860 125.046  23.787  1.00  0.00    -0.206 F 
BRANCH  10  16
ATOM     16  C   UNL     1      45.478 124.455  22.639  1.00  0.00     0.162 C 
ATOM     17  C   UNL     1      44.713 123.297  22.074  1.00  0.00     0.093 C 
ATOM     18  O   UNL     1      46.654 124.250  23.043  1.00  0.00    -0.294 OA
ENDBRANCH  10  16
ENDBRANCH   1   9
BRANCH   8  19
ATOM     19  C   UNL     1      44.684 130.890  21.089  1.00  0.00     0.280 C 
ATOM     20  S   UNL     1      46.263 131.097  20.676  1.00  0.00     0.004 S 
BRANCH  19  21
ATOM     21  N   UNL     1      43.683 130.879  20.052  1.00  0.00    -0.191 N 
ATOM     22  H   UNL     1      43.135 129.988  20.083  1.00  0.00     0.366 HD
ATOM     23  H   UNL     1      43.009 131.665  20.177  1.00  0.00     0.366 HD
BRANCH  21  24
ATOM     24  C   UNL     1      44.318 130.983  18.771  1.00  0.00     0.433 A 
ATOM     25  N   UNL     1      45.214 130.078  18.306  1.00  0.00    -0.146 N 
ATOM     26  S   UNL     1      44.065 132.254  17.676  1.00  0.00    -0.000 S 
ATOM     27  C   UNL     1      45.684 130.430  17.083  1.00  0.00     0.227 A 
ATOM     28  C   UNL     1      45.155 131.608  16.572  1.00  0.00     0.111 A 
ATOM     29  C   UNL     1      46.622 129.702  16.347  1.00  0.00     0.081 A 
ATOM     30  C   UNL     1      45.523 132.103  15.324  1.00  0.00     0.026 A 
ATOM     31  C   UNL     1      47.009 130.182  15.084  1.00  0.00     0.007 A 
ATOM     32  C   UNL     1      46.462 131.376  14.574  1.00  0.00     0.002 A 
ATOM     33  H   UNL     1      45.507 129.219  18.825  1.00  0.00     0.461 HD
ENDBRANCH  21  24
ENDBRANCH  19  21
ENDBRANCH   8  19
TORSDOF 5
ENDMDL
MODEL 2
REMARK VINA RESULT:      -3.7      4.462      7.663
REMARK SMILES CC(=O)c1ccc([C@H]2[C@H](F)[C@H](C)CCN2C(=S)[NH2+]c2[nH+]c3ccccc3s2)cc1F
REMARK SMILES IDX 8 1 9 2 10 3 11 4 12 5 13 6 14 7 15 8 7 9 4 10 5 11 29 12
REMARK SMILES IDX 6 13 28 14 30 15 2 16 1 17 3 18 16 19 17 20 18 21 19 24
REMARK SMILES IDX 20 25 27 26 21 27 26 28 22 29 25 30 23 31 24 32
REMARK H PARENT 18 22 18 23 20 33
ROOT
ATOM      1  C   UNL     1      43.013 125.220  23.169  1.00  0.00     0.153 C 
ATOM      2  C   UNL     1      41.468 125.200  23.079  1.00  0.00     0.196 C 
ATOM      3  F   UNL     1      40.924 125.905  24.142  1.00  0.00    -0.245 F 
ATOM      4  C   UNL     1      40.931 123.754  23.061  1.00  0.00     0.024 C 
ATOM      5  C   UNL     1      41.190 123.023  24.391  1.00  0.00     0.011 C 
ATOM      6  C   UNL     1      41.504 122.952  21.861  1.00  0.00     0.028 C 
ATOM      7  C   UNL     1      42.801 123.538  21.268  1.00  0.00     0.124 C 
ATOM      8  N   UNL     1      43.619 124.188  22.303  1.00  0.00    -0.308 N 
ENDROOT
BRANCH   1   9
ATOM      9  C   UNL     1      43.573 126.591  22.840  1.00  0.00    -0.019 A 
ATOM     10  C   UNL     1      44.658 129.141  22.256  1.00  0.00     0.053 A 
ATOM     11  C   UNL     1      45.418 127.973  22.068  1.00  0.00     0.015 A 
ATOM     12  C   UNL     1      43.330 129.013  22.719  1.00  0.00     0.134 A 
ATOM     13  C   UNL     1      44.886 126.716  22.363  1.00  0.00     0.007 A 
ATOM     14  C   UNL     1      42.793 127.750  22.986  1.00  0.00     0.046 A 
ATOM     15  F   UNL     1      42.529 130.095  22.880  1.00  0.00    -0.206 F 
BRANCH  10  16
ATOM     16  C   UNL     1      45.271 130.463  21.948  1.00  0.00     0.162 C 
ATOM     17  C   UNL     1      46.039 130.720  20.688  1.00  0.00     0.093 C 
ATOM     18  O   UNL     1      45.152 131.407  22.775  1.00  0.00    -0.294 OA
ENDBRANCH  10  16
ENDBRANCH   1   9
BRANCH   8  19
ATOM     19  C   UNL     1      45.004 123.813  22.479  1.00  0.00     0.280 C 
ATOM     20  S   UNL     1      45.642 123.728  23.994  1.00  0.00     0.004 S 
BRANCH  19  21
ATOM     21  N   UNL     1      45.868 123.623  21.342  1.00  0.00    -0.191 N 
ATOM     22  H   UNL     1      45.706 122.682  20.913  1.00  0.00     0.366 HD
ATOM     23  H   UNL     1      45.680 124.338  20.607  1.00  0.00     0.366 HD
BRANCH  21  24
ATOM     24  C   UNL     1      47.237 123.706  21.760  1.00  0.00     0.433 A 
ATOM     25  N   UNL     1      47.938 124.865  21.794  1.00  0.00    -0.146 N 
ATOM     26  S   UNL     1      48.175 122.375  22.238  1.00  0.00    -0.000 S 
ATOM     27  C   UNL     1      49.218 124.659  22.196  1.00  0.00     0.227 A 
ATOM     28  C   UNL     1      49.530 123.339  22.491  1.00  0.00     0.111 A 
ATOM     29  C   UNL     1      50.186 125.658  22.328  1.00  0.00     0.081 A 
ATOM     30  C   UNL     1      50.795 122.958  22.929  1.00  0.00     0.026 A 
ATOM     31  C   UNL     1      51.471 125.298  22.768  1.00  0.00     0.007 A 
ATOM     32  C   UNL     1      51.774 123.955  23.069  1.00  0.00     0.002 A 
ATOM     33  H   UNL     1      47.544 125.800  21.541  1.00  0.00     0.461 HD
ENDBRANCH  21  24
ENDBRANCH  19  21
ENDBRANCH   8  19
TORSDOF 5
ENDMDL
MODEL 3
REMARK VINA RESULT:      -3.2      1.099      1.234
REMARK SMILES CC(=O)c1ccc([C@H]2[C@H](F)[C@H](C)CCN2C(=S)[NH2+]c2[nH+]c3ccccc3s2)cc1F
REMARK SMILES IDX 8 1 9 2 10 3 11 4 12 5 13 6 14 7 15 8 7 9 4 10 5 11 29 12
REMARK SMILES IDX 6 13 28 14 30 15 2 16 1 17 3 18 16 19 17 20 18 21 19 24
REMARK SMILES IDX 20 25 27 26 21 27 26 28 22 29 25 30 23 31 24 32
REMARK H PARENT 18 22 18 23 20 33
ROOT
ATOM      1  C   UNL     1      43.929 129.853  22.537  1.00  0.00     0.153 C 
ATOM      2  C   UNL     1      43.778 130.399  23.977  1.00  0.00     0.196 C 
ATOM      3  F   UNL     1      42.731 129.755  24.619  1.00  0.00    -0.245 F 
ATOM      4  C   UNL     1      43.550 131.924  23.972  1.00  0.00     0.024 C 
ATOM      5  C   UNL     1      42.201 132.307  23.336  1.00  0.00     0.011 C 
ATOM      6  C   UNL     1      44.724 132.670  23.284  1.00  0.00     0.028 C 
ATOM      7  C   UNL     1      45.572 131.790  22.345  1.00  0.00     0.124 C 
ATOM      8  N   UNL     1      44.755 130.749  21.703  1.00  0.00    -0.308 N 
ENDROOT
BRANCH   1   9
ATOM      9  C   UNL     1      44.494 128.445  22.531  1.00  0.00    -0.019 A 
ATOM     10  C   UNL     1      45.552 125.818  22.468  1.00  0.00     0.053 A 
ATOM     11  C   UNL     1      46.254 126.893  21.894  1.00  0.00     0.015 A 
ATOM     12  C   UNL     1      44.317 126.081  23.100  1.00  0.00     0.134 A 
ATOM     13  C   UNL     1      45.729 128.187  21.918  1.00  0.00     0.007 A 
ATOM     14  C   UNL     1      43.809 127.383  23.145  1.00  0.00     0.046 A 
ATOM     15  F   UNL     1      43.610 125.099  23.710  1.00  0.00    -0.206 F 
BRANCH  10  16
ATOM     16  C   UNL     1      46.138 124.451  22.402  1.00  0.00     0.162 C 
ATOM     17  C   UNL     1      45.395 123.284  21.827  1.00  0.00     0.093 C 
ATOM     18  O   UNL     1      47.300 124.254  22.850  1.00  0.00    -0.294 OA
ENDBRANCH  10  16
ENDBRANCH   1   9
BRANCH   8  19
ATOM     19  C   UNL     1      44.752 130.610  20.264  1.00  0.00     0.280 C 
ATOM     20  S   UNL     1      43.578 131.341  19.373  1.00  0.00     0.004 S 
BRANCH  19  21
ATOM     21  N   UNL     1      45.698 129.746  19.604  1.00  0.00    -0.191 N 
ATOM     22  H   UNL     1      46.637 129.814  20.061  1.00  0.00     0.366 HD
ATOM     23  H   UNL     1      45.394 128.749  19.659  1.00  0.00     0.366 HD
BRANCH  21  24
ATOM     24  C   UNL     1      45.828 130.137  18.230  1.00  0.00     0.433 A 
ATOM     25  N   UNL     1      46.602 129.475  17.336  1.00  0.00    -0.146 N 
ATOM     26  S   UNL     1      45.064 131.487  17.542  1.00  0.00    -0.000 S 
ATOM     27  C   UNL     1      46.571 130.072  16.117  1.00  0.00     0.227 A 
ATOM     28  C   UNL     1      45.766 131.200  16.041  1.00  0.00     0.111 A 
ATOM     29  C   UNL     1      47.269 129.627  14.991  1.00  0.00     0.081 A 
ATOM     30  C   UNL     1      45.614 131.921  14.860  1.00  0.00     0.026 A 
ATOM     31  C   UNL     1      47.132 130.339  13.788  1.00  0.00     0.007 A 
ATOM     32  C   UNL     1      46.308 131.481  13.722  1.00  0.00     0.002 A 
ATOM     33  H   UNL     1      47.154 128.615  17.557  1.00  0.00     0.461 HD
ENDBRANCH  21  24
ENDBRANCH  19  21
ENDBRANCH   8  19
TORSDOF 5
ENDMDL
MODEL 4
REMARK VINA RESULT:      -3.0      4.670      7.004
REMARK SMILES CC(=O)c1ccc([C@H]2[C@H](F)[C@H](C)CCN2C(=S)[NH2+]c2[nH+]c3ccccc3s2)cc1F
REMARK SMILES IDX 8 1 9 2 10 3 11 4 12 5 13 6 14 7 15 8 7 9 4 10 5 11 29 12
REMARK SMILES IDX 6 13 28 14 30 15 2 16 1 17 3 18 16 19 17 20 18 21 19 24
REMARK SMILES IDX 20 25 27 26 21 27 26 28 22 29 25 30 23 31 24 32
REMARK H PARENT 18 22 18 23 20 33
ROOT
ATOM      1  C   UNL     1      44.228 131.751  20.093  1.00  0.00     0.153 C 
ATOM      2  C   UNL     1      42.860 131.044  20.252  1.00  0.00     0.196 C 
ATOM      3  F   UNL     1      41.924 131.632  19.415  1.00  0.00    -0.245 F 
ATOM      4  C   UNL     1      42.378 131.089  21.716  1.00  0.00     0.024 C 
ATOM      5  C   UNL     1      42.059 132.522  22.177  1.00  0.00     0.011 C 
ATOM      6  C   UNL     1      43.397 130.409  22.669  1.00  0.00     0.028 C 
ATOM      7  C   UNL     1      44.824 130.295  22.097  1.00  0.00     0.124 C 
ATOM      8  N   UNL     1      45.138 131.427  21.211  1.00  0.00    -0.308 N 
ENDROOT
BRANCH   1   9
ATOM      9  C   UNL     1      44.876 131.419  18.762  1.00  0.00    -0.019 A 
ATOM     10  C   UNL     1      46.125 130.780  16.302  1.00  0.00     0.053 A 
ATOM     11  C   UNL     1      45.861 129.783  17.258  1.00  0.00     0.015 A 
ATOM     12  C   UNL     1      45.730 132.106  16.585  1.00  0.00     0.134 A 
ATOM     13  C   UNL     1      45.252 130.099  18.474  1.00  0.00     0.007 A 
ATOM     14  C   UNL     1      45.096 132.412  17.792  1.00  0.00     0.046 A 
ATOM     15  F   UNL     1      45.916 133.107  15.689  1.00  0.00    -0.206 F 
BRANCH  10  16
ATOM     16  C   UNL     1      46.795 130.403  15.027  1.00  0.00     0.162 C 
ATOM     17  C   UNL     1      46.222 130.745  13.685  1.00  0.00     0.093 C 
ATOM     18  O   UNL     1      47.882 129.765  15.063  1.00  0.00    -0.294 OA
ENDBRANCH  10  16
ENDBRANCH   1   9
BRANCH   8  19
ATOM     19  C   UNL     1      46.323 132.222  21.437  1.00  0.00     0.280 C 
ATOM     20  S   UNL     1      47.668 131.964  20.524  1.00  0.00     0.004 S 
BRANCH  19  21
ATOM     21  N   UNL     1      46.385 133.163  22.526  1.00  0.00    -0.191 N 
ATOM     22  H   UNL     1      45.483 133.688  22.608  1.00  0.00     0.366 HD
ATOM     23  H   UNL     1      46.545 132.673  23.433  1.00  0.00     0.366 HD
BRANCH  21  24
ATOM     24  C   UNL     1      47.442 134.103  22.290  1.00  0.00     0.433 A 
ATOM     25  N   UNL     1      47.367 135.093  21.368  1.00  0.00    -0.146 N 
ATOM     26  S   UNL     1      48.933 134.092  23.101  1.00  0.00    -0.000 S 
ATOM     27  C   UNL     1      48.514 135.818  21.327  1.00  0.00     0.227 A 
ATOM     28  C   UNL     1      49.494 135.411  22.222  1.00  0.00     0.111 A 
ATOM     29  C   UNL     1      48.745 136.903  20.476  1.00  0.00     0.081 A 
ATOM     30  C   UNL     1      50.724 136.055  22.316  1.00  0.00     0.026 A 
ATOM     31  C   UNL     1      49.979 137.570  20.552  1.00  0.00     0.007 A 
ATOM     32  C   UNL     1      50.964 137.149  21.468  1.00  0.00     0.002 A 
ATOM     33  H   UNL     1      46.534 135.274  20.764  1.00  0.00     0.461 HD
ENDBRANCH  21  24
ENDBRANCH  19  21
ENDBRANCH   8  19
TORSDOF 5
ENDMDL
MODEL 5
REMARK VINA RESULT:      -2.7      4.840      7.239
REMARK SMILES CC(=O)c1ccc([C@H]2[C@H](F)[C@H](C)CCN2C(=S)[NH2+]c2[nH+]c3ccccc3s2)cc1F
REMARK SMILES IDX 8 1 9 2 10 3 11 4 12 5 13 6 14 7 15 8 7 9 4 10 5 11 29 12
REMARK SMILES IDX 6 13 28 14 30 15 2 16 1 17 3 18 16 19 17 20 18 21 19 24
REMARK SMILES IDX 20 25 27 26 21 27 26 28 22 29 25 30 23 31 24 32
REMARK H PARENT 18 22 18 23 20 33
ROOT
ATOM      1  C   UNL     1      44.368 131.815  19.821  1.00  0.00     0.153 C 
ATOM      2  C   UNL     1      43.031 131.056  19.988  1.00  0.00     0.196 C 
ATOM      3  F   UNL     1      42.077 131.584  19.131  1.00  0.00    -0.245 F 
ATOM      4  C   UNL     1      42.536 131.116  21.447  1.00  0.00     0.024 C 
ATOM      5  C   UNL     1      42.154 132.545  21.872  1.00  0.00     0.011 C 
ATOM      6  C   UNL     1      43.575 130.502  22.424  1.00  0.00     0.028 C 
ATOM      7  C   UNL     1      45.010 130.435  21.863  1.00  0.00     0.124 C 
ATOM      8  N   UNL     1      45.283 131.557  20.952  1.00  0.00    -0.308 N 
ENDROOT
BRANCH   1   9
ATOM      9  C   UNL     1      45.040 131.480  18.503  1.00  0.00    -0.019 A 
ATOM     10  C   UNL     1      46.337 130.845  16.066  1.00  0.00     0.053 A 
ATOM     11  C   UNL     1      46.344 129.942  17.145  1.00  0.00     0.015 A 
ATOM     12  C   UNL     1      45.646 132.067  16.216  1.00  0.00     0.134 A 
ATOM     13  C   UNL     1      45.711 130.258  18.348  1.00  0.00     0.007 A 
ATOM     14  C   UNL     1      44.991 132.366  17.414  1.00  0.00     0.046 A 
ATOM     15  F   UNL     1      45.563 132.963  15.202  1.00  0.00    -0.206 F 
BRANCH  10  16
ATOM     16  C   UNL     1      47.042 130.477  14.807  1.00  0.00     0.162 C 
ATOM     17  C   UNL     1      47.193 129.056  14.356  1.00  0.00     0.093 C 
ATOM     18  O   UNL     1      47.540 131.385  14.089  1.00  0.00    -0.294 OA
ENDBRANCH  10  16
ENDBRANCH   1   9
BRANCH   8  19
ATOM     19  C   UNL     1      46.432 132.407  21.166  1.00  0.00     0.280 C 
ATOM     20  S   UNL     1      47.846 132.082  20.389  1.00  0.00     0.004 S 
BRANCH  19  21
ATOM     21  N   UNL     1      46.394 133.470  22.138  1.00  0.00    -0.191 N 
ATOM     22  H   UNL     1      45.647 134.161  21.894  1.00  0.00     0.366 HD
ATOM     23  H   UNL     1      46.179 133.099  23.089  1.00  0.00     0.366 HD
BRANCH  21  24
ATOM     24  C   UNL     1      47.657 134.149  22.156  1.00  0.00     0.433 A 
ATOM     25  N   UNL     1      48.675 133.808  22.983  1.00  0.00    -0.146 N 
ATOM     26  S   UNL     1      48.043 135.481  21.178  1.00  0.00    -0.000 S 
ATOM     27  C   UNL     1      49.743 134.630  22.819  1.00  0.00     0.227 A 
ATOM     28  C   UNL     1      49.576 135.616  21.856  1.00  0.00     0.111 A 
ATOM     29  C   UNL     1      50.942 134.535  23.529  1.00  0.00     0.081 A 
ATOM     30  C   UNL     1      50.579 136.533  21.555  1.00  0.00     0.026 A 
ATOM     31  C   UNL     1      51.970 135.450  23.244  1.00  0.00     0.007 A 
ATOM     32  C   UNL     1      51.790 136.444  22.261  1.00  0.00     0.002 A 
ATOM     33  H   UNL     1      48.642 133.014  23.662  1.00  0.00     0.461 HD
ENDBRANCH  21  24
ENDBRANCH  19  21
ENDBRANCH   8  19
TORSDOF 5
ENDMDL
MODEL 6
REMARK VINA RESULT:      -2.2      4.138      6.228
REMARK SMILES CC(=O)c1ccc([C@H]2[C@H](F)[C@H](C)CCN2C(=S)[NH2+]c2[nH+]c3ccccc3s2)cc1F
REMARK SMILES IDX 8 1 9 2 10 3 11 4 12 5 13 6 14 7 15 8 7 9 4 10 5 11 29 12
REMARK SMILES IDX 6 13 28 14 30 15 2 16 1 17 3 18 16 19 17 20 18 21 19 24
REMARK SMILES IDX 20 25 27 26 21 27 26 28 22 29 25 30 23 31 24 32
REMARK H PARENT 18 22 18 23 20 33
ROOT
ATOM      1  C   UNL     1      45.204 131.999  21.778  1.00  0.00     0.153 C 
ATOM      2  C   UNL     1      44.305 132.211  23.019  1.00  0.00     0.196 C 
ATOM      3  F   UNL     1      44.985 131.831  24.166  1.00  0.00    -0.245 F 
ATOM      4  C   UNL     1      42.985 131.424  22.890  1.00  0.00     0.024 C 
ATOM      5  C   UNL     1      43.213 129.902  22.910  1.00  0.00     0.011 C 
ATOM      6  C   UNL     1      42.190 131.854  21.628  1.00  0.00     0.028 C 
ATOM      7  C   UNL     1      43.043 132.547  20.547  1.00  0.00     0.124 C 
ATOM      8  N   UNL     1      44.416 132.022  20.528  1.00  0.00    -0.308 N 
ENDROOT
BRANCH   1   9
ATOM      9  C   UNL     1      46.327 133.018  21.722  1.00  0.00    -0.019 A 
ATOM     10  C   UNL     1      48.421 134.918  21.566  1.00  0.00     0.053 A 
ATOM     11  C   UNL     1      47.191 135.145  20.924  1.00  0.00     0.015 A 
ATOM     12  C   UNL     1      48.582 133.730  22.312  1.00  0.00     0.134 A 
ATOM     13  C   UNL     1      46.161 134.206  20.994  1.00  0.00     0.007 A 
ATOM     14  C   UNL     1      47.538 132.805  22.402  1.00  0.00     0.046 A 
ATOM     15  F   UNL     1      49.727 133.469  22.991  1.00  0.00    -0.206 F 
BRANCH  10  16
ATOM     16  C   UNL     1      49.500 135.937  21.448  1.00  0.00     0.162 C 
ATOM     17  C   UNL     1      50.364 136.331  22.607  1.00  0.00     0.093 C 
ATOM     18  O   UNL     1      49.699 136.503  20.339  1.00  0.00    -0.294 OA
ENDBRANCH  10  16
ENDBRANCH   1   9
BRANCH   8  19
ATOM     19  C   UNL     1      44.989 131.523  19.299  1.00  0.00     0.280 C 
ATOM     20  S   UNL     1      46.384 130.651  19.341  1.00  0.00     0.004 S 
BRANCH  19  21
ATOM     21  N   UNL     1      44.420 131.874  18.023  1.00  0.00    -0.191 N 
ATOM     22  H   UNL     1      43.465 131.458  17.922  1.00  0.00     0.366 HD
ATOM     23  H   UNL     1      44.322 132.908  17.929  1.00  0.00     0.366 HD
BRANCH  21  24
ATOM     24  C   UNL     1      45.252 131.369  16.970  1.00  0.00     0.433 A 
ATOM     25  N   UNL     1      45.710 132.134  15.949  1.00  0.00    -0.146 N 
ATOM     26  S   UNL     1      45.754 129.754  16.836  1.00  0.00    -0.000 S 
ATOM     27  C   UNL     1      46.448 131.403  15.075  1.00  0.00     0.227 A 
ATOM     28  C   UNL     1      46.586 130.062  15.408  1.00  0.00     0.111 A 
ATOM     29  C   UNL     1      47.052 131.908  13.921  1.00  0.00     0.081 A 
ATOM     30  C   UNL     1      47.322 129.178  14.624  1.00  0.00     0.026 A 
ATOM     31  C   UNL     1      47.800 131.034  13.114  1.00  0.00     0.007 A 
ATOM     32  C   UNL     1      47.936 129.676  13.464  1.00  0.00     0.002 A 
ATOM     33  H   UNL     1      45.517 133.156  15.846  1.00  0.00     0.461 HD
ENDBRANCH  21  24
ENDBRANCH  19  21
ENDBRANCH   8  19
TORSDOF 5
ENDMDL
MODEL 7
REMARK VINA RESULT:      -2.2      4.621      7.066
REMARK SMILES CC(=O)c1ccc([C@H]2[C@H](F)[C@H](C)CCN2C(=S)[NH2+]c2[nH+]c3ccccc3s2)cc1F
REMARK SMILES IDX 8 1 9 2 10 3 11 4 12 5 13 6 14 7 15 8 7 9 4 10 5 11 29 12
REMARK SMILES IDX 6 13 28 14 30 15 2 16 1 17 3 18 16 19 17 20 18 21 19 24
REMARK SMILES IDX 20 25 27 26 21 27 26 28 22 29 25 30 23 31 24 32
REMARK H PARENT 18 22 18 23 20 33
ROOT
ATOM      1  C   UNL     1      44.144 131.758  20.516  1.00  0.00     0.153 C 
ATOM      2  C   UNL     1      42.876 130.976  20.937  1.00  0.00     0.196 C 
ATOM      3  F   UNL     1      41.759 131.520  20.320  1.00  0.00    -0.245 F 
ATOM      4  C   UNL     1      42.702 130.983  22.469  1.00  0.00     0.024 C 
ATOM      5  C   UNL     1      42.410 132.394  23.013  1.00  0.00     0.011 C 
ATOM      6  C   UNL     1      43.928 130.352  23.182  1.00  0.00     0.028 C 
ATOM      7  C   UNL     1      45.211 130.321  22.328  1.00  0.00     0.124 C 
ATOM      8  N   UNL     1      45.278 131.474  21.418  1.00  0.00    -0.308 N 
ENDROOT
BRANCH   1   9
ATOM      9  C   UNL     1      44.522 131.473  19.075  1.00  0.00    -0.019 A 
ATOM     10  C   UNL     1      45.272 130.965  16.391  1.00  0.00     0.053 A 
ATOM     11  C   UNL     1      46.099 130.573  17.459  1.00  0.00     0.015 A 
ATOM     12  C   UNL     1      44.044 131.597  16.688  1.00  0.00     0.134 A 
ATOM     13  C   UNL     1      45.733 130.829  18.781  1.00  0.00     0.007 A 
ATOM     14  C   UNL     1      43.670 131.827  18.015  1.00  0.00     0.046 A 
ATOM     15  F   UNL     1      43.181 131.962  15.708  1.00  0.00    -0.206 F 
BRANCH  10  16
ATOM     16  C   UNL     1      45.710 130.690  14.995  1.00  0.00     0.162 C 
ATOM     17  C   UNL     1      46.990 129.979  14.678  1.00  0.00     0.093 C 
ATOM     18  O   UNL     1      44.989 131.072  14.034  1.00  0.00    -0.294 OA
ENDBRANCH  10  16
ENDBRANCH   1   9
BRANCH   8  19
ATOM     19  C   UNL     1      46.443 132.331  21.413  1.00  0.00     0.280 C 
ATOM     20  S   UNL     1      47.888 131.744  20.889  1.00  0.00     0.004 S 
BRANCH  19  21
ATOM     21  N   UNL     1      46.384 133.660  21.966  1.00  0.00    -0.191 N 
ATOM     22  H   UNL     1      45.892 134.308  21.309  1.00  0.00     0.366 HD
ATOM     23  H   UNL     1      45.857 133.667  22.866  1.00  0.00     0.366 HD
BRANCH  21  24
ATOM     24  C   UNL     1      47.715 134.150  22.181  1.00  0.00     0.433 A 
ATOM     25  N   UNL     1      48.530 133.690  23.161  1.00  0.00    -0.146 N 
ATOM     26  S   UNL     1      48.442 135.382  21.268  1.00  0.00    -0.000 S 
ATOM     27  C   UNL     1      49.719 134.344  23.163  1.00  0.00     0.227 A 
ATOM     28  C   UNL     1      49.853 135.314  22.179  1.00  0.00     0.111 A 
ATOM     29  C   UNL     1      50.766 134.098  24.056  1.00  0.00     0.081 A 
ATOM     30  C   UNL     1      51.015 136.067  22.036  1.00  0.00     0.026 A 
ATOM     31  C   UNL     1      51.949 134.846  23.932  1.00  0.00     0.007 A 
ATOM     32  C   UNL     1      52.074 135.825  22.926  1.00  0.00     0.002 A 
ATOM     33  H   UNL     1      48.274 132.931  23.832  1.00  0.00     0.461 HD
ENDBRANCH  21  24
ENDBRANCH  19  21
ENDBRANCH   8  19
TORSDOF 5
ENDMDL
MODEL 8
REMARK VINA RESULT:      -1.9      3.354      5.830
REMARK SMILES CC(=O)c1ccc([C@H]2[C@H](F)[C@H](C)CCN2C(=S)[NH2+]c2[nH+]c3ccccc3s2)cc1F
REMARK SMILES IDX 8 1 9 2 10 3 11 4 12 5 13 6 14 7 15 8 7 9 4 10 5 11 29 12
REMARK SMILES IDX 6 13 28 14 30 15 2 16 1 17 3 18 16 19 17 20 18 21 19 24
REMARK SMILES IDX 20 25 27 26 21 27 26 28 22 29 25 30 23 31 24 32
REMARK H PARENT 18 22 18 23 20 33
ROOT
ATOM      1  C   UNL     1      45.238 124.718  23.015  1.00  0.00     0.153 C 
ATOM      2  C   UNL     1      44.397 123.723  23.849  1.00  0.00     0.196 C 
ATOM      3  F   UNL     1      44.457 122.460  23.281  1.00  0.00    -0.245 F 
ATOM      4  C   UNL     1      42.932 124.193  23.963  1.00  0.00     0.024 C 
ATOM      5  C   UNL     1      42.209 124.170  22.604  1.00  0.00     0.011 C 
ATOM      6  C   UNL     1      42.836 125.593  24.625  1.00  0.00     0.028 C 
ATOM      7  C   UNL     1      44.140 126.413  24.567  1.00  0.00     0.124 C 
ATOM      8  N   UNL     1      44.905 126.119  23.346  1.00  0.00    -0.308 N 
ENDROOT
BRANCH   1   9
ATOM      9  C   UNL     1      46.725 124.468  23.181  1.00  0.00    -0.019 A 
ATOM     10  C   UNL     1      49.506 124.047  23.514  1.00  0.00     0.053 A 
ATOM     11  C   UNL     1      48.688 124.366  24.612  1.00  0.00     0.015 A 
ATOM     12  C   UNL     1      48.906 123.916  22.242  1.00  0.00     0.134 A 
ATOM     13  C   UNL     1      47.318 124.581  24.448  1.00  0.00     0.007 A 
ATOM     14  C   UNL     1      47.529 124.105  22.088  1.00  0.00     0.046 A 
ATOM     15  F   UNL     1      49.629 123.568  21.149  1.00  0.00    -0.206 F 
BRANCH  10  16
ATOM     16  C   UNL     1      50.965 123.845  23.730  1.00  0.00     0.162 C 
ATOM     17  C   UNL     1      51.778 124.739  24.617  1.00  0.00     0.093 C 
ATOM     18  O   UNL     1      51.553 122.895  23.145  1.00  0.00    -0.294 OA
ENDBRANCH  10  16
ENDBRANCH   1   9
BRANCH   8  19
ATOM     19  C   UNL     1      45.321 127.191  22.470  1.00  0.00     0.280 C 
ATOM     20  S   UNL     1      45.526 126.902  20.863  1.00  0.00     0.004 S 
BRANCH  19  21
ATOM     21  N   UNL     1      45.669 128.485  23.000  1.00  0.00    -0.191 N 
ATOM     22  H   UNL     1      45.526 128.506  24.036  1.00  0.00     0.366 HD
ATOM     23  H   UNL     1      46.672 128.705  22.818  1.00  0.00     0.366 HD
BRANCH  21  24
ATOM     24  C   UNL     1      44.837 129.488  22.402  1.00  0.00     0.433 A 
ATOM     25  N   UNL     1      45.053 129.996  21.164  1.00  0.00    -0.146 N 
ATOM     26  S   UNL     1      43.495 130.197  23.161  1.00  0.00    -0.000 S 
ATOM     27  C   UNL     1      44.139 130.952  20.855  1.00  0.00     0.227 A 
ATOM     28  C   UNL     1      43.193 131.194  21.841  1.00  0.00     0.111 A 
ATOM     29  C   UNL     1      44.102 131.662  19.652  1.00  0.00     0.081 A 
ATOM     30  C   UNL     1      42.179 132.133  21.678  1.00  0.00     0.026 A 
ATOM     31  C   UNL     1      43.087 132.616  19.464  1.00  0.00     0.007 A 
ATOM     32  C   UNL     1      42.130 132.851  20.471  1.00  0.00     0.002 A 
ATOM     33  H   UNL     1      45.826 129.693  20.530  1.00  0.00     0.461 HD
ENDBRANCH  21  24
ENDBRANCH  19  21
ENDBRANCH   8  19
TORSDOF 5
ENDMDL
MODEL 9
REMARK VINA RESULT:      -1.8      4.671      7.495
REMARK SMILES CC(=O)c1ccc([C@H]2[C@H](F)[C@H](C)CCN2C(=S)[NH2+]c2[nH+]c3ccccc3s2)cc1F
REMARK SMILES IDX 8 1 9 2 10 3 11 4 12 5 13 6 14 7 15 8 7 9 4 10 5 11 29 12
REMARK SMILES IDX 6 13 28 14 30 15 2 16 1 17 3 18 16 19 17 20 18 21 19 24
REMARK SMILES IDX 20 25 27 26 21 27 26 28 22 29 25 30 23 31 24 32
REMARK H PARENT 18 22 18 23 20 33
ROOT
ATOM      1  C   UNL     1      44.278 131.902  19.119  1.00  0.00     0.153 C 
ATOM      2  C   UNL     1      42.878 131.266  19.287  1.00  0.00     0.196 C 
ATOM      3  F   UNL     1      41.976 131.874  18.427  1.00  0.00    -0.245 F 
ATOM      4  C   UNL     1      42.389 131.376  20.746  1.00  0.00     0.024 C 
ATOM      5  C   UNL     1      42.135 132.836  21.163  1.00  0.00     0.011 C 
ATOM      6  C   UNL     1      43.368 130.676  21.726  1.00  0.00     0.028 C 
ATOM      7  C   UNL     1      44.791 130.478  21.168  1.00  0.00     0.124 C 
ATOM      8  N   UNL     1      45.165 131.567  20.253  1.00  0.00    -0.308 N 
ENDROOT
BRANCH   1   9
ATOM      9  C   UNL     1      44.919 131.503  17.803  1.00  0.00    -0.019 A 
ATOM     10  C   UNL     1      46.160 130.772  15.364  1.00  0.00     0.053 A 
ATOM     11  C   UNL     1      46.634 130.277  16.592  1.00  0.00     0.015 A 
ATOM     12  C   UNL     1      45.033 131.624  15.371  1.00  0.00     0.134 A 
ATOM     13  C   UNL     1      46.027 130.642  17.795  1.00  0.00     0.007 A 
ATOM     14  C   UNL     1      44.413 131.965  16.577  1.00  0.00     0.046 A 
ATOM     15  F   UNL     1      44.499 132.103  14.221  1.00  0.00    -0.206 F 
BRANCH  10  16
ATOM     16  C   UNL     1      46.848 130.374  14.106  1.00  0.00     0.162 C 
ATOM     17  C   UNL     1      47.549 129.058  13.954  1.00  0.00     0.093 C 
ATOM     18  O   UNL     1      46.856 131.167  13.126  1.00  0.00    -0.294 OA
ENDBRANCH  10  16
ENDBRANCH   1   9
BRANCH   8  19
ATOM     19  C   UNL     1      46.385 132.312  20.466  1.00  0.00     0.280 C 
ATOM     20  S   UNL     1      47.833 131.530  20.458  1.00  0.00     0.004 S 
BRANCH  19  21
ATOM     21  N   UNL     1      46.347 133.714  20.798  1.00  0.00    -0.191 N 
ATOM     22  H   UNL     1      46.318 134.295  19.928  1.00  0.00     0.366 HD
ATOM     23  H   UNL     1      45.495 133.942  21.355  1.00  0.00     0.366 HD
BRANCH  21  24
ATOM     24  C   UNL     1      47.522 134.063  21.543  1.00  0.00     0.433 A 
ATOM     25  N   UNL     1      48.029 133.295  22.538  1.00  0.00    -0.146 N 
ATOM     26  S   UNL     1      48.418 135.485  21.309  1.00  0.00    -0.000 S 
ATOM     27  C   UNL     1      49.124 133.871  23.097  1.00  0.00     0.227 A 
ATOM     28  C   UNL     1      49.491 135.088  22.541  1.00  0.00     0.111 A 
ATOM     29  C   UNL     1      49.866 133.324  24.148  1.00  0.00     0.081 A 
ATOM     30  C   UNL     1      50.597 135.803  22.990  1.00  0.00     0.026 A 
ATOM     31  C   UNL     1      50.987 134.028  24.620  1.00  0.00     0.007 A 
ATOM     32  C   UNL     1      51.352 135.261  24.043  1.00  0.00     0.002 A 
ATOM     33  H   UNL     1      47.628 132.378  22.838  1.00  0.00     0.461 HD
ENDBRANCH  21  24
ENDBRANCH  19  21
ENDBRANCH   8  19
TORSDOF 5
ENDMDL


