REMARK SMILES CC(=O)c1ccc(-c2cc(N)c([O-])c([NH2+]c3ccc(C)c(F)c3)c2)c(F)[nH+]1
REMARK SMILES IDX 8 1 9 2 10 3 12 4 13 5 14 6 24 7 7 8 4 9 5 10 27 11 6 12
REMARK SMILES IDX 25 13 26 15 2 16 1 17 3 18 11 19 15 22 16 25 17 26 23 27
REMARK SMILES IDX 18 28 21 29 19 30 22 31 20 32
REMARK H PARENT 27 14 11 20 11 21 15 23 15 24
ROOT
ATOM      1  C   UNL     1       0.126  -1.909   0.814  1.00  0.00    -0.001 A 
ATOM      2  C   UNL     1       1.290  -2.692   0.816  1.00  0.00     0.034 A 
ATOM      3  C   UNL     1       1.934  -3.020  -0.384  1.00  0.00     0.030 A 
ATOM      4  C   UNL     1       1.413  -2.558  -1.605  1.00  0.00    -0.021 A 
ATOM      5  O   UNL     1       2.053  -2.884  -2.796  1.00  0.00    -0.867 OA
ATOM      6  C   UNL     1       0.245  -1.767  -1.624  1.00  0.00     0.129 A 
ATOM      7  C   UNL     1      -0.386  -1.446  -0.408  1.00  0.00     0.076 A 
ENDROOT
BRANCH   1   8
ATOM      8  C   UNL     1      -0.541  -1.557   2.091  1.00  0.00     0.086 A 
ATOM      9  C   UNL     1      -1.807  -0.882   4.496  1.00  0.00     0.249 A 
ATOM     10  C   UNL     1      -0.414  -0.746   4.372  1.00  0.00     0.084 A 
ATOM     11  N   UNL     1      -2.524  -1.351   3.430  1.00  0.00    -0.176 N 
ATOM     12  C   UNL     1       0.212  -1.085   3.174  1.00  0.00     0.025 A 
ATOM     13  C   UNL     1      -1.932  -1.686   2.250  1.00  0.00     0.366 A 
ATOM     14  H   UNL     1      -3.560  -1.467   3.504  1.00  0.00     0.457 HD
ATOM     15  F   UNL     1      -2.698  -2.180   1.243  1.00  0.00    -0.136 F 
BRANCH   9  16
ATOM     16  C   UNL     1      -2.506  -0.528   5.761  1.00  0.00     0.223 C 
ATOM     17  C   UNL     1      -1.767  -0.015   6.960  1.00  0.00     0.100 C 
ATOM     18  O   UNL     1      -3.757  -0.660   5.838  1.00  0.00    -0.288 OA
ENDBRANCH   9  16
ENDBRANCH   1   8
BRANCH   3  19
ATOM     19  N   UNL     1       3.119  -3.825  -0.354  1.00  0.00    -0.399 N 
ATOM     20  H   UNL     1       3.507  -4.168   0.552  1.00  0.00     0.156 HD
ATOM     21  H   UNL     1       3.622  -4.086  -1.231  1.00  0.00     0.156 HD
ENDBRANCH   3  19
BRANCH   6  22
ATOM     22  N   UNL     1      -0.282  -1.247  -2.864  1.00  0.00    -0.282 N 
ATOM     23  H   UNL     1      -0.080  -1.903  -3.654  1.00  0.00     0.358 HD
ATOM     24  H   UNL     1      -1.325  -1.170  -2.806  1.00  0.00     0.358 HD
BRANCH  22  25
ATOM     25  C   UNL     1       0.289   0.051  -3.131  1.00  0.00     0.137 A 
ATOM     26  C   UNL     1       1.449   0.174  -3.914  1.00  0.00     0.068 A 
ATOM     27  C   UNL     1      -0.291   1.209  -2.584  1.00  0.00     0.107 A 
ATOM     28  C   UNL     1       2.017   1.429  -4.147  1.00  0.00     0.012 A 
ATOM     29  C   UNL     1       0.277   2.466  -2.816  1.00  0.00     0.132 A 
ATOM     30  C   UNL     1       1.442   2.582  -3.591  1.00  0.00    -0.015 A 
ATOM     31  F   UNL     1      -0.310   3.568  -2.285  1.00  0.00    -0.206 F 
ATOM     32  C   UNL     1       2.038   3.933  -3.861  1.00  0.00     0.047 C 
ENDBRANCH  22  25
ENDBRANCH   6  22
TORSDOF 5


