MODEL 1
REMARK VINA RESULT:      -8.4      0.000      0.000
REMARK SMILES OC(CCc1c(F)c(-c2c[n-]c3nccc-3c2)c(F)c2[nH]ccc12)=C1CCC1
REMARK SMILES IDX 3 1 2 2 1 3 25 5 26 6 28 7 27 8 4 9 5 10 6 11 24 12 8 13
REMARK SMILES IDX 23 14 20 15 18 16 22 17 21 18 7 19 19 20 9 22 10 23 17 24
REMARK SMILES IDX 11 25 16 26 12 27 15 28 13 29 14 30
REMARK H PARENT 1 4 21 21
ROOT
ATOM      1  C   UNL     1      43.802 130.527  22.248  1.00  0.00     0.079 C 
ENDROOT
BRANCH   1   2
ATOM      2  C   UNL     1      44.386 129.157  22.475  1.00  0.00     0.092 C 
BRANCH   2   3
ATOM      3  O   UNL     1      45.550 128.776  21.813  1.00  0.00    -0.512 OA
ATOM      4  H   UNL     1      45.516 128.228  20.962  1.00  0.00     0.293 HD
ENDBRANCH   2   3
BRANCH   2   5
ATOM      5  C   UNL     1      43.781 128.283  23.275  1.00  0.00    -0.033 C 
ATOM      6  C   UNL     1      43.607 126.780  23.370  1.00  0.00     0.035 C 
ATOM      7  C   UNL     1      42.952 128.332  24.542  1.00  0.00     0.035 C 
ATOM      8  C   UNL     1      42.792 126.848  24.620  1.00  0.00     0.009 C 
ENDBRANCH   2   5
ENDBRANCH   1   2
BRANCH   1   9
ATOM      9  C   UNL     1      44.769 131.442  21.482  1.00  0.00     0.047 C 
BRANCH   9  10
ATOM     10  C   UNL     1      44.349 131.620  20.041  1.00  0.00    -0.002 A 
ATOM     11  C   UNL     1      45.158 131.138  18.986  1.00  0.00     0.137 A 
ATOM     12  C   UNL     1      43.124 132.209  19.697  1.00  0.00     0.009 A 
ATOM     13  C   UNL     1      44.742 131.261  17.633  1.00  0.00     0.055 A 
ATOM     14  C   UNL     1      42.114 132.740  20.480  1.00  0.00     0.028 A 
ATOM     15  C   UNL     1      42.721 132.328  18.393  1.00  0.00     0.083 A 
ATOM     16  C   UNL     1      43.501 131.870  17.336  1.00  0.00     0.157 A 
ATOM     17  C   UNL     1      41.136 133.160  19.588  1.00  0.00     0.083 A 
ATOM     18  N   UNL     1      41.510 132.907  18.315  1.00  0.00    -0.359 N 
ATOM     19  F   UNL     1      46.359 130.568  19.274  1.00  0.00    -0.206 F 
ATOM     20  F   UNL     1      43.052 131.978  16.058  1.00  0.00    -0.204 F 
ATOM     21  H   UNL     1      40.963 133.115  17.450  1.00  0.00     0.166 HD
BRANCH  13  22
ATOM     22  C   UNL     1      45.597 130.746  16.538  1.00  0.00    -0.016 A 
ATOM     23  C   UNL     1      45.962 129.369  16.503  1.00  0.00    -0.013 A 
ATOM     24  C   UNL     1      46.050 131.620  15.524  1.00  0.00     0.016 A 
ATOM     25  N   UNL     1      46.749 128.865  15.504  1.00  0.00    -0.442 NA
ATOM     26  C   UNL     1      46.845 131.081  14.527  1.00  0.00    -0.026 A 
ATOM     27  C   UNL     1      47.185 129.699  14.533  1.00  0.00    -0.052 A 
ATOM     28  C   UNL     1      47.452 131.612  13.418  1.00  0.00     0.003 A 
ATOM     29  N   UNL     1      47.962 129.374  13.489  1.00  0.00    -0.442 NA
ATOM     30  C   UNL     1      48.119 130.543  12.813  1.00  0.00    -0.022 A 
ENDBRANCH  13  22
ENDBRANCH   9  10
ENDBRANCH   1   9
TORSDOF 6
ENDMDL
MODEL 2
REMARK VINA RESULT:      -8.1      1.114      1.271
REMARK SMILES OC(CCc1c(F)c(-c2c[n-]c3nccc-3c2)c(F)c2[nH]ccc12)=C1CCC1
REMARK SMILES IDX 3 1 2 2 1 3 25 5 26 6 28 7 27 8 4 9 5 10 6 11 24 12 8 13
REMARK SMILES IDX 23 14 20 15 18 16 22 17 21 18 7 19 19 20 9 22 10 23 17 24
REMARK SMILES IDX 11 25 16 26 12 27 15 28 13 29 14 30
REMARK H PARENT 1 4 21 21
ROOT
ATOM      1  C   UNL     1      43.980 131.998  22.670  1.00  0.00     0.079 C 
ENDROOT
BRANCH   1   2
ATOM      2  C   UNL     1      43.241 130.935  23.440  1.00  0.00     0.092 C 
BRANCH   2   3
ATOM      3  O   UNL     1      42.020 131.230  24.042  1.00  0.00    -0.512 OA
ATOM      4  H   UNL     1      41.973 131.754  24.907  1.00  0.00     0.293 HD
ENDBRANCH   2   3
BRANCH   2   5
ATOM      5  C   UNL     1      43.758 129.718  23.590  1.00  0.00    -0.033 C 
ATOM      6  C   UNL     1      44.689 128.792  22.833  1.00  0.00     0.035 C 
ATOM      7  C   UNL     1      43.703 128.613  24.625  1.00  0.00     0.035 C 
ATOM      8  C   UNL     1      44.622 127.713  23.864  1.00  0.00     0.009 C 
ENDBRANCH   2   5
ENDBRANCH   1   2
BRANCH   1   9
ATOM      9  C   UNL     1      44.953 131.392  21.648  1.00  0.00     0.047 C 
BRANCH   9  10
ATOM     10  C   UNL     1      44.463 131.575  20.230  1.00  0.00    -0.002 A 
ATOM     11  C   UNL     1      45.227 131.109  19.134  1.00  0.00     0.137 A 
ATOM     12  C   UNL     1      43.216 132.150  19.949  1.00  0.00     0.009 A 
ATOM     13  C   UNL     1      44.746 131.236  17.803  1.00  0.00     0.055 A 
ATOM     14  C   UNL     1      42.238 132.663  20.782  1.00  0.00     0.028 A 
ATOM     15  C   UNL     1      42.750 132.272  18.666  1.00  0.00     0.083 A 
ATOM     16  C   UNL     1      43.485 131.831  17.570  1.00  0.00     0.157 A 
ATOM     17  C   UNL     1      41.213 133.076  19.941  1.00  0.00     0.083 A 
ATOM     18  N   UNL     1      41.530 132.836  18.649  1.00  0.00    -0.359 N 
ATOM     19  F   UNL     1      46.447 130.553  19.361  1.00  0.00    -0.206 F 
ATOM     20  F   UNL     1      42.974 131.941  16.316  1.00  0.00    -0.204 F 
ATOM     21  H   UNL     1      40.939 133.042  17.813  1.00  0.00     0.166 HD
BRANCH  13  22
ATOM     22  C   UNL     1      45.553 130.738  16.666  1.00  0.00    -0.016 A 
ATOM     23  C   UNL     1      45.849 129.349  16.551  1.00  0.00    -0.013 A 
ATOM     24  C   UNL     1      46.031 131.642  15.689  1.00  0.00     0.016 A 
ATOM     25  N   UNL     1      46.592 128.861  15.510  1.00  0.00    -0.442 NA
ATOM     26  C   UNL     1      46.781 131.118  14.649  1.00  0.00    -0.026 A 
ATOM     27  C   UNL     1      47.051 129.724  14.576  1.00  0.00    -0.052 A 
ATOM     28  C   UNL     1      47.393 131.678  13.557  1.00  0.00     0.003 A 
ATOM     29  N   UNL     1      47.792 129.417  13.501  1.00  0.00    -0.442 NA
ATOM     30  C   UNL     1      47.995 130.612  12.884  1.00  0.00    -0.022 A 
ENDBRANCH  13  22
ENDBRANCH   9  10
ENDBRANCH   1   9
TORSDOF 6
ENDMDL
MODEL 3
REMARK VINA RESULT:      -8.1      1.070      1.373
REMARK SMILES OC(CCc1c(F)c(-c2c[n-]c3nccc-3c2)c(F)c2[nH]ccc12)=C1CCC1
REMARK SMILES IDX 3 1 2 2 1 3 25 5 26 6 28 7 27 8 4 9 5 10 6 11 24 12 8 13
REMARK SMILES IDX 23 14 20 15 18 16 22 17 21 18 7 19 19 20 9 22 10 23 17 24
REMARK SMILES IDX 11 25 16 26 12 27 15 28 13 29 14 30
REMARK H PARENT 1 4 21 21
ROOT
ATOM      1  C   UNL     1      45.665 129.551  21.773  1.00  0.00     0.079 C 
ENDROOT
BRANCH   1   2
ATOM      2  C   UNL     1      44.713 128.616  22.472  1.00  0.00     0.092 C 
BRANCH   2   3
ATOM      3  O   UNL     1      43.512 129.099  22.986  1.00  0.00    -0.512 OA
ATOM      4  H   UNL     1      43.002 129.842  22.524  1.00  0.00     0.293 HD
ENDBRANCH   2   3
BRANCH   2   5
ATOM      5  C   UNL     1      45.020 127.333  22.643  1.00  0.00    -0.033 C 
ATOM      6  C   UNL     1      44.447 126.127  23.360  1.00  0.00     0.035 C 
ATOM      7  C   UNL     1      46.111 126.387  22.186  1.00  0.00     0.035 C 
ATOM      8  C   UNL     1      45.531 125.208  22.899  1.00  0.00     0.009 C 
ENDBRANCH   2   5
ENDBRANCH   1   2
BRANCH   1   9
ATOM      9  C   UNL     1      45.119 130.985  21.713  1.00  0.00     0.047 C 
BRANCH   9  10
ATOM     10  C   UNL     1      44.576 131.322  20.344  1.00  0.00    -0.002 A 
ATOM     11  C   UNL     1      45.279 130.950  19.174  1.00  0.00     0.137 A 
ATOM     12  C   UNL     1      43.335 131.954  20.176  1.00  0.00     0.009 A 
ATOM     13  C   UNL     1      44.747 131.222  17.885  1.00  0.00     0.055 A 
ATOM     14  C   UNL     1      42.409 132.405  21.099  1.00  0.00     0.028 A 
ATOM     15  C   UNL     1      42.820 132.217  18.934  1.00  0.00     0.083 A 
ATOM     16  C   UNL     1      43.495 131.869  17.768  1.00  0.00     0.157 A 
ATOM     17  C   UNL     1      41.363 132.927  20.350  1.00  0.00     0.083 A 
ATOM     18  N   UNL     1      41.618 132.810  19.028  1.00  0.00    -0.359 N 
ATOM     19  F   UNL     1      46.490 130.343  19.290  1.00  0.00    -0.206 F 
ATOM     20  F   UNL     1      42.936 132.118  16.555  1.00  0.00    -0.204 F 
ATOM     21  H   UNL     1      40.999 133.114  18.243  1.00  0.00     0.166 HD
BRANCH  13  22
ATOM     22  C   UNL     1      45.491 130.821  16.669  1.00  0.00    -0.016 A 
ATOM     23  C   UNL     1      45.601 129.444  16.318  1.00  0.00    -0.013 A 
ATOM     24  C   UNL     1      46.094 131.806  15.852  1.00  0.00     0.016 A 
ATOM     25  N   UNL     1      46.281 129.045  15.200  1.00  0.00    -0.442 NA
ATOM     26  C   UNL     1      46.776 131.370  14.728  1.00  0.00    -0.026 A 
ATOM     27  C   UNL     1      46.860 129.985  14.418  1.00  0.00    -0.052 A 
ATOM     28  C   UNL     1      47.467 132.020  13.738  1.00  0.00     0.003 A 
ATOM     29  N   UNL     1      47.563 129.769  13.296  1.00  0.00    -0.442 NA
ATOM     30  C   UNL     1      47.928 131.013  12.887  1.00  0.00    -0.022 A 
ENDBRANCH  13  22
ENDBRANCH   9  10
ENDBRANCH   1   9
TORSDOF 6
ENDMDL
MODEL 4
REMARK VINA RESULT:      -7.2      3.670      7.607
REMARK SMILES OC(CCc1c(F)c(-c2c[n-]c3nccc-3c2)c(F)c2[nH]ccc12)=C1CCC1
REMARK SMILES IDX 3 1 2 2 1 3 25 5 26 6 28 7 27 8 4 9 5 10 6 11 24 12 8 13
REMARK SMILES IDX 23 14 20 15 18 16 22 17 21 18 7 19 19 20 9 22 10 23 17 24
REMARK SMILES IDX 11 25 16 26 12 27 15 28 13 29 14 30
REMARK H PARENT 1 4 21 21
ROOT
ATOM      1  C   UNL     1      44.517 131.537  19.380  1.00  0.00     0.079 C 
ENDROOT
BRANCH   1   2
ATOM      2  C   UNL     1      45.405 130.968  18.304  1.00  0.00     0.092 C 
BRANCH   2   3
ATOM      3  O   UNL     1      46.614 130.365  18.644  1.00  0.00    -0.512 OA
ATOM      4  H   UNL     1      47.499 130.749  18.335  1.00  0.00     0.293 HD
ENDBRANCH   2   3
BRANCH   2   5
ATOM      5  C   UNL     1      45.071 131.067  17.020  1.00  0.00    -0.033 C 
ATOM      6  C   UNL     1      45.667 130.710  15.673  1.00  0.00     0.035 C 
ATOM      7  C   UNL     1      43.890 131.579  16.222  1.00  0.00     0.035 C 
ATOM      8  C   UNL     1      44.493 131.220  14.903  1.00  0.00     0.009 C 
ENDBRANCH   2   5
ENDBRANCH   1   2
BRANCH   1   9
ATOM      9  C   UNL     1      45.200 131.522  20.755  1.00  0.00     0.047 C 
BRANCH   9  10
ATOM     10  C   UNL     1      44.534 130.552  21.702  1.00  0.00    -0.002 A 
ATOM     11  C   UNL     1      45.019 129.230  21.843  1.00  0.00     0.137 A 
ATOM     12  C   UNL     1      43.460 130.935  22.517  1.00  0.00     0.009 A 
ATOM     13  C   UNL     1      44.425 128.330  22.769  1.00  0.00     0.055 A 
ATOM     14  C   UNL     1      42.790 132.139  22.638  1.00  0.00     0.028 A 
ATOM     15  C   UNL     1      42.886 130.069  23.411  1.00  0.00     0.083 A 
ATOM     16  C   UNL     1      43.337 128.762  23.563  1.00  0.00     0.157 A 
ATOM     17  C   UNL     1      41.829 131.932  23.618  1.00  0.00     0.083 A 
ATOM     18  N   UNL     1      41.890 130.667  24.087  1.00  0.00    -0.359 N 
ATOM     19  F   UNL     1      46.053 128.812  21.066  1.00  0.00    -0.206 F 
ATOM     20  F   UNL     1      42.763 127.944  24.483  1.00  0.00    -0.204 F 
ATOM     21  H   UNL     1      41.288 130.246  24.830  1.00  0.00     0.166 HD
BRANCH  13  22
ATOM     22  C   UNL     1      44.946 126.951  22.911  1.00  0.00    -0.016 A 
ATOM     23  C   UNL     1      46.199 126.722  23.551  1.00  0.00    -0.013 A 
ATOM     24  C   UNL     1      44.200 125.859  22.413  1.00  0.00     0.016 A 
ATOM     25  N   UNL     1      46.704 125.459  23.697  1.00  0.00    -0.442 NA
ATOM     26  C   UNL     1      44.739 124.593  22.576  1.00  0.00    -0.026 A 
ATOM     27  C   UNL     1      45.993 124.413  23.221  1.00  0.00    -0.052 A 
ATOM     28  C   UNL     1      44.312 123.338  22.226  1.00  0.00     0.003 A 
ATOM     29  N   UNL     1      46.342 123.118  23.276  1.00  0.00    -0.442 NA
ATOM     30  C   UNL     1      45.312 122.469  22.670  1.00  0.00    -0.022 A 
ENDBRANCH  13  22
ENDBRANCH   9  10
ENDBRANCH   1   9
TORSDOF 6
ENDMDL
MODEL 5
REMARK VINA RESULT:      -7.2      3.774      7.745
REMARK SMILES OC(CCc1c(F)c(-c2c[n-]c3nccc-3c2)c(F)c2[nH]ccc12)=C1CCC1
REMARK SMILES IDX 3 1 2 2 1 3 25 5 26 6 28 7 27 8 4 9 5 10 6 11 24 12 8 13
REMARK SMILES IDX 23 14 20 15 18 16 22 17 21 18 7 19 19 20 9 22 10 23 17 24
REMARK SMILES IDX 11 25 16 26 12 27 15 28 13 29 14 30
REMARK H PARENT 1 4 21 21
ROOT
ATOM      1  C   UNL     1      44.774 132.139  19.961  1.00  0.00     0.079 C 
ENDROOT
BRANCH   1   2
ATOM      2  C   UNL     1      44.179 131.667  18.660  1.00  0.00     0.092 C 
BRANCH   2   3
ATOM      3  O   UNL     1      42.798 131.544  18.529  1.00  0.00    -0.512 OA
ATOM      4  H   UNL     1      42.171 131.817  19.276  1.00  0.00     0.293 HD
ENDBRANCH   2   3
BRANCH   2   5
ATOM      5  C   UNL     1      44.959 131.325  17.638  1.00  0.00    -0.033 C 
ATOM      6  C   UNL     1      45.499 131.964  16.375  1.00  0.00     0.035 C 
ATOM      7  C   UNL     1      45.743 130.103  17.207  1.00  0.00     0.035 C 
ATOM      8  C   UNL     1      46.267 130.750  15.966  1.00  0.00     0.009 C 
ENDBRANCH   2   5
ENDBRANCH   1   2
BRANCH   1   9
ATOM      9  C   UNL     1      45.661 131.064  20.608  1.00  0.00     0.047 C 
BRANCH   9  10
ATOM     10  C   UNL     1      44.885 130.210  21.583  1.00  0.00    -0.002 A 
ATOM     11  C   UNL     1      45.227 128.852  21.787  1.00  0.00     0.137 A 
ATOM     12  C   UNL     1      43.847 130.737  22.364  1.00  0.00     0.009 A 
ATOM     13  C   UNL     1      44.531 128.060  22.740  1.00  0.00     0.055 A 
ATOM     14  C   UNL     1      43.306 132.009  22.424  1.00  0.00     0.028 A 
ATOM     15  C   UNL     1      43.175 129.975  23.283  1.00  0.00     0.083 A 
ATOM     16  C   UNL     1      43.485 128.635  23.497  1.00  0.00     0.157 A 
ATOM     17  C   UNL     1      42.316 131.945  23.396  1.00  0.00     0.083 A 
ATOM     18  N   UNL     1      42.239 130.701  23.918  1.00  0.00    -0.359 N 
ATOM     19  F   UNL     1      46.221 128.296  21.045  1.00  0.00    -0.206 F 
ATOM     20  F   UNL     1      42.817 127.922  24.441  1.00  0.00    -0.204 F 
ATOM     21  H   UNL     1      41.587 130.377  24.668  1.00  0.00     0.166 HD
BRANCH  13  22
ATOM     22  C   UNL     1      44.903 126.641  22.947  1.00  0.00    -0.016 A 
ATOM     23  C   UNL     1      44.118 125.602  22.369  1.00  0.00    -0.013 A 
ATOM     24  C   UNL     1      46.043 126.316  23.719  1.00  0.00     0.016 A 
ATOM     25  N   UNL     1      44.439 124.284  22.543  1.00  0.00    -0.442 NA
ATOM     26  C   UNL     1      46.341 124.973  23.878  1.00  0.00    -0.026 A 
ATOM     27  C   UNL     1      45.527 123.970  23.282  1.00  0.00    -0.052 A 
ATOM     28  C   UNL     1      47.336 124.304  24.543  1.00  0.00     0.003 A 
ATOM     29  N   UNL     1      45.979 122.736  23.554  1.00  0.00    -0.442 NA
ATOM     30  C   UNL     1      47.082 122.947  24.322  1.00  0.00    -0.022 A 
ENDBRANCH  13  22
ENDBRANCH   9  10
ENDBRANCH   1   9
TORSDOF 6
ENDMDL
MODEL 6
REMARK VINA RESULT:      -6.9      3.460      7.428
REMARK SMILES OC(CCc1c(F)c(-c2c[n-]c3nccc-3c2)c(F)c2[nH]ccc12)=C1CCC1
REMARK SMILES IDX 3 1 2 2 1 3 25 5 26 6 28 7 27 8 4 9 5 10 6 11 24 12 8 13
REMARK SMILES IDX 23 14 20 15 18 16 22 17 21 18 7 19 19 20 9 22 10 23 17 24
REMARK SMILES IDX 11 25 16 26 12 27 15 28 13 29 14 30
REMARK H PARENT 1 4 21 21
ROOT
ATOM      1  C   UNL     1      44.847 130.750  17.312  1.00  0.00     0.079 C 
ENDROOT
BRANCH   1   2
ATOM      2  C   UNL     1      45.061 131.352  15.948  1.00  0.00     0.092 C 
BRANCH   2   3
ATOM      3  O   UNL     1      44.264 132.410  15.519  1.00  0.00    -0.512 OA
ATOM      4  H   UNL     1      44.509 133.371  15.726  1.00  0.00     0.293 HD
ENDBRANCH   2   3
BRANCH   2   5
ATOM      5  C   UNL     1      45.981 130.859  15.122  1.00  0.00    -0.033 C 
ATOM      6  C   UNL     1      46.880 129.641  15.040  1.00  0.00     0.035 C 
ATOM      7  C   UNL     1      46.605 131.253  13.799  1.00  0.00     0.035 C 
ATOM      8  C   UNL     1      47.483 130.046  13.735  1.00  0.00     0.009 C 
ENDBRANCH   2   5
ENDBRANCH   1   2
BRANCH   1   9
ATOM      9  C   UNL     1      45.030 131.787  18.430  1.00  0.00     0.047 C 
BRANCH   9  10
ATOM     10  C   UNL     1      44.396 131.333  19.725  1.00  0.00    -0.002 A 
ATOM     11  C   UNL     1      44.946 130.258  20.462  1.00  0.00     0.137 A 
ATOM     12  C   UNL     1      43.287 131.992  20.274  1.00  0.00     0.009 A 
ATOM     13  C   UNL     1      44.380 129.862  21.704  1.00  0.00     0.055 A 
ATOM     14  C   UNL     1      42.553 133.075  19.824  1.00  0.00     0.028 A 
ATOM     15  C   UNL     1      42.741 131.611  21.472  1.00  0.00     0.083 A 
ATOM     16  C   UNL     1      43.256 130.552  22.213  1.00  0.00     0.157 A 
ATOM     17  C   UNL     1      41.584 133.295  20.794  1.00  0.00     0.083 A 
ATOM     18  N   UNL     1      41.702 132.399  21.798  1.00  0.00    -0.359 N 
ATOM     19  F   UNL     1      46.016 129.585  19.962  1.00  0.00    -0.206 F 
ATOM     20  F   UNL     1      42.707 130.226  23.412  1.00  0.00    -0.204 F 
ATOM     21  H   UNL     1      41.108 132.339  22.656  1.00  0.00     0.166 HD
BRANCH  13  22
ATOM     22  C   UNL     1      44.970 128.739  22.469  1.00  0.00    -0.016 A 
ATOM     23  C   UNL     1      44.911 128.733  23.893  1.00  0.00    -0.013 A 
ATOM     24  C   UNL     1      45.592 127.668  21.786  1.00  0.00     0.016 A 
ATOM     25  N   UNL     1      45.446 127.708  24.625  1.00  0.00    -0.442 NA
ATOM     26  C   UNL     1      46.125 126.647  22.555  1.00  0.00    -0.026 A 
ATOM     27  C   UNL     1      46.042 126.684  23.974  1.00  0.00    -0.052 A 
ATOM     28  C   UNL     1      46.785 125.486  22.247  1.00  0.00     0.003 A 
ATOM     29  N   UNL     1      46.618 125.609  24.534  1.00  0.00    -0.442 NA
ATOM     30  C   UNL     1      47.067 124.883  23.476  1.00  0.00    -0.022 A 
ENDBRANCH  13  22
ENDBRANCH   9  10
ENDBRANCH   1   9
TORSDOF 6
ENDMDL
MODEL 7
REMARK VINA RESULT:      -6.8      1.612      2.065
REMARK SMILES OC(CCc1c(F)c(-c2c[n-]c3nccc-3c2)c(F)c2[nH]ccc12)=C1CCC1
REMARK SMILES IDX 3 1 2 2 1 3 25 5 26 6 28 7 27 8 4 9 5 10 6 11 24 12 8 13
REMARK SMILES IDX 23 14 20 15 18 16 22 17 21 18 7 19 19 20 9 22 10 23 17 24
REMARK SMILES IDX 11 25 16 26 12 27 15 28 13 29 14 30
REMARK H PARENT 1 4 21 21
ROOT
ATOM      1  C   UNL     1      45.472 132.072  22.117  1.00  0.00     0.079 C 
ENDROOT
BRANCH   1   2
ATOM      2  C   UNL     1      44.836 132.071  23.482  1.00  0.00     0.092 C 
BRANCH   2   3
ATOM      3  O   UNL     1      45.296 132.941  24.467  1.00  0.00    -0.512 OA
ATOM      4  H   UNL     1      46.209 132.823  24.889  1.00  0.00     0.293 HD
ENDBRANCH   2   3
BRANCH   2   5
ATOM      5  C   UNL     1      43.859 131.218  23.778  1.00  0.00    -0.033 C 
ATOM      6  C   UNL     1      43.634 129.719  23.765  1.00  0.00     0.035 C 
ATOM      7  C   UNL     1      42.443 131.300  24.311  1.00  0.00     0.035 C 
ATOM      8  C   UNL     1      42.240 129.819  24.292  1.00  0.00     0.009 C 
ENDBRANCH   2   5
ENDBRANCH   1   2
BRANCH   1   9
ATOM      9  C   UNL     1      45.041 130.857  21.283  1.00  0.00     0.047 C 
BRANCH   9  10
ATOM     10  C   UNL     1      44.543 131.263  19.915  1.00  0.00    -0.002 A 
ATOM     11  C   UNL     1      45.349 131.077  18.767  1.00  0.00     0.137 A 
ATOM     12  C   UNL     1      43.254 131.777  19.721  1.00  0.00     0.009 A 
ATOM     13  C   UNL     1      44.865 131.413  17.474  1.00  0.00     0.055 A 
ATOM     14  C   UNL     1      42.232 132.042  20.616  1.00  0.00     0.028 A 
ATOM     15  C   UNL     1      42.785 132.102  18.474  1.00  0.00     0.083 A 
ATOM     16  C   UNL     1      43.560 131.937  17.330  1.00  0.00     0.157 A 
ATOM     17  C   UNL     1      41.181 132.522  19.846  1.00  0.00     0.083 A 
ATOM     18  N   UNL     1      41.522 132.557  18.539  1.00  0.00    -0.359 N 
ATOM     19  F   UNL     1      46.610 130.590  18.910  1.00  0.00    -0.206 F 
ATOM     20  F   UNL     1      43.047 132.239  16.109  1.00  0.00    -0.204 F 
ATOM     21  H   UNL     1      40.920 132.869  17.744  1.00  0.00     0.166 HD
BRANCH  13  22
ATOM     22  C   UNL     1      45.717 131.207  16.280  1.00  0.00    -0.016 A 
ATOM     23  C   UNL     1      45.940 132.277  15.366  1.00  0.00    -0.013 A 
ATOM     24  C   UNL     1      46.313 129.946  16.046  1.00  0.00     0.016 A 
ATOM     25  N   UNL     1      46.724 132.115  14.256  1.00  0.00    -0.442 NA
ATOM     26  C   UNL     1      47.099 129.814  14.914  1.00  0.00    -0.026 A 
ATOM     27  C   UNL     1      47.293 130.910  14.029  1.00  0.00    -0.052 A 
ATOM     28  C   UNL     1      47.809 128.770  14.380  1.00  0.00     0.003 A 
ATOM     29  N   UNL     1      48.081 130.580  12.995  1.00  0.00    -0.442 NA
ATOM     30  C   UNL     1      48.393 129.276  13.215  1.00  0.00    -0.022 A 
ENDBRANCH  13  22
ENDBRANCH   9  10
ENDBRANCH   1   9
TORSDOF 6
ENDMDL
MODEL 8
REMARK VINA RESULT:      -6.6      3.871      7.524
REMARK SMILES OC(CCc1c(F)c(-c2c[n-]c3nccc-3c2)c(F)c2[nH]ccc12)=C1CCC1
REMARK SMILES IDX 3 1 2 2 1 3 25 5 26 6 28 7 27 8 4 9 5 10 6 11 24 12 8 13
REMARK SMILES IDX 23 14 20 15 18 16 22 17 21 18 7 19 19 20 9 22 10 23 17 24
REMARK SMILES IDX 11 25 16 26 12 27 15 28 13 29 14 30
REMARK H PARENT 1 4 21 21
ROOT
ATOM      1  C   UNL     1      45.621 130.827  19.361  1.00  0.00     0.079 C 
ENDROOT
BRANCH   1   2
ATOM      2  C   UNL     1      44.738 131.257  18.218  1.00  0.00     0.092 C 
BRANCH   2   3
ATOM      3  O   UNL     1      43.493 131.827  18.474  1.00  0.00    -0.512 OA
ATOM      4  H   UNL     1      42.731 131.748  17.811  1.00  0.00     0.293 HD
ENDBRANCH   2   3
BRANCH   2   5
ATOM      5  C   UNL     1      45.113 131.062  16.957  1.00  0.00    -0.033 C 
ATOM      6  C   UNL     1      46.100 130.196  16.199  1.00  0.00     0.035 C 
ATOM      7  C   UNL     1      44.728 131.599  15.593  1.00  0.00     0.035 C 
ATOM      8  C   UNL     1      45.707 130.737  14.863  1.00  0.00     0.009 C 
ENDBRANCH   2   5
ENDBRANCH   1   2
BRANCH   1   9
ATOM      9  C   UNL     1      45.215 131.499  20.681  1.00  0.00     0.047 C 
BRANCH   9  10
ATOM     10  C   UNL     1      44.645 130.503  21.664  1.00  0.00    -0.002 A 
ATOM     11  C   UNL     1      45.261 129.244  21.859  1.00  0.00     0.137 A 
ATOM     12  C   UNL     1      43.532 130.807  22.461  1.00  0.00     0.009 A 
ATOM     13  C   UNL     1      44.755 128.326  22.819  1.00  0.00     0.055 A 
ATOM     14  C   UNL     1      42.742 131.940  22.532  1.00  0.00     0.028 A 
ATOM     15  C   UNL     1      43.044 129.922  23.387  1.00  0.00     0.083 A 
ATOM     16  C   UNL     1      43.625 128.675  23.593  1.00  0.00     0.157 A 
ATOM     17  C   UNL     1      41.801 131.675  23.518  1.00  0.00     0.083 A 
ATOM     18  N   UNL     1      41.988 130.441  24.037  1.00  0.00    -0.359 N 
ATOM     19  F   UNL     1      46.337 128.904  21.102  1.00  0.00    -0.206 F 
ATOM     20  F   UNL     1      43.131 127.839  24.543  1.00  0.00    -0.204 F 
ATOM     21  H   UNL     1      41.427 129.991  24.794  1.00  0.00     0.166 HD
BRANCH  13  22
ATOM     22  C   UNL     1      45.414 127.014  23.017  1.00  0.00    -0.016 A 
ATOM     23  C   UNL     1      45.725 126.560  24.332  1.00  0.00    -0.013 A 
ATOM     24  C   UNL     1      45.734 126.208  21.900  1.00  0.00     0.016 A 
ATOM     25  N   UNL     1      46.331 125.352  24.544  1.00  0.00    -0.442 NA
ATOM     26  C   UNL     1      46.348 124.992  22.148  1.00  0.00    -0.026 A 
ATOM     27  C   UNL     1      46.640 124.580  23.478  1.00  0.00    -0.052 A 
ATOM     28  C   UNL     1      46.794 123.981  21.336  1.00  0.00     0.003 A 
ATOM     29  N   UNL     1      47.236 123.379  23.507  1.00  0.00    -0.442 NA
ATOM     30  C   UNL     1      47.325 123.019  22.198  1.00  0.00    -0.022 A 
ENDBRANCH  13  22
ENDBRANCH   9  10
ENDBRANCH   1   9
TORSDOF 6
ENDMDL
MODEL 9
REMARK VINA RESULT:      -6.3      1.373      1.747
REMARK SMILES OC(CCc1c(F)c(-c2c[n-]c3nccc-3c2)c(F)c2[nH]ccc12)=C1CCC1
REMARK SMILES IDX 3 1 2 2 1 3 25 5 26 6 28 7 27 8 4 9 5 10 6 11 24 12 8 13
REMARK SMILES IDX 23 14 20 15 18 16 22 17 21 18 7 19 19 20 9 22 10 23 17 24
REMARK SMILES IDX 11 25 16 26 12 27 15 28 13 29 14 30
REMARK H PARENT 1 4 21 21
ROOT
ATOM      1  C   UNL     1      45.413 129.040  21.699  1.00  0.00     0.079 C 
ENDROOT
BRANCH   1   2
ATOM      2  C   UNL     1      44.928 128.110  22.781  1.00  0.00     0.092 C 
BRANCH   2   3
ATOM      3  O   UNL     1      45.668 126.978  23.112  1.00  0.00    -0.512 OA
ATOM      4  H   UNL     1      45.295 126.046  22.973  1.00  0.00     0.293 HD
ENDBRANCH   2   3
BRANCH   2   5
ATOM      5  C   UNL     1      43.774 128.334  23.405  1.00  0.00    -0.033 C 
ATOM      6  C   UNL     1      43.038 127.816  24.625  1.00  0.00     0.035 C 
ATOM      7  C   UNL     1      42.583 129.252  23.230  1.00  0.00     0.035 C 
ATOM      8  C   UNL     1      41.872 128.730  24.436  1.00  0.00     0.009 C 
ENDBRANCH   2   5
ENDBRANCH   1   2
BRANCH   1   9
ATOM      9  C   UNL     1      44.994 130.494  21.963  1.00  0.00     0.047 C 
BRANCH   9  10
ATOM     10  C   UNL     1      44.323 131.111  20.758  1.00  0.00    -0.002 A 
ATOM     11  C   UNL     1      44.851 130.922  19.459  1.00  0.00     0.137 A 
ATOM     12  C   UNL     1      43.127 131.834  20.869  1.00  0.00     0.009 A 
ATOM     13  C   UNL     1      44.195 131.460  18.319  1.00  0.00     0.055 A 
ATOM     14  C   UNL     1      42.355 132.160  21.970  1.00  0.00     0.028 A 
ATOM     15  C   UNL     1      42.493 132.354  19.770  1.00  0.00     0.083 A 
ATOM     16  C   UNL     1      42.995 132.190  18.483  1.00  0.00     0.157 A 
ATOM     17  C   UNL     1      41.274 132.872  21.467  1.00  0.00     0.083 A 
ATOM     18  N   UNL     1      41.362 132.988  20.124  1.00  0.00    -0.359 N 
ATOM     19  F   UNL     1      46.014 130.234  19.306  1.00  0.00    -0.206 F 
ATOM     20  F   UNL     1      42.320 132.693  17.417  1.00  0.00    -0.204 F 
ATOM     21  H   UNL     1      40.682 133.470  19.493  1.00  0.00     0.166 HD
BRANCH  13  22
ATOM     22  C   UNL     1      44.756 131.250  16.965  1.00  0.00    -0.016 A 
ATOM     23  C   UNL     1      44.053 131.718  15.817  1.00  0.00    -0.013 A 
ATOM     24  C   UNL     1      45.993 130.583  16.809  1.00  0.00     0.016 A 
ATOM     25  N   UNL     1      44.548 131.539  14.555  1.00  0.00    -0.442 NA
ATOM     26  C   UNL     1      46.468 130.416  15.518  1.00  0.00    -0.026 A 
ATOM     27  C   UNL     1      45.731 130.901  14.402  1.00  0.00    -0.052 A 
ATOM     28  C   UNL     1      47.594 129.832  14.999  1.00  0.00     0.003 A 
ATOM     29  N   UNL     1      46.354 130.639  13.243  1.00  0.00    -0.442 NA
ATOM     30  C   UNL     1      47.489 129.989  13.615  1.00  0.00    -0.022 A 
ENDBRANCH  13  22
ENDBRANCH   9  10
ENDBRANCH   1   9
TORSDOF 6
ENDMDL


