MODEL 1
REMARK VINA RESULT:      -5.3      0.000      0.000
REMARK SMILES Cc1ccc(-c2cc(C=O)c([N-]C(=O)[N-][C@@H](c3ccc(F)cc3)C(C)C)cc2F)cc1
REMARK SMILES IDX 13 1 14 2 12 3 11 4 6 5 7 6 28 7 8 8 27 9 29 10 5 11 2 12
REMARK SMILES IDX 3 13 31 14 4 15 30 16 1 17 9 18 10 19 15 20 16 21 17 22
REMARK SMILES IDX 18 23 23 24 19 25 22 26 20 27 21 28 24 29 25 30 26 31
REMARK H PARENT
ROOT
ATOM      1  C   UNL     1      42.939 132.264  21.295  1.00  0.00    -0.036 C 
ATOM      2  O   UNL     1      43.941 133.027  21.296  1.00  0.00    -0.341 OA
ENDROOT
BRANCH   1   3
ATOM      3  N   UNL     1      42.574 131.591  20.087  1.00  0.00    -0.642 NA
BRANCH   3   4
ATOM      4  C   UNL     1      43.437 131.356  18.962  1.00  0.00    -0.122 A 
ATOM      5  C   UNL     1      45.147 130.919  16.757  1.00  0.00     0.018 A 
ATOM      6  C   UNL     1      45.581 130.638  18.064  1.00  0.00     0.022 A 
ATOM      7  C   UNL     1      43.860 131.449  16.565  1.00  0.00     0.129 A 
ATOM      8  C   UNL     1      44.741 130.858  19.170  1.00  0.00     0.000 A 
ATOM      9  C   UNL     1      43.021 131.672  17.657  1.00  0.00     0.024 A 
ATOM     10  F   UNL     1      43.430 131.795  15.325  1.00  0.00    -0.206 F 
BRANCH   5  11
ATOM     11  C   UNL     1      46.048 130.667  15.606  1.00  0.00    -0.015 A 
ATOM     12  C   UNL     1      47.781 130.210  13.431  1.00  0.00    -0.051 A 
ATOM     13  C   UNL     1      47.707 129.286  14.483  1.00  0.00     0.004 A 
ATOM     14  C   UNL     1      46.970 131.354  13.461  1.00  0.00     0.004 A 
ATOM     15  C   UNL     1      46.853 129.516  15.566  1.00  0.00     0.009 A 
ATOM     16  C   UNL     1      46.116 131.586  14.543  1.00  0.00     0.009 A 
ATOM     17  C   UNL     1      48.667 129.944  12.250  1.00  0.00     0.044 C 
ENDBRANCH   5  11
BRANCH   8  18
ATOM     18  C   UNL     1      45.220 130.545  20.536  1.00  0.00     0.258 C 
ATOM     19  O   UNL     1      45.691 129.411  20.815  1.00  0.00    -0.298 OA
ENDBRANCH   8  18
ENDBRANCH   3   4
ENDBRANCH   1   3
BRANCH   1  20
ATOM     20  N   UNL     1      42.205 132.037  22.503  1.00  0.00    -0.663 NA
BRANCH  20  21
ATOM     21  C   UNL     1      42.769 131.458  23.722  1.00  0.00    -0.074 C 
BRANCH  21  22
ATOM     22  C   UNL     1      42.606 129.948  23.692  1.00  0.00    -0.062 A 
ATOM     23  C   UNL     1      43.628 129.111  23.198  1.00  0.00     0.005 A 
ATOM     24  C   UNL     1      41.425 129.361  24.179  1.00  0.00     0.005 A 
ATOM     25  C   UNL     1      43.463 127.724  23.187  1.00  0.00     0.039 A 
ATOM     26  C   UNL     1      41.265 127.972  24.167  1.00  0.00     0.039 A 
ATOM     27  C   UNL     1      42.282 127.154  23.671  1.00  0.00     0.123 A 
ATOM     28  F   UNL     1      42.126 125.807  23.661  1.00  0.00    -0.207 F 
ENDBRANCH  21  22
BRANCH  21  29
ATOM     29  C   UNL     1      44.246 131.910  23.907  1.00  0.00    -0.028 C 
ATOM     30  C   UNL     1      45.114 130.864  24.622  1.00  0.00     0.006 C 
ATOM     31  C   UNL     1      44.344 133.264  24.625  1.00  0.00     0.006 C 
ENDBRANCH  21  29
ENDBRANCH  20  21
ENDBRANCH   1  20
TORSDOF 8
ENDMDL
MODEL 2
REMARK VINA RESULT:      -3.4      1.324      1.717
REMARK SMILES Cc1ccc(-c2cc(C=O)c([N-]C(=O)[N-][C@@H](c3ccc(F)cc3)C(C)C)cc2F)cc1
REMARK SMILES IDX 13 1 14 2 12 3 11 4 6 5 7 6 28 7 8 8 27 9 29 10 5 11 2 12
REMARK SMILES IDX 3 13 31 14 4 15 30 16 1 17 9 18 10 19 15 20 16 21 17 22
REMARK SMILES IDX 18 23 23 24 19 25 22 26 20 27 21 28 24 29 25 30 26 31
REMARK H PARENT
ROOT
ATOM      1  C   UNL     1      42.334 131.458  21.198  1.00  0.00    -0.036 C 
ATOM      2  O   UNL     1      41.422 131.731  20.372  1.00  0.00    -0.341 OA
ENDROOT
BRANCH   1   3
ATOM      3  N   UNL     1      43.689 131.783  20.874  1.00  0.00    -0.642 NA
BRANCH   3   4
ATOM      4  C   UNL     1      44.331 131.549  19.610  1.00  0.00    -0.122 A 
ATOM      5  C   UNL     1      45.605 131.115  17.127  1.00  0.00     0.018 A 
ATOM      6  C   UNL     1      46.330 131.024  18.327  1.00  0.00     0.022 A 
ATOM      7  C   UNL     1      44.241 131.453  17.178  1.00  0.00     0.129 A 
ATOM      8  C   UNL     1      45.709 131.245  19.569  1.00  0.00     0.000 A 
ATOM      9  C   UNL     1      43.617 131.676  18.406  1.00  0.00     0.024 A 
ATOM     10  F   UNL     1      43.523 131.615  16.038  1.00  0.00    -0.206 F 
BRANCH   5  11
ATOM     11  C   UNL     1      46.280 130.866  15.830  1.00  0.00    -0.015 A 
ATOM     12  C   UNL     1      47.587 130.415  13.375  1.00  0.00    -0.051 A 
ATOM     13  C   UNL     1      47.733 129.505  14.432  1.00  0.00     0.004 A 
ATOM     14  C   UNL     1      46.769 131.541  13.544  1.00  0.00     0.004 A 
ATOM     15  C   UNL     1      47.092 129.732  15.652  1.00  0.00     0.009 A 
ATOM     16  C   UNL     1      46.127 131.770  14.764  1.00  0.00     0.009 A 
ATOM     17  C   UNL     1      48.244 130.151  12.052  1.00  0.00     0.044 C 
ENDBRANCH   5  11
BRANCH   8  18
ATOM     18  C   UNL     1      46.495 131.135  20.819  1.00  0.00     0.258 C 
ATOM     19  O   UNL     1      47.022 132.149  21.347  1.00  0.00    -0.298 OA
ENDBRANCH   8  18
ENDBRANCH   3   4
ENDBRANCH   1   3
BRANCH   1  20
ATOM     20  N   UNL     1      42.009 130.874  22.464  1.00  0.00    -0.663 NA
BRANCH  20  21
ATOM     21  C   UNL     1      42.990 130.496  23.480  1.00  0.00    -0.074 C 
BRANCH  21  22
ATOM     22  C   UNL     1      43.546 129.118  23.165  1.00  0.00    -0.062 A 
ATOM     23  C   UNL     1      42.799 127.950  23.424  1.00  0.00     0.005 A 
ATOM     24  C   UNL     1      44.823 128.993  22.589  1.00  0.00     0.005 A 
ATOM     25  C   UNL     1      43.325 126.692  23.118  1.00  0.00     0.039 A 
ATOM     26  C   UNL     1      45.343 127.733  22.284  1.00  0.00     0.039 A 
ATOM     27  C   UNL     1      44.596 126.582  22.548  1.00  0.00     0.123 A 
ATOM     28  F   UNL     1      45.103 125.361  22.252  1.00  0.00    -0.207 F 
ENDBRANCH  21  22
BRANCH  21  29
ATOM     29  C   UNL     1      44.094 131.586  23.604  1.00  0.00    -0.028 C 
ATOM     30  C   UNL     1      45.192 131.224  24.616  1.00  0.00     0.006 C 
ATOM     31  C   UNL     1      43.501 132.965  23.930  1.00  0.00     0.006 C 
ENDBRANCH  21  29
ENDBRANCH  20  21
ENDBRANCH   1  20
TORSDOF 8
ENDMDL


