REMARK SMILES CO[C@H]1CCC[C@H](c2cc3cc(F)ccc3[nH]2)N1C(=O)C(C)(F)F
REMARK SMILES IDX 3 1 4 2 5 3 6 4 7 5 18 6 2 7 1 8 19 9 20 10 21 11 22 12
REMARK SMILES IDX 23 13 24 14 8 15 9 16 17 17 10 18 16 19 11 20 15 21 12 22
REMARK SMILES IDX 14 23 13 25
REMARK H PARENT 17 24
ROOT
ATOM      1  C   UNL     1      -0.666  -0.897   0.268  1.00  0.00     0.217 C 
ATOM      2  C   UNL     1      -0.906  -1.749  -0.988  1.00  0.00     0.055 C 
ATOM      3  C   UNL     1       0.197  -1.534  -2.019  1.00  0.00     0.007 C 
ATOM      4  C   UNL     1       0.246  -0.064  -2.422  1.00  0.00     0.032 C 
ATOM      5  C   UNL     1       0.496   0.849  -1.207  1.00  0.00     0.135 C 
ATOM      6  N   UNL     1      -0.427   0.519  -0.097  1.00  0.00    -0.303 N 
ENDROOT
BRANCH   1   7
ATOM      7  O   UNL     1      -1.821  -0.989   1.091  1.00  0.00    -0.362 OA
ATOM      8  C   UNL     1      -1.633  -1.940   2.116  1.00  0.00     0.197 C 
ENDBRANCH   1   7
BRANCH   6   9
ATOM      9  C   UNL     1      -0.749   1.546   0.869  1.00  0.00     0.295 C 
ATOM     10  O   UNL     1      -0.591   1.314   2.099  1.00  0.00    -0.268 OA
BRANCH   9  11
ATOM     11  C   UNL     1      -1.277   2.894   0.453  1.00  0.00     0.322 C 
ATOM     12  C   UNL     1      -0.175   3.951   0.519  1.00  0.00     0.098 C 
ATOM     13  F   UNL     1      -2.297   3.262   1.313  1.00  0.00    -0.196 F 
ATOM     14  F   UNL     1      -1.798   2.837  -0.828  1.00  0.00    -0.196 F 
ENDBRANCH   9  11
ENDBRANCH   6   9
BRANCH   5  15
ATOM     15  C   UNL     1       1.948   0.815  -0.772  1.00  0.00     0.039 A 
ATOM     16  C   UNL     1       2.432   0.533   0.509  1.00  0.00     0.034 A 
ATOM     17  N   UNL     1       2.970   1.147  -1.600  1.00  0.00    -0.357 N 
ATOM     18  C   UNL     1       3.797   0.689   0.423  1.00  0.00     0.003 A 
ATOM     19  C   UNL     1       4.088   1.059  -0.862  1.00  0.00     0.046 A 
ATOM     20  C   UNL     1       4.788   0.545   1.391  1.00  0.00     0.049 A 
ATOM     21  C   UNL     1       5.396   1.314  -1.272  1.00  0.00     0.029 A 
ATOM     22  C   UNL     1       6.120   0.791   1.007  1.00  0.00     0.123 A 
ATOM     23  C   UNL     1       6.422   1.173  -0.320  1.00  0.00     0.041 A 
ATOM     24  H   UNL     1       2.905   1.437  -2.601  1.00  0.00     0.166 HD
ATOM     25  F   UNL     1       7.118   0.662   1.916  1.00  0.00    -0.207 F 
ENDBRANCH   5  15
TORSDOF 4


