MODEL 1
REMARK VINA RESULT:     -10.1      0.000      0.000
REMARK SMILES NNc1ccccc1-c1nc2ccccc2[n-]1
REMARK SMILES IDX 2 1 1 3 3 6 4 7 8 8 5 9 7 10 6 11 9 12 10 13 17 14 11 15
REMARK SMILES IDX 16 16 12 17 15 18 13 19 14 20
REMARK H PARENT 2 2 1 4 1 5
ROOT
ATOM      1  N   UNL     1      42.917 132.211  17.872  1.00  0.00    -0.324 N 
ATOM      2  H   UNL     1      43.363 132.303  16.932  1.00  0.00     0.181 HD
ENDROOT
BRANCH   1   3
ATOM      3  N   UNL     1      41.636 132.752  18.070  1.00  0.00    -0.250 NA
ATOM      4  H   UNL     1      41.028 131.981  18.430  1.00  0.00     0.143 HD
ATOM      5  H   UNL     1      41.255 133.020  17.133  1.00  0.00     0.143 HD
ENDBRANCH   1   3
BRANCH   1   6
ATOM      6  C   UNL     1      43.664 131.648  18.966  1.00  0.00     0.056 A 
ATOM      7  C   UNL     1      43.131 131.702  20.267  1.00  0.00     0.028 A 
ATOM      8  C   UNL     1      44.959 131.100  18.771  1.00  0.00    -0.002 A 
ATOM      9  C   UNL     1      43.872 131.251  21.360  1.00  0.00     0.002 A 
ATOM     10  C   UNL     1      45.698 130.671  19.889  1.00  0.00     0.010 A 
ATOM     11  C   UNL     1      45.156 130.745  21.172  1.00  0.00     0.001 A 
BRANCH   8  12
ATOM     12  C   UNL     1      45.549 130.915  17.424  1.00  0.00    -0.049 A 
ATOM     13  N   UNL     1      46.110 129.745  17.011  1.00  0.00    -0.435 NA
ATOM     14  N   UNL     1      45.638 131.927  16.518  1.00  0.00    -0.435 NA
ATOM     15  C   UNL     1      46.548 130.047  15.781  1.00  0.00    -0.038 A 
ATOM     16  C   UNL     1      46.268 131.345  15.488  1.00  0.00    -0.038 A 
ATOM     17  C   UNL     1      47.209 129.213  14.882  1.00  0.00     0.004 A 
ATOM     18  C   UNL     1      46.625 131.921  14.270  1.00  0.00     0.004 A 
ATOM     19  C   UNL     1      47.583 129.759  13.639  1.00  0.00     0.000 A 
ATOM     20  C   UNL     1      47.292 131.109  13.334  1.00  0.00     0.000 A 
ENDBRANCH   8  12
ENDBRANCH   1   6
TORSDOF 3
ENDMDL
MODEL 2
REMARK VINA RESULT:     -10.0      0.351      1.462
REMARK SMILES NNc1ccccc1-c1nc2ccccc2[n-]1
REMARK SMILES IDX 2 1 1 3 3 6 4 7 8 8 5 9 7 10 6 11 9 12 10 13 17 14 11 15
REMARK SMILES IDX 16 16 12 17 15 18 13 19 14 20
REMARK H PARENT 2 2 1 4 1 5
ROOT
ATOM      1  N   UNL     1      42.741 132.207  18.127  1.00  0.00    -0.324 N 
ATOM      2  H   UNL     1      43.113 132.111  17.156  1.00  0.00     0.181 HD
ENDROOT
BRANCH   1   3
ATOM      3  N   UNL     1      41.556 132.934  18.330  1.00  0.00    -0.250 NA
ATOM      4  H   UNL     1      41.576 133.285  19.315  1.00  0.00     0.143 HD
ATOM      5  H   UNL     1      40.756 132.263  18.269  1.00  0.00     0.143 HD
ENDBRANCH   1   3
BRANCH   1   6
ATOM      6  C   UNL     1      43.505 131.703  19.238  1.00  0.00     0.056 A 
ATOM      7  C   UNL     1      42.955 131.749  20.533  1.00  0.00     0.028 A 
ATOM      8  C   UNL     1      44.831 131.225  19.067  1.00  0.00    -0.002 A 
ATOM      9  C   UNL     1      43.707 131.359  21.641  1.00  0.00     0.002 A 
ATOM     10  C   UNL     1      45.579 130.856  20.200  1.00  0.00     0.010 A 
ATOM     11  C   UNL     1      45.019 130.921  21.476  1.00  0.00     0.001 A 
BRANCH   8  12
ATOM     12  C   UNL     1      45.445 131.050  17.730  1.00  0.00    -0.049 A 
ATOM     13  N   UNL     1      45.472 132.033  16.788  1.00  0.00    -0.435 NA
ATOM     14  N   UNL     1      45.970 129.865  17.314  1.00  0.00    -0.435 NA
ATOM     15  C   UNL     1      46.060 131.427  15.748  1.00  0.00    -0.038 A 
ATOM     16  C   UNL     1      46.357 130.138  16.060  1.00  0.00    -0.038 A 
ATOM     17  C   UNL     1      46.350 131.970  14.497  1.00  0.00     0.004 A 
ATOM     18  C   UNL     1      46.969 129.278  15.150  1.00  0.00     0.004 A 
ATOM     19  C   UNL     1      46.971 131.132  13.551  1.00  0.00     0.000 A 
ATOM     20  C   UNL     1      47.280 129.791  13.876  1.00  0.00     0.000 A 
ENDBRANCH   8  12
ENDBRANCH   1   6
TORSDOF 3
ENDMDL
MODEL 3
REMARK VINA RESULT:      -9.4      1.544      2.702
REMARK SMILES NNc1ccccc1-c1nc2ccccc2[n-]1
REMARK SMILES IDX 2 1 1 3 3 6 4 7 8 8 5 9 7 10 6 11 9 12 10 13 17 14 11 15
REMARK SMILES IDX 16 16 12 17 15 18 13 19 14 20
REMARK H PARENT 2 2 1 4 1 5
ROOT
ATOM      1  N   UNL     1      46.019 130.781  19.786  1.00  0.00    -0.324 N 
ATOM      2  H   UNL     1      46.869 131.049  19.242  1.00  0.00     0.181 HD
ENDROOT
BRANCH   1   3
ATOM      3  N   UNL     1      46.133 129.792  20.778  1.00  0.00    -0.250 NA
ATOM      4  H   UNL     1      46.233 130.286  21.694  1.00  0.00     0.143 HD
ATOM      5  H   UNL     1      47.030 129.280  20.615  1.00  0.00     0.143 HD
ENDBRANCH   1   3
BRANCH   1   6
ATOM      6  C   UNL     1      44.738 131.333  19.430  1.00  0.00     0.056 A 
ATOM      7  C   UNL     1      43.850 131.731  20.447  1.00  0.00     0.028 A 
ATOM      8  C   UNL     1      44.322 131.421  18.075  1.00  0.00    -0.002 A 
ATOM      9  C   UNL     1      42.566 132.180  20.136  1.00  0.00     0.002 A 
ATOM     10  C   UNL     1      43.017 131.857  17.785  1.00  0.00     0.010 A 
ATOM     11  C   UNL     1      42.147 132.234  18.809  1.00  0.00     0.001 A 
BRANCH   8  12
ATOM     12  C   UNL     1      45.231 131.119  16.944  1.00  0.00    -0.049 A 
ATOM     13  N   UNL     1      45.529 132.018  15.967  1.00  0.00    -0.435 NA
ATOM     14  N   UNL     1      45.784 129.889  16.758  1.00  0.00    -0.435 NA
ATOM     15  C   UNL     1      46.321 131.312  15.149  1.00  0.00    -0.038 A 
ATOM     16  C   UNL     1      46.473 130.045  15.619  1.00  0.00    -0.038 A 
ATOM     17  C   UNL     1      46.929 131.740  13.970  1.00  0.00     0.004 A 
ATOM     18  C   UNL     1      47.245 129.096  14.952  1.00  0.00     0.004 A 
ATOM     19  C   UNL     1      47.719 130.809  13.269  1.00  0.00     0.000 A 
ATOM     20  C   UNL     1      47.877 129.492  13.758  1.00  0.00     0.000 A 
ENDBRANCH   8  12
ENDBRANCH   1   6
TORSDOF 3
ENDMDL
MODEL 4
REMARK VINA RESULT:      -9.3      1.554      2.311
REMARK SMILES NNc1ccccc1-c1nc2ccccc2[n-]1
REMARK SMILES IDX 2 1 1 3 3 6 4 7 8 8 5 9 7 10 6 11 9 12 10 13 17 14 11 15
REMARK SMILES IDX 16 16 12 17 15 18 13 19 14 20
REMARK H PARENT 2 2 1 4 1 5
ROOT
ATOM      1  N   UNL     1      45.990 130.765  19.666  1.00  0.00    -0.324 N 
ATOM      2  H   UNL     1      46.815 130.972  19.060  1.00  0.00     0.181 HD
ENDROOT
BRANCH   1   3
ATOM      3  N   UNL     1      46.134 129.843  20.716  1.00  0.00    -0.250 NA
ATOM      4  H   UNL     1      46.969 130.139  21.272  1.00  0.00     0.143 HD
ATOM      5  H   UNL     1      46.371 128.915  20.295  1.00  0.00     0.143 HD
ENDBRANCH   1   3
BRANCH   1   6
ATOM      6  C   UNL     1      44.705 131.326  19.340  1.00  0.00     0.056 A 
ATOM      7  C   UNL     1      43.851 131.747  20.378  1.00  0.00     0.028 A 
ATOM      8  C   UNL     1      44.250 131.401  17.998  1.00  0.00    -0.002 A 
ATOM      9  C   UNL     1      42.563 132.206  20.099  1.00  0.00     0.002 A 
ATOM     10  C   UNL     1      42.941 131.847  17.740  1.00  0.00     0.010 A 
ATOM     11  C   UNL     1      42.106 132.247  18.785  1.00  0.00     0.001 A 
BRANCH   8  12
ATOM     12  C   UNL     1      45.122 131.074  16.844  1.00  0.00    -0.049 A 
ATOM     13  N   UNL     1      45.711 129.859  16.677  1.00  0.00    -0.435 NA
ATOM     14  N   UNL     1      45.458 131.993  15.898  1.00  0.00    -0.435 NA
ATOM     15  C   UNL     1      46.429 130.032  15.559  1.00  0.00    -0.038 A 
ATOM     16  C   UNL     1      46.280 131.301  15.095  1.00  0.00    -0.038 A 
ATOM     17  C   UNL     1      47.241 129.100  14.914  1.00  0.00     0.004 A 
ATOM     18  C   UNL     1      46.928 131.749  13.947  1.00  0.00     0.004 A 
ATOM     19  C   UNL     1      47.911 129.516  13.748  1.00  0.00     0.000 A 
ATOM     20  C   UNL     1      47.755 130.836  13.265  1.00  0.00     0.000 A 
ENDBRANCH   8  12
ENDBRANCH   1   6
TORSDOF 3
ENDMDL
MODEL 5
REMARK VINA RESULT:      -9.3      0.998      1.070
REMARK SMILES NNc1ccccc1-c1nc2ccccc2[n-]1
REMARK SMILES IDX 2 1 1 3 3 6 4 7 8 8 5 9 7 10 6 11 9 12 10 13 17 14 11 15
REMARK SMILES IDX 16 16 12 17 15 18 13 19 14 20
REMARK H PARENT 2 2 1 4 1 5
ROOT
ATOM      1  N   UNL     1      42.143 131.694  18.801  1.00  0.00    -0.324 N 
ATOM      2  H   UNL     1      41.808 130.846  18.291  1.00  0.00     0.181 HD
ENDROOT
BRANCH   1   3
ATOM      3  N   UNL     1      41.682 132.957  18.392  1.00  0.00    -0.250 NA
ATOM      4  H   UNL     1      42.308 133.275  17.617  1.00  0.00     0.143 HD
ATOM      5  H   UNL     1      41.829 133.622  19.186  1.00  0.00     0.143 HD
ENDBRANCH   1   3
BRANCH   1   6
ATOM      6  C   UNL     1      43.150 131.564  19.821  1.00  0.00     0.056 A 
ATOM      7  C   UNL     1      42.787 131.700  21.174  1.00  0.00     0.028 A 
ATOM      8  C   UNL     1      44.517 131.369  19.488  1.00  0.00    -0.002 A 
ATOM      9  C   UNL     1      43.755 131.675  22.178  1.00  0.00     0.002 A 
ATOM     10  C   UNL     1      45.479 131.367  20.514  1.00  0.00     0.010 A 
ATOM     11  C   UNL     1      45.099 131.518  21.848  1.00  0.00     0.001 A 
BRANCH   8  12
ATOM     12  C   UNL     1      44.968 131.116  18.099  1.00  0.00    -0.049 A 
ATOM     13  N   UNL     1      45.962 130.241  17.787  1.00  0.00    -0.435 NA
ATOM     14  N   UNL     1      44.467 131.796  17.032  1.00  0.00    -0.435 NA
ATOM     15  C   UNL     1      46.064 130.374  16.458  1.00  0.00    -0.038 A 
ATOM     16  C   UNL     1      45.175 131.299  16.008  1.00  0.00    -0.038 A 
ATOM     17  C   UNL     1      46.934 129.706  15.598  1.00  0.00     0.004 A 
ATOM     18  C   UNL     1      45.078 131.637  14.660  1.00  0.00     0.004 A 
ATOM     19  C   UNL     1      46.864 130.019  14.227  1.00  0.00     0.000 A 
ATOM     20  C   UNL     1      45.939 130.981  13.759  1.00  0.00     0.000 A 
ENDBRANCH   8  12
ENDBRANCH   1   6
TORSDOF 3
ENDMDL
MODEL 6
REMARK VINA RESULT:      -9.0      1.338      5.720
REMARK SMILES NNc1ccccc1-c1nc2ccccc2[n-]1
REMARK SMILES IDX 2 1 1 3 3 6 4 7 8 8 5 9 7 10 6 11 9 12 10 13 17 14 11 15
REMARK SMILES IDX 16 16 12 17 15 18 13 19 14 20
REMARK H PARENT 2 2 1 4 1 5
ROOT
ATOM      1  N   UNL     1      44.453 132.143  14.413  1.00  0.00    -0.324 N 
ATOM      2  H   UNL     1      44.514 133.148  14.689  1.00  0.00     0.181 HD
ENDROOT
BRANCH   1   3
ATOM      3  N   UNL     1      43.204 131.614  14.050  1.00  0.00    -0.250 NA
ATOM      4  H   UNL     1      42.484 132.334  14.288  1.00  0.00     0.143 HD
ATOM      5  H   UNL     1      43.016 130.790  14.666  1.00  0.00     0.143 HD
ENDBRANCH   1   3
BRANCH   1   6
ATOM      6  C   UNL     1      45.614 131.300  14.526  1.00  0.00     0.056 A 
ATOM      7  C   UNL     1      46.401 131.050  13.385  1.00  0.00     0.028 A 
ATOM      8  C   UNL     1      45.944 130.657  15.748  1.00  0.00    -0.002 A 
ATOM      9  C   UNL     1      47.476 130.161  13.442  1.00  0.00     0.002 A 
ATOM     10  C   UNL     1      47.018 129.749  15.778  1.00  0.00     0.010 A 
ATOM     11  C   UNL     1      47.778 129.506  14.633  1.00  0.00     0.001 A 
BRANCH   8  12
ATOM     12  C   UNL     1      45.230 130.944  17.014  1.00  0.00    -0.049 A 
ATOM     13  N   UNL     1      43.970 131.458  17.059  1.00  0.00    -0.435 NA
ATOM     14  N   UNL     1      45.809 130.780  18.235  1.00  0.00    -0.435 NA
ATOM     15  C   UNL     1      43.756 131.599  18.374  1.00  0.00    -0.038 A 
ATOM     16  C   UNL     1      44.850 131.196  19.074  1.00  0.00    -0.038 A 
ATOM     17  C   UNL     1      42.614 132.086  19.005  1.00  0.00     0.004 A 
ATOM     18  C   UNL     1      44.896 131.245  20.466  1.00  0.00     0.004 A 
ATOM     19  C   UNL     1      42.622 132.149  20.412  1.00  0.00     0.000 A 
ATOM     20  C   UNL     1      43.759 131.730  21.140  1.00  0.00     0.000 A 
ENDBRANCH   8  12
ENDBRANCH   1   6
TORSDOF 3
ENDMDL
MODEL 7
REMARK VINA RESULT:      -8.9      1.413      5.640
REMARK SMILES NNc1ccccc1-c1nc2ccccc2[n-]1
REMARK SMILES IDX 2 1 1 3 3 6 4 7 8 8 5 9 7 10 6 11 9 12 10 13 17 14 11 15
REMARK SMILES IDX 16 16 12 17 15 18 13 19 14 20
REMARK H PARENT 2 2 1 4 1 5
ROOT
ATOM      1  N   UNL     1      44.243 132.124  14.447  1.00  0.00    -0.324 N 
ATOM      2  H   UNL     1      44.213 133.073  14.883  1.00  0.00     0.181 HD
ENDROOT
BRANCH   1   3
ATOM      3  N   UNL     1      43.078 131.616  13.848  1.00  0.00    -0.250 NA
ATOM      4  H   UNL     1      43.380 131.037  13.031  1.00  0.00     0.143 HD
ATOM      5  H   UNL     1      42.542 132.425  13.458  1.00  0.00     0.143 HD
ENDBRANCH   1   3
BRANCH   1   6
ATOM      6  C   UNL     1      45.427 131.316  14.576  1.00  0.00     0.056 A 
ATOM      7  C   UNL     1      46.190 131.019  13.430  1.00  0.00     0.028 A 
ATOM      8  C   UNL     1      45.805 130.752  15.823  1.00  0.00    -0.002 A 
ATOM      9  C   UNL     1      47.286 130.160  13.508  1.00  0.00     0.002 A 
ATOM     10  C   UNL     1      46.901 129.873  15.875  1.00  0.00     0.010 A 
ATOM     11  C   UNL     1      47.636 129.582  14.725  1.00  0.00     0.001 A 
BRANCH   8  12
ATOM     12  C   UNL     1      45.117 131.095  17.090  1.00  0.00    -0.049 A 
ATOM     13  N   UNL     1      45.671 130.894  18.317  1.00  0.00    -0.435 NA
ATOM     14  N   UNL     1      43.843 131.574  17.125  1.00  0.00    -0.435 NA
ATOM     15  C   UNL     1      44.697 131.288  19.148  1.00  0.00    -0.038 A 
ATOM     16  C   UNL     1      43.609 131.693  18.440  1.00  0.00    -0.038 A 
ATOM     17  C   UNL     1      44.718 131.302  20.542  1.00  0.00     0.004 A 
ATOM     18  C   UNL     1      42.448 132.145  19.063  1.00  0.00     0.004 A 
ATOM     19  C   UNL     1      43.563 131.755  21.207  1.00  0.00     0.000 A 
ATOM     20  C   UNL     1      42.432 132.176  20.470  1.00  0.00     0.000 A 
ENDBRANCH   8  12
ENDBRANCH   1   6
TORSDOF 3
ENDMDL
MODEL 8
REMARK VINA RESULT:      -8.3      1.763      2.783
REMARK SMILES NNc1ccccc1-c1nc2ccccc2[n-]1
REMARK SMILES IDX 2 1 1 3 3 6 4 7 8 8 5 9 7 10 6 11 9 12 10 13 17 14 11 15
REMARK SMILES IDX 16 16 12 17 15 18 13 19 14 20
REMARK H PARENT 2 2 1 4 1 5
ROOT
ATOM      1  N   UNL     1      45.402 130.740  20.473  1.00  0.00    -0.324 N 
ATOM      2  H   UNL     1      45.386 129.700  20.559  1.00  0.00     0.181 HD
ENDROOT
BRANCH   1   3
ATOM      3  N   UNL     1      46.617 131.418  20.674  1.00  0.00    -0.250 NA
ATOM      4  H   UNL     1      46.627 132.231  20.017  1.00  0.00     0.143 HD
ATOM      5  H   UNL     1      47.390 130.781  20.374  1.00  0.00     0.143 HD
ENDBRANCH   1   3
BRANCH   1   6
ATOM      6  C   UNL     1      44.172 131.460  20.273  1.00  0.00     0.056 A 
ATOM      7  C   UNL     1      43.424 131.875  21.392  1.00  0.00     0.028 A 
ATOM      8  C   UNL     1      43.661 131.702  18.971  1.00  0.00    -0.002 A 
ATOM      9  C   UNL     1      42.182 132.489  21.230  1.00  0.00     0.002 A 
ATOM     10  C   UNL     1      42.397 132.304  18.831  1.00  0.00     0.010 A 
ATOM     11  C   UNL     1      41.666 132.695  19.953  1.00  0.00     0.001 A 
BRANCH   8  12
ATOM     12  C   UNL     1      44.431 131.389  17.744  1.00  0.00    -0.049 A 
ATOM     13  N   UNL     1      44.059 131.808  16.504  1.00  0.00    -0.435 NA
ATOM     14  N   UNL     1      45.537 130.596  17.757  1.00  0.00    -0.435 NA
ATOM     15  C   UNL     1      44.995 131.261  15.716  1.00  0.00    -0.038 A 
ATOM     16  C   UNL     1      45.874 130.540  16.461  1.00  0.00    -0.038 A 
ATOM     17  C   UNL     1      45.110 131.364  14.331  1.00  0.00     0.004 A 
ATOM     18  C   UNL     1      46.945 129.858  15.886  1.00  0.00     0.004 A 
ATOM     19  C   UNL     1      46.181 130.690  13.714  1.00  0.00     0.000 A 
ATOM     20  C   UNL     1      47.096 129.940  14.489  1.00  0.00     0.000 A 
ENDBRANCH   8  12
ENDBRANCH   1   6
TORSDOF 3
ENDMDL
MODEL 9
REMARK VINA RESULT:      -8.0      1.357      5.962
REMARK SMILES NNc1ccccc1-c1nc2ccccc2[n-]1
REMARK SMILES IDX 2 1 1 3 3 6 4 7 8 8 5 9 7 10 6 11 9 12 10 13 17 14 11 15
REMARK SMILES IDX 16 16 12 17 15 18 13 19 14 20
REMARK H PARENT 2 2 1 4 1 5
ROOT
ATOM      1  N   UNL     1      45.805 128.501  15.654  1.00  0.00    -0.324 N 
ATOM      2  H   UNL     1      46.440 127.949  16.272  1.00  0.00     0.181 HD
ENDROOT
BRANCH   1   3
ATOM      3  N   UNL     1      44.510 128.015  15.406  1.00  0.00    -0.250 NA
ATOM      4  H   UNL     1      43.947 128.814  15.035  1.00  0.00     0.143 HD
ATOM      5  H   UNL     1      44.087 127.753  16.325  1.00  0.00     0.143 HD
ENDBRANCH   1   3
BRANCH   1   6
ATOM      6  C   UNL     1      46.303 129.670  14.978  1.00  0.00     0.056 A 
ATOM      7  C   UNL     1      47.108 129.517  13.833  1.00  0.00     0.028 A 
ATOM      8  C   UNL     1      46.057 130.975  15.482  1.00  0.00    -0.002 A 
ATOM      9  C   UNL     1      47.683 130.627  13.214  1.00  0.00     0.002 A 
ATOM     10  C   UNL     1      46.664 132.078  14.855  1.00  0.00     0.010 A 
ATOM     11  C   UNL     1      47.469 131.903  13.729  1.00  0.00     0.001 A 
BRANCH   8  12
ATOM     12  C   UNL     1      45.141 131.227  16.619  1.00  0.00    -0.049 A 
ATOM     13  N   UNL     1      43.836 131.582  16.460  1.00  0.00    -0.435 NA
ATOM     14  N   UNL     1      45.556 131.194  17.915  1.00  0.00    -0.435 NA
ATOM     15  C   UNL     1      43.422 131.755  17.722  1.00  0.00    -0.038 A 
ATOM     16  C   UNL     1      44.445 131.524  18.588  1.00  0.00    -0.038 A 
ATOM     17  C   UNL     1      42.152 132.124  18.160  1.00  0.00     0.004 A 
ATOM     18  C   UNL     1      44.286 131.643  19.967  1.00  0.00     0.004 A 
ATOM     19  C   UNL     1      41.953 132.252  19.548  1.00  0.00     0.000 A 
ATOM     20  C   UNL     1      43.016 132.012  20.449  1.00  0.00     0.000 A 
ENDBRANCH   8  12
ENDBRANCH   1   6
TORSDOF 3
ENDMDL


