REMARK SMILES N#Cc1[nH+]c2cnc(/N=C3/[CH]C=CC3)cc2cc1-c1ccc([O-])cc1
REMARK SMILES IDX 8 1 7 2 6 3 5 4 16 5 15 6 17 7 18 8 3 9 4 10 9 12 10 13
REMARK SMILES IDX 11 14 12 15 13 16 14 17 19 18 20 19 25 20 21 21 24 22 22 23
REMARK SMILES IDX 23 24 2 25 1 26
REMARK H PARENT 4 11
ROOT
ATOM      1  C   UNL     1      -2.360  -0.189  -0.171  1.00  0.00     0.152 A 
ATOM      2  N   UNL     1      -2.495   0.859   0.691  1.00  0.00    -0.230 NA
ATOM      3  C   UNL     1      -1.424   1.524   1.197  1.00  0.00     0.193 A 
ATOM      4  C   UNL     1      -0.125   1.140   0.838  1.00  0.00     0.230 A 
ATOM      5  C   UNL     1       0.044   0.061  -0.050  1.00  0.00     0.052 A 
ATOM      6  C   UNL     1      -1.081  -0.605  -0.555  1.00  0.00     0.064 A 
ATOM      7  C   UNL     1       1.337  -0.325  -0.411  1.00  0.00     0.031 A 
ATOM      8  C   UNL     1       2.450   0.360   0.100  1.00  0.00     0.066 A 
ATOM      9  C   UNL     1       2.234   1.431   0.997  1.00  0.00     0.290 A 
ATOM     10  N   UNL     1       0.963   1.792   1.337  1.00  0.00    -0.194 N 
ATOM     11  H   UNL     1       0.822   2.586   2.005  1.00  0.00     0.455 HD
ENDROOT
BRANCH   1  12
ATOM     12  N   UNL     1      -3.503  -0.882  -0.698  1.00  0.00    -0.237 NA
BRANCH  12  13
ATOM     13  C   UNL     1      -4.761  -0.645  -0.463  1.00  0.00     0.032 C 
ATOM     14  C   UNL     1      -5.843  -1.451  -1.089  1.00  0.00     0.069 C 
ATOM     15  C   UNL     1      -7.063  -0.806  -0.526  1.00  0.00    -0.020 C 
ATOM     16  C   UNL     1      -6.776   0.207   0.286  1.00  0.00    -0.025 C 
ATOM     17  C   UNL     1      -5.310   0.429   0.421  1.00  0.00     0.079 C 
ENDBRANCH  12  13
ENDBRANCH   1  12
BRANCH   8  18
ATOM     18  C   UNL     1       3.810  -0.065  -0.314  1.00  0.00    -0.011 A 
ATOM     19  C   UNL     1       4.704   0.856  -0.888  1.00  0.00     0.008 A 
ATOM     20  C   UNL     1       4.208  -1.405  -0.164  1.00  0.00     0.008 A 
ATOM     21  C   UNL     1       5.979   0.446  -1.288  1.00  0.00    -0.008 A 
ATOM     22  C   UNL     1       5.484  -1.811  -0.565  1.00  0.00    -0.008 A 
ATOM     23  C   UNL     1       6.370  -0.887  -1.126  1.00  0.00    -0.109 A 
ATOM     24  O   UNL     1       7.638  -1.292  -1.524  1.00  0.00    -0.872 OA
ENDBRANCH   8  18
BRANCH   9  25
ATOM     25  C   UNL     1       3.342   2.131   1.605  1.00  0.00     0.170 C 
ATOM     26  N   UNL     1       4.230   2.692   2.093  1.00  0.00    -0.186 NA
ENDBRANCH   9  25
TORSDOF 4


