REMARK SMILES [N-]=[N+]=Nc1nccc2ccc(-c3cccc([C@H]4CO4)c3)cc12
REMARK SMILES IDX 6 1 5 2 4 3 22 4 21 5 11 6 10 7 9 8 8 9 7 10 3 11 2 12 1 13
REMARK SMILES IDX 12 14 13 15 20 16 14 17 16 18 15 19 17 20 19 21 18 22
REMARK H PARENT
ROOT
ATOM      1  C   UNL     1       0.292  -4.921  -1.226  1.00  0.00     0.112 A 
ATOM      2  N   UNL     1       0.440  -3.942  -2.156  1.00  0.00    -0.254 NA
ATOM      3  C   UNL     1       0.415  -2.619  -1.829  1.00  0.00     0.134 A 
ATOM      4  C   UNL     1       0.230  -2.237  -0.484  1.00  0.00     0.010 A 
ATOM      5  C   UNL     1       0.196  -0.885  -0.094  1.00  0.00     0.019 A 
ATOM      6  C   UNL     1       0.011  -0.531   1.255  1.00  0.00    -0.018 A 
ATOM      7  C   UNL     1      -0.139  -1.547   2.215  1.00  0.00     0.009 A 
ATOM      8  C   UNL     1      -0.108  -2.891   1.839  1.00  0.00     0.009 A 
ATOM      9  C   UNL     1       0.075  -3.246   0.496  1.00  0.00    -0.015 A 
ATOM     10  C   UNL     1       0.108  -4.593   0.116  1.00  0.00     0.029 A 
ENDROOT
BRANCH   3  11
ATOM     11  N   UNL     1       0.575  -1.630  -2.853  1.00  0.00    -0.040 NA
BRANCH  11  12
ATOM     12  N   UNL     1       0.737  -1.947  -4.032  1.00  0.00     0.007 N 
ATOM     13  N   UNL     1       0.898  -2.263  -5.210  1.00  0.00    -0.003 NA
ENDBRANCH  11  12
ENDBRANCH   3  11
BRANCH   6  14
ATOM     14  C   UNL     1      -0.025   0.897   1.661  1.00  0.00    -0.018 A 
ATOM     15  C   UNL     1       0.630   1.324   2.831  1.00  0.00     0.009 A 
ATOM     16  C   UNL     1      -0.714   1.845   0.881  1.00  0.00     0.015 A 
ATOM     17  C   UNL     1       0.603   2.669   3.207  1.00  0.00     0.001 A 
ATOM     18  C   UNL     1      -0.757   3.193   1.269  1.00  0.00    -0.016 A 
ATOM     19  C   UNL     1      -0.083   3.603   2.427  1.00  0.00     0.006 A 
BRANCH  18  20
ATOM     20  C   UNL     1      -1.470   4.198   0.412  1.00  0.00     0.174 C 
ATOM     21  O   UNL     1      -2.372   4.978   1.164  1.00  0.00    -0.368 OA
ATOM     22  C   UNL     1      -2.937   4.028   0.292  1.00  0.00     0.198 C 
ENDBRANCH  18  20
ENDBRANCH   6  14
TORSDOF 4


