MODEL 1
REMARK VINA RESULT:      -9.5      0.000      0.000
REMARK SMILES NN(Cc1ccncc1)c1cccc2cc3ccccc3cc12
REMARK SMILES IDX 2 1 1 2 3 5 4 6 5 7 9 8 6 9 8 10 7 11 10 12 11 13 23 14
REMARK SMILES IDX 12 15 22 16 14 17 13 18 21 19 15 20 20 21 16 22 19 23 17 24
REMARK SMILES IDX 18 25
REMARK H PARENT 1 3 1 4
ROOT
ATOM      1  N   UNL     1      44.960 130.963  21.031  1.00  0.00    -0.306 N 
ENDROOT
BRANCH   1   2
ATOM      2  N   UNL     1      46.184 130.443  20.579  1.00  0.00    -0.247 NA
ATOM      3  H   UNL     1      46.883 130.567  21.348  1.00  0.00     0.144 HD
ATOM      4  H   UNL     1      46.058 129.416  20.428  1.00  0.00     0.144 HD
ENDBRANCH   1   2
BRANCH   1   5
ATOM      5  C   UNL     1      44.697 131.042  22.468  1.00  0.00     0.172 C 
BRANCH   5   6
ATOM      6  C   UNL     1      44.024 129.783  22.942  1.00  0.00    -0.024 A 
ATOM      7  C   UNL     1      44.697 128.554  22.890  1.00  0.00     0.026 A 
ATOM      8  C   UNL     1      42.688 129.814  23.367  1.00  0.00     0.026 A 
ATOM      9  C   UNL     1      44.034 127.390  23.286  1.00  0.00     0.111 A 
ATOM     10  C   UNL     1      42.064 128.626  23.756  1.00  0.00     0.111 A 
ATOM     11  N   UNL     1      42.743 127.450  23.707  1.00  0.00    -0.265 NA
ENDBRANCH   5   6
ENDBRANCH   1   5
BRANCH   1  12
ATOM     12  C   UNL     1      43.998 131.466  20.089  1.00  0.00     0.060 A 
ATOM     13  C   UNL     1      42.822 132.054  20.572  1.00  0.00     0.028 A 
ATOM     14  C   UNL     1      44.210 131.361  18.695  1.00  0.00     0.007 A 
ATOM     15  C   UNL     1      41.849 132.521  19.689  1.00  0.00     0.003 A 
ATOM     16  C   UNL     1      45.393 130.806  18.171  1.00  0.00     0.019 A 
ATOM     17  C   UNL     1      43.213 131.836  17.804  1.00  0.00    -0.016 A 
ATOM     18  C   UNL     1      42.039 132.412  18.312  1.00  0.00     0.009 A 
ATOM     19  C   UNL     1      45.581 130.705  16.785  1.00  0.00    -0.018 A 
ATOM     20  C   UNL     1      43.404 131.735  16.417  1.00  0.00     0.017 A 
ATOM     21  C   UNL     1      46.759 130.145  16.265  1.00  0.00     0.009 A 
ATOM     22  C   UNL     1      44.578 131.171  15.902  1.00  0.00    -0.018 A 
ATOM     23  C   UNL     1      46.938 130.048  14.882  1.00  0.00     0.001 A 
ATOM     24  C   UNL     1      44.772 131.067  14.515  1.00  0.00     0.009 A 
ATOM     25  C   UNL     1      45.949 130.507  14.010  1.00  0.00     0.001 A 
ENDBRANCH   1  12
TORSDOF 4
ENDMDL
MODEL 2
REMARK VINA RESULT:      -9.3      0.769      1.303
REMARK SMILES NN(Cc1ccncc1)c1cccc2cc3ccccc3cc12
REMARK SMILES IDX 2 1 1 2 3 5 4 6 5 7 9 8 6 9 8 10 7 11 10 12 11 13 23 14
REMARK SMILES IDX 12 15 22 16 14 17 13 18 21 19 15 20 20 21 16 22 19 23 17 24
REMARK SMILES IDX 18 25
REMARK H PARENT 1 3 1 4
ROOT
ATOM      1  N   UNL     1      45.122 131.122  20.960  1.00  0.00    -0.306 N 
ENDROOT
BRANCH   1   2
ATOM      2  N   UNL     1      45.657 132.022  21.896  1.00  0.00    -0.247 NA
ATOM      3  H   UNL     1      46.620 132.275  21.576  1.00  0.00     0.144 HD
ATOM      4  H   UNL     1      45.076 132.890  21.873  1.00  0.00     0.144 HD
ENDBRANCH   1   2
BRANCH   1   5
ATOM      5  C   UNL     1      45.569 129.729  20.962  1.00  0.00     0.172 C 
BRANCH   5   6
ATOM      6  C   UNL     1      44.898 128.972  22.075  1.00  0.00    -0.024 A 
ATOM      7  C   UNL     1      44.117 129.647  23.024  1.00  0.00     0.026 A 
ATOM      8  C   UNL     1      45.110 127.594  22.220  1.00  0.00     0.026 A 
ATOM      9  C   UNL     1      43.546 128.931  24.079  1.00  0.00     0.111 A 
ATOM     10  C   UNL     1      44.519 126.916  23.289  1.00  0.00     0.111 A 
ATOM     11  N   UNL     1      43.756 127.593  24.188  1.00  0.00    -0.265 NA
ENDBRANCH   5   6
ENDBRANCH   1   5
BRANCH   1  12
ATOM     12  C   UNL     1      44.101 131.555  20.046  1.00  0.00     0.060 A 
ATOM     13  C   UNL     1      42.912 132.087  20.562  1.00  0.00     0.028 A 
ATOM     14  C   UNL     1      44.267 131.434  18.647  1.00  0.00     0.007 A 
ATOM     15  C   UNL     1      41.884 132.484  19.708  1.00  0.00     0.003 A 
ATOM     16  C   UNL     1      45.458 130.933  18.089  1.00  0.00     0.019 A 
ATOM     17  C   UNL     1      43.214 131.837  17.785  1.00  0.00    -0.016 A 
ATOM     18  C   UNL     1      42.029 132.358  18.327  1.00  0.00     0.009 A 
ATOM     19  C   UNL     1      45.601 130.816  16.698  1.00  0.00    -0.018 A 
ATOM     20  C   UNL     1      43.358 131.719  16.395  1.00  0.00     0.017 A 
ATOM     21  C   UNL     1      46.788 130.310  16.144  1.00  0.00     0.009 A 
ATOM     22  C   UNL     1      44.543 131.210  15.846  1.00  0.00    -0.018 A 
ATOM     23  C   UNL     1      46.922 130.196  14.757  1.00  0.00     0.001 A 
ATOM     24  C   UNL     1      44.691 131.090  14.455  1.00  0.00     0.009 A 
ATOM     25  C   UNL     1      45.877 130.584  13.915  1.00  0.00     0.001 A 
ENDBRANCH   1  12
TORSDOF 4
ENDMDL
MODEL 3
REMARK VINA RESULT:      -8.8      0.987      1.474
REMARK SMILES NN(Cc1ccncc1)c1cccc2cc3ccccc3cc12
REMARK SMILES IDX 2 1 1 2 3 5 4 6 5 7 9 8 6 9 8 10 7 11 10 12 11 13 23 14
REMARK SMILES IDX 12 15 22 16 14 17 13 18 21 19 15 20 20 21 16 22 19 23 17 24
REMARK SMILES IDX 18 25
REMARK H PARENT 1 3 1 4
ROOT
ATOM      1  N   UNL     1      45.117 130.903  20.458  1.00  0.00    -0.306 N 
ENDROOT
BRANCH   1   2
ATOM      2  N   UNL     1      46.027 129.879  20.147  1.00  0.00    -0.247 NA
ATOM      3  H   UNL     1      45.840 129.578  19.163  1.00  0.00     0.144 HD
ATOM      4  H   UNL     1      46.989 130.288  20.177  1.00  0.00     0.144 HD
ENDBRANCH   1   2
BRANCH   1   5
ATOM      5  C   UNL     1      45.168 131.537  21.775  1.00  0.00     0.172 C 
BRANCH   5   6
ATOM      6  C   UNL     1      44.156 130.907  22.692  1.00  0.00    -0.024 A 
ATOM      7  C   UNL     1      43.274 131.707  23.435  1.00  0.00     0.026 A 
ATOM      8  C   UNL     1      44.135 129.517  22.873  1.00  0.00     0.026 A 
ATOM      9  C   UNL     1      42.378 131.103  24.319  1.00  0.00     0.111 A 
ATOM     10  C   UNL     1      43.221 128.954  23.766  1.00  0.00     0.111 A 
ATOM     11  N   UNL     1      42.370 129.751  24.465  1.00  0.00    -0.265 NA
ENDBRANCH   5   6
ENDBRANCH   1   5
BRANCH   1  12
ATOM     12  C   UNL     1      44.182 131.362  19.467  1.00  0.00     0.060 A 
ATOM     13  C   UNL     1      42.957 131.894  19.889  1.00  0.00     0.028 A 
ATOM     14  C   UNL     1      44.469 131.268  18.086  1.00  0.00     0.007 A 
ATOM     15  C   UNL     1      42.009 132.316  18.957  1.00  0.00     0.003 A 
ATOM     16  C   UNL     1      45.701 130.768  17.623  1.00  0.00     0.019 A 
ATOM     17  C   UNL     1      43.498 131.696  17.144  1.00  0.00    -0.016 A 
ATOM     18  C   UNL     1      42.274 132.217  17.591  1.00  0.00     0.009 A 
ATOM     19  C   UNL     1      45.964 130.677  16.249  1.00  0.00    -0.018 A 
ATOM     20  C   UNL     1      43.762 131.605  15.769  1.00  0.00     0.017 A 
ATOM     21  C   UNL     1      47.192 130.172  15.790  1.00  0.00     0.009 A 
ATOM     22  C   UNL     1      44.987 131.096  15.316  1.00  0.00    -0.018 A 
ATOM     23  C   UNL     1      47.445 130.084  14.418  1.00  0.00     0.001 A 
ATOM     24  C   UNL     1      45.255 131.002  13.941  1.00  0.00     0.009 A 
ATOM     25  C   UNL     1      46.480 130.498  13.496  1.00  0.00     0.001 A 
ENDBRANCH   1  12
TORSDOF 4
ENDMDL
MODEL 4
REMARK VINA RESULT:      -8.2      1.023      1.184
REMARK SMILES NN(Cc1ccncc1)c1cccc2cc3ccccc3cc12
REMARK SMILES IDX 2 1 1 2 3 5 4 6 5 7 9 8 6 9 8 10 7 11 10 12 11 13 23 14
REMARK SMILES IDX 12 15 22 16 14 17 13 18 21 19 15 20 20 21 16 22 19 23 17 24
REMARK SMILES IDX 18 25
REMARK H PARENT 1 3 1 4
ROOT
ATOM      1  N   UNL     1      45.126 130.620  20.383  1.00  0.00    -0.306 N 
ENDROOT
BRANCH   1   2
ATOM      2  N   UNL     1      45.860 129.459  20.090  1.00  0.00    -0.247 NA
ATOM      3  H   UNL     1      45.247 128.834  19.517  1.00  0.00     0.144 HD
ATOM      4  H   UNL     1      46.673 129.737  19.496  1.00  0.00     0.144 HD
ENDBRANCH   1   2
BRANCH   1   5
ATOM      5  C   UNL     1      45.317 131.287  21.672  1.00  0.00     0.172 C 
BRANCH   5   6
ATOM      6  C   UNL     1      44.393 130.696  22.701  1.00  0.00    -0.024 A 
ATOM      7  C   UNL     1      44.285 129.305  22.845  1.00  0.00     0.026 A 
ATOM      8  C   UNL     1      43.575 131.529  23.476  1.00  0.00     0.026 A 
ATOM      9  C   UNL     1      43.382 128.778  23.772  1.00  0.00     0.111 A 
ATOM     10  C   UNL     1      42.687 130.961  24.393  1.00  0.00     0.111 A 
ATOM     11  N   UNL     1      42.609 129.610  24.520  1.00  0.00    -0.265 NA
ENDBRANCH   5   6
ENDBRANCH   1   5
BRANCH   1  12
ATOM     12  C   UNL     1      44.239 131.181  19.400  1.00  0.00     0.060 A 
ATOM     13  C   UNL     1      43.035 131.757  19.827  1.00  0.00     0.028 A 
ATOM     14  C   UNL     1      44.551 131.142  18.022  1.00  0.00     0.007 A 
ATOM     15  C   UNL     1      42.133 132.278  18.900  1.00  0.00     0.003 A 
ATOM     16  C   UNL     1      45.764 130.600  17.557  1.00  0.00     0.019 A 
ATOM     17  C   UNL     1      43.625 131.672  17.086  1.00  0.00    -0.016 A 
ATOM     18  C   UNL     1      42.421 132.235  17.536  1.00  0.00     0.009 A 
ATOM     19  C   UNL     1      46.051 130.565  16.185  1.00  0.00    -0.018 A 
ATOM     20  C   UNL     1      43.914 131.637  15.714  1.00  0.00     0.017 A 
ATOM     21  C   UNL     1      47.260 130.019  15.723  1.00  0.00     0.009 A 
ATOM     22  C   UNL     1      45.119 131.086  15.257  1.00  0.00    -0.018 A 
ATOM     23  C   UNL     1      47.538 129.988  14.354  1.00  0.00     0.001 A 
ATOM     24  C   UNL     1      45.411 131.049  13.884  1.00  0.00     0.009 A 
ATOM     25  C   UNL     1      46.617 130.501  13.437  1.00  0.00     0.001 A 
ENDBRANCH   1  12
TORSDOF 4
ENDMDL
MODEL 5
REMARK VINA RESULT:      -7.7      0.978      1.240
REMARK SMILES NN(Cc1ccncc1)c1cccc2cc3ccccc3cc12
REMARK SMILES IDX 2 1 1 2 3 5 4 6 5 7 9 8 6 9 8 10 7 11 10 12 11 13 23 14
REMARK SMILES IDX 12 15 22 16 14 17 13 18 21 19 15 20 20 21 16 22 19 23 17 24
REMARK SMILES IDX 18 25
REMARK H PARENT 1 3 1 4
ROOT
ATOM      1  N   UNL     1      44.451 131.274  21.991  1.00  0.00    -0.306 N 
ENDROOT
BRANCH   1   2
ATOM      2  N   UNL     1      45.040 132.155  22.913  1.00  0.00    -0.247 NA
ATOM      3  H   UNL     1      45.686 132.783  22.382  1.00  0.00     0.144 HD
ATOM      4  H   UNL     1      44.280 132.749  23.317  1.00  0.00     0.144 HD
ENDBRANCH   1   2
BRANCH   1   5
ATOM      5  C   UNL     1      44.770 129.848  22.052  1.00  0.00     0.172 C 
BRANCH   5   6
ATOM      6  C   UNL     1      43.820 129.144  22.982  1.00  0.00    -0.024 A 
ATOM      7  C   UNL     1      44.272 128.102  23.806  1.00  0.00     0.026 A 
ATOM      8  C   UNL     1      42.457 129.471  22.979  1.00  0.00     0.026 A 
ATOM      9  C   UNL     1      43.362 127.428  24.623  1.00  0.00     0.111 A 
ATOM     10  C   UNL     1      41.581 128.773  23.813  1.00  0.00     0.111 A 
ATOM     11  N   UNL     1      42.047 127.775  24.610  1.00  0.00    -0.265 NA
ENDBRANCH   5   6
ENDBRANCH   1   5
BRANCH   1  12
ATOM     12  C   UNL     1      43.497 131.764  21.034  1.00  0.00     0.060 A 
ATOM     13  C   UNL     1      42.326 132.376  21.498  1.00  0.00     0.028 A 
ATOM     14  C   UNL     1      43.712 131.621  19.644  1.00  0.00     0.007 A 
ATOM     15  C   UNL     1      41.360 132.831  20.600  1.00  0.00     0.003 A 
ATOM     16  C   UNL     1      44.890 131.040  19.137  1.00  0.00     0.019 A 
ATOM     17  C   UNL     1      42.722 132.084  18.737  1.00  0.00    -0.016 A 
ATOM     18  C   UNL     1      41.553 132.685  19.227  1.00  0.00     0.009 A 
ATOM     19  C   UNL     1      45.080 130.901  17.755  1.00  0.00    -0.018 A 
ATOM     20  C   UNL     1      42.915 131.945  17.354  1.00  0.00     0.017 A 
ATOM     21  C   UNL     1      46.254 130.316  17.253  1.00  0.00     0.009 A 
ATOM     22  C   UNL     1      44.085 131.356  16.858  1.00  0.00    -0.018 A 
ATOM     23  C   UNL     1      46.436 130.182  15.873  1.00  0.00     0.001 A 
ATOM     24  C   UNL     1      44.281 131.214  15.474  1.00  0.00     0.009 A 
ATOM     25  C   UNL     1      45.453 130.629  14.987  1.00  0.00     0.001 A 
ENDBRANCH   1  12
TORSDOF 4
ENDMDL
MODEL 6
REMARK VINA RESULT:      -7.5      1.778      6.687
REMARK SMILES NN(Cc1ccncc1)c1cccc2cc3ccccc3cc12
REMARK SMILES IDX 2 1 1 2 3 5 4 6 5 7 9 8 6 9 8 10 7 11 10 12 11 13 23 14
REMARK SMILES IDX 12 15 22 16 14 17 13 18 21 19 15 20 20 21 16 22 19 23 17 24
REMARK SMILES IDX 18 25
REMARK H PARENT 1 3 1 4
ROOT
ATOM      1  N   UNL     1      45.548 131.149  21.108  1.00  0.00    -0.306 N 
ENDROOT
BRANCH   1   2
ATOM      2  N   UNL     1      46.288 132.325  21.318  1.00  0.00    -0.247 NA
ATOM      3  H   UNL     1      45.840 133.084  20.756  1.00  0.00     0.144 HD
ATOM      4  H   UNL     1      46.197 132.581  22.327  1.00  0.00     0.144 HD
ENDBRANCH   1   2
BRANCH   1   5
ATOM      5  C   UNL     1      45.898 130.268  19.993  1.00  0.00     0.172 C 
BRANCH   5   6
ATOM      6  C   UNL     1      45.254 130.757  18.725  1.00  0.00    -0.024 A 
ATOM      7  C   UNL     1      44.043 131.463  18.769  1.00  0.00     0.026 A 
ATOM      8  C   UNL     1      45.819 130.446  17.480  1.00  0.00     0.026 A 
ATOM      9  C   UNL     1      43.436 131.862  17.575  1.00  0.00     0.111 A 
ATOM     10  C   UNL     1      45.181 130.866  16.311  1.00  0.00     0.111 A 
ATOM     11  N   UNL     1      44.013 131.558  16.382  1.00  0.00    -0.265 NA
ENDBRANCH   5   6
ENDBRANCH   1   5
BRANCH   1  12
ATOM     12  C   UNL     1      44.495 130.787  22.016  1.00  0.00     0.060 A 
ATOM     13  C   UNL     1      43.579 131.769  22.415  1.00  0.00     0.028 A 
ATOM     14  C   UNL     1      44.381 129.472  22.523  1.00  0.00     0.007 A 
ATOM     15  C   UNL     1      42.565 131.465  23.324  1.00  0.00     0.003 A 
ATOM     16  C   UNL     1      45.262 128.450  22.122  1.00  0.00     0.019 A 
ATOM     17  C   UNL     1      43.349 129.173  23.450  1.00  0.00    -0.016 A 
ATOM     18  C   UNL     1      42.449 130.176  23.842  1.00  0.00     0.009 A 
ATOM     19  C   UNL     1      45.136 127.154  22.642  1.00  0.00    -0.018 A 
ATOM     20  C   UNL     1      43.224 127.875  23.968  1.00  0.00     0.017 A 
ATOM     21  C   UNL     1      46.021 126.138  22.244  1.00  0.00     0.009 A 
ATOM     22  C   UNL     1      44.111 126.865  23.573  1.00  0.00    -0.018 A 
ATOM     23  C   UNL     1      45.888 124.849  22.768  1.00  0.00     0.001 A 
ATOM     24  C   UNL     1      43.990 125.565  24.090  1.00  0.00     0.009 A 
ATOM     25  C   UNL     1      44.877 124.563  23.688  1.00  0.00     0.001 A 
ENDBRANCH   1  12
TORSDOF 4
ENDMDL
MODEL 7
REMARK VINA RESULT:      -6.9      1.949      6.643
REMARK SMILES NN(Cc1ccncc1)c1cccc2cc3ccccc3cc12
REMARK SMILES IDX 2 1 1 2 3 5 4 6 5 7 9 8 6 9 8 10 7 11 10 12 11 13 23 14
REMARK SMILES IDX 12 15 22 16 14 17 13 18 21 19 15 20 20 21 16 22 19 23 17 24
REMARK SMILES IDX 18 25
REMARK H PARENT 1 3 1 4
ROOT
ATOM      1  N   UNL     1      43.680 131.383  20.438  1.00  0.00    -0.306 N 
ENDROOT
BRANCH   1   2
ATOM      2  N   UNL     1      42.589 131.509  19.563  1.00  0.00    -0.247 NA
ATOM      3  H   UNL     1      42.968 131.760  18.621  1.00  0.00     0.144 HD
ATOM      4  H   UNL     1      42.135 130.570  19.483  1.00  0.00     0.144 HD
ENDBRANCH   1   2
BRANCH   1   5
ATOM      5  C   UNL     1      45.041 131.516  19.917  1.00  0.00     0.172 C 
BRANCH   5   6
ATOM      6  C   UNL     1      45.080 131.127  18.465  1.00  0.00    -0.024 A 
ATOM      7  C   UNL     1      45.954 130.124  18.021  1.00  0.00     0.026 A 
ATOM      8  C   UNL     1      44.297 131.815  17.528  1.00  0.00     0.026 A 
ATOM      9  C   UNL     1      46.011 129.815  16.660  1.00  0.00     0.111 A 
ATOM     10  C   UNL     1      44.383 131.474  16.177  1.00  0.00     0.111 A 
ATOM     11  N   UNL     1      45.231 130.490  15.774  1.00  0.00    -0.265 NA
ENDBRANCH   5   6
ENDBRANCH   1   5
BRANCH   1  12
ATOM     12  C   UNL     1      43.458 131.184  21.844  1.00  0.00     0.060 A 
ATOM     13  C   UNL     1      42.717 132.138  22.553  1.00  0.00     0.028 A 
ATOM     14  C   UNL     1      43.987 130.061  22.520  1.00  0.00     0.007 A 
ATOM     15  C   UNL     1      42.511 131.998  23.926  1.00  0.00     0.003 A 
ATOM     16  C   UNL     1      44.710 129.065  21.837  1.00  0.00     0.019 A 
ATOM     17  C   UNL     1      43.776 129.928  23.917  1.00  0.00    -0.016 A 
ATOM     18  C   UNL     1      43.038 130.902  24.608  1.00  0.00     0.009 A 
ATOM     19  C   UNL     1      45.233 127.961  22.527  1.00  0.00    -0.018 A 
ATOM     20  C   UNL     1      44.299 128.823  24.606  1.00  0.00     0.017 A 
ATOM     21  C   UNL     1      45.959 126.972  21.844  1.00  0.00     0.009 A 
ATOM     22  C   UNL     1      45.027 127.841  23.922  1.00  0.00    -0.018 A 
ATOM     23  C   UNL     1      46.476 125.876  22.540  1.00  0.00     0.001 A 
ATOM     24  C   UNL     1      45.552 126.734  24.608  1.00  0.00     0.009 A 
ATOM     25  C   UNL     1      46.274 125.757  23.917  1.00  0.00     0.001 A 
ENDBRANCH   1  12
TORSDOF 4
ENDMDL
MODEL 8
REMARK VINA RESULT:      -6.8      2.606      6.716
REMARK SMILES NN(Cc1ccncc1)c1cccc2cc3ccccc3cc12
REMARK SMILES IDX 2 1 1 2 3 5 4 6 5 7 9 8 6 9 8 10 7 11 10 12 11 13 23 14
REMARK SMILES IDX 12 15 22 16 14 17 13 18 21 19 15 20 20 21 16 22 19 23 17 24
REMARK SMILES IDX 18 25
REMARK H PARENT 1 3 1 4
ROOT
ATOM      1  N   UNL     1      44.330 130.262  23.140  1.00  0.00    -0.306 N 
ENDROOT
BRANCH   1   2
ATOM      2  N   UNL     1      44.605 131.176  24.171  1.00  0.00    -0.247 NA
ATOM      3  H   UNL     1      44.598 132.135  23.752  1.00  0.00     0.144 HD
ATOM      4  H   UNL     1      43.821 131.125  24.860  1.00  0.00     0.144 HD
ENDBRANCH   1   2
BRANCH   1   5
ATOM      5  C   UNL     1      45.007 130.404  21.851  1.00  0.00     0.172 C 
BRANCH   5   6
ATOM      6  C   UNL     1      44.138 131.167  20.891  1.00  0.00    -0.024 A 
ATOM      7  C   UNL     1      42.935 131.744  21.325  1.00  0.00     0.026 A 
ATOM      8  C   UNL     1      44.483 131.246  19.534  1.00  0.00     0.026 A 
ATOM      9  C   UNL     1      42.118 132.404  20.404  1.00  0.00     0.111 A 
ATOM     10  C   UNL     1      43.638 131.916  18.647  1.00  0.00     0.111 A 
ATOM     11  N   UNL     1      42.483 132.476  19.096  1.00  0.00    -0.265 NA
ENDBRANCH   5   6
ENDBRANCH   1   5
BRANCH   1  12
ATOM     12  C   UNL     1      43.433 129.162  23.372  1.00  0.00     0.060 A 
ATOM     13  C   UNL     1      42.127 129.434  23.799  1.00  0.00     0.028 A 
ATOM     14  C   UNL     1      43.852 127.823  23.196  1.00  0.00     0.007 A 
ATOM     15  C   UNL     1      41.239 128.392  24.069  1.00  0.00     0.003 A 
ATOM     16  C   UNL     1      45.146 127.512  22.739  1.00  0.00     0.019 A 
ATOM     17  C   UNL     1      42.943 126.770  23.477  1.00  0.00    -0.016 A 
ATOM     18  C   UNL     1      41.643 127.066  23.913  1.00  0.00     0.009 A 
ATOM     19  C   UNL     1      45.543 126.176  22.577  1.00  0.00    -0.018 A 
ATOM     20  C   UNL     1      43.342 125.435  23.314  1.00  0.00     0.017 A 
ATOM     21  C   UNL     1      46.837 125.868  22.125  1.00  0.00     0.009 A 
ATOM     22  C   UNL     1      44.636 125.131  22.868  1.00  0.00    -0.018 A 
ATOM     23  C   UNL     1      47.225 124.534  21.967  1.00  0.00     0.001 A 
ATOM     24  C   UNL     1      45.039 123.796  22.704  1.00  0.00     0.009 A 
ATOM     25  C   UNL     1      46.330 123.502  22.256  1.00  0.00     0.001 A 
ENDBRANCH   1  12
TORSDOF 4
ENDMDL


