MODEL 1
REMARK VINA RESULT:      -7.3      0.000      0.000
REMARK SMILES O/C(=C\CF)[N-]c1cc(F)c(F)cc1Nc1ccc(F)cc1
REMARK SMILES IDX 6 1 2 2 1 3 3 5 4 6 5 7 7 8 8 9 14 10 9 11 13 12 11 13 10 14
REMARK SMILES IDX 12 15 15 16 16 18 17 19 22 20 18 21 21 22 19 23 20 24
REMARK H PARENT 1 4 15 17
ROOT
ATOM      1  N   UNL     1      44.911 130.990  21.393  1.00  0.00    -0.626 NA
ENDROOT
BRANCH   1   2
ATOM      2  C   UNL     1      44.659 130.360  22.655  1.00  0.00     0.012 C 
BRANCH   2   3
ATOM      3  O   UNL     1      44.801 131.068  23.850  1.00  0.00    -0.531 OA
ATOM      4  H   UNL     1      44.055 131.123  24.531  1.00  0.00     0.290 HD
ENDBRANCH   2   3
BRANCH   2   5
ATOM      5  C   UNL     1      44.242 129.093  22.674  1.00  0.00     0.028 C 
BRANCH   5   6
ATOM      6  C   UNL     1      45.129 127.967  23.105  1.00  0.00     0.244 C 
ATOM      7  F   UNL     1      44.546 126.755  22.779  1.00  0.00    -0.247 F 
ENDBRANCH   5   6
ENDBRANCH   2   5
ENDBRANCH   1   2
BRANCH   1   8
ATOM      8  C   UNL     1      43.912 131.479  20.489  1.00  0.00    -0.107 A 
ATOM      9  C   UNL     1      42.775 132.150  20.974  1.00  0.00     0.028 A 
ATOM     10  C   UNL     1      44.120 131.386  19.095  1.00  0.00     0.027 A 
ATOM     11  C   UNL     1      41.851 132.708  20.087  1.00  0.00     0.157 A 
ATOM     12  C   UNL     1      43.199 131.975  18.216  1.00  0.00     0.067 A 
ATOM     13  C   UNL     1      42.064 132.623  18.709  1.00  0.00     0.160 A 
ATOM     14  F   UNL     1      40.758 133.352  20.567  1.00  0.00    -0.204 F 
ATOM     15  F   UNL     1      41.174 133.177  17.848  1.00  0.00    -0.204 F 
BRANCH  10  16
ATOM     16  N   UNL     1      45.277 130.728  18.553  1.00  0.00    -0.356 N 
ATOM     17  H   UNL     1      45.936 130.272  19.225  1.00  0.00     0.166 HD
BRANCH  16  18
ATOM     18  C   UNL     1      45.633 130.739  17.159  1.00  0.00     0.039 A 
ATOM     19  C   UNL     1      45.764 131.947  16.445  1.00  0.00     0.029 A 
ATOM     20  C   UNL     1      45.896 129.527  16.503  1.00  0.00     0.029 A 
ATOM     21  C   UNL     1      46.114 131.932  15.092  1.00  0.00     0.041 A 
ATOM     22  C   UNL     1      46.247 129.516  15.150  1.00  0.00     0.041 A 
ATOM     23  C   UNL     1      46.353 130.717  14.443  1.00  0.00     0.123 A 
ATOM     24  F   UNL     1      46.694 130.704  13.131  1.00  0.00    -0.207 F 
ENDBRANCH  16  18
ENDBRANCH  10  16
ENDBRANCH   1   8
TORSDOF 7
ENDMDL
MODEL 2
REMARK VINA RESULT:      -6.6      2.380      3.145
REMARK SMILES O/C(=C\CF)[N-]c1cc(F)c(F)cc1Nc1ccc(F)cc1
REMARK SMILES IDX 6 1 2 2 1 3 3 5 4 6 5 7 7 8 8 9 14 10 9 11 13 12 11 13 10 14
REMARK SMILES IDX 12 15 15 16 16 18 17 19 22 20 18 21 21 22 19 23 20 24
REMARK H PARENT 1 4 15 17
ROOT
ATOM      1  N   UNL     1      46.039 131.632  20.749  1.00  0.00    -0.626 NA
ENDROOT
BRANCH   1   2
ATOM      2  C   UNL     1      46.507 132.543  21.751  1.00  0.00     0.012 C 
BRANCH   2   3
ATOM      3  O   UNL     1      45.783 132.748  22.927  1.00  0.00    -0.531 OA
ATOM      4  H   UNL     1      45.895 133.585  23.484  1.00  0.00     0.290 HD
ENDBRANCH   2   3
BRANCH   2   5
ATOM      5  C   UNL     1      47.672 133.165  21.566  1.00  0.00     0.028 C 
BRANCH   5   6
ATOM      6  C   UNL     1      47.981 134.486  22.200  1.00  0.00     0.244 C 
ATOM      7  F   UNL     1      47.768 135.508  21.292  1.00  0.00    -0.247 F 
ENDBRANCH   5   6
ENDBRANCH   2   5
ENDBRANCH   1   2
BRANCH   1   8
ATOM      8  C   UNL     1      44.786 131.720  20.058  1.00  0.00    -0.107 A 
ATOM      9  C   UNL     1      43.688 132.370  20.649  1.00  0.00     0.028 A 
ATOM     10  C   UNL     1      44.681 131.250  18.731  1.00  0.00     0.027 A 
ATOM     11  C   UNL     1      42.498 132.538  19.937  1.00  0.00     0.157 A 
ATOM     12  C   UNL     1      43.490 131.449  18.017  1.00  0.00     0.067 A 
ATOM     13  C   UNL     1      42.400 132.081  18.621  1.00  0.00     0.160 A 
ATOM     14  F   UNL     1      41.446 133.166  20.519  1.00  0.00    -0.204 F 
ATOM     15  F   UNL     1      41.249 132.256  17.925  1.00  0.00    -0.204 F 
BRANCH  10  16
ATOM     16  N   UNL     1      45.783 130.597  18.078  1.00  0.00    -0.356 N 
ATOM     17  H   UNL     1      46.471 130.089  18.679  1.00  0.00     0.166 HD
BRANCH  16  18
ATOM     18  C   UNL     1      46.049 130.681  16.666  1.00  0.00     0.039 A 
ATOM     19  C   UNL     1      46.311 129.529  15.900  1.00  0.00     0.029 A 
ATOM     20  C   UNL     1      46.007 131.930  16.029  1.00  0.00     0.029 A 
ATOM     21  C   UNL     1      46.563 129.636  14.529  1.00  0.00     0.041 A 
ATOM     22  C   UNL     1      46.258 132.034  14.658  1.00  0.00     0.041 A 
ATOM     23  C   UNL     1      46.539 130.887  13.908  1.00  0.00     0.123 A 
ATOM     24  F   UNL     1      46.782 130.990  12.578  1.00  0.00    -0.207 F 
ENDBRANCH  16  18
ENDBRANCH  10  16
ENDBRANCH   1   8
TORSDOF 7
ENDMDL
MODEL 3
REMARK VINA RESULT:      -6.3      2.378      2.890
REMARK SMILES O/C(=C\CF)[N-]c1cc(F)c(F)cc1Nc1ccc(F)cc1
REMARK SMILES IDX 6 1 2 2 1 3 3 5 4 6 5 7 7 8 8 9 14 10 9 11 13 12 11 13 10 14
REMARK SMILES IDX 12 15 15 16 16 18 17 19 22 20 18 21 21 22 19 23 20 24
REMARK H PARENT 1 4 15 17
ROOT
ATOM      1  N   UNL     1      45.252 131.434  21.222  1.00  0.00    -0.626 NA
ENDROOT
BRANCH   1   2
ATOM      2  C   UNL     1      46.529 132.079  21.146  1.00  0.00     0.012 C 
BRANCH   2   3
ATOM      3  O   UNL     1      47.602 131.469  20.491  1.00  0.00    -0.531 OA
ATOM      4  H   UNL     1      47.748 131.572  19.495  1.00  0.00     0.290 HD
ENDBRANCH   2   3
BRANCH   2   5
ATOM      5  C   UNL     1      46.672 133.296  21.673  1.00  0.00     0.028 C 
BRANCH   5   6
ATOM      6  C   UNL     1      48.016 133.918  21.892  1.00  0.00     0.244 C 
ATOM      7  F   UNL     1      47.885 135.289  22.030  1.00  0.00    -0.247 F 
ENDBRANCH   5   6
ENDBRANCH   2   5
ENDBRANCH   1   2
BRANCH   1   8
ATOM      8  C   UNL     1      44.130 131.697  20.369  1.00  0.00    -0.107 A 
ATOM      9  C   UNL     1      42.990 132.351  20.868  1.00  0.00     0.028 A 
ATOM     10  C   UNL     1      44.211 131.398  18.991  1.00  0.00     0.027 A 
ATOM     11  C   UNL     1      41.939 132.690  20.013  1.00  0.00     0.157 A 
ATOM     12  C   UNL     1      43.161 131.769  18.139  1.00  0.00     0.067 A 
ATOM     13  C   UNL     1      42.025 132.403  18.648  1.00  0.00     0.160 A 
ATOM     14  F   UNL     1      40.843 133.321  20.506  1.00  0.00    -0.204 F 
ATOM     15  F   UNL     1      41.011 132.744  17.816  1.00  0.00    -0.204 F 
BRANCH  10  16
ATOM     16  N   UNL     1      45.366 130.749  18.432  1.00  0.00    -0.356 N 
ATOM     17  H   UNL     1      46.019 130.267  19.091  1.00  0.00     0.166 HD
BRANCH  16  18
ATOM     18  C   UNL     1      45.726 130.802  17.040  1.00  0.00     0.039 A 
ATOM     19  C   UNL     1      45.656 132.004  16.309  1.00  0.00     0.029 A 
ATOM     20  C   UNL     1      46.196 129.642  16.405  1.00  0.00     0.029 A 
ATOM     21  C   UNL     1      46.015 132.029  14.959  1.00  0.00     0.041 A 
ATOM     22  C   UNL     1      46.555 129.672  15.054  1.00  0.00     0.041 A 
ATOM     23  C   UNL     1      46.461 130.864  14.329  1.00  0.00     0.123 A 
ATOM     24  F   UNL     1      46.811 130.891  13.020  1.00  0.00    -0.207 F 
ENDBRANCH  16  18
ENDBRANCH  10  16
ENDBRANCH   1   8
TORSDOF 7
ENDMDL
MODEL 4
REMARK VINA RESULT:      -6.2      1.019      1.566
REMARK SMILES O/C(=C\CF)[N-]c1cc(F)c(F)cc1Nc1ccc(F)cc1
REMARK SMILES IDX 6 1 2 2 1 3 3 5 4 6 5 7 7 8 8 9 14 10 9 11 13 12 11 13 10 14
REMARK SMILES IDX 12 15 15 16 16 18 17 19 22 20 18 21 21 22 19 23 20 24
REMARK H PARENT 1 4 15 17
ROOT
ATOM      1  N   UNL     1      45.126 129.735  21.747  1.00  0.00    -0.626 NA
ENDROOT
BRANCH   1   2
ATOM      2  C   UNL     1      44.870 129.013  22.958  1.00  0.00     0.012 C 
BRANCH   2   3
ATOM      3  O   UNL     1      44.211 129.620  24.029  1.00  0.00    -0.531 OA
ATOM      4  H   UNL     1      44.491 130.524  24.385  1.00  0.00     0.290 HD
ENDBRANCH   2   3
BRANCH   2   5
ATOM      5  C   UNL     1      45.232 127.731  23.035  1.00  0.00     0.028 C 
BRANCH   5   6
ATOM      6  C   UNL     1      44.348 126.622  22.555  1.00  0.00     0.244 C 
ATOM      7  F   UNL     1      43.231 126.523  23.366  1.00  0.00    -0.247 F 
ENDBRANCH   5   6
ENDBRANCH   2   5
ENDBRANCH   1   2
BRANCH   1   8
ATOM      8  C   UNL     1      44.222 130.651  21.113  1.00  0.00    -0.107 A 
ATOM      9  C   UNL     1      43.187 131.257  21.846  1.00  0.00     0.028 A 
ATOM     10  C   UNL     1      44.437 131.032  19.771  1.00  0.00     0.027 A 
ATOM     11  C   UNL     1      42.368 132.219  21.250  1.00  0.00     0.157 A 
ATOM     12  C   UNL     1      43.626 132.019  19.193  1.00  0.00     0.067 A 
ATOM     13  C   UNL     1      42.589 132.602  19.925  1.00  0.00     0.160 A 
ATOM     14  F   UNL     1      41.372 132.796  21.968  1.00  0.00    -0.204 F 
ATOM     15  F   UNL     1      41.802 133.546  19.351  1.00  0.00    -0.204 F 
BRANCH  10  16
ATOM     16  N   UNL     1      45.496 130.455  18.988  1.00  0.00    -0.356 N 
ATOM     17  H   UNL     1      46.269 129.970  19.499  1.00  0.00     0.166 HD
BRANCH  16  18
ATOM     18  C   UNL     1      45.606 130.584  17.559  1.00  0.00     0.039 A 
ATOM     19  C   UNL     1      45.719 129.454  16.727  1.00  0.00     0.029 A 
ATOM     20  C   UNL     1      45.559 131.859  16.976  1.00  0.00     0.029 A 
ATOM     21  C   UNL     1      45.822 129.606  15.341  1.00  0.00     0.041 A 
ATOM     22  C   UNL     1      45.660 132.008  15.590  1.00  0.00     0.041 A 
ATOM     23  C   UNL     1      45.795 130.882  14.772  1.00  0.00     0.123 A 
ATOM     24  F   UNL     1      45.893 131.029  13.428  1.00  0.00    -0.207 F 
ENDBRANCH  16  18
ENDBRANCH  10  16
ENDBRANCH   1   8
TORSDOF 7
ENDMDL
MODEL 5
REMARK VINA RESULT:      -6.1      1.543      2.011
REMARK SMILES O/C(=C\CF)[N-]c1cc(F)c(F)cc1Nc1ccc(F)cc1
REMARK SMILES IDX 6 1 2 2 1 3 3 5 4 6 5 7 7 8 8 9 14 10 9 11 13 12 11 13 10 14
REMARK SMILES IDX 12 15 15 16 16 18 17 19 22 20 18 21 21 22 19 23 20 24
REMARK H PARENT 1 4 15 17
ROOT
ATOM      1  N   UNL     1      45.627 129.470  21.655  1.00  0.00    -0.626 NA
ENDROOT
BRANCH   1   2
ATOM      2  C   UNL     1      45.311 128.207  22.252  1.00  0.00     0.012 C 
BRANCH   2   3
ATOM      3  O   UNL     1      45.701 127.010  21.648  1.00  0.00    -0.531 OA
ATOM      4  H   UNL     1      45.530 126.112  22.081  1.00  0.00     0.290 HD
ENDBRANCH   2   3
BRANCH   2   5
ATOM      5  C   UNL     1      44.672 128.187  23.424  1.00  0.00     0.028 C 
BRANCH   5   6
ATOM      6  C   UNL     1      44.351 126.910  24.136  1.00  0.00     0.244 C 
ATOM      7  F   UNL     1      45.517 126.304  24.568  1.00  0.00    -0.247 F 
ENDBRANCH   5   6
ENDBRANCH   2   5
ENDBRANCH   1   2
BRANCH   1   8
ATOM      8  C   UNL     1      44.677 130.411  21.136  1.00  0.00    -0.107 A 
ATOM      9  C   UNL     1      43.694 130.968  21.972  1.00  0.00     0.028 A 
ATOM     10  C   UNL     1      44.795 130.866  19.805  1.00  0.00     0.027 A 
ATOM     11  C   UNL     1      42.830 131.954  21.488  1.00  0.00     0.157 A 
ATOM     12  C   UNL     1      43.941 131.875  19.340  1.00  0.00     0.067 A 
ATOM     13  C   UNL     1      42.955 132.410  20.173  1.00  0.00     0.160 A 
ATOM     14  F   UNL     1      41.884 132.484  22.304  1.00  0.00    -0.204 F 
ATOM     15  F   UNL     1      42.126 133.376  19.707  1.00  0.00    -0.204 F 
BRANCH  10  16
ATOM     16  N   UNL     1      45.799 130.340  18.919  1.00  0.00    -0.356 N 
ATOM     17  H   UNL     1      46.613 129.844  19.348  1.00  0.00     0.166 HD
BRANCH  16  18
ATOM     18  C   UNL     1      45.800 130.536  17.494  1.00  0.00     0.039 A 
ATOM     19  C   UNL     1      46.270 129.540  16.617  1.00  0.00     0.029 A 
ATOM     20  C   UNL     1      45.286 131.728  16.961  1.00  0.00     0.029 A 
ATOM     21  C   UNL     1      46.258 129.753  15.236  1.00  0.00     0.041 A 
ATOM     22  C   UNL     1      45.274 131.938  15.579  1.00  0.00     0.041 A 
ATOM     23  C   UNL     1      45.763 130.952  14.716  1.00  0.00     0.123 A 
ATOM     24  F   UNL     1      45.750 131.158  13.376  1.00  0.00    -0.207 F 
ENDBRANCH  16  18
ENDBRANCH  10  16
ENDBRANCH   1   8
TORSDOF 7
ENDMDL
MODEL 6
REMARK VINA RESULT:      -6.1      2.634      6.790
REMARK SMILES O/C(=C\CF)[N-]c1cc(F)c(F)cc1Nc1ccc(F)cc1
REMARK SMILES IDX 6 1 2 2 1 3 3 5 4 6 5 7 7 8 8 9 14 10 9 11 13 12 11 13 10 14
REMARK SMILES IDX 12 15 15 16 16 18 17 19 22 20 18 21 21 22 19 23 20 24
REMARK H PARENT 1 4 15 17
ROOT
ATOM      1  N   UNL     1      46.608 130.117  16.451  1.00  0.00    -0.626 NA
ENDROOT
BRANCH   1   2
ATOM      2  C   UNL     1      46.874 129.341  15.276  1.00  0.00     0.012 C 
BRANCH   2   3
ATOM      3  O   UNL     1      46.116 128.208  14.979  1.00  0.00    -0.531 OA
ATOM      4  H   UNL     1      45.292 128.255  14.394  1.00  0.00     0.290 HD
ENDBRANCH   2   3
BRANCH   2   5
ATOM      5  C   UNL     1      47.835 129.742  14.441  1.00  0.00     0.028 C 
BRANCH   5   6
ATOM      6  C   UNL     1      47.533 130.475  13.171  1.00  0.00     0.244 C 
ATOM      7  F   UNL     1      47.788 131.825  13.333  1.00  0.00    -0.247 F 
ENDBRANCH   5   6
ENDBRANCH   2   5
ENDBRANCH   1   2
BRANCH   1   8
ATOM      8  C   UNL     1      45.388 130.816  16.732  1.00  0.00    -0.107 A 
ATOM      9  C   UNL     1      44.527 131.200  15.689  1.00  0.00     0.028 A 
ATOM     10  C   UNL     1      44.991 131.025  18.071  1.00  0.00     0.027 A 
ATOM     11  C   UNL     1      43.295 131.796  15.971  1.00  0.00     0.157 A 
ATOM     12  C   UNL     1      43.740 131.598  18.341  1.00  0.00     0.067 A 
ATOM     13  C   UNL     1      42.900 131.992  17.296  1.00  0.00     0.160 A 
ATOM     14  F   UNL     1      42.474 132.162  14.956  1.00  0.00    -0.204 F 
ATOM     15  F   UNL     1      41.699 132.558  17.571  1.00  0.00    -0.204 F 
BRANCH  10  16
ATOM     16  N   UNL     1      45.828 130.631  19.171  1.00  0.00    -0.356 N 
ATOM     17  H   UNL     1      46.835 130.434  18.969  1.00  0.00     0.166 HD
BRANCH  16  18
ATOM     18  C   UNL     1      45.349 130.399  20.508  1.00  0.00     0.039 A 
ATOM     19  C   UNL     1      45.388 129.117  21.090  1.00  0.00     0.029 A 
ATOM     20  C   UNL     1      44.869 131.479  21.265  1.00  0.00     0.029 A 
ATOM     21  C   UNL     1      44.919 128.919  22.391  1.00  0.00     0.041 A 
ATOM     22  C   UNL     1      44.402 131.277  22.567  1.00  0.00     0.041 A 
ATOM     23  C   UNL     1      44.423 129.997  23.130  1.00  0.00     0.123 A 
ATOM     24  F   UNL     1      43.970 129.804  24.393  1.00  0.00    -0.207 F 
ENDBRANCH  16  18
ENDBRANCH  10  16
ENDBRANCH   1   8
TORSDOF 7
ENDMDL
MODEL 7
REMARK VINA RESULT:      -6.0      2.134      6.539
REMARK SMILES O/C(=C\CF)[N-]c1cc(F)c(F)cc1Nc1ccc(F)cc1
REMARK SMILES IDX 6 1 2 2 1 3 3 5 4 6 5 7 7 8 8 9 14 10 9 11 13 12 11 13 10 14
REMARK SMILES IDX 12 15 15 16 16 18 17 19 22 20 18 21 21 22 19 23 20 24
REMARK H PARENT 1 4 15 17
ROOT
ATOM      1  N   UNL     1      45.591 130.641  19.470  1.00  0.00    -0.626 NA
ENDROOT
BRANCH   1   2
ATOM      2  C   UNL     1      45.712 130.692  18.043  1.00  0.00     0.012 C 
BRANCH   2   3
ATOM      3  O   UNL     1      46.577 129.831  17.365  1.00  0.00    -0.531 OA
ATOM      4  H   UNL     1      47.563 130.035  17.264  1.00  0.00     0.290 HD
ENDBRANCH   2   3
BRANCH   2   5
ATOM      5  C   UNL     1      44.950 131.549  17.360  1.00  0.00     0.028 C 
BRANCH   5   6
ATOM      6  C   UNL     1      44.943 131.592  15.863  1.00  0.00     0.244 C 
ATOM      7  F   UNL     1      45.992 132.371  15.408  1.00  0.00    -0.247 F 
ENDBRANCH   5   6
ENDBRANCH   2   5
ENDBRANCH   1   2
BRANCH   1   8
ATOM      8  C   UNL     1      44.529 131.220  20.240  1.00  0.00    -0.107 A 
ATOM      9  C   UNL     1      43.638 132.136  19.654  1.00  0.00     0.028 A 
ATOM     10  C   UNL     1      44.306 130.786  21.565  1.00  0.00     0.027 A 
ATOM     11  C   UNL     1      42.549 132.625  20.379  1.00  0.00     0.157 A 
ATOM     12  C   UNL     1      43.193 131.263  22.272  1.00  0.00     0.067 A 
ATOM     13  C   UNL     1      42.324 132.188  21.686  1.00  0.00     0.160 A 
ATOM     14  F   UNL     1      41.696 133.510  19.803  1.00  0.00    -0.204 F 
ATOM     15  F   UNL     1      41.259 132.652  22.385  1.00  0.00    -0.204 F 
BRANCH  10  16
ATOM     16  N   UNL     1      45.178 129.835  22.199  1.00  0.00    -0.356 N 
ATOM     17  H   UNL     1      46.192 130.080  22.274  1.00  0.00     0.166 HD
BRANCH  16  18
ATOM     18  C   UNL     1      44.762 128.533  22.648  1.00  0.00     0.039 A 
ATOM     19  C   UNL     1      45.307 127.357  22.096  1.00  0.00     0.029 A 
ATOM     20  C   UNL     1      43.824 128.429  23.686  1.00  0.00     0.029 A 
ATOM     21  C   UNL     1      44.888 126.104  22.551  1.00  0.00     0.041 A 
ATOM     22  C   UNL     1      43.408 127.174  24.141  1.00  0.00     0.041 A 
ATOM     23  C   UNL     1      43.937 126.011  23.571  1.00  0.00     0.123 A 
ATOM     24  F   UNL     1      43.533 124.795  24.014  1.00  0.00    -0.207 F 
ENDBRANCH  16  18
ENDBRANCH  10  16
ENDBRANCH   1   8
TORSDOF 7
ENDMDL
MODEL 8
REMARK VINA RESULT:      -5.8      1.256      1.376
REMARK SMILES O/C(=C\CF)[N-]c1cc(F)c(F)cc1Nc1ccc(F)cc1
REMARK SMILES IDX 6 1 2 2 1 3 3 5 4 6 5 7 7 8 8 9 14 10 9 11 13 12 11 13 10 14
REMARK SMILES IDX 12 15 15 16 16 18 17 19 22 20 18 21 21 22 19 23 20 24
REMARK H PARENT 1 4 15 17
ROOT
ATOM      1  N   UNL     1      45.087 131.147  21.017  1.00  0.00    -0.626 NA
ENDROOT
BRANCH   1   2
ATOM      2  C   UNL     1      45.562 131.937  22.114  1.00  0.00     0.012 C 
BRANCH   2   3
ATOM      3  O   UNL     1      46.537 132.917  21.921  1.00  0.00    -0.531 OA
ATOM      4  H   UNL     1      46.452 133.842  22.324  1.00  0.00     0.290 HD
ENDBRANCH   2   3
BRANCH   2   5
ATOM      5  C   UNL     1      45.028 131.753  23.323  1.00  0.00     0.028 C 
BRANCH   5   6
ATOM      6  C   UNL     1      44.035 130.667  23.600  1.00  0.00     0.244 C 
ATOM      7  F   UNL     1      44.688 129.455  23.737  1.00  0.00    -0.247 F 
ENDBRANCH   5   6
ENDBRANCH   2   5
ENDBRANCH   1   2
BRANCH   1   8
ATOM      8  C   UNL     1      44.039 131.519  20.111  1.00  0.00    -0.107 A 
ATOM      9  C   UNL     1      42.877 132.153  20.584  1.00  0.00     0.028 A 
ATOM     10  C   UNL     1      44.220 131.347  18.721  1.00  0.00     0.027 A 
ATOM     11  C   UNL     1      41.902 132.599  19.689  1.00  0.00     0.157 A 
ATOM     12  C   UNL     1      43.246 131.825  17.833  1.00  0.00     0.067 A 
ATOM     13  C   UNL     1      42.087 132.438  18.314  1.00  0.00     0.160 A 
ATOM     14  F   UNL     1      40.784 133.210  20.157  1.00  0.00    -0.204 F 
ATOM     15  F   UNL     1      41.146 132.883  17.445  1.00  0.00    -0.204 F 
BRANCH  10  16
ATOM     16  N   UNL     1      45.401 130.722  18.190  1.00  0.00    -0.356 N 
ATOM     17  H   UNL     1      46.063 130.281  18.869  1.00  0.00     0.166 HD
BRANCH  16  18
ATOM     18  C   UNL     1      45.773 130.750  16.801  1.00  0.00     0.039 A 
ATOM     19  C   UNL     1      45.965 131.966  16.117  1.00  0.00     0.029 A 
ATOM     20  C   UNL     1      45.989 129.542  16.121  1.00  0.00     0.029 A 
ATOM     21  C   UNL     1      46.330 131.966  14.767  1.00  0.00     0.041 A 
ATOM     22  C   UNL     1      46.355 129.545  14.771  1.00  0.00     0.041 A 
ATOM     23  C   UNL     1      46.522 130.757  14.093  1.00  0.00     0.123 A 
ATOM     24  F   UNL     1      46.877 130.757  12.785  1.00  0.00    -0.207 F 
ENDBRANCH  16  18
ENDBRANCH  10  16
ENDBRANCH   1   8
TORSDOF 7
ENDMDL
MODEL 9
REMARK VINA RESULT:      -5.6      2.771      6.872
REMARK SMILES O/C(=C\CF)[N-]c1cc(F)c(F)cc1Nc1ccc(F)cc1
REMARK SMILES IDX 6 1 2 2 1 3 3 5 4 6 5 7 7 8 8 9 14 10 9 11 13 12 11 13 10 14
REMARK SMILES IDX 12 15 15 16 16 18 17 19 22 20 18 21 21 22 19 23 20 24
REMARK H PARENT 1 4 15 17
ROOT
ATOM      1  N   UNL     1      46.733 129.773  16.299  1.00  0.00    -0.626 NA
ENDROOT
BRANCH   1   2
ATOM      2  C   UNL     1      47.432 129.695  15.051  1.00  0.00     0.012 C 
BRANCH   2   3
ATOM      3  O   UNL     1      48.613 128.960  14.935  1.00  0.00    -0.531 OA
ATOM      4  H   UNL     1      48.661 128.110  14.387  1.00  0.00     0.290 HD
ENDBRANCH   2   3
BRANCH   2   5
ATOM      5  C   UNL     1      46.914 130.303  13.981  1.00  0.00     0.028 C 
BRANCH   5   6
ATOM      6  C   UNL     1      47.684 131.312  13.187  1.00  0.00     0.244 C 
ATOM      7  F   UNL     1      47.581 131.029  11.836  1.00  0.00    -0.247 F 
ENDBRANCH   5   6
ENDBRANCH   2   5
ENDBRANCH   1   2
BRANCH   1   8
ATOM      8  C   UNL     1      45.556 130.552  16.551  1.00  0.00    -0.107 A 
ATOM      9  C   UNL     1      44.731 130.965  15.490  1.00  0.00     0.028 A 
ATOM     10  C   UNL     1      45.160 130.816  17.881  1.00  0.00     0.027 A 
ATOM     11  C   UNL     1      43.537 131.643  15.746  1.00  0.00     0.157 A 
ATOM     12  C   UNL     1      43.945 131.472  18.124  1.00  0.00     0.067 A 
ATOM     13  C   UNL     1      43.142 131.894  17.062  1.00  0.00     0.160 A 
ATOM     14  F   UNL     1      42.749 132.036  14.713  1.00  0.00    -0.204 F 
ATOM     15  F   UNL     1      41.975 132.539  17.310  1.00  0.00    -0.204 F 
BRANCH  10  16
ATOM     16  N   UNL     1      45.961 130.396  18.999  1.00  0.00    -0.356 N 
ATOM     17  H   UNL     1      46.942 130.090  18.805  1.00  0.00     0.166 HD
BRANCH  16  18
ATOM     18  C   UNL     1      45.468 130.279  20.346  1.00  0.00     0.039 A 
ATOM     19  C   UNL     1      44.931 131.388  21.028  1.00  0.00     0.029 A 
ATOM     20  C   UNL     1      45.485 129.028  20.980  1.00  0.00     0.029 A 
ATOM     21  C   UNL     1      44.456 131.248  22.336  1.00  0.00     0.041 A 
ATOM     22  C   UNL     1      45.008 128.892  22.288  1.00  0.00     0.041 A 
ATOM     23  C   UNL     1      44.497 130.002  22.967  1.00  0.00     0.123 A 
ATOM     24  F   UNL     1      44.035 129.867  24.234  1.00  0.00    -0.207 F 
ENDBRANCH  16  18
ENDBRANCH  10  16
ENDBRANCH   1   8
TORSDOF 7
ENDMDL


