REMARK SMILES Cc1ccc(-c2cc(C=O)c3cn(C)nc3c2F)cc1
REMARK SMILES IDX 6 1 7 2 8 3 11 4 12 5 13 6 14 7 15 8 16 9 17 10 18 11 5 12
REMARK SMILES IDX 2 13 3 14 20 15 4 16 19 17 1 18 9 19 10 20
REMARK H PARENT
ROOT
ATOM      1  C   UNL     1       0.025  -0.662  -0.035  1.00  0.00     0.021 A 
ATOM      2  C   UNL     1      -1.333  -1.058  -0.173  1.00  0.00     0.024 A 
ATOM      3  C   UNL     1      -2.377  -0.105  -0.175  1.00  0.00     0.026 A 
ATOM      4  C   UNL     1      -2.012   1.238  -0.041  1.00  0.00     0.033 A 
ATOM      5  C   UNL     1      -2.744   2.405  -0.001  1.00  0.00     0.118 A 
ATOM      6  N   UNL     1      -1.866   3.425   0.136  1.00  0.00    -0.274 N 
ATOM      7  C   UNL     1      -2.218   4.830   0.282  1.00  0.00     0.173 C 
ATOM      8  N   UNL     1      -0.621   2.966   0.203  1.00  0.00    -0.170 NA
ATOM      9  C   UNL     1      -0.705   1.629   0.089  1.00  0.00     0.129 A 
ATOM     10  C   UNL     1       0.341   0.712   0.097  1.00  0.00     0.159 A 
ATOM     11  F   UNL     1       1.624   1.145   0.192  1.00  0.00    -0.204 F 
ENDROOT
BRANCH   1  12
ATOM     12  C   UNL     1       1.096  -1.688  -0.033  1.00  0.00    -0.015 A 
ATOM     13  C   UNL     1       3.111  -3.659  -0.017  1.00  0.00    -0.051 A 
ATOM     14  C   UNL     1       2.106  -3.682  -0.996  1.00  0.00     0.004 A 
ATOM     15  C   UNL     1       3.115  -2.635   0.941  1.00  0.00     0.004 A 
ATOM     16  C   UNL     1       1.102  -2.709  -0.999  1.00  0.00     0.009 A 
ATOM     17  C   UNL     1       2.112  -1.661   0.938  1.00  0.00     0.009 A 
ATOM     18  C   UNL     1       4.210  -4.679  -0.038  1.00  0.00     0.044 C 
ENDBRANCH   1  12
BRANCH   3  19
ATOM     19  C   UNL     1      -3.790  -0.508  -0.312  1.00  0.00     0.260 C 
ATOM     20  O   UNL     1      -4.109  -1.720  -0.433  1.00  0.00    -0.298 OA
ENDBRANCH   3  19
TORSDOF 2


