MODEL 1
REMARK VINA RESULT:      -8.5      0.000      0.000
REMARK SMILES Cc1cc(O[C@@H]2C=CC(O)=CO2)ccc1/C(O)=N/[C@H]1CC12CCC2
REMARK SMILES IDX 4 1 13 2 14 3 15 4 2 5 1 6 3 7 5 8 6 9 9 10 11 11 8 12 12 13
REMARK SMILES IDX 7 14 10 15 16 17 18 18 19 19 20 20 21 21 22 22 24 23 23 24
REMARK SMILES IDX 17 25
REMARK H PARENT 10 16 17 26
ROOT
ATOM      1  C   UNL     1      44.257 131.614  17.306  1.00  0.00     0.124 A 
ATOM      2  C   UNL     1      45.413 130.948  17.718  1.00  0.00     0.047 A 
ATOM      3  C   UNL     1      45.624 130.659  19.066  1.00  0.00     0.018 A 
ATOM      4  C   UNL     1      44.681 131.028  20.039  1.00  0.00     0.039 A 
ATOM      5  C   UNL     1      43.490 131.685  19.629  1.00  0.00    -0.035 A 
ATOM      6  C   UNL     1      42.416 132.076  20.611  1.00  0.00     0.045 C 
ATOM      7  C   UNL     1      43.299 131.982  18.267  1.00  0.00     0.050 A 
ENDROOT
BRANCH   1   8
ATOM      8  O   UNL     1      44.102 131.887  15.938  1.00  0.00    -0.451 OA
BRANCH   8   9
ATOM      9  C   UNL     1      44.737 131.169  14.883  1.00  0.00     0.388 C 
ATOM     10  C   UNL     1      47.145 129.700  14.368  1.00  0.00     0.150 C 
ATOM     11  C   UNL     1      47.127 131.023  14.198  1.00  0.00     0.238 C 
ATOM     12  C   UNL     1      45.987 129.035  14.989  1.00  0.00     0.053 C 
ATOM     13  O   UNL     1      46.007 131.767  14.588  1.00  0.00    -0.455 OA
ATOM     14  C   UNL     1      44.882 129.725  15.287  1.00  0.00     0.066 C 
BRANCH  10  15
ATOM     15  O   UNL     1      48.264 128.965  13.985  1.00  0.00    -0.505 OA
ATOM     16  H   UNL     1      48.750 129.163  13.120  1.00  0.00     0.293 HD
ENDBRANCH  10  15
ENDBRANCH   8   9
ENDBRANCH   1   8
BRANCH   4  17
ATOM     17  C   UNL     1      44.978 130.723  21.459  1.00  0.00     0.214 C 
BRANCH  17  18
ATOM     18  N   UNL     1      45.034 129.489  21.860  1.00  0.00    -0.247 NA
BRANCH  18  19
ATOM     19  C   UNL     1      44.724 129.081  23.224  1.00  0.00     0.116 C 
ATOM     20  C   UNL     1      43.345 128.423  23.350  1.00  0.00     0.037 C 
ATOM     21  C   UNL     1      44.617 127.585  23.403  1.00  0.00    -0.005 C 
ATOM     22  C   UNL     1      44.834 126.742  24.625  1.00  0.00     0.009 C 
ATOM     23  C   UNL     1      44.741 126.450  22.428  1.00  0.00     0.009 C 
ATOM     24  C   UNL     1      44.964 125.546  23.659  1.00  0.00     0.001 C 
ENDBRANCH  18  19
ENDBRANCH  17  18
BRANCH  17  25
ATOM     25  O   UNL     1      45.176 131.759  22.376  1.00  0.00    -0.493 OA
ATOM     26  H   UNL     1      44.795 132.685  22.225  1.00  0.00     0.295 HD
ENDBRANCH  17  25
ENDBRANCH   4  17
TORSDOF 7
ENDMDL
MODEL 2
REMARK VINA RESULT:      -8.3      2.320      7.892
REMARK SMILES Cc1cc(O[C@@H]2C=CC(O)=CO2)ccc1/C(O)=N/[C@H]1CC12CCC2
REMARK SMILES IDX 4 1 13 2 14 3 15 4 2 5 1 6 3 7 5 8 6 9 9 10 11 11 8 12 12 13
REMARK SMILES IDX 7 14 10 15 16 17 18 18 19 19 20 20 21 21 22 22 24 23 23 24
REMARK SMILES IDX 17 25
REMARK H PARENT 10 16 17 26
ROOT
ATOM      1  C   UNL     1      44.662 130.849  21.508  1.00  0.00     0.124 A 
ATOM      2  C   UNL     1      45.556 130.437  20.519  1.00  0.00     0.047 A 
ATOM      3  C   UNL     1      45.280 130.664  19.171  1.00  0.00     0.018 A 
ATOM      4  C   UNL     1      44.098 131.313  18.777  1.00  0.00     0.039 A 
ATOM      5  C   UNL     1      43.192 131.758  19.776  1.00  0.00    -0.035 A 
ATOM      6  C   UNL     1      41.923 132.496  19.431  1.00  0.00     0.045 C 
ATOM      7  C   UNL     1      43.479 131.508  21.131  1.00  0.00     0.050 A 
ENDROOT
BRANCH   1   8
ATOM      8  O   UNL     1      44.988 130.585  22.847  1.00  0.00    -0.451 OA
BRANCH   8   9
ATOM      9  C   UNL     1      44.179 129.841  23.756  1.00  0.00     0.388 C 
ATOM     10  C   UNL     1      42.610 127.443  23.837  1.00  0.00     0.150 C 
ATOM     11  C   UNL     1      42.058 128.581  23.416  1.00  0.00     0.238 C 
ATOM     12  C   UNL     1      44.061 127.390  24.083  1.00  0.00     0.053 C 
ATOM     13  O   UNL     1      42.849 129.720  23.229  1.00  0.00    -0.455 OA
ATOM     14  C   UNL     1      44.810 128.493  23.988  1.00  0.00     0.066 C 
BRANCH  10  15
ATOM     15  O   UNL     1      41.820 126.310  24.014  1.00  0.00    -0.505 OA
ATOM     16  H   UNL     1      40.978 126.341  24.575  1.00  0.00     0.293 HD
ENDBRANCH  10  15
ENDBRANCH   8   9
ENDBRANCH   1   8
BRANCH   4  17
ATOM     17  C   UNL     1      43.844 131.496  17.327  1.00  0.00     0.214 C 
BRANCH  17  18
ATOM     18  N   UNL     1      44.625 130.932  16.456  1.00  0.00    -0.247 NA
BRANCH  18  19
ATOM     19  C   UNL     1      45.032 131.581  15.217  1.00  0.00     0.116 C 
ATOM     20  C   UNL     1      46.344 132.363  15.356  1.00  0.00     0.037 C 
ATOM     21  C   UNL     1      46.306 131.024  14.627  1.00  0.00    -0.005 C 
ATOM     22  C   UNL     1      46.782 131.003  13.205  1.00  0.00     0.009 C 
ATOM     23  C   UNL     1      47.241 129.950  15.102  1.00  0.00     0.009 C 
ATOM     24  C   UNL     1      47.762 129.898  13.650  1.00  0.00     0.001 C 
ENDBRANCH  18  19
ENDBRANCH  17  18
BRANCH  17  25
ATOM     25  O   UNL     1      42.780 132.291  16.893  1.00  0.00    -0.493 OA
ATOM     26  H   UNL     1      42.533 132.363  15.914  1.00  0.00     0.295 HD
ENDBRANCH  17  25
ENDBRANCH   4  17
TORSDOF 7
ENDMDL
MODEL 3
REMARK VINA RESULT:      -7.7      2.059      7.922
REMARK SMILES Cc1cc(O[C@@H]2C=CC(O)=CO2)ccc1/C(O)=N/[C@H]1CC12CCC2
REMARK SMILES IDX 4 1 13 2 14 3 15 4 2 5 1 6 3 7 5 8 6 9 9 10 11 11 8 12 12 13
REMARK SMILES IDX 7 14 10 15 16 17 18 18 19 19 20 20 21 21 22 22 24 23 23 24
REMARK SMILES IDX 17 25
REMARK H PARENT 10 16 17 26
ROOT
ATOM      1  C   UNL     1      44.217 131.522  21.784  1.00  0.00     0.124 A 
ATOM      2  C   UNL     1      45.442 131.089  21.277  1.00  0.00     0.047 A 
ATOM      3  C   UNL     1      45.632 130.948  19.902  1.00  0.00     0.018 A 
ATOM      4  C   UNL     1      44.597 131.239  18.998  1.00  0.00     0.039 A 
ATOM      5  C   UNL     1      43.353 131.703  19.502  1.00  0.00    -0.035 A 
ATOM      6  C   UNL     1      42.210 132.072  18.591  1.00  0.00     0.045 C 
ATOM      7  C   UNL     1      43.174 131.827  20.893  1.00  0.00     0.050 A 
ENDROOT
BRANCH   1   8
ATOM      8  O   UNL     1      44.081 131.637  23.177  1.00  0.00    -0.451 OA
BRANCH   8   9
ATOM      9  C   UNL     1      43.450 130.675  24.020  1.00  0.00     0.388 C 
ATOM     10  C   UNL     1      42.940 127.855  24.130  1.00  0.00     0.150 C 
ATOM     11  C   UNL     1      42.093 128.656  23.483  1.00  0.00     0.238 C 
ATOM     12  C   UNL     1      44.217 128.400  24.623  1.00  0.00     0.053 C 
ATOM     13  O   UNL     1      42.408 130.007  23.294  1.00  0.00    -0.455 OA
ATOM     14  C   UNL     1      44.487 129.704  24.522  1.00  0.00     0.066 C 
BRANCH  10  15
ATOM     15  O   UNL     1      42.626 126.511  24.309  1.00  0.00    -0.505 OA
ATOM     16  H   UNL     1      42.770 125.836  23.568  1.00  0.00     0.293 HD
ENDBRANCH  10  15
ENDBRANCH   8   9
ENDBRANCH   1   8
BRANCH   4  17
ATOM     17  C   UNL     1      44.848 131.036  17.550  1.00  0.00     0.214 C 
BRANCH  17  18
ATOM     18  N   UNL     1      45.870 130.335  17.161  1.00  0.00    -0.247 NA
BRANCH  18  19
ATOM     19  C   UNL     1      45.880 129.564  15.925  1.00  0.00     0.116 C 
ATOM     20  C   UNL     1      44.923 130.124  14.865  1.00  0.00     0.037 C 
ATOM     21  C   UNL     1      46.429 130.322  14.739  1.00  0.00    -0.005 C 
ATOM     22  C   UNL     1      47.086 129.815  13.490  1.00  0.00     0.009 C 
ATOM     23  C   UNL     1      46.934 131.730  14.598  1.00  0.00     0.009 C 
ATOM     24  C   UNL     1      47.623 131.249  13.304  1.00  0.00     0.001 C 
ENDBRANCH  18  19
ENDBRANCH  17  18
BRANCH  17  25
ATOM     25  O   UNL     1      44.004 131.617  16.601  1.00  0.00    -0.493 OA
ATOM     26  H   UNL     1      44.006 132.614  16.423  1.00  0.00     0.295 HD
ENDBRANCH  17  25
ENDBRANCH   4  17
TORSDOF 7
ENDMDL
MODEL 4
REMARK VINA RESULT:      -7.6      1.567      2.059
REMARK SMILES Cc1cc(O[C@@H]2C=CC(O)=CO2)ccc1/C(O)=N/[C@H]1CC12CCC2
REMARK SMILES IDX 4 1 13 2 14 3 15 4 2 5 1 6 3 7 5 8 6 9 9 10 11 11 8 12 12 13
REMARK SMILES IDX 7 14 10 15 16 17 18 18 19 19 20 20 21 21 22 22 24 23 23 24
REMARK SMILES IDX 17 25
REMARK H PARENT 10 16 17 26
ROOT
ATOM      1  C   UNL     1      44.501 131.497  17.480  1.00  0.00     0.124 A 
ATOM      2  C   UNL     1      45.409 131.335  18.526  1.00  0.00     0.047 A 
ATOM      3  C   UNL     1      44.982 131.392  19.853  1.00  0.00     0.018 A 
ATOM      4  C   UNL     1      43.630 131.612  20.166  1.00  0.00     0.039 A 
ATOM      5  C   UNL     1      42.693 131.755  19.108  1.00  0.00    -0.035 A 
ATOM      6  C   UNL     1      41.221 131.954  19.367  1.00  0.00     0.045 C 
ATOM      7  C   UNL     1      43.143 131.709  17.776  1.00  0.00     0.050 A 
ENDROOT
BRANCH   1   8
ATOM      8  O   UNL     1      44.989 131.440  16.165  1.00  0.00    -0.451 OA
BRANCH   8   9
ATOM      9  C   UNL     1      46.343 131.176  15.805  1.00  0.00     0.388 C 
ATOM     10  C   UNL     1      47.848 129.751  13.823  1.00  0.00     0.150 C 
ATOM     11  C   UNL     1      47.439 129.120  14.924  1.00  0.00     0.238 C 
ATOM     12  C   UNL     1      47.370 131.118  13.553  1.00  0.00     0.053 C 
ATOM     13  O   UNL     1      46.580 129.760  15.824  1.00  0.00    -0.455 OA
ATOM     14  C   UNL     1      46.618 131.767  14.447  1.00  0.00     0.066 C 
BRANCH  10  15
ATOM     15  O   UNL     1      48.697 129.108  12.927  1.00  0.00    -0.505 OA
ATOM     16  H   UNL     1      48.484 129.069  11.938  1.00  0.00     0.293 HD
ENDBRANCH  10  15
ENDBRANCH   8   9
ENDBRANCH   1   8
BRANCH   4  17
ATOM     17  C   UNL     1      43.243 131.697  21.595  1.00  0.00     0.214 C 
BRANCH  17  18
ATOM     18  N   UNL     1      43.821 130.931  22.471  1.00  0.00    -0.247 NA
BRANCH  18  19
ATOM     19  C   UNL     1      43.972 129.493  22.291  1.00  0.00     0.116 C 
ATOM     20  C   UNL     1      44.835 128.844  23.380  1.00  0.00     0.037 C 
ATOM     21  C   UNL     1      43.320 128.671  23.378  1.00  0.00    -0.005 C 
ATOM     22  C   UNL     1      42.789 127.269  23.340  1.00  0.00     0.009 C 
ATOM     23  C   UNL     1      42.576 129.067  24.621  1.00  0.00     0.009 C 
ATOM     24  C   UNL     1      42.009 127.632  24.621  1.00  0.00     0.001 C 
ENDBRANCH  18  19
ENDBRANCH  17  18
BRANCH  17  25
ATOM     25  O   UNL     1      42.240 132.581  22.002  1.00  0.00    -0.493 OA
ATOM     26  H   UNL     1      41.264 132.314  22.012  1.00  0.00     0.295 HD
ENDBRANCH  17  25
ENDBRANCH   4  17
TORSDOF 7
ENDMDL
MODEL 5
REMARK VINA RESULT:      -7.3      2.294      7.847
REMARK SMILES Cc1cc(O[C@@H]2C=CC(O)=CO2)ccc1/C(O)=N/[C@H]1CC12CCC2
REMARK SMILES IDX 4 1 13 2 14 3 15 4 2 5 1 6 3 7 5 8 6 9 9 10 11 11 8 12 12 13
REMARK SMILES IDX 7 14 10 15 16 17 18 18 19 19 20 20 21 21 22 22 24 23 23 24
REMARK SMILES IDX 17 25
REMARK H PARENT 10 16 17 26
ROOT
ATOM      1  C   UNL     1      43.044 131.864  20.815  1.00  0.00     0.124 A 
ATOM      2  C   UNL     1      42.204 132.282  19.783  1.00  0.00     0.047 A 
ATOM      3  C   UNL     1      42.620 132.208  18.453  1.00  0.00     0.018 A 
ATOM      4  C   UNL     1      43.891 131.711  18.123  1.00  0.00     0.039 A 
ATOM      5  C   UNL     1      44.746 131.260  19.164  1.00  0.00    -0.035 A 
ATOM      6  C   UNL     1      46.108 130.677  18.883  1.00  0.00     0.045 C 
ATOM      7  C   UNL     1      44.317 131.354  20.501  1.00  0.00     0.050 A 
ENDROOT
BRANCH   1   8
ATOM      8  O   UNL     1      42.576 131.970  22.134  1.00  0.00    -0.451 OA
BRANCH   8   9
ATOM      9  C   UNL     1      43.112 131.267  23.253  1.00  0.00     0.388 C 
ATOM     10  C   UNL     1      43.678 128.584  24.090  1.00  0.00     0.150 C 
ATOM     11  C   UNL     1      42.466 129.100  24.296  1.00  0.00     0.238 C 
ATOM     12  C   UNL     1      44.653 129.330  23.277  1.00  0.00     0.053 C 
ATOM     13  O   UNL     1      42.132 130.349  23.760  1.00  0.00    -0.455 OA
ATOM     14  C   UNL     1      44.373 130.559  22.832  1.00  0.00     0.066 C 
BRANCH  10  15
ATOM     15  O   UNL     1      44.002 127.338  24.619  1.00  0.00    -0.505 OA
ATOM     16  H   UNL     1      43.673 126.483  24.188  1.00  0.00     0.293 HD
ENDBRANCH  10  15
ENDBRANCH   8   9
ENDBRANCH   1   8
BRANCH   4  17
ATOM     17  C   UNL     1      44.290 131.689  16.695  1.00  0.00     0.214 C 
BRANCH  17  18
ATOM     18  N   UNL     1      45.541 131.554  16.372  1.00  0.00    -0.247 NA
BRANCH  18  19
ATOM     19  C   UNL     1      46.163 130.261  16.120  1.00  0.00     0.116 C 
ATOM     20  C   UNL     1      45.439 129.453  15.037  1.00  0.00     0.037 C 
ATOM     21  C   UNL     1      46.770 130.135  14.744  1.00  0.00    -0.005 C 
ATOM     22  C   UNL     1      47.895 129.267  14.261  1.00  0.00     0.009 C 
ATOM     23  C   UNL     1      46.821 131.085  13.582  1.00  0.00     0.009 C 
ATOM     24  C   UNL     1      47.980 130.217  13.048  1.00  0.00     0.001 C 
ENDBRANCH  18  19
ENDBRANCH  17  18
BRANCH  17  25
ATOM     25  O   UNL     1      43.328 131.835  15.692  1.00  0.00    -0.493 OA
ATOM     26  H   UNL     1      42.484 131.276  15.677  1.00  0.00     0.295 HD
ENDBRANCH  17  25
ENDBRANCH   4  17
TORSDOF 7
ENDMDL
MODEL 6
REMARK VINA RESULT:      -7.2      2.412      7.884
REMARK SMILES Cc1cc(O[C@@H]2C=CC(O)=CO2)ccc1/C(O)=N/[C@H]1CC12CCC2
REMARK SMILES IDX 4 1 13 2 14 3 15 4 2 5 1 6 3 7 5 8 6 9 9 10 11 11 8 12 12 13
REMARK SMILES IDX 7 14 10 15 16 17 18 18 19 19 20 20 21 21 22 22 24 23 23 24
REMARK SMILES IDX 17 25
REMARK H PARENT 10 16 17 26
ROOT
ATOM      1  C   UNL     1      43.788 131.760  19.888  1.00  0.00     0.124 A 
ATOM      2  C   UNL     1      42.701 132.111  19.087  1.00  0.00     0.047 A 
ATOM      3  C   UNL     1      42.752 131.937  17.704  1.00  0.00     0.018 A 
ATOM      4  C   UNL     1      43.895 131.403  17.087  1.00  0.00     0.039 A 
ATOM      5  C   UNL     1      44.998 131.020  17.895  1.00  0.00    -0.035 A 
ATOM      6  C   UNL     1      46.243 130.404  17.307  1.00  0.00     0.045 C 
ATOM      7  C   UNL     1      44.937 131.216  19.287  1.00  0.00     0.050 A 
ENDROOT
BRANCH   1   8
ATOM      8  O   UNL     1      43.684 131.968  21.273  1.00  0.00    -0.451 OA
BRANCH   8   9
ATOM      9  C   UNL     1      44.335 131.183  22.269  1.00  0.00     0.388 C 
ATOM     10  C   UNL     1      44.220 128.555  23.412  1.00  0.00     0.150 C 
ATOM     11  C   UNL     1      43.441 129.523  23.897  1.00  0.00     0.238 C 
ATOM     12  C   UNL     1      44.994 128.798  22.183  1.00  0.00     0.053 C 
ATOM     13  O   UNL     1      43.378 130.764  23.254  1.00  0.00    -0.455 OA
ATOM     14  C   UNL     1      45.005 130.006  21.610  1.00  0.00     0.066 C 
BRANCH  10  15
ATOM     15  O   UNL     1      44.274 127.320  24.051  1.00  0.00    -0.505 OA
ATOM     16  H   UNL     1      43.430 126.804  24.268  1.00  0.00     0.293 HD
ENDBRANCH  10  15
ENDBRANCH   8   9
ENDBRANCH   1   8
BRANCH   4  17
ATOM     17  C   UNL     1      43.902 131.273  15.609  1.00  0.00     0.214 C 
BRANCH  17  18
ATOM     18  N   UNL     1      44.879 130.653  15.017  1.00  0.00    -0.247 NA
BRANCH  18  19
ATOM     19  C   UNL     1      45.692 131.265  13.975  1.00  0.00     0.116 C 
ATOM     20  C   UNL     1      46.960 131.931  14.522  1.00  0.00     0.037 C 
ATOM     21  C   UNL     1      47.035 130.601  13.782  1.00  0.00    -0.005 C 
ATOM     22  C   UNL     1      47.914 130.539  12.569  1.00  0.00     0.009 C 
ATOM     23  C   UNL     1      47.692 129.450  14.488  1.00  0.00     0.009 C 
ATOM     24  C   UNL     1      48.621 129.354  13.260  1.00  0.00     0.001 C 
ENDBRANCH  18  19
ENDBRANCH  17  18
BRANCH  17  25
ATOM     25  O   UNL     1      42.874 131.834  14.847  1.00  0.00    -0.493 OA
ATOM     26  H   UNL     1      41.976 131.379  14.745  1.00  0.00     0.295 HD
ENDBRANCH  17  25
ENDBRANCH   4  17
TORSDOF 7
ENDMDL
MODEL 7
REMARK VINA RESULT:      -6.9      1.802      2.715
REMARK SMILES Cc1cc(O[C@@H]2C=CC(O)=CO2)ccc1/C(O)=N/[C@H]1CC12CCC2
REMARK SMILES IDX 4 1 13 2 14 3 15 4 2 5 1 6 3 7 5 8 6 9 9 10 11 11 8 12 12 13
REMARK SMILES IDX 7 14 10 15 16 17 18 18 19 19 20 20 21 21 22 22 24 23 23 24
REMARK SMILES IDX 17 25
REMARK H PARENT 10 16 17 26
ROOT
ATOM      1  C   UNL     1      44.671 131.407  16.207  1.00  0.00     0.124 A 
ATOM      2  C   UNL     1      43.352 131.847  16.327  1.00  0.00     0.047 A 
ATOM      3  C   UNL     1      42.748 131.951  17.580  1.00  0.00     0.018 A 
ATOM      4  C   UNL     1      43.452 131.618  18.749  1.00  0.00     0.039 A 
ATOM      5  C   UNL     1      44.803 131.191  18.641  1.00  0.00    -0.035 A 
ATOM      6  C   UNL     1      45.633 130.854  19.853  1.00  0.00     0.045 C 
ATOM      7  C   UNL     1      45.392 131.078  17.368  1.00  0.00     0.050 A 
ENDROOT
BRANCH   1   8
ATOM      8  O   UNL     1      45.223 131.312  14.920  1.00  0.00    -0.451 OA
BRANCH   8   9
ATOM      9  C   UNL     1      46.614 131.188  14.633  1.00  0.00     0.388 C 
ATOM     10  C   UNL     1      48.399 129.541  13.108  1.00  0.00     0.150 C 
ATOM     11  C   UNL     1      48.060 129.181  14.346  1.00  0.00     0.238 C 
ATOM     12  C   UNL     1      47.714 130.681  12.474  1.00  0.00     0.053 C 
ATOM     13  O   UNL     1      47.077 129.893  15.042  1.00  0.00    -0.455 OA
ATOM     14  C   UNL     1      46.836 131.417  13.160  1.00  0.00     0.066 C 
BRANCH  10  15
ATOM     15  O   UNL     1      49.373 128.826  12.417  1.00  0.00    -0.505 OA
ATOM     16  H   UNL     1      50.350 129.084  12.471  1.00  0.00     0.293 HD
ENDBRANCH  10  15
ENDBRANCH   8   9
ENDBRANCH   1   8
BRANCH   4  17
ATOM     17  C   UNL     1      42.746 131.717  20.049  1.00  0.00     0.214 C 
BRANCH  17  18
ATOM     18  N   UNL     1      43.038 130.893  21.010  1.00  0.00    -0.247 NA
BRANCH  18  19
ATOM     19  C   UNL     1      43.419 131.333  22.345  1.00  0.00     0.116 C 
ATOM     20  C   UNL     1      42.309 131.124  23.382  1.00  0.00     0.037 C 
ATOM     21  C   UNL     1      43.528 130.209  23.349  1.00  0.00    -0.005 C 
ATOM     22  C   UNL     1      44.346 130.111  24.602  1.00  0.00     0.009 C 
ATOM     23  C   UNL     1      43.282 128.733  23.228  1.00  0.00     0.009 C 
ATOM     24  C   UNL     1      44.116 128.587  24.518  1.00  0.00     0.001 C 
ENDBRANCH  18  19
ENDBRANCH  17  18
BRANCH  17  25
ATOM     25  O   UNL     1      41.750 132.678  20.239  1.00  0.00    -0.493 OA
ATOM     26  H   UNL     1      40.802 132.536  19.912  1.00  0.00     0.295 HD
ENDBRANCH  17  25
ENDBRANCH   4  17
TORSDOF 7
ENDMDL
MODEL 8
REMARK VINA RESULT:      -6.6      2.422      7.916
REMARK SMILES Cc1cc(O[C@@H]2C=CC(O)=CO2)ccc1/C(O)=N/[C@H]1CC12CCC2
REMARK SMILES IDX 4 1 13 2 14 3 15 4 2 5 1 6 3 7 5 8 6 9 9 10 11 11 8 12 12 13
REMARK SMILES IDX 7 14 10 15 16 17 18 18 19 19 20 20 21 21 22 22 24 23 23 24
REMARK SMILES IDX 17 25
REMARK H PARENT 10 16 17 26
ROOT
ATOM      1  C   UNL     1      43.814 130.656  22.576  1.00  0.00     0.124 A 
ATOM      2  C   UNL     1      45.073 130.212  22.171  1.00  0.00     0.047 A 
ATOM      3  C   UNL     1      45.500 130.391  20.855  1.00  0.00     0.018 A 
ATOM      4  C   UNL     1      44.676 131.022  19.910  1.00  0.00     0.039 A 
ATOM      5  C   UNL     1      43.401 131.499  20.317  1.00  0.00    -0.035 A 
ATOM      6  C   UNL     1      42.478 132.221  19.368  1.00  0.00     0.045 C 
ATOM      7  C   UNL     1      42.980 131.298  21.644  1.00  0.00     0.050 A 
ENDROOT
BRANCH   1   8
ATOM      8  O   UNL     1      43.434 130.440  23.910  1.00  0.00    -0.451 OA
BRANCH   8   9
ATOM      9  C   UNL     1      43.299 129.162  24.526  1.00  0.00     0.388 C 
ATOM     10  C   UNL     1      42.227 126.561  23.969  1.00  0.00     0.150 C 
ATOM     11  C   UNL     1      41.439 127.505  24.485  1.00  0.00     0.238 C 
ATOM     12  C   UNL     1      43.585 126.916  23.524  1.00  0.00     0.053 C 
ATOM     13  O   UNL     1      41.909 128.816  24.621  1.00  0.00    -0.455 OA
ATOM     14  C   UNL     1      44.071 128.145  23.727  1.00  0.00     0.066 C 
BRANCH  10  15
ATOM     15  O   UNL     1      41.753 125.259  23.829  1.00  0.00    -0.505 OA
ATOM     16  H   UNL     1      41.348 124.940  22.958  1.00  0.00     0.293 HD
ENDBRANCH  10  15
ENDBRANCH   8   9
ENDBRANCH   1   8
BRANCH   4  17
ATOM     17  C   UNL     1      45.171 131.153  18.518  1.00  0.00     0.214 C 
BRANCH  17  18
ATOM     18  N   UNL     1      45.621 130.109  17.889  1.00  0.00    -0.247 NA
BRANCH  18  19
ATOM     19  C   UNL     1      46.248 130.182  16.575  1.00  0.00     0.116 C 
ATOM     20  C   UNL     1      45.742 129.101  15.613  1.00  0.00     0.037 C 
ATOM     21  C   UNL     1      45.293 130.550  15.465  1.00  0.00    -0.005 C 
ATOM     22  C   UNL     1      45.557 131.219  14.148  1.00  0.00     0.009 C 
ATOM     23  C   UNL     1      43.816 130.822  15.464  1.00  0.00     0.009 C 
ATOM     24  C   UNL     1      44.044 131.516  14.105  1.00  0.00     0.001 C 
ENDBRANCH  18  19
ENDBRANCH  17  18
BRANCH  17  25
ATOM     25  O   UNL     1      45.179 132.399  17.886  1.00  0.00    -0.493 OA
ATOM     26  H   UNL     1      45.047 132.492  16.886  1.00  0.00     0.295 HD
ENDBRANCH  17  25
ENDBRANCH   4  17
TORSDOF 7
ENDMDL
MODEL 9
REMARK VINA RESULT:      -6.5      2.598      7.705
REMARK SMILES Cc1cc(O[C@@H]2C=CC(O)=CO2)ccc1/C(O)=N/[C@H]1CC12CCC2
REMARK SMILES IDX 4 1 13 2 14 3 15 4 2 5 1 6 3 7 5 8 6 9 9 10 11 11 8 12 12 13
REMARK SMILES IDX 7 14 10 15 16 17 18 18 19 19 20 20 21 21 22 22 24 23 23 24
REMARK SMILES IDX 17 25
REMARK H PARENT 10 16 17 26
ROOT
ATOM      1  C   UNL     1      44.763 131.370  20.964  1.00  0.00     0.124 A 
ATOM      2  C   UNL     1      45.596 131.115  19.874  1.00  0.00     0.047 A 
ATOM      3  C   UNL     1      45.119 131.243  18.570  1.00  0.00     0.018 A 
ATOM      4  C   UNL     1      43.792 131.634  18.323  1.00  0.00     0.039 A 
ATOM      5  C   UNL     1      42.943 131.919  19.425  1.00  0.00    -0.035 A 
ATOM      6  C   UNL     1      41.520 132.381  19.237  1.00  0.00     0.045 C 
ATOM      7  C   UNL     1      43.436 131.770  20.735  1.00  0.00     0.050 A 
ENDROOT
BRANCH   1   8
ATOM      8  O   UNL     1      45.295 131.215  22.254  1.00  0.00    -0.451 OA
BRANCH   8   9
ATOM      9  C   UNL     1      44.616 130.612  23.353  1.00  0.00     0.388 C 
ATOM     10  C   UNL     1      42.046 129.523  24.012  1.00  0.00     0.150 C 
ATOM     11  C   UNL     1      42.267 130.830  24.154  1.00  0.00     0.238 C 
ATOM     12  C   UNL     1      43.062 128.685  23.350  1.00  0.00     0.053 C 
ATOM     13  O   UNL     1      43.463 131.395  23.696  1.00  0.00    -0.455 OA
ATOM     14  C   UNL     1      44.240 129.200  22.986  1.00  0.00     0.066 C 
BRANCH  10  15
ATOM     15  O   UNL     1      40.853 128.966  24.463  1.00  0.00    -0.505 OA
ATOM     16  H   UNL     1      40.121 128.700  23.815  1.00  0.00     0.293 HD
ENDBRANCH  10  15
ENDBRANCH   8   9
ENDBRANCH   1   8
BRANCH   4  17
ATOM     17  C   UNL     1      43.333 131.720  16.915  1.00  0.00     0.214 C 
BRANCH  17  18
ATOM     18  N   UNL     1      43.932 131.027  15.994  1.00  0.00    -0.247 NA
BRANCH  18  19
ATOM     19  C   UNL     1      45.158 130.277  16.235  1.00  0.00     0.116 C 
ATOM     20  C   UNL     1      45.230 128.977  15.424  1.00  0.00     0.037 C 
ATOM     21  C   UNL     1      46.065 130.190  15.030  1.00  0.00    -0.005 C 
ATOM     22  C   UNL     1      47.551 130.004  14.953  1.00  0.00     0.009 C 
ATOM     23  C   UNL     1      45.917 130.706  13.628  1.00  0.00     0.009 C 
ATOM     24  C   UNL     1      47.445 130.527  13.505  1.00  0.00     0.001 C 
ENDBRANCH  18  19
ENDBRANCH  17  18
BRANCH  17  25
ATOM     25  O   UNL     1      42.273 132.562  16.570  1.00  0.00    -0.493 OA
ATOM     26  H   UNL     1      41.973 132.676  15.610  1.00  0.00     0.295 HD
ENDBRANCH  17  25
ENDBRANCH   4  17
TORSDOF 7
ENDMDL


