MODEL 1
REMARK VINA RESULT:      -2.0      0.000      0.000
REMARK SMILES C=C[C@H]1C[C@@](N)(c2ccc3[nH]ccc3c2)[C@H]([NH2+]c2ccc(C)[nH+]c2F)C[C@@H]1F
REMARK SMILES IDX 3 1 4 2 5 3 16 4 26 5 27 6 28 7 2 8 1 9 6 10 7 13 8 14 15 15
REMARK SMILES IDX 9 16 14 17 10 18 13 19 11 20 12 21 17 23 18 26 19 27 24 28
REMARK SMILES IDX 20 29 23 30 21 31 25 32 22 34
REMARK H PARENT 6 11 6 12 11 22 17 24 17 25 23 33
ROOT
ATOM      1  C   UNL     1      44.468 131.537  18.510  1.00  0.00     0.048 C 
ATOM      2  C   UNL     1      45.563 132.411  19.156  1.00  0.00     0.044 C 
ATOM      3  C   UNL     1      45.713 132.140  20.681  1.00  0.00     0.095 C 
ATOM      4  C   UNL     1      44.324 132.364  21.385  1.00  0.00     0.215 C 
ATOM      5  C   UNL     1      43.227 131.497  20.716  1.00  0.00     0.106 C 
ATOM      6  C   UNL     1      43.122 131.779  19.213  1.00  0.00     0.179 C 
ATOM      7  F   UNL     1      42.154 130.953  18.668  1.00  0.00    -0.247 F 
ENDROOT
BRANCH   1   8
ATOM      8  C   UNL     1      44.357 131.840  17.033  1.00  0.00    -0.028 C 
ATOM      9  C   UNL     1      45.446 132.049  16.280  1.00  0.00     0.004 C 
ENDBRANCH   1   8
BRANCH   3  10
ATOM     10  N   UNL     1      46.113 130.731  20.856  1.00  0.00    -0.316 NA
ATOM     11  H   UNL     1      47.137 130.615  20.678  1.00  0.00     0.119 HD
ATOM     12  H   UNL     1      45.912 130.404  21.829  1.00  0.00     0.119 HD
ENDBRANCH   3  10
BRANCH   3  13
ATOM     13  C   UNL     1      46.777 133.116  21.238  1.00  0.00    -0.021 A 
ATOM     14  C   UNL     1      46.704 134.505  20.911  1.00  0.00     0.008 A 
ATOM     15  C   UNL     1      47.851 132.677  22.065  1.00  0.00     0.016 A 
ATOM     16  C   UNL     1      47.643 135.426  21.405  1.00  0.00     0.027 A 
ATOM     17  C   UNL     1      48.763 133.621  22.533  1.00  0.00    -0.000 A 
ATOM     18  C   UNL     1      48.661 134.946  22.219  1.00  0.00     0.045 A 
ATOM     19  C   UNL     1      49.872 133.472  23.338  1.00  0.00     0.028 A 
ATOM     20  N   UNL     1      49.654 135.651  22.786  1.00  0.00    -0.361 N 
ATOM     21  C   UNL     1      50.397 134.754  23.473  1.00  0.00     0.083 A 
ATOM     22  H   UNL     1      49.821 136.680  22.714  1.00  0.00     0.166 HD
ENDBRANCH   3  13
BRANCH   4  23
ATOM     23  N   UNL     1      44.394 132.088  22.843  1.00  0.00    -0.301 N 
ATOM     24  H   UNL     1      45.391 132.025  23.153  1.00  0.00     0.352 HD
ATOM     25  H   UNL     1      43.960 132.867  23.389  1.00  0.00     0.352 HD
BRANCH  23  26
ATOM     26  C   UNL     1      43.699 130.867  23.190  1.00  0.00     0.234 A 
ATOM     27  C   UNL     1      44.269 129.614  22.913  1.00  0.00     0.084 A 
ATOM     28  C   UNL     1      42.434 130.905  23.803  1.00  0.00     0.420 A 
ATOM     29  C   UNL     1      43.586 128.445  23.243  1.00  0.00     0.080 A 
ATOM     30  N   UNL     1      41.789 129.750  24.122  1.00  0.00    -0.179 N 
ATOM     31  C   UNL     1      42.335 128.527  23.866  1.00  0.00     0.179 A 
ATOM     32  F   UNL     1      41.843 132.096  24.077  1.00  0.00    -0.131 F 
ATOM     33  H   UNL     1      40.850 129.811  24.578  1.00  0.00     0.456 HD
ATOM     34  C   UNL     1      41.577 127.282  24.219  1.00  0.00     0.124 C 
ENDBRANCH  23  26
ENDBRANCH   4  23
TORSDOF 5
ENDMDL
MODEL 2
REMARK VINA RESULT:      -1.8      3.736      6.780
REMARK SMILES C=C[C@H]1C[C@@](N)(c2ccc3[nH]ccc3c2)[C@H]([NH2+]c2ccc(C)[nH+]c2F)C[C@@H]1F
REMARK SMILES IDX 3 1 4 2 5 3 16 4 26 5 27 6 28 7 2 8 1 9 6 10 7 13 8 14 15 15
REMARK SMILES IDX 9 16 14 17 10 18 13 19 11 20 12 21 17 23 18 26 19 27 24 28
REMARK SMILES IDX 20 29 23 30 21 31 25 32 22 34
REMARK H PARENT 6 11 6 12 11 22 17 24 17 25 23 33
ROOT
ATOM      1  C   UNL     1      42.219 132.831  20.367  1.00  0.00     0.048 C 
ATOM      2  C   UNL     1      42.739 131.714  21.295  1.00  0.00     0.044 C 
ATOM      3  C   UNL     1      44.161 131.226  20.894  1.00  0.00     0.095 C 
ATOM      4  C   UNL     1      44.141 130.750  19.395  1.00  0.00     0.215 C 
ATOM      5  C   UNL     1      43.598 131.872  18.474  1.00  0.00     0.106 C 
ATOM      6  C   UNL     1      42.205 132.337  18.910  1.00  0.00     0.179 C 
ATOM      7  F   UNL     1      41.791 133.361  18.074  1.00  0.00    -0.247 F 
ENDROOT
BRANCH   1   8
ATOM      8  C   UNL     1      40.835 133.266  20.793  1.00  0.00    -0.028 C 
ATOM      9  C   UNL     1      40.514 133.403  22.087  1.00  0.00     0.004 C 
ENDBRANCH   1   8
BRANCH   3  10
ATOM     10  N   UNL     1      45.087 132.368  21.018  1.00  0.00    -0.316 NA
ATOM     11  H   UNL     1      44.690 133.095  21.658  1.00  0.00     0.119 HD
ATOM     12  H   UNL     1      46.008 132.062  21.404  1.00  0.00     0.119 HD
ENDBRANCH   3  10
BRANCH   3  13
ATOM     13  C   UNL     1      44.551 130.061  21.836  1.00  0.00    -0.021 A 
ATOM     14  C   UNL     1      44.308 130.174  23.239  1.00  0.00     0.008 A 
ATOM     15  C   UNL     1      45.167 128.870  21.356  1.00  0.00     0.016 A 
ATOM     16  C   UNL     1      44.637 129.136  24.128  1.00  0.00     0.027 A 
ATOM     17  C   UNL     1      45.480 127.865  22.268  1.00  0.00    -0.000 A 
ATOM     18  C   UNL     1      45.222 127.990  23.603  1.00  0.00     0.045 A 
ATOM     19  C   UNL     1      46.065 126.632  22.076  1.00  0.00     0.028 A 
ATOM     20  N   UNL     1      45.614 126.894  24.272  1.00  0.00    -0.361 N 
ATOM     21  C   UNL     1      46.130 126.059  23.343  1.00  0.00     0.083 A 
ATOM     22  H   UNL     1      45.538 126.719  25.300  1.00  0.00     0.166 HD
ENDBRANCH   3  13
BRANCH   4  23
ATOM     23  N   UNL     1      45.482 130.302  18.940  1.00  0.00    -0.301 N 
ATOM     24  H   UNL     1      46.231 130.787  19.486  1.00  0.00     0.352 HD
ATOM     25  H   UNL     1      45.607 129.277  19.109  1.00  0.00     0.352 HD
BRANCH  23  26
ATOM     26  C   UNL     1      45.676 130.542  17.527  1.00  0.00     0.234 A 
ATOM     27  C   UNL     1      45.898 131.842  17.044  1.00  0.00     0.084 A 
ATOM     28  C   UNL     1      45.637 129.483  16.602  1.00  0.00     0.420 A 
ATOM     29  C   UNL     1      46.074 132.063  15.680  1.00  0.00     0.080 A 
ATOM     30  N   UNL     1      45.818 129.722  15.274  1.00  0.00    -0.179 N 
ATOM     31  C   UNL     1      46.043 130.979  14.794  1.00  0.00     0.179 A 
ATOM     32  F   UNL     1      45.414 128.213  17.026  1.00  0.00    -0.131 F 
ATOM     33  H   UNL     1      45.784 128.915  14.611  1.00  0.00     0.456 HD
ATOM     34  C   UNL     1      46.217 131.194  13.320  1.00  0.00     0.124 C 
ENDBRANCH  23  26
ENDBRANCH   4  23
TORSDOF 5
ENDMDL
MODEL 3
REMARK VINA RESULT:      -1.1      0.676      1.383
REMARK SMILES C=C[C@H]1C[C@@](N)(c2ccc3[nH]ccc3c2)[C@H]([NH2+]c2ccc(C)[nH+]c2F)C[C@@H]1F
REMARK SMILES IDX 3 1 4 2 5 3 16 4 26 5 27 6 28 7 2 8 1 9 6 10 7 13 8 14 15 15
REMARK SMILES IDX 9 16 14 17 10 18 13 19 11 20 12 21 17 23 18 26 19 27 24 28
REMARK SMILES IDX 20 29 23 30 21 31 25 32 22 34
REMARK H PARENT 6 11 6 12 11 22 17 24 17 25 23 33
ROOT
ATOM      1  C   UNL     1      44.480 131.669  18.784  1.00  0.00     0.048 C 
ATOM      2  C   UNL     1      45.590 132.553  19.390  1.00  0.00     0.044 C 
ATOM      3  C   UNL     1      45.875 132.206  20.880  1.00  0.00     0.095 C 
ATOM      4  C   UNL     1      44.541 132.332  21.704  1.00  0.00     0.215 C 
ATOM      5  C   UNL     1      43.427 131.457  21.076  1.00  0.00     0.106 C 
ATOM      6  C   UNL     1      43.188 131.815  19.605  1.00  0.00     0.179 C 
ATOM      7  F   UNL     1      42.211 130.978  19.092  1.00  0.00    -0.247 F 
ENDROOT
BRANCH   1   8
ATOM      8  C   UNL     1      44.238 132.047  17.340  1.00  0.00    -0.028 C 
ATOM      9  C   UNL     1      43.833 131.141  16.441  1.00  0.00     0.004 C 
ENDBRANCH   1   8
BRANCH   3  10
ATOM     10  N   UNL     1      46.342 130.808  20.943  1.00  0.00    -0.316 NA
ATOM     11  H   UNL     1      47.381 130.762  20.829  1.00  0.00     0.119 HD
ATOM     12  H   UNL     1      46.094 130.373  21.860  1.00  0.00     0.119 HD
ENDBRANCH   3  10
BRANCH   3  13
ATOM     13  C   UNL     1      46.942 133.195  21.407  1.00  0.00    -0.021 A 
ATOM     14  C   UNL     1      47.656 132.894  22.607  1.00  0.00     0.008 A 
ATOM     15  C   UNL     1      47.236 134.421  20.742  1.00  0.00     0.016 A 
ATOM     16  C   UNL     1      48.641 133.759  23.114  1.00  0.00     0.027 A 
ATOM     17  C   UNL     1      48.217 135.253  21.277  1.00  0.00    -0.000 A 
ATOM     18  C   UNL     1      48.897 134.933  22.418  1.00  0.00     0.045 A 
ATOM     19  C   UNL     1      48.693 136.471  20.841  1.00  0.00     0.028 A 
ATOM     20  N   UNL     1      49.786 135.891  22.730  1.00  0.00    -0.361 N 
ATOM     21  C   UNL     1      49.665 136.834  21.768  1.00  0.00     0.083 A 
ATOM     22  H   UNL     1      50.438 135.907  23.547  1.00  0.00     0.166 HD
ENDBRANCH   3  13
BRANCH   4  23
ATOM     23  N   UNL     1      44.740 131.980  23.134  1.00  0.00    -0.301 N 
ATOM     24  H   UNL     1      45.753 131.805  23.327  1.00  0.00     0.352 HD
ATOM     25  H   UNL     1      44.451 132.771  23.754  1.00  0.00     0.352 HD
BRANCH  23  26
ATOM     26  C   UNL     1      43.965 130.818  23.512  1.00  0.00     0.234 A 
ATOM     27  C   UNL     1      44.518 129.530  23.432  1.00  0.00     0.084 A 
ATOM     28  C   UNL     1      42.638 130.950  23.959  1.00  0.00     0.420 A 
ATOM     29  C   UNL     1      43.759 128.418  23.789  1.00  0.00     0.080 A 
ATOM     30  N   UNL     1      41.918 129.849  24.310  1.00  0.00    -0.179 N 
ATOM     31  C   UNL     1      42.446 128.594  24.244  1.00  0.00     0.179 A 
ATOM     32  F   UNL     1      42.062 132.176  24.041  1.00  0.00    -0.131 F 
ATOM     33  H   UNL     1      40.934 129.979  24.639  1.00  0.00     0.456 HD
ATOM     34  C   UNL     1      41.606 127.410  24.622  1.00  0.00     0.124 C 
ENDBRANCH  23  26
ENDBRANCH   4  23
TORSDOF 5
ENDMDL
MODEL 4
REMARK VINA RESULT:      -0.9      1.492      1.844
REMARK SMILES C=C[C@H]1C[C@@](N)(c2ccc3[nH]ccc3c2)[C@H]([NH2+]c2ccc(C)[nH+]c2F)C[C@@H]1F
REMARK SMILES IDX 3 1 4 2 5 3 16 4 26 5 27 6 28 7 2 8 1 9 6 10 7 13 8 14 15 15
REMARK SMILES IDX 9 16 14 17 10 18 13 19 11 20 12 21 17 23 18 26 19 27 24 28
REMARK SMILES IDX 20 29 23 30 21 31 25 32 22 34
REMARK H PARENT 6 11 6 12 11 22 17 24 17 25 23 33
ROOT
ATOM      1  C   UNL     1      44.091 131.599  19.168  1.00  0.00     0.048 C 
ATOM      2  C   UNL     1      45.139 132.411  19.957  1.00  0.00     0.044 C 
ATOM      3  C   UNL     1      45.386 131.834  21.381  1.00  0.00     0.095 C 
ATOM      4  C   UNL     1      44.020 131.771  22.157  1.00  0.00     0.215 C 
ATOM      5  C   UNL     1      42.968 130.970  21.347  1.00  0.00     0.106 C 
ATOM      6  C   UNL     1      42.766 131.557  19.947  1.00  0.00     0.179 C 
ATOM      7  F   UNL     1      41.846 130.781  19.262  1.00  0.00    -0.247 F 
ENDROOT
BRANCH   1   8
ATOM      8  C   UNL     1      43.884 132.201  17.797  1.00  0.00    -0.028 C 
ATOM      9  C   UNL     1      44.536 131.735  16.724  1.00  0.00     0.004 C 
ENDBRANCH   1   8
BRANCH   3  10
ATOM     10  N   UNL     1      45.912 130.463  21.232  1.00  0.00    -0.316 NA
ATOM     11  H   UNL     1      46.915 130.485  20.936  1.00  0.00     0.119 HD
ATOM     12  H   UNL     1      45.849 129.940  22.134  1.00  0.00     0.119 HD
ENDBRANCH   3  10
BRANCH   3  13
ATOM     13  C   UNL     1      46.389 132.762  22.107  1.00  0.00    -0.021 A 
ATOM     14  C   UNL     1      46.213 133.046  23.496  1.00  0.00     0.008 A 
ATOM     15  C   UNL     1      47.489 133.366  21.433  1.00  0.00     0.016 A 
ATOM     16  C   UNL     1      47.107 133.875  24.195  1.00  0.00     0.027 A 
ATOM     17  C   UNL     1      48.352 134.183  22.161  1.00  0.00    -0.000 A 
ATOM     18  C   UNL     1      48.171 134.426  23.493  1.00  0.00     0.045 A 
ATOM     19  C   UNL     1      49.477 134.875  21.766  1.00  0.00     0.028 A 
ATOM     20  N   UNL     1      49.128 135.240  23.966  1.00  0.00    -0.361 N 
ATOM     21  C   UNL     1      49.930 135.518  22.914  1.00  0.00     0.083 A 
ATOM     22  H   UNL     1      49.234 135.589  24.946  1.00  0.00     0.166 HD
ENDBRANCH   3  13
BRANCH   4  23
ATOM     23  N   UNL     1      44.183 131.195  23.517  1.00  0.00    -0.301 N 
ATOM     24  H   UNL     1      45.189 130.966  23.695  1.00  0.00     0.352 HD
ATOM     25  H   UNL     1      43.901 131.886  24.248  1.00  0.00     0.352 HD
BRANCH  23  26
ATOM     26  C   UNL     1      43.375 130.008  23.696  1.00  0.00     0.234 A 
ATOM     27  C   UNL     1      42.048 130.105  24.143  1.00  0.00     0.084 A 
ATOM     28  C   UNL     1      43.902 128.730  23.437  1.00  0.00     0.420 A 
ATOM     29  C   UNL     1      41.282 128.954  24.322  1.00  0.00     0.080 A 
ATOM     30  N   UNL     1      43.133 127.620  23.613  1.00  0.00    -0.179 N 
ATOM     31  C   UNL     1      41.841 127.702  24.038  1.00  0.00     0.179 A 
ATOM     32  F   UNL     1      45.184 128.592  23.015  1.00  0.00    -0.131 F 
ATOM     33  H   UNL     1      43.553 126.684  23.412  1.00  0.00     0.456 HD
ATOM     34  C   UNL     1      41.039 126.449  24.235  1.00  0.00     0.124 C 
ENDBRANCH  23  26
ENDBRANCH   4  23
TORSDOF 5
ENDMDL
MODEL 5
REMARK VINA RESULT:      -0.8      1.074      1.319
REMARK SMILES C=C[C@H]1C[C@@](N)(c2ccc3[nH]ccc3c2)[C@H]([NH2+]c2ccc(C)[nH+]c2F)C[C@@H]1F
REMARK SMILES IDX 3 1 4 2 5 3 16 4 26 5 27 6 28 7 2 8 1 9 6 10 7 13 8 14 15 15
REMARK SMILES IDX 9 16 14 17 10 18 13 19 11 20 12 21 17 23 18 26 19 27 24 28
REMARK SMILES IDX 20 29 23 30 21 31 25 32 22 34
REMARK H PARENT 6 11 6 12 11 22 17 24 17 25 23 33
ROOT
ATOM      1  C   UNL     1      44.199 131.656  19.233  1.00  0.00     0.048 C 
ATOM      2  C   UNL     1      45.254 132.452  20.029  1.00  0.00     0.044 C 
ATOM      3  C   UNL     1      45.459 131.891  21.466  1.00  0.00     0.095 C 
ATOM      4  C   UNL     1      44.076 131.878  22.217  1.00  0.00     0.215 C 
ATOM      5  C   UNL     1      43.019 131.093  21.400  1.00  0.00     0.106 C 
ATOM      6  C   UNL     1      42.859 131.663  19.986  1.00  0.00     0.179 C 
ATOM      7  F   UNL     1      41.931 130.902  19.296  1.00  0.00    -0.247 F 
ENDROOT
BRANCH   1   8
ATOM      8  C   UNL     1      44.034 132.242  17.848  1.00  0.00    -0.028 C 
ATOM      9  C   UNL     1      43.902 131.458  16.770  1.00  0.00     0.004 C 
ENDBRANCH   1   8
BRANCH   3  10
ATOM     10  N   UNL     1      45.949 130.504  21.349  1.00  0.00    -0.316 NA
ATOM     11  H   UNL     1      45.790 129.982  22.242  1.00  0.00     0.119 HD
ATOM     12  H   UNL     1      45.452 129.996  20.582  1.00  0.00     0.119 HD
ENDBRANCH   3  10
BRANCH   3  13
ATOM     13  C   UNL     1      46.473 132.802  22.197  1.00  0.00    -0.021 A 
ATOM     14  C   UNL     1      46.283 133.107  23.579  1.00  0.00     0.008 A 
ATOM     15  C   UNL     1      47.598 133.372  21.533  1.00  0.00     0.016 A 
ATOM     16  C   UNL     1      47.187 133.921  24.283  1.00  0.00     0.027 A 
ATOM     17  C   UNL     1      48.469 134.176  22.264  1.00  0.00    -0.000 A 
ATOM     18  C   UNL     1      48.274 134.438  23.591  1.00  0.00     0.045 A 
ATOM     19  C   UNL     1      49.616 134.836  21.878  1.00  0.00     0.028 A 
ATOM     20  N   UNL     1      49.244 135.234  24.069  1.00  0.00    -0.361 N 
ATOM     21  C   UNL     1      50.068 135.480  23.026  1.00  0.00     0.083 A 
ATOM     22  H   UNL     1      49.344 135.592  25.046  1.00  0.00     0.166 HD
ENDBRANCH   3  13
BRANCH   4  23
ATOM     23  N   UNL     1      44.198 131.319  23.588  1.00  0.00    -0.301 N 
ATOM     24  H   UNL     1      45.199 131.103  23.804  1.00  0.00     0.352 HD
ATOM     25  H   UNL     1      43.884 132.016  24.301  1.00  0.00     0.352 HD
BRANCH  23  26
ATOM     26  C   UNL     1      43.396 130.127  23.754  1.00  0.00     0.234 A 
ATOM     27  C   UNL     1      43.907 128.865  23.409  1.00  0.00     0.084 A 
ATOM     28  C   UNL     1      42.084 130.203  24.255  1.00  0.00     0.420 A 
ATOM     29  C   UNL     1      43.121 127.725  23.563  1.00  0.00     0.080 A 
ATOM     30  N   UNL     1      41.338 129.075  24.404  1.00  0.00    -0.179 N 
ATOM     31  C   UNL     1      41.825 127.843  24.080  1.00  0.00     0.179 A 
ATOM     32  F   UNL     1      41.549 131.405  24.590  1.00  0.00    -0.131 F 
ATOM     33  H   UNL     1      40.366 129.164  24.779  1.00  0.00     0.456 HD
ATOM     34  C   UNL     1      40.957 126.631  24.244  1.00  0.00     0.124 C 
ENDBRANCH  23  26
ENDBRANCH   4  23
TORSDOF 5
ENDMDL
MODEL 6
REMARK VINA RESULT:      -0.3      2.307      6.659
REMARK SMILES C=C[C@H]1C[C@@](N)(c2ccc3[nH]ccc3c2)[C@H]([NH2+]c2ccc(C)[nH+]c2F)C[C@@H]1F
REMARK SMILES IDX 3 1 4 2 5 3 16 4 26 5 27 6 28 7 2 8 1 9 6 10 7 13 8 14 15 15
REMARK SMILES IDX 9 16 14 17 10 18 13 19 11 20 12 21 17 23 18 26 19 27 24 28
REMARK SMILES IDX 20 29 23 30 21 31 25 32 22 34
REMARK H PARENT 6 11 6 12 11 22 17 24 17 25 23 33
ROOT
ATOM      1  C   UNL     1      44.750 129.377  22.417  1.00  0.00     0.048 C 
ATOM      2  C   UNL     1      44.528 129.657  20.916  1.00  0.00     0.044 C 
ATOM      3  C   UNL     1      45.367 130.866  20.409  1.00  0.00     0.095 C 
ATOM      4  C   UNL     1      45.025 132.133  21.276  1.00  0.00     0.215 C 
ATOM      5  C   UNL     1      45.231 131.835  22.783  1.00  0.00     0.106 C 
ATOM      6  C   UNL     1      44.403 130.629  23.240  1.00  0.00     0.179 C 
ATOM      7  F   UNL     1      44.656 130.392  24.581  1.00  0.00    -0.247 F 
ENDROOT
BRANCH   1   8
ATOM      8  C   UNL     1      43.910 128.200  22.860  1.00  0.00    -0.028 C 
ATOM      9  C   UNL     1      44.461 127.005  23.109  1.00  0.00     0.004 C 
ENDBRANCH   1   8
BRANCH   3  10
ATOM     10  N   UNL     1      46.794 130.538  20.590  1.00  0.00    -0.316 NA
ATOM     11  H   UNL     1      47.107 130.785  21.558  1.00  0.00     0.119 HD
ATOM     12  H   UNL     1      46.964 129.517  20.443  1.00  0.00     0.119 HD
ENDBRANCH   3  10
BRANCH   3  13
ATOM     13  C   UNL     1      45.014 131.105  18.922  1.00  0.00    -0.021 A 
ATOM     14  C   UNL     1      43.749 131.673  18.577  1.00  0.00     0.008 A 
ATOM     15  C   UNL     1      45.905 130.762  17.865  1.00  0.00     0.016 A 
ATOM     16  C   UNL     1      43.393 131.917  17.240  1.00  0.00     0.027 A 
ATOM     17  C   UNL     1      45.515 131.017  16.552  1.00  0.00    -0.000 A 
ATOM     18  C   UNL     1      44.306 131.577  16.250  1.00  0.00     0.045 A 
ATOM     19  C   UNL     1      46.174 130.792  15.362  1.00  0.00     0.028 A 
ATOM     20  N   UNL     1      44.163 131.721  14.922  1.00  0.00    -0.361 N 
ATOM     21  C   UNL     1      45.303 131.243  14.374  1.00  0.00     0.083 A 
ATOM     22  H   UNL     1      43.341 132.120  14.414  1.00  0.00     0.166 HD
ENDBRANCH   3  13
BRANCH   4  23
ATOM     23  N   UNL     1      45.821 133.317  20.863  1.00  0.00    -0.301 N 
ATOM     24  H   UNL     1      46.250 133.154  19.922  1.00  0.00     0.352 HD
ATOM     25  H   UNL     1      45.210 134.160  20.770  1.00  0.00     0.352 HD
BRANCH  23  26
ATOM     26  C   UNL     1      46.858 133.627  21.823  1.00  0.00     0.234 A 
ATOM     27  C   UNL     1      46.599 134.481  22.907  1.00  0.00     0.084 A 
ATOM     28  C   UNL     1      48.150 133.088  21.690  1.00  0.00     0.420 A 
ATOM     29  C   UNL     1      47.608 134.781  23.820  1.00  0.00     0.080 A 
ATOM     30  N   UNL     1      49.118 133.389  22.598  1.00  0.00    -0.179 N 
ATOM     31  C   UNL     1      48.878 134.211  23.659  1.00  0.00     0.179 A 
ATOM     32  F   UNL     1      48.444 132.266  20.651  1.00  0.00    -0.131 F 
ATOM     33  H   UNL     1      50.069 132.973  22.473  1.00  0.00     0.456 HD
ATOM     34  C   UNL     1      49.982 134.529  24.623  1.00  0.00     0.124 C 
ENDBRANCH  23  26
ENDBRANCH   4  23
TORSDOF 5
ENDMDL
MODEL 7
REMARK VINA RESULT:      -0.2      3.574      7.091
REMARK SMILES C=C[C@H]1C[C@@](N)(c2ccc3[nH]ccc3c2)[C@H]([NH2+]c2ccc(C)[nH+]c2F)C[C@@H]1F
REMARK SMILES IDX 3 1 4 2 5 3 16 4 26 5 27 6 28 7 2 8 1 9 6 10 7 13 8 14 15 15
REMARK SMILES IDX 9 16 14 17 10 18 13 19 11 20 12 21 17 23 18 26 19 27 24 28
REMARK SMILES IDX 20 29 23 30 21 31 25 32 22 34
REMARK H PARENT 6 11 6 12 11 22 17 24 17 25 23 33
ROOT
ATOM      1  C   UNL     1      42.875 132.203  22.513  1.00  0.00     0.048 C 
ATOM      2  C   UNL     1      43.311 130.748  22.786  1.00  0.00     0.044 C 
ATOM      3  C   UNL     1      44.519 130.317  21.905  1.00  0.00     0.095 C 
ATOM      4  C   UNL     1      44.151 130.521  20.388  1.00  0.00     0.215 C 
ATOM      5  C   UNL     1      43.696 131.980  20.129  1.00  0.00     0.106 C 
ATOM      6  C   UNL     1      42.518 132.372  21.027  1.00  0.00     0.179 C 
ATOM      7  F   UNL     1      42.181 133.692  20.775  1.00  0.00    -0.247 F 
ENDROOT
BRANCH   1   8
ATOM      8  C   UNL     1      41.698 132.571  23.388  1.00  0.00    -0.028 C 
ATOM      9  C   UNL     1      41.434 131.904  24.518  1.00  0.00     0.004 C 
ENDBRANCH   1   8
BRANCH   3  10
ATOM     10  N   UNL     1      45.661 131.190  22.238  1.00  0.00    -0.316 NA
ATOM     11  H   UNL     1      45.331 132.059  22.717  1.00  0.00     0.119 HD
ATOM     12  H   UNL     1      46.331 130.701  22.874  1.00  0.00     0.119 HD
ENDBRANCH   3  10
BRANCH   3  13
ATOM     13  C   UNL     1      44.822 128.829  22.202  1.00  0.00    -0.021 A 
ATOM     14  C   UNL     1      43.878 128.047  22.936  1.00  0.00     0.008 A 
ATOM     15  C   UNL     1      46.029 128.202  21.781  1.00  0.00     0.016 A 
ATOM     16  C   UNL     1      44.110 126.690  23.218  1.00  0.00     0.027 A 
ATOM     17  C   UNL     1      46.223 126.855  22.081  1.00  0.00    -0.000 A 
ATOM     18  C   UNL     1      45.297 126.125  22.770  1.00  0.00     0.045 A 
ATOM     19  C   UNL     1      47.279 126.016  21.794  1.00  0.00     0.028 A 
ATOM     20  N   UNL     1      45.712 124.858  22.935  1.00  0.00    -0.361 N 
ATOM     21  C   UNL     1      46.924 124.786  22.340  1.00  0.00     0.083 A 
ATOM     22  H   UNL     1      45.206 124.085  23.424  1.00  0.00     0.166 HD
ENDBRANCH   3  13
BRANCH   4  23
ATOM     23  N   UNL     1      45.280 130.158  19.493  1.00  0.00    -0.301 N 
ATOM     24  H   UNL     1      46.164 130.612  19.821  1.00  0.00     0.352 HD
ATOM     25  H   UNL     1      45.450 129.127  19.512  1.00  0.00     0.352 HD
BRANCH  23  26
ATOM     26  C   UNL     1      45.018 130.537  18.122  1.00  0.00     0.234 A 
ATOM     27  C   UNL     1      43.888 131.302  17.792  1.00  0.00     0.084 A 
ATOM     28  C   UNL     1      45.883 130.140  17.086  1.00  0.00     0.420 A 
ATOM     29  C   UNL     1      43.641 131.651  16.466  1.00  0.00     0.080 A 
ATOM     30  N   UNL     1      45.625 130.500  15.798  1.00  0.00    -0.179 N 
ATOM     31  C   UNL     1      44.536 131.249  15.466  1.00  0.00     0.179 A 
ATOM     32  F   UNL     1      46.981 129.391  17.361  1.00  0.00    -0.131 F 
ATOM     33  H   UNL     1      46.287 130.190  15.051  1.00  0.00     0.456 HD
ATOM     34  C   UNL     1      44.283 131.604  14.031  1.00  0.00     0.124 C 
ENDBRANCH  23  26
ENDBRANCH   4  23
TORSDOF 5
ENDMDL
MODEL 8
REMARK VINA RESULT:      -0.1      2.351      5.422
REMARK SMILES C=C[C@H]1C[C@@](N)(c2ccc3[nH]ccc3c2)[C@H]([NH2+]c2ccc(C)[nH+]c2F)C[C@@H]1F
REMARK SMILES IDX 3 1 4 2 5 3 16 4 26 5 27 6 28 7 2 8 1 9 6 10 7 13 8 14 15 15
REMARK SMILES IDX 9 16 14 17 10 18 13 19 11 20 12 21 17 23 18 26 19 27 24 28
REMARK SMILES IDX 20 29 23 30 21 31 25 32 22 34
REMARK H PARENT 6 11 6 12 11 22 17 24 17 25 23 33
ROOT
ATOM      1  C   UNL     1      46.142 133.854  21.838  1.00  0.00     0.048 C 
ATOM      2  C   UNL     1      45.975 133.248  20.429  1.00  0.00     0.044 C 
ATOM      3  C   UNL     1      44.799 132.231  20.359  1.00  0.00     0.095 C 
ATOM      4  C   UNL     1      45.024 131.105  21.434  1.00  0.00     0.215 C 
ATOM      5  C   UNL     1      45.212 131.725  22.842  1.00  0.00     0.106 C 
ATOM      6  C   UNL     1      46.366 132.733  22.867  1.00  0.00     0.179 C 
ATOM      7  F   UNL     1      46.460 133.277  24.137  1.00  0.00    -0.247 F 
ENDROOT
BRANCH   1   8
ATOM      8  C   UNL     1      47.298 134.829  21.855  1.00  0.00    -0.028 C 
ATOM      9  C   UNL     1      48.487 134.492  22.370  1.00  0.00     0.004 C 
ENDBRANCH   1   8
BRANCH   3  10
ATOM     10  N   UNL     1      43.552 132.951  20.680  1.00  0.00    -0.316 NA
ATOM     11  H   UNL     1      43.599 133.938  20.334  1.00  0.00     0.119 HD
ATOM     12  H   UNL     1      42.728 132.488  20.235  1.00  0.00     0.119 HD
ENDBRANCH   3  10
BRANCH   3  13
ATOM     13  C   UNL     1      44.769 131.631  18.932  1.00  0.00    -0.021 A 
ATOM     14  C   UNL     1      43.628 131.844  18.099  1.00  0.00     0.008 A 
ATOM     15  C   UNL     1      45.841 130.850  18.414  1.00  0.00     0.016 A 
ATOM     16  C   UNL     1      43.564 131.327  16.794  1.00  0.00     0.027 A 
ATOM     17  C   UNL     1      45.740 130.353  17.117  1.00  0.00    -0.000 A 
ATOM     18  C   UNL     1      44.644 130.585  16.334  1.00  0.00     0.045 A 
ATOM     19  C   UNL     1      46.617 129.586  16.380  1.00  0.00     0.028 A 
ATOM     20  N   UNL     1      44.783 130.003  15.131  1.00  0.00    -0.361 N 
ATOM     21  C   UNL     1      45.988 129.391  15.154  1.00  0.00     0.083 A 
ATOM     22  H   UNL     1      44.101 130.018  14.339  1.00  0.00     0.166 HD
ENDBRANCH   3  13
BRANCH   4  23
ATOM     23  N   UNL     1      43.915 130.117  21.440  1.00  0.00    -0.301 N 
ATOM     24  H   UNL     1      43.039 130.558  21.806  1.00  0.00     0.352 HD
ATOM     25  H   UNL     1      43.702 129.792  20.470  1.00  0.00     0.352 HD
BRANCH  23  26
ATOM     26  C   UNL     1      44.240 128.952  22.234  1.00  0.00     0.234 A 
ATOM     27  C   UNL     1      45.265 128.077  21.837  1.00  0.00     0.084 A 
ATOM     28  C   UNL     1      43.533 128.662  23.415  1.00  0.00     0.420 A 
ATOM     29  C   UNL     1      45.562 126.953  22.604  1.00  0.00     0.080 A 
ATOM     30  N   UNL     1      43.846 127.561  24.152  1.00  0.00    -0.179 N 
ATOM     31  C   UNL     1      44.843 126.709  23.782  1.00  0.00     0.179 A 
ATOM     32  F   UNL     1      42.528 129.476  23.827  1.00  0.00    -0.131 F 
ATOM     33  H   UNL     1      43.303 127.373  25.024  1.00  0.00     0.456 HD
ATOM     34  C   UNL     1      45.138 125.498  24.616  1.00  0.00     0.124 C 
ENDBRANCH  23  26
ENDBRANCH   4  23
TORSDOF 5
ENDMDL
MODEL 9
REMARK VINA RESULT:      -0.0      2.239      6.776
REMARK SMILES C=C[C@H]1C[C@@](N)(c2ccc3[nH]ccc3c2)[C@H]([NH2+]c2ccc(C)[nH+]c2F)C[C@@H]1F
REMARK SMILES IDX 3 1 4 2 5 3 16 4 26 5 27 6 28 7 2 8 1 9 6 10 7 13 8 14 15 15
REMARK SMILES IDX 9 16 14 17 10 18 13 19 11 20 12 21 17 23 18 26 19 27 24 28
REMARK SMILES IDX 20 29 23 30 21 31 25 32 22 34
REMARK H PARENT 6 11 6 12 11 22 17 24 17 25 23 33
ROOT
ATOM      1  C   UNL     1      46.977 132.905  21.677  1.00  0.00     0.048 C 
ATOM      2  C   UNL     1      46.127 131.861  22.432  1.00  0.00     0.044 C 
ATOM      3  C   UNL     1      45.202 131.050  21.479  1.00  0.00     0.095 C 
ATOM      4  C   UNL     1      44.288 132.047  20.674  1.00  0.00     0.215 C 
ATOM      5  C   UNL     1      45.150 133.103  19.937  1.00  0.00     0.106 C 
ATOM      6  C   UNL     1      46.059 133.867  20.905  1.00  0.00     0.179 C 
ATOM      7  F   UNL     1      46.826 134.768  20.185  1.00  0.00    -0.247 F 
ENDROOT
BRANCH   1   8
ATOM      8  C   UNL     1      47.852 133.668  22.646  1.00  0.00    -0.028 C 
ATOM      9  C   UNL     1      48.372 134.860  22.326  1.00  0.00     0.004 C 
ENDBRANCH   1   8
BRANCH   3  10
ATOM     10  N   UNL     1      46.058 130.317  20.527  1.00  0.00    -0.316 NA
ATOM     11  H   UNL     1      45.508 129.575  20.036  1.00  0.00     0.119 HD
ATOM     12  H   UNL     1      46.452 130.963  19.805  1.00  0.00     0.119 HD
ENDBRANCH   3  10
BRANCH   3  13
ATOM     13  C   UNL     1      44.346 130.093  22.342  1.00  0.00    -0.021 A 
ATOM     14  C   UNL     1      43.085 130.533  22.849  1.00  0.00     0.008 A 
ATOM     15  C   UNL     1      44.777 128.775  22.668  1.00  0.00     0.016 A 
ATOM     16  C   UNL     1      42.272 129.692  23.627  1.00  0.00     0.027 A 
ATOM     17  C   UNL     1      43.943 127.972  23.444  1.00  0.00    -0.000 A 
ATOM     18  C   UNL     1      42.734 128.412  23.903  1.00  0.00     0.045 A 
ATOM     19  C   UNL     1      44.110 126.680  23.894  1.00  0.00     0.028 A 
ATOM     20  N   UNL     1      42.121 127.460  24.625  1.00  0.00    -0.361 N 
ATOM     21  C   UNL     1      42.958 126.398  24.622  1.00  0.00     0.083 A 
ATOM     22  H   UNL     1      41.189 127.523  25.094  1.00  0.00     0.166 HD
ENDBRANCH   3  13
BRANCH   4  23
ATOM     23  N   UNL     1      43.402 131.334  19.719  1.00  0.00    -0.301 N 
ATOM     24  H   UNL     1      43.244 130.349  20.036  1.00  0.00     0.352 HD
ATOM     25  H   UNL     1      42.461 131.788  19.677  1.00  0.00     0.352 HD
BRANCH  23  26
ATOM     26  C   UNL     1      43.950 131.332  18.380  1.00  0.00     0.234 A 
ATOM     27  C   UNL     1      45.220 130.791  18.126  1.00  0.00     0.084 A 
ATOM     28  C   UNL     1      43.229 131.880  17.304  1.00  0.00     0.420 A 
ATOM     29  C   UNL     1      45.742 130.803  16.834  1.00  0.00     0.080 A 
ATOM     30  N   UNL     1      43.756 131.875  16.049  1.00  0.00    -0.179 N 
ATOM     31  C   UNL     1      44.985 131.345  15.787  1.00  0.00     0.179 A 
ATOM     32  F   UNL     1      42.002 132.423  17.509  1.00  0.00    -0.131 F 
ATOM     33  H   UNL     1      43.196 132.289  15.269  1.00  0.00     0.456 HD
ATOM     34  C   UNL     1      45.531 131.380  14.391  1.00  0.00     0.124 C 
ENDBRANCH  23  26
ENDBRANCH   4  23
TORSDOF 5
ENDMDL


