REMARK SMILES C/C=C(/O)[N-]c1cc(F)cnc1Nc1c[n-]c2nccc-2c1
REMARK SMILES IDX 5 1 3 2 4 3 2 5 1 6 6 7 12 8 7 9 11 10 8 11 10 12 9 13 13 14
REMARK SMILES IDX 14 16 15 17 22 18 16 19 21 20 17 21 20 22 18 23 19 24
REMARK H PARENT 4 4 13 15
ROOT
ATOM      1  N   UNL     1      -0.700  -0.843   0.126  1.00  0.00    -0.625 NA
ENDROOT
BRANCH   1   2
ATOM      2  C   UNL     1      -2.125  -0.906   0.261  1.00  0.00     0.009 C 
BRANCH   2   3
ATOM      3  O   UNL     1      -2.764  -2.141   0.375  1.00  0.00    -0.531 OA
ATOM      4  H   UNL     1      -3.772  -2.219   0.460  1.00  0.00     0.290 HD
ENDBRANCH   2   3
BRANCH   2   5
ATOM      5  C   UNL     1      -2.847   0.221   0.237  1.00  0.00    -0.009 C 
ATOM      6  C   UNL     1      -2.215   1.573   0.105  1.00  0.00     0.037 C 
ENDBRANCH   2   5
ENDBRANCH   1   2
BRANCH   1   7
ATOM      7  C   UNL     1       0.243  -1.888   0.407  1.00  0.00    -0.087 A 
ATOM      8  C   UNL     1       1.508  -1.880  -0.221  1.00  0.00     0.115 A 
ATOM      9  C   UNL     1      -0.048  -2.916   1.319  1.00  0.00     0.028 A 
ATOM     10  N   UNL     1       2.375  -2.906   0.001  1.00  0.00    -0.237 NA
ATOM     11  C   UNL     1       0.877  -3.937   1.542  1.00  0.00     0.140 A 
ATOM     12  C   UNL     1       2.091  -3.921   0.857  1.00  0.00     0.152 A 
ATOM     13  F   UNL     1       0.598  -4.935   2.416  1.00  0.00    -0.205 F 
BRANCH   8  14
ATOM     14  N   UNL     1       1.879  -0.853  -1.156  1.00  0.00    -0.342 N 
ATOM     15  H   UNL     1       2.400  -1.147  -2.013  1.00  0.00     0.168 HD
BRANCH  14  16
ATOM     16  C   UNL     1       1.667   0.553  -0.942  1.00  0.00     0.036 A 
ATOM     17  C   UNL     1       1.546   1.415  -2.067  1.00  0.00     0.004 A 
ATOM     18  C   UNL     1       1.608   1.090   0.367  1.00  0.00     0.033 A 
ATOM     19  N   UNL     1       1.334   2.758  -1.918  1.00  0.00    -0.440 NA
ATOM     20  C   UNL     1       1.393   2.453   0.485  1.00  0.00    -0.025 A 
ATOM     21  C   UNL     1       1.254   3.271  -0.669  1.00  0.00    -0.052 A 
ATOM     22  C   UNL     1       1.259   3.292   1.560  1.00  0.00     0.003 A 
ATOM     23  N   UNL     1       1.044   4.556  -0.345  1.00  0.00    -0.442 NA
ATOM     24  C   UNL     1       1.047   4.561   1.015  1.00  0.00    -0.022 A 
ENDBRANCH  14  16
ENDBRANCH   8  14
ENDBRANCH   1   7
TORSDOF 6


