REMARK SMILES CC(=O)c1ccc(-c2cccc([C@H]3CO3)c2)cc1
REMARK SMILES IDX 4 1 5 2 6 3 7 4 17 5 18 6 2 7 1 8 3 9 8 10 9 11 16 12 10 13
REMARK SMILES IDX 12 14 11 15 13 16 14 17 15 18
REMARK H PARENT
ROOT
ATOM      1  C   UNL     1       3.041   0.202   1.557  1.00  0.00     0.017 A 
ATOM      2  C   UNL     1       2.165  -0.857   1.251  1.00  0.00     0.012 A 
ATOM      3  C   UNL     1       0.834  -0.604   0.907  1.00  0.00     0.009 A 
ATOM      4  C   UNL     1       0.345   0.712   0.858  1.00  0.00    -0.018 A 
ATOM      5  C   UNL     1       1.217   1.770   1.162  1.00  0.00     0.009 A 
ATOM      6  C   UNL     1       2.547   1.519   1.508  1.00  0.00     0.012 A 
ENDROOT
BRANCH   1   7
ATOM      7  C   UNL     1       4.460  -0.048   1.927  1.00  0.00     0.159 C 
ATOM      8  C   UNL     1       5.028  -1.434   1.996  1.00  0.00     0.093 C 
ATOM      9  O   UNL     1       5.219   0.924   2.192  1.00  0.00    -0.295 OA
ENDBRANCH   1   7
BRANCH   4  10
ATOM     10  C   UNL     1      -1.069   0.979   0.491  1.00  0.00    -0.018 A 
ATOM     11  C   UNL     1      -1.398   2.058  -0.349  1.00  0.00     0.009 A 
ATOM     12  C   UNL     1      -2.102   0.157   0.981  1.00  0.00     0.015 A 
ATOM     13  C   UNL     1      -2.730   2.312  -0.688  1.00  0.00     0.001 A 
ATOM     14  C   UNL     1      -3.438   0.402   0.627  1.00  0.00    -0.016 A 
ATOM     15  C   UNL     1      -3.748   1.492  -0.197  1.00  0.00     0.006 A 
BRANCH  14  16
ATOM     16  C   UNL     1      -4.538  -0.455   1.183  1.00  0.00     0.174 C 
ATOM     17  C   UNL     1      -5.314  -1.240   0.195  1.00  0.00     0.198 C 
ATOM     18  O   UNL     1      -4.292  -1.825   0.967  1.00  0.00    -0.368 OA
ENDBRANCH  14  16
ENDBRANCH   4  10
TORSDOF 3


