REMARK SMILES Cc1ccc(-c2ccc3[nH]ccc3c2)cc1
REMARK SMILES IDX 6 1 7 2 8 3 9 4 10 5 11 6 12 7 13 8 14 9 5 11 2 12 3 13
REMARK SMILES IDX 16 14 4 15 15 16 1 17
REMARK H PARENT 10 10
ROOT
ATOM      1  C   UNL     1      -0.709  -0.331   0.875  1.00  0.00    -0.018 A 
ATOM      2  C   UNL     1      -0.780   0.080   2.235  1.00  0.00     0.011 A 
ATOM      3  C   UNL     1      -1.310  -0.773   3.220  1.00  0.00     0.027 A 
ATOM      4  C   UNL     1      -1.760  -2.029   2.821  1.00  0.00     0.045 A 
ATOM      5  N   UNL     1      -2.294  -2.989   3.594  1.00  0.00    -0.361 N 
ATOM      6  C   UNL     1      -2.571  -4.020   2.763  1.00  0.00     0.083 A 
ATOM      7  C   UNL     1      -2.211  -3.711   1.456  1.00  0.00     0.028 A 
ATOM      8  C   UNL     1      -1.696  -2.434   1.516  1.00  0.00    -0.000 A 
ATOM      9  C   UNL     1      -1.179  -1.617   0.514  1.00  0.00     0.019 A 
ATOM     10  H   UNL     1      -2.460  -2.951   4.624  1.00  0.00     0.166 HD
ENDROOT
BRANCH   1  11
ATOM     11  C   UNL     1      -0.147   0.578  -0.156  1.00  0.00    -0.018 A 
ATOM     12  C   UNL     1       0.914   2.314  -2.109  1.00  0.00    -0.051 A 
ATOM     13  C   UNL     1       1.519   2.214  -0.848  1.00  0.00     0.004 A 
ATOM     14  C   UNL     1      -0.208   1.525  -2.398  1.00  0.00     0.004 A 
ATOM     15  C   UNL     1       0.990   1.359   0.123  1.00  0.00     0.009 A 
ATOM     16  C   UNL     1      -0.738   0.668  -1.429  1.00  0.00     0.009 A 
ATOM     17  C   UNL     1       1.506   3.202  -3.163  1.00  0.00     0.044 C 
ENDBRANCH   1  11
TORSDOF 1


