MODEL 1
REMARK VINA RESULT:      -7.0      0.000      0.000
REMARK SMILES CNCCC/N=C(\O)Sc1cccc(-c2ccc3c(c2)CC3)c1
REMARK SMILES IDX 6 1 7 2 8 3 9 5 10 6 11 7 23 8 12 9 14 10 13 11 15 12 16 13
REMARK SMILES IDX 20 14 17 15 19 16 18 17 21 18 22 19 5 20 4 21 3 22 2 23 1 25
REMARK H PARENT 8 4 2 24
ROOT
ATOM      1  N   UNL     1      43.436 128.804  23.807  1.00  0.00    -0.245 NA
ENDROOT
BRANCH   1   2
ATOM      2  C   UNL     1      43.084 130.044  23.669  1.00  0.00     0.248 C 
BRANCH   2   3
ATOM      3  O   UNL     1      41.756 130.433  23.819  1.00  0.00    -0.488 OA
ATOM      4  H   UNL     1      41.231 130.179  24.648  1.00  0.00     0.295 HD
ENDBRANCH   2   3
BRANCH   2   5
ATOM      5  S   UNL     1      44.340 131.269  23.311  1.00  0.00    -0.032 SA
BRANCH   5   6
ATOM      6  C   UNL     1      43.604 131.674  21.727  1.00  0.00     0.017 A 
ATOM      7  C   UNL     1      42.395 132.372  21.671  1.00  0.00     0.015 A 
ATOM      8  C   UNL     1      44.251 131.302  20.542  1.00  0.00     0.024 A 
ATOM      9  C   UNL     1      41.831 132.695  20.436  1.00  0.00     0.002 A 
ATOM     10  C   UNL     1      43.699 131.630  19.290  1.00  0.00    -0.017 A 
ATOM     11  C   UNL     1      42.476 132.327  19.251  1.00  0.00     0.009 A 
BRANCH  10  12
ATOM     12  C   UNL     1      44.403 131.259  18.034  1.00  0.00    -0.018 A 
ATOM     13  C   UNL     1      45.611 130.474  18.092  1.00  0.00     0.009 A 
ATOM     14  C   UNL     1      43.867 131.666  16.777  1.00  0.00     0.012 A 
ATOM     15  C   UNL     1      46.304 130.070  16.925  1.00  0.00     0.004 A 
ATOM     16  C   UNL     1      44.566 131.255  15.662  1.00  0.00    -0.044 A 
ATOM     17  C   UNL     1      45.747 130.480  15.733  1.00  0.00    -0.044 A 
ATOM     18  C   UNL     1      44.643 131.267  14.173  1.00  0.00     0.040 C 
ATOM     19  C   UNL     1      45.853 130.469  14.246  1.00  0.00     0.040 C 
ENDBRANCH  10  12
ENDBRANCH   5   6
ENDBRANCH   2   5
ENDBRANCH   1   2
BRANCH   1  20
ATOM     20  C   UNL     1      44.819 128.342  23.771  1.00  0.00     0.148 C 
BRANCH  20  21
ATOM     21  C   UNL     1      44.993 127.310  22.651  1.00  0.00     0.039 C 
BRANCH  21  22
ATOM     22  C   UNL     1      44.105 126.075  22.856  1.00  0.00     0.082 C 
BRANCH  22  23
ATOM     23  N   UNL     1      44.819 125.063  23.645  1.00  0.00    -0.320 NA
ATOM     24  H   UNL     1      44.119 124.356  23.974  1.00  0.00     0.122 HD
ATOM     25  C   UNL     1      45.802 124.365  22.816  1.00  0.00     0.101 C 
ENDBRANCH  22  23
ENDBRANCH  21  22
ENDBRANCH  20  21
ENDBRANCH   1  20
TORSDOF 9
ENDMDL
MODEL 2
REMARK VINA RESULT:      -6.3      1.742      2.291
REMARK SMILES CNCCC/N=C(\O)Sc1cccc(-c2ccc3c(c2)CC3)c1
REMARK SMILES IDX 6 1 7 2 8 3 9 5 10 6 11 7 23 8 12 9 14 10 13 11 15 12 16 13
REMARK SMILES IDX 20 14 17 15 19 16 18 17 21 18 22 19 5 20 4 21 3 22 2 23 1 25
REMARK H PARENT 8 4 2 24
ROOT
ATOM      1  N   UNL     1      45.332 128.806  22.314  1.00  0.00    -0.245 NA
ENDROOT
BRANCH   1   2
ATOM      2  C   UNL     1      45.432 129.796  21.482  1.00  0.00     0.248 C 
BRANCH   2   3
ATOM      3  O   UNL     1      45.971 129.613  20.212  1.00  0.00    -0.488 OA
ATOM      4  H   UNL     1      46.838 129.105  20.085  1.00  0.00     0.295 HD
ENDBRANCH   2   3
BRANCH   2   5
ATOM      5  S   UNL     1      44.834 131.410  21.978  1.00  0.00    -0.032 SA
BRANCH   5   6
ATOM      6  C   UNL     1      43.961 131.647  20.429  1.00  0.00     0.017 A 
ATOM      7  C   UNL     1      42.650 132.131  20.429  1.00  0.00     0.015 A 
ATOM      8  C   UNL     1      44.601 131.361  19.217  1.00  0.00     0.024 A 
ATOM      9  C   UNL     1      41.978 132.326  19.221  1.00  0.00     0.002 A 
ATOM     10  C   UNL     1      43.938 131.562  17.991  1.00  0.00    -0.017 A 
ATOM     11  C   UNL     1      42.615 132.043  18.009  1.00  0.00     0.009 A 
BRANCH  10  12
ATOM     12  C   UNL     1      44.630 131.284  16.706  1.00  0.00    -0.018 A 
ATOM     13  C   UNL     1      44.024 131.687  15.461  1.00  0.00     0.009 A 
ATOM     14  C   UNL     1      45.901 130.637  16.713  1.00  0.00     0.012 A 
ATOM     15  C   UNL     1      44.655 131.471  14.211  1.00  0.00     0.004 A 
ATOM     16  C   UNL     1      46.486 130.442  15.480  1.00  0.00    -0.044 A 
ATOM     17  C   UNL     1      45.883 130.848  14.266  1.00  0.00    -0.044 A 
ATOM     18  C   UNL     1      47.663 129.908  14.736  1.00  0.00     0.040 C 
ATOM     19  C   UNL     1      47.045 130.328  13.492  1.00  0.00     0.040 C 
ENDBRANCH  10  12
ENDBRANCH   5   6
ENDBRANCH   2   5
ENDBRANCH   1   2
BRANCH   1  20
ATOM     20  C   UNL     1      44.919 127.461  21.930  1.00  0.00     0.148 C 
BRANCH  20  21
ATOM     21  C   UNL     1      45.981 126.446  22.366  1.00  0.00     0.039 C 
BRANCH  21  22
ATOM     22  C   UNL     1      45.733 125.919  23.786  1.00  0.00     0.082 C 
BRANCH  22  23
ATOM     23  N   UNL     1      44.598 124.986  23.788  1.00  0.00    -0.320 NA
ATOM     24  H   UNL     1      43.764 125.490  23.402  1.00  0.00     0.122 HD
ATOM     25  C   UNL     1      44.871 123.843  22.917  1.00  0.00     0.101 C 
ENDBRANCH  22  23
ENDBRANCH  21  22
ENDBRANCH  20  21
ENDBRANCH   1  20
TORSDOF 9
ENDMDL
MODEL 3
REMARK VINA RESULT:      -6.2      1.187      1.238
REMARK SMILES CNCCC/N=C(\O)Sc1cccc(-c2ccc3c(c2)CC3)c1
REMARK SMILES IDX 6 1 7 2 8 3 9 5 10 6 11 7 23 8 12 9 14 10 13 11 15 12 16 13
REMARK SMILES IDX 20 14 17 15 19 16 18 17 21 18 22 19 5 20 4 21 3 22 2 23 1 25
REMARK H PARENT 8 4 2 24
ROOT
ATOM      1  N   UNL     1      43.941 128.261  22.654  1.00  0.00    -0.245 NA
ENDROOT
BRANCH   1   2
ATOM      2  C   UNL     1      43.329 129.386  22.860  1.00  0.00     0.248 C 
BRANCH   2   3
ATOM      3  O   UNL     1      41.948 129.429  23.034  1.00  0.00    -0.488 OA
ATOM      4  H   UNL     1      41.447 130.308  22.992  1.00  0.00     0.295 HD
ENDBRANCH   2   3
BRANCH   2   5
ATOM      5  S   UNL     1      44.289 130.894  22.949  1.00  0.00    -0.032 SA
BRANCH   5   6
ATOM      6  C   UNL     1      43.781 131.406  21.307  1.00  0.00     0.017 A 
ATOM      7  C   UNL     1      42.623 132.169  21.136  1.00  0.00     0.015 A 
ATOM      8  C   UNL     1      44.557 131.054  20.195  1.00  0.00     0.024 A 
ATOM      9  C   UNL     1      42.237 132.575  19.857  1.00  0.00     0.002 A 
ATOM     10  C   UNL     1      44.185 131.466  18.902  1.00  0.00    -0.017 A 
ATOM     11  C   UNL     1      43.010 132.227  18.745  1.00  0.00     0.009 A 
BRANCH  10  12
ATOM     12  C   UNL     1      45.025 131.114  17.728  1.00  0.00    -0.018 A 
ATOM     13  C   UNL     1      45.659 129.820  17.658  1.00  0.00     0.009 A 
ATOM     14  C   UNL     1      45.184 132.052  16.666  1.00  0.00     0.012 A 
ATOM     15  C   UNL     1      46.446 129.425  16.549  1.00  0.00     0.004 A 
ATOM     16  C   UNL     1      45.956 131.635  15.602  1.00  0.00    -0.044 A 
ATOM     17  C   UNL     1      46.568 130.360  15.545  1.00  0.00    -0.044 A 
ATOM     18  C   UNL     1      46.525 131.988  14.270  1.00  0.00     0.040 C 
ATOM     19  C   UNL     1      47.149 130.678  14.210  1.00  0.00     0.040 C 
ENDBRANCH  10  12
ENDBRANCH   5   6
ENDBRANCH   2   5
ENDBRANCH   1   2
BRANCH   1  20
ATOM     20  C   UNL     1      45.325 128.007  23.036  1.00  0.00     0.148 C 
BRANCH  20  21
ATOM     21  C   UNL     1      45.373 126.969  24.162  1.00  0.00     0.039 C 
BRANCH  21  22
ATOM     22  C   UNL     1      45.771 125.577  23.652  1.00  0.00     0.082 C 
BRANCH  22  23
ATOM     23  N   UNL     1      46.950 125.675  22.781  1.00  0.00    -0.320 NA
ATOM     24  H   UNL     1      47.691 126.206  23.298  1.00  0.00     0.122 HD
ATOM     25  C   UNL     1      47.480 124.345  22.483  1.00  0.00     0.101 C 
ENDBRANCH  22  23
ENDBRANCH  21  22
ENDBRANCH  20  21
ENDBRANCH   1  20
TORSDOF 9
ENDMDL
MODEL 4
REMARK VINA RESULT:      -6.0      1.904      2.428
REMARK SMILES CNCCC/N=C(\O)Sc1cccc(-c2ccc3c(c2)CC3)c1
REMARK SMILES IDX 6 1 7 2 8 3 9 5 10 6 11 7 23 8 12 9 14 10 13 11 15 12 16 13
REMARK SMILES IDX 20 14 17 15 19 16 18 17 21 18 22 19 5 20 4 21 3 22 2 23 1 25
REMARK H PARENT 8 4 2 24
ROOT
ATOM      1  N   UNL     1      42.930 129.850  22.814  1.00  0.00    -0.245 NA
ENDROOT
BRANCH   1   2
ATOM      2  C   UNL     1      43.695 130.886  22.960  1.00  0.00     0.248 C 
BRANCH   2   3
ATOM      3  O   UNL     1      43.399 131.868  23.902  1.00  0.00    -0.488 OA
ATOM      4  H   UNL     1      42.710 131.702  24.625  1.00  0.00     0.295 HD
ENDBRANCH   2   3
BRANCH   2   5
ATOM      5  S   UNL     1      45.168 131.029  21.951  1.00  0.00    -0.032 SA
BRANCH   5   6
ATOM      6  C   UNL     1      44.215 131.393  20.476  1.00  0.00     0.017 A 
ATOM      7  C   UNL     1      42.930 131.930  20.584  1.00  0.00     0.015 A 
ATOM      8  C   UNL     1      44.768 131.152  19.212  1.00  0.00     0.024 A 
ATOM      9  C   UNL     1      42.196 132.223  19.433  1.00  0.00     0.002 A 
ATOM     10  C   UNL     1      44.043 131.453  18.043  1.00  0.00    -0.017 A 
ATOM     11  C   UNL     1      42.746 131.986  18.169  1.00  0.00     0.009 A 
BRANCH  10  12
ATOM     12  C   UNL     1      44.644 131.222  16.703  1.00  0.00    -0.018 A 
ATOM     13  C   UNL     1      43.962 130.392  15.742  1.00  0.00     0.009 A 
ATOM     14  C   UNL     1      45.885 131.841  16.370  1.00  0.00     0.012 A 
ATOM     15  C   UNL     1      44.477 130.164  14.443  1.00  0.00     0.004 A 
ATOM     16  C   UNL     1      46.358 131.597  15.098  1.00  0.00    -0.044 A 
ATOM     17  C   UNL     1      45.675 130.786  14.162  1.00  0.00    -0.044 A 
ATOM     18  C   UNL     1      47.445 131.852  14.110  1.00  0.00     0.040 C 
ATOM     19  C   UNL     1      46.742 131.021  13.149  1.00  0.00     0.040 C 
ENDBRANCH  10  12
ENDBRANCH   5   6
ENDBRANCH   2   5
ENDBRANCH   1   2
BRANCH   1  20
ATOM     20  C   UNL     1      43.242 128.528  23.343  1.00  0.00     0.148 C 
BRANCH  20  21
ATOM     21  C   UNL     1      42.439 128.277  24.625  1.00  0.00     0.039 C 
BRANCH  21  22
ATOM     22  C   UNL     1      41.098 127.587  24.344  1.00  0.00     0.082 C 
BRANCH  22  23
ATOM     23  N   UNL     1      41.200 126.149  24.625  1.00  0.00    -0.320 NA
ATOM     24  H   UNL     1      40.792 125.974  25.574  1.00  0.00     0.122 HD
ATOM     25  C   UNL     1      40.420 125.379  23.655  1.00  0.00     0.101 C 
ENDBRANCH  22  23
ENDBRANCH  21  22
ENDBRANCH  20  21
ENDBRANCH   1  20
TORSDOF 9
ENDMDL
MODEL 5
REMARK VINA RESULT:      -5.9      4.152      5.695
REMARK SMILES CNCCC/N=C(\O)Sc1cccc(-c2ccc3c(c2)CC3)c1
REMARK SMILES IDX 6 1 7 2 8 3 9 5 10 6 11 7 23 8 12 9 14 10 13 11 15 12 16 13
REMARK SMILES IDX 20 14 17 15 19 16 18 17 21 18 22 19 5 20 4 21 3 22 2 23 1 25
REMARK H PARENT 8 4 2 24
ROOT
ATOM      1  N   UNL     1      47.511 132.793  21.720  1.00  0.00    -0.245 NA
ENDROOT
BRANCH   1   2
ATOM      2  C   UNL     1      46.322 132.744  21.205  1.00  0.00     0.248 C 
BRANCH   2   3
ATOM      3  O   UNL     1      45.873 133.742  20.344  1.00  0.00    -0.488 OA
ATOM      4  H   UNL     1      45.134 133.557  19.676  1.00  0.00     0.295 HD
ENDBRANCH   2   3
BRANCH   2   5
ATOM      5  S   UNL     1      45.265 131.352  21.591  1.00  0.00    -0.032 SA
BRANCH   5   6
ATOM      6  C   UNL     1      44.344 131.529  20.062  1.00  0.00     0.017 A 
ATOM      7  C   UNL     1      43.012 131.952  20.089  1.00  0.00     0.015 A 
ATOM      8  C   UNL     1      44.966 131.256  18.838  1.00  0.00     0.024 A 
ATOM      9  C   UNL     1      42.302 132.099  18.896  1.00  0.00     0.002 A 
ATOM     10  C   UNL     1      44.265 131.410  17.627  1.00  0.00    -0.017 A 
ATOM     11  C   UNL     1      42.921 131.830  17.671  1.00  0.00     0.009 A 
BRANCH  10  12
ATOM     12  C   UNL     1      44.937 131.147  16.328  1.00  0.00    -0.018 A 
ATOM     13  C   UNL     1      44.288 131.516  15.094  1.00  0.00     0.009 A 
ATOM     14  C   UNL     1      46.231 130.548  16.310  1.00  0.00     0.012 A 
ATOM     15  C   UNL     1      44.898 131.313  13.832  1.00  0.00     0.004 A 
ATOM     16  C   UNL     1      46.795 130.365  15.065  1.00  0.00    -0.044 A 
ATOM     17  C   UNL     1      46.149 130.737  13.863  1.00  0.00    -0.044 A 
ATOM     18  C   UNL     1      47.974 129.869  14.299  1.00  0.00     0.040 C 
ATOM     19  C   UNL     1      47.313 130.255  13.066  1.00  0.00     0.040 C 
ENDBRANCH  10  12
ENDBRANCH   5   6
ENDBRANCH   2   5
ENDBRANCH   1   2
BRANCH   1  20
ATOM     20  C   UNL     1      48.310 134.010  21.806  1.00  0.00     0.148 C 
BRANCH  20  21
ATOM     21  C   UNL     1      48.920 134.134  23.207  1.00  0.00     0.039 C 
BRANCH  21  22
ATOM     22  C   UNL     1      49.955 135.264  23.292  1.00  0.00     0.082 C 
BRANCH  22  23
ATOM     23  N   UNL     1      49.793 136.185  22.159  1.00  0.00    -0.320 NA
ATOM     24  H   UNL     1      49.234 137.007  22.487  1.00  0.00     0.122 HD
ATOM     25  C   UNL     1      51.095 136.680  21.710  1.00  0.00     0.101 C 
ENDBRANCH  22  23
ENDBRANCH  21  22
ENDBRANCH  20  21
ENDBRANCH   1  20
TORSDOF 9
ENDMDL
MODEL 6
REMARK VINA RESULT:      -5.9      1.319      1.545
REMARK SMILES CNCCC/N=C(\O)Sc1cccc(-c2ccc3c(c2)CC3)c1
REMARK SMILES IDX 6 1 7 2 8 3 9 5 10 6 11 7 23 8 12 9 14 10 13 11 15 12 16 13
REMARK SMILES IDX 20 14 17 15 19 16 18 17 21 18 22 19 5 20 4 21 3 22 2 23 1 25
REMARK H PARENT 8 4 2 24
ROOT
ATOM      1  N   UNL     1      43.690 129.439  22.076  1.00  0.00    -0.245 NA
ENDROOT
BRANCH   1   2
ATOM      2  C   UNL     1      43.647 130.487  22.839  1.00  0.00     0.248 C 
BRANCH   2   3
ATOM      3  O   UNL     1      42.895 130.490  24.010  1.00  0.00    -0.488 OA
ATOM      4  H   UNL     1      41.903 130.695  23.989  1.00  0.00     0.295 HD
ENDBRANCH   2   3
BRANCH   2   5
ATOM      5  S   UNL     1      44.599 131.933  22.383  1.00  0.00    -0.032 SA
BRANCH   5   6
ATOM      6  C   UNL     1      43.935 131.940  20.717  1.00  0.00     0.017 A 
ATOM      7  C   UNL     1      42.640 132.409  20.478  1.00  0.00     0.015 A 
ATOM      8  C   UNL     1      44.722 131.489  19.650  1.00  0.00     0.024 A 
ATOM      9  C   UNL     1      42.131 132.424  19.179  1.00  0.00     0.002 A 
ATOM     10  C   UNL     1      44.225 131.508  18.334  1.00  0.00    -0.017 A 
ATOM     11  C   UNL     1      42.915 131.976  18.111  1.00  0.00     0.009 A 
BRANCH  10  12
ATOM     12  C   UNL     1      45.073 131.054  17.201  1.00  0.00    -0.018 A 
ATOM     13  C   UNL     1      45.451 129.667  17.094  1.00  0.00     0.009 A 
ATOM     14  C   UNL     1      45.494 131.993  16.213  1.00  0.00     0.012 A 
ATOM     15  C   UNL     1      46.233 129.178  16.020  1.00  0.00     0.004 A 
ATOM     16  C   UNL     1      46.254 131.484  15.182  1.00  0.00    -0.044 A 
ATOM     17  C   UNL     1      46.612 130.119  15.087  1.00  0.00    -0.044 A 
ATOM     18  C   UNL     1      46.985 131.782  13.917  1.00  0.00     0.040 C 
ATOM     19  C   UNL     1      47.349 130.380  13.818  1.00  0.00     0.040 C 
ENDBRANCH  10  12
ENDBRANCH   5   6
ENDBRANCH   2   5
ENDBRANCH   1   2
BRANCH   1  20
ATOM     20  C   UNL     1      44.189 128.139  22.509  1.00  0.00     0.148 C 
BRANCH  20  21
ATOM     21  C   UNL     1      44.819 128.260  23.901  1.00  0.00     0.039 C 
BRANCH  21  22
ATOM     22  C   UNL     1      44.900 126.908  24.622  1.00  0.00     0.082 C 
BRANCH  22  23
ATOM     23  N   UNL     1      44.466 125.829  23.724  1.00  0.00    -0.320 NA
ATOM     24  H   UNL     1      45.207 125.088  23.728  1.00  0.00     0.122 HD
ATOM     25  C   UNL     1      43.227 125.223  24.212  1.00  0.00     0.101 C 
ENDBRANCH  22  23
ENDBRANCH  21  22
ENDBRANCH  20  21
ENDBRANCH   1  20
TORSDOF 9
ENDMDL
MODEL 7
REMARK VINA RESULT:      -5.6      3.503      4.987
REMARK SMILES CNCCC/N=C(\O)Sc1cccc(-c2ccc3c(c2)CC3)c1
REMARK SMILES IDX 6 1 7 2 8 3 9 5 10 6 11 7 23 8 12 9 14 10 13 11 15 12 16 13
REMARK SMILES IDX 20 14 17 15 19 16 18 17 21 18 22 19 5 20 4 21 3 22 2 23 1 25
REMARK H PARENT 8 4 2 24
ROOT
ATOM      1  N   UNL     1      46.365 132.071  20.954  1.00  0.00    -0.245 NA
ENDROOT
BRANCH   1   2
ATOM      2  C   UNL     1      45.501 131.129  21.176  1.00  0.00     0.248 C 
BRANCH   2   3
ATOM      3  O   UNL     1      45.894 129.794  21.220  1.00  0.00    -0.488 OA
ATOM      4  H   UNL     1      46.823 129.517  20.927  1.00  0.00     0.295 HD
ENDBRANCH   2   3
BRANCH   2   5
ATOM      5  S   UNL     1      43.789 131.568  21.460  1.00  0.00    -0.032 SA
BRANCH   5   6
ATOM      6  C   UNL     1      43.451 131.699  19.704  1.00  0.00     0.017 A 
ATOM      7  C   UNL     1      42.254 132.267  19.259  1.00  0.00     0.015 A 
ATOM      8  C   UNL     1      44.395 131.242  18.776  1.00  0.00     0.024 A 
ATOM      9  C   UNL     1      42.000 132.377  17.890  1.00  0.00     0.002 A 
ATOM     10  C   UNL     1      44.156 131.356  17.394  1.00  0.00    -0.017 A 
ATOM     11  C   UNL     1      42.942 131.925  16.962  1.00  0.00     0.009 A 
BRANCH  10  12
ATOM     12  C   UNL     1      45.173 130.897  16.412  1.00  0.00    -0.018 A 
ATOM     13  C   UNL     1      45.625 129.528  16.432  1.00  0.00     0.009 A 
ATOM     14  C   UNL     1      45.682 131.810  15.442  1.00  0.00     0.012 A 
ATOM     15  C   UNL     1      46.571 129.033  15.501  1.00  0.00     0.004 A 
ATOM     16  C   UNL     1      46.601 131.296  14.552  1.00  0.00    -0.044 A 
ATOM     17  C   UNL     1      47.031 129.948  14.579  1.00  0.00    -0.044 A 
ATOM     18  C   UNL     1      47.485 131.573  13.384  1.00  0.00     0.040 C 
ATOM     19  C   UNL     1      47.923 130.190  13.410  1.00  0.00     0.040 C 
ENDBRANCH  10  12
ENDBRANCH   5   6
ENDBRANCH   2   5
ENDBRANCH   1   2
BRANCH   1  20
ATOM     20  C   UNL     1      46.548 133.228  21.823  1.00  0.00     0.148 C 
BRANCH  20  21
ATOM     21  C   UNL     1      48.043 133.484  22.041  1.00  0.00     0.039 C 
BRANCH  21  22
ATOM     22  C   UNL     1      48.381 134.981  22.046  1.00  0.00     0.082 C 
BRANCH  22  23
ATOM     23  N   UNL     1      49.350 135.277  23.110  1.00  0.00    -0.320 NA
ATOM     24  H   UNL     1      49.088 134.711  23.952  1.00  0.00     0.122 HD
ATOM     25  C   UNL     1      50.697 134.877  22.704  1.00  0.00     0.101 C 
ENDBRANCH  22  23
ENDBRANCH  21  22
ENDBRANCH  20  21
ENDBRANCH   1  20
TORSDOF 9
ENDMDL
MODEL 8
REMARK VINA RESULT:      -5.2      1.492      2.375
REMARK SMILES CNCCC/N=C(\O)Sc1cccc(-c2ccc3c(c2)CC3)c1
REMARK SMILES IDX 6 1 7 2 8 3 9 5 10 6 11 7 23 8 12 9 14 10 13 11 15 12 16 13
REMARK SMILES IDX 20 14 17 15 19 16 18 17 21 18 22 19 5 20 4 21 3 22 2 23 1 25
REMARK H PARENT 8 4 2 24
ROOT
ATOM      1  N   UNL     1      44.744 126.399  23.849  1.00  0.00    -0.245 NA
ENDROOT
BRANCH   1   2
ATOM      2  C   UNL     1      44.107 127.528  23.846  1.00  0.00     0.248 C 
BRANCH   2   3
ATOM      3  O   UNL     1      42.845 127.637  23.269  1.00  0.00    -0.488 OA
ATOM      4  H   UNL     1      42.209 128.375  23.547  1.00  0.00     0.295 HD
ENDBRANCH   2   3
BRANCH   2   5
ATOM      5  S   UNL     1      44.861 128.953  24.625  1.00  0.00    -0.032 SA
BRANCH   5   6
ATOM      6  C   UNL     1      44.096 130.088  23.466  1.00  0.00     0.017 A 
ATOM      7  C   UNL     1      43.102 130.970  23.898  1.00  0.00     0.015 A 
ATOM      8  C   UNL     1      44.508 130.101  22.127  1.00  0.00     0.024 A 
ATOM      9  C   UNL     1      42.517 131.860  22.995  1.00  0.00     0.002 A 
ATOM     10  C   UNL     1      43.934 131.000  21.209  1.00  0.00    -0.017 A 
ATOM     11  C   UNL     1      42.928 131.877  21.659  1.00  0.00     0.009 A 
BRANCH  10  12
ATOM     12  C   UNL     1      44.393 131.030  19.796  1.00  0.00    -0.018 A 
ATOM     13  C   UNL     1      45.690 130.504  19.450  1.00  0.00     0.009 A 
ATOM     14  C   UNL     1      43.539 131.562  18.786  1.00  0.00     0.012 A 
ATOM     15  C   UNL     1      46.164 130.483  18.115  1.00  0.00     0.004 A 
ATOM     16  C   UNL     1      44.030 131.527  17.499  1.00  0.00    -0.044 A 
ATOM     17  C   UNL     1      45.303 131.002  17.172  1.00  0.00    -0.044 A 
ATOM     18  C   UNL     1      43.775 131.847  16.065  1.00  0.00     0.040 C 
ATOM     19  C   UNL     1      45.080 131.304  15.730  1.00  0.00     0.040 C 
ENDBRANCH  10  12
ENDBRANCH   5   6
ENDBRANCH   2   5
ENDBRANCH   1   2
BRANCH   1  20
ATOM     20  C   UNL     1      45.574 125.930  22.746  1.00  0.00     0.148 C 
BRANCH  20  21
ATOM     21  C   UNL     1      46.539 124.849  23.243  1.00  0.00     0.039 C 
BRANCH  21  22
ATOM     22  C   UNL     1      45.859 123.479  23.375  1.00  0.00     0.082 C 
BRANCH  22  23
ATOM     23  N   UNL     1      44.690 123.408  22.488  1.00  0.00    -0.320 NA
ATOM     24  H   UNL     1      44.872 122.664  21.773  1.00  0.00     0.122 HD
ATOM     25  C   UNL     1      43.497 123.020  23.242  1.00  0.00     0.101 C 
ENDBRANCH  22  23
ENDBRANCH  21  22
ENDBRANCH  20  21
ENDBRANCH   1  20
TORSDOF 9
ENDMDL
MODEL 9
REMARK VINA RESULT:      -5.0      2.739      4.156
REMARK SMILES CNCCC/N=C(\O)Sc1cccc(-c2ccc3c(c2)CC3)c1
REMARK SMILES IDX 6 1 7 2 8 3 9 5 10 6 11 7 23 8 12 9 14 10 13 11 15 12 16 13
REMARK SMILES IDX 20 14 17 15 19 16 18 17 21 18 22 19 5 20 4 21 3 22 2 23 1 25
REMARK H PARENT 8 4 2 24
ROOT
ATOM      1  N   UNL     1      43.655 125.847  23.675  1.00  0.00    -0.245 NA
ENDROOT
BRANCH   1   2
ATOM      2  C   UNL     1      44.905 125.889  23.332  1.00  0.00     0.248 C 
BRANCH   2   3
ATOM      3  O   UNL     1      45.395 125.080  22.310  1.00  0.00    -0.488 OA
ATOM      4  H   UNL     1      44.776 124.714  21.596  1.00  0.00     0.295 HD
ENDBRANCH   2   3
BRANCH   2   5
ATOM      5  S   UNL     1      45.999 127.032  24.171  1.00  0.00    -0.032 SA
BRANCH   5   6
ATOM      6  C   UNL     1      45.015 128.450  23.687  1.00  0.00     0.017 A 
ATOM      7  C   UNL     1      44.190 129.085  24.619  1.00  0.00     0.015 A 
ATOM      8  C   UNL     1      45.085 128.932  22.373  1.00  0.00     0.024 A 
ATOM      9  C   UNL     1      43.434 130.196  24.241  1.00  0.00     0.002 A 
ATOM     10  C   UNL     1      44.336 130.058  21.982  1.00  0.00    -0.017 A 
ATOM     11  C   UNL     1      43.504 130.681  22.932  1.00  0.00     0.009 A 
BRANCH  10  12
ATOM     12  C   UNL     1      44.435 130.584  20.595  1.00  0.00    -0.018 A 
ATOM     13  C   UNL     1      43.557 131.643  20.163  1.00  0.00     0.009 A 
ATOM     14  C   UNL     1      45.412 130.050  19.705  1.00  0.00     0.012 A 
ATOM     15  C   UNL     1      43.629 132.199  18.862  1.00  0.00     0.004 A 
ATOM     16  C   UNL     1      45.455 130.613  18.447  1.00  0.00    -0.044 A 
ATOM     17  C   UNL     1      44.592 131.657  18.038  1.00  0.00    -0.044 A 
ATOM     18  C   UNL     1      46.115 130.612  17.110  1.00  0.00     0.040 C 
ATOM     19  C   UNL     1      45.231 131.685  16.693  1.00  0.00     0.040 C 
ENDBRANCH  10  12
ENDBRANCH   5   6
ENDBRANCH   2   5
ENDBRANCH   1   2
BRANCH   1  20
ATOM     20  C   UNL     1      43.011 124.675  24.255  1.00  0.00     0.148 C 
BRANCH  20  21
ATOM     21  C   UNL     1      41.505 124.714  23.972  1.00  0.00     0.039 C 
BRANCH  21  22
ATOM     22  C   UNL     1      41.173 124.295  22.534  1.00  0.00     0.082 C 
BRANCH  22  23
ATOM     23  N   UNL     1      39.752 123.940  22.425  1.00  0.00    -0.320 NA
ATOM     24  H   UNL     1      39.551 123.715  21.422  1.00  0.00     0.122 HD
ATOM     25  C   UNL     1      39.459 122.746  23.218  1.00  0.00     0.101 C 
ENDBRANCH  22  23
ENDBRANCH  21  22
ENDBRANCH  20  21
ENDBRANCH   1  20
TORSDOF 9
ENDMDL


