REMARK SMILES c1cc2c(c([NH2+]c3ccc4[nH]ccc4c3)c1)CCC2
REMARK SMILES IDX 7 1 8 2 9 3 10 4 11 5 12 6 13 7 14 8 15 9 6 11 5 14 1 15
REMARK SMILES IDX 2 16 16 17 3 18 4 19 19 20 17 21 18 22
REMARK H PARENT 11 10 6 12 6 13
ROOT
ATOM      1  C   UNL     1       0.015   1.623  -0.743  1.00  0.00     0.135 A 
ATOM      2  C   UNL     1      -1.177   2.387  -0.878  1.00  0.00     0.070 A 
ATOM      3  C   UNL     1      -2.046   2.182  -1.964  1.00  0.00     0.033 A 
ATOM      4  C   UNL     1      -1.698   1.215  -2.902  1.00  0.00     0.046 A 
ATOM      5  N   UNL     1      -2.380   0.864  -4.005  1.00  0.00    -0.361 N 
ATOM      6  C   UNL     1      -1.649  -0.107  -4.598  1.00  0.00     0.083 A 
ATOM      7  C   UNL     1      -0.496  -0.373  -3.867  1.00  0.00     0.028 A 
ATOM      8  C   UNL     1      -0.548   0.482  -2.788  1.00  0.00     0.005 A 
ATOM      9  C   UNL     1       0.336   0.659  -1.728  1.00  0.00     0.078 A 
ATOM     10  H   UNL     1      -3.287   1.258  -4.340  1.00  0.00     0.166 HD
ENDROOT
BRANCH   1  11
ATOM     11  N   UNL     1       0.896   1.841   0.379  1.00  0.00    -0.281 N 
ATOM     12  H   UNL     1       1.095   2.866   0.457  1.00  0.00     0.358 HD
ATOM     13  H   UNL     1       1.817   1.370   0.230  1.00  0.00     0.358 HD
BRANCH  11  14
ATOM     14  C   UNL     1       0.290   1.354   1.596  1.00  0.00     0.138 A 
ATOM     15  C   UNL     1      -0.998   1.769   3.635  1.00  0.00     0.006 A 
ATOM     16  C   UNL     1      -0.925   0.412   3.971  1.00  0.00     0.004 A 
ATOM     17  C   UNL     1      -0.396   2.240   2.457  1.00  0.00     0.068 A 
ATOM     18  C   UNL     1      -0.244  -0.457   3.118  1.00  0.00    -0.039 A 
ATOM     19  C   UNL     1       0.345  -0.007   1.959  1.00  0.00     0.017 A 
ATOM     20  C   UNL     1      -0.072  -1.915   3.310  1.00  0.00     0.036 C 
ATOM     21  C   UNL     1       0.985  -1.122   1.213  1.00  0.00     0.042 C 
ATOM     22  C   UNL     1       0.841  -2.337   2.147  1.00  0.00     0.010 C 
ENDBRANCH  11  14
ENDBRANCH   1  11
TORSDOF 2


