REMARK SMILES C=CCC(=O)Nc1ccc(-c2ccc(C)cc2)cc1C=O
REMARK SMILES IDX 4 1 5 2 6 3 3 5 2 6 1 7 7 8 8 9 19 10 9 11 18 12 10 13 20 14
REMARK SMILES IDX 21 15 11 16 12 17 17 18 13 19 16 20 14 21 15 22
REMARK H PARENT 6 4
ROOT
ATOM      1  C   UNL     1       1.457   3.674  -0.218  1.00  0.00     0.228 C 
ATOM      2  O   UNL     1       2.527   3.030  -0.046  1.00  0.00    -0.274 OA
ATOM      3  N   UNL     1       0.204   2.984  -0.340  1.00  0.00    -0.325 N 
ATOM      4  H   UNL     1      -0.644   3.536  -0.602  1.00  0.00     0.169 HD
ENDROOT
BRANCH   1   5
ATOM      5  C   UNL     1       1.507   5.164  -0.361  1.00  0.00     0.127 C 
BRANCH   5   6
ATOM      6  C   UNL     1       1.349   5.562  -1.801  1.00  0.00    -0.025 C 
ATOM      7  C   UNL     1       2.310   5.334  -2.701  1.00  0.00     0.004 C 
ENDBRANCH   5   6
ENDBRANCH   1   5
BRANCH   3   8
ATOM      8  C   UNL     1       0.069   1.567  -0.148  1.00  0.00     0.051 A 
ATOM      9  C   UNL     1       0.599   0.977   1.011  1.00  0.00     0.027 A 
ATOM     10  C   UNL     1      -0.660   0.768  -1.063  1.00  0.00     0.038 A 
ATOM     11  C   UNL     1       0.414  -0.381   1.269  1.00  0.00     0.011 A 
ATOM     12  C   UNL     1      -0.851  -0.596  -0.782  1.00  0.00     0.022 A 
ATOM     13  C   UNL     1      -0.317  -1.181   0.379  1.00  0.00    -0.018 A 
BRANCH  10  14
ATOM     14  C   UNL     1      -1.201   1.293  -2.337  1.00  0.00     0.262 C 
ATOM     15  O   UNL     1      -0.829   2.397  -2.814  1.00  0.00    -0.298 OA
ENDBRANCH  10  14
BRANCH  13  16
ATOM     16  C   UNL     1      -0.521  -2.626   0.658  1.00  0.00    -0.018 A 
ATOM     17  C   UNL     1       0.525  -3.410   1.177  1.00  0.00     0.009 A 
ATOM     18  C   UNL     1      -1.767  -3.232   0.413  1.00  0.00     0.009 A 
ATOM     19  C   UNL     1       0.332  -4.769   1.440  1.00  0.00     0.004 A 
ATOM     20  C   UNL     1      -1.959  -4.592   0.677  1.00  0.00     0.004 A 
ATOM     21  C   UNL     1      -0.906  -5.372   1.177  1.00  0.00    -0.051 A 
ATOM     22  C   UNL     1      -1.123  -6.821   1.497  1.00  0.00     0.044 C 
ENDBRANCH  13  16
ENDBRANCH   3   8
TORSDOF 5


