REMARK SMILES C=Cc1cccc(-c2ccc3c(c2)[C@H](/N=C(\O)[N-]c2cc(F)cc(OC)c2)CC3)c1
REMARK SMILES IDX 16 1 17 2 15 4 14 5 12 6 28 7 13 8 11 9 29 10 8 11 10 12
REMARK SMILES IDX 9 13 7 14 6 15 30 16 5 17 3 18 4 19 2 20 1 21 18 22 19 23
REMARK SMILES IDX 20 24 27 25 21 26 24 27 23 28 22 29 25 30 26 31
REMARK H PARENT 17 3
ROOT
ATOM      1  C   UNL     1       2.961  -2.378   1.748  1.00  0.00     0.094 C 
ENDROOT
BRANCH   1   2
ATOM      2  O   UNL     1       3.682  -2.816   2.855  1.00  0.00    -0.516 OA
ATOM      3  H   UNL     1       4.462  -3.453   2.744  1.00  0.00     0.292 HD
ENDBRANCH   1   2
BRANCH   1   4
ATOM      4  N   UNL     1       1.971  -1.553   1.897  1.00  0.00    -0.427 NA
BRANCH   4   5
ATOM      5  C   UNL     1       1.500  -1.017   3.172  1.00  0.00     0.024 C 
ATOM      6  C   UNL     1       0.378  -0.084   2.916  1.00  0.00    -0.042 A 
ATOM      7  C   UNL     1       0.870  -2.113   4.068  1.00  0.00     0.012 C 
ATOM      8  C   UNL     1       0.391   1.015   2.053  1.00  0.00     0.013 A 
ATOM      9  C   UNL     1      -0.762  -0.444   3.588  1.00  0.00    -0.045 A 
ATOM     10  C   UNL     1      -0.570  -1.666   4.400  1.00  0.00     0.036 C 
ATOM     11  C   UNL     1      -0.791   1.763   1.871  1.00  0.00    -0.018 A 
ATOM     12  C   UNL     1      -1.943   0.288   3.449  1.00  0.00     0.004 A 
ATOM     13  C   UNL     1      -1.955   1.397   2.588  1.00  0.00     0.009 A 
BRANCH  11  14
ATOM     14  C   UNL     1      -0.814   2.898   0.916  1.00  0.00    -0.018 A 
ATOM     15  C   UNL     1      -1.451   4.102   1.257  1.00  0.00     0.009 A 
ATOM     16  C   UNL     1      -0.203   2.777  -0.346  1.00  0.00     0.016 A 
ATOM     17  C   UNL     1      -1.471   5.169   0.355  1.00  0.00     0.001 A 
ATOM     18  C   UNL     1      -0.209   3.854  -1.257  1.00  0.00    -0.026 A 
ATOM     19  C   UNL     1      -0.857   5.046  -0.893  1.00  0.00     0.008 A 
BRANCH  18  20
ATOM     20  C   UNL     1       0.415   3.772  -2.602  1.00  0.00     0.000 C 
ATOM     21  C   UNL     1       1.289   2.830  -2.974  1.00  0.00     0.009 C 
ENDBRANCH  18  20
ENDBRANCH  11  14
ENDBRANCH   4   5
ENDBRANCH   1   4
BRANCH   1  22
ATOM     22  N   UNL     1       3.342  -2.822   0.437  1.00  0.00    -0.405 NA
BRANCH  22  23
ATOM     23  C   UNL     1       2.627  -2.606  -0.795  1.00  0.00    -0.033 A 
ATOM     24  C   UNL     1       3.344  -2.639  -1.998  1.00  0.00     0.043 A 
ATOM     25  C   UNL     1       1.232  -2.403  -0.833  1.00  0.00     0.050 A 
ATOM     26  C   UNL     1       2.691  -2.431  -3.218  1.00  0.00     0.127 A 
ATOM     27  C   UNL     1       0.574  -2.168  -2.058  1.00  0.00     0.122 A 
ATOM     28  C   UNL     1       1.314  -2.189  -3.246  1.00  0.00     0.085 A 
ATOM     29  F   UNL     1       3.396  -2.456  -4.376  1.00  0.00    -0.207 F 
BRANCH  27  30
ATOM     30  O   UNL     1      -0.805  -1.911  -2.135  1.00  0.00    -0.497 OA
ATOM     31  C   UNL     1      -1.656  -1.747  -1.004  1.00  0.00     0.278 C 
ENDBRANCH  27  30
ENDBRANCH  22  23
ENDBRANCH   1  22
TORSDOF 8


