MODEL 1
REMARK VINA RESULT:      -7.2      0.000      0.000
REMARK SMILES C=Cc1cc([C@@H]2O[C@H]2c2ccccc2)c(N)c([O-])c1[NH2+]c1ccc(C)c(F)c1
REMARK SMILES IDX 3 1 4 2 5 3 15 4 17 5 18 6 19 7 2 8 1 9 20 10 21 13 22 14
REMARK SMILES IDX 28 15 23 16 26 17 24 18 27 19 25 20 6 21 7 22 8 23 9 24
REMARK SMILES IDX 10 25 14 26 11 27 13 28 12 29 16 30
REMARK H PARENT 20 11 20 12 16 31 16 32
ROOT
ATOM      1  C   UNL     1      45.136 128.360  22.354  1.00  0.00     0.035 A 
ATOM      2  C   UNL     1      45.583 128.970  21.171  1.00  0.00     0.023 A 
ATOM      3  C   UNL     1      45.191 130.269  20.825  1.00  0.00     0.007 A 
ATOM      4  C   UNL     1      44.285 130.964  21.652  1.00  0.00     0.035 A 
ATOM      5  C   UNL     1      43.828 130.365  22.839  1.00  0.00    -0.020 A 
ATOM      6  O   UNL     1      42.949 131.068  23.659  1.00  0.00    -0.867 OA
ATOM      7  C   UNL     1      44.246 129.064  23.207  1.00  0.00     0.136 A 
ENDROOT
BRANCH   1   8
ATOM      8  C   UNL     1      45.575 126.978  22.666  1.00  0.00     0.006 C 
ATOM      9  C   UNL     1      46.837 126.576  22.515  1.00  0.00     0.009 C 
ENDBRANCH   1   8
BRANCH   7  10
ATOM     10  N   UNL     1      43.813 128.497  24.472  1.00  0.00    -0.281 N 
ATOM     11  H   UNL     1      44.584 127.968  24.939  1.00  0.00     0.358 HD
ATOM     12  H   UNL     1      43.565 129.260  25.140  1.00  0.00     0.358 HD
BRANCH  10  13
ATOM     13  C   UNL     1      42.704 127.593  24.266  1.00  0.00     0.137 A 
ATOM     14  C   UNL     1      42.820 126.234  24.608  1.00  0.00     0.068 A 
ATOM     15  C   UNL     1      41.486 128.062  23.742  1.00  0.00     0.107 A 
ATOM     16  C   UNL     1      41.751 125.358  24.404  1.00  0.00     0.012 A 
ATOM     17  C   UNL     1      40.415 127.185  23.536  1.00  0.00     0.132 A 
ATOM     18  C   UNL     1      40.547 125.824  23.855  1.00  0.00    -0.015 A 
ATOM     19  F   UNL     1      39.251 127.665  23.030  1.00  0.00    -0.206 F 
ATOM     20  C   UNL     1      39.390 124.888  23.657  1.00  0.00     0.047 C 
ENDBRANCH  10  13
ENDBRANCH   7  10
BRANCH   3  21
ATOM     21  C   UNL     1      45.707 130.862  19.539  1.00  0.00     0.185 C 
ATOM     22  O   UNL     1      44.811 131.824  19.030  1.00  0.00    -0.359 OA
ATOM     23  C   UNL     1      44.890 130.610  18.322  1.00  0.00     0.183 C 
BRANCH  23  24
ATOM     24  C   UNL     1      45.561 130.819  16.996  1.00  0.00    -0.016 A 
ATOM     25  C   UNL     1      45.270 131.949  16.213  1.00  0.00     0.006 A 
ATOM     26  C   UNL     1      46.527 129.902  16.552  1.00  0.00     0.006 A 
ATOM     27  C   UNL     1      45.923 132.144  14.992  1.00  0.00     0.000 A 
ATOM     28  C   UNL     1      47.177 130.102  15.330  1.00  0.00     0.000 A 
ATOM     29  C   UNL     1      46.875 131.221  14.550  1.00  0.00     0.000 A 
ENDBRANCH  23  24
ENDBRANCH   3  21
BRANCH   4  30
ATOM     30  N   UNL     1      43.815 132.274  21.295  1.00  0.00    -0.399 N 
ATOM     31  H   UNL     1      42.964 132.685  21.738  1.00  0.00     0.156 HD
ATOM     32  H   UNL     1      44.287 132.849  20.565  1.00  0.00     0.156 HD
ENDBRANCH   4  30
TORSDOF 6
ENDMDL
MODEL 2
REMARK VINA RESULT:      -5.8      2.070      3.577
REMARK SMILES C=Cc1cc([C@@H]2O[C@H]2c2ccccc2)c(N)c([O-])c1[NH2+]c1ccc(C)c(F)c1
REMARK SMILES IDX 3 1 4 2 5 3 15 4 17 5 18 6 19 7 2 8 1 9 20 10 21 13 22 14
REMARK SMILES IDX 28 15 23 16 26 17 24 18 27 19 25 20 6 21 7 22 8 23 9 24
REMARK SMILES IDX 10 25 14 26 11 27 13 28 12 29 16 30
REMARK H PARENT 20 11 20 12 16 31 16 32
ROOT
ATOM      1  C   UNL     1      45.390 131.987  20.640  1.00  0.00     0.035 A 
ATOM      2  C   UNL     1      45.788 131.961  19.295  1.00  0.00     0.023 A 
ATOM      3  C   UNL     1      44.851 131.968  18.255  1.00  0.00     0.007 A 
ATOM      4  C   UNL     1      43.474 131.947  18.561  1.00  0.00     0.035 A 
ATOM      5  C   UNL     1      43.061 131.971  19.905  1.00  0.00    -0.020 A 
ATOM      6  O   UNL     1      41.700 131.971  20.197  1.00  0.00    -0.867 OA
ATOM      7  C   UNL     1      44.006 131.995  20.958  1.00  0.00     0.136 A 
ENDROOT
BRANCH   1   8
ATOM      8  C   UNL     1      46.427 131.968  21.702  1.00  0.00     0.006 C 
ATOM      9  C   UNL     1      47.285 132.972  21.884  1.00  0.00     0.009 C 
ENDBRANCH   1   8
BRANCH   7  10
ATOM     10  N   UNL     1      43.552 132.090  22.334  1.00  0.00    -0.281 N 
ATOM     11  H   UNL     1      44.247 132.591  22.933  1.00  0.00     0.358 HD
ATOM     12  H   UNL     1      42.684 132.667  22.386  1.00  0.00     0.358 HD
BRANCH  10  13
ATOM     13  C   UNL     1      43.344 130.771  22.888  1.00  0.00     0.137 A 
ATOM     14  C   UNL     1      44.423 129.881  23.034  1.00  0.00     0.068 A 
ATOM     15  C   UNL     1      42.066 130.365  23.310  1.00  0.00     0.107 A 
ATOM     16  C   UNL     1      44.222 128.604  23.564  1.00  0.00     0.012 A 
ATOM     17  C   UNL     1      41.863 129.087  23.840  1.00  0.00     0.132 A 
ATOM     18  C   UNL     1      42.940 128.194  23.958  1.00  0.00    -0.015 A 
ATOM     19  F   UNL     1      40.618 128.723  24.240  1.00  0.00    -0.206 F 
ATOM     20  C   UNL     1      42.727 126.829  24.549  1.00  0.00     0.047 C 
ENDBRANCH  10  13
ENDBRANCH   7  10
BRANCH   3  21
ATOM     21  C   UNL     1      45.348 131.936  16.832  1.00  0.00     0.185 C 
ATOM     22  O   UNL     1      44.413 131.307  15.984  1.00  0.00    -0.359 OA
ATOM     23  C   UNL     1      45.595 130.590  16.251  1.00  0.00     0.183 C 
BRANCH  23  24
ATOM     24  C   UNL     1      46.458 130.527  15.024  1.00  0.00    -0.016 A 
ATOM     25  C   UNL     1      47.623 129.742  15.004  1.00  0.00     0.006 A 
ATOM     26  C   UNL     1      46.073 131.219  13.865  1.00  0.00     0.006 A 
ATOM     27  C   UNL     1      48.402 129.671  13.845  1.00  0.00     0.000 A 
ATOM     28  C   UNL     1      46.855 131.145  12.708  1.00  0.00     0.000 A 
ATOM     29  C   UNL     1      48.020 130.373  12.698  1.00  0.00     0.000 A 
ENDBRANCH  23  24
ENDBRANCH   3  21
BRANCH   4  30
ATOM     30  N   UNL     1      42.487 131.892  17.519  1.00  0.00    -0.399 N 
ATOM     31  H   UNL     1      42.125 130.981  17.160  1.00  0.00     0.156 HD
ATOM     32  H   UNL     1      42.117 132.754  17.065  1.00  0.00     0.156 HD
ENDBRANCH   4  30
TORSDOF 6
ENDMDL
MODEL 3
REMARK VINA RESULT:      -4.6      2.234      4.030
REMARK SMILES C=Cc1cc([C@@H]2O[C@H]2c2ccccc2)c(N)c([O-])c1[NH2+]c1ccc(C)c(F)c1
REMARK SMILES IDX 3 1 4 2 5 3 15 4 17 5 18 6 19 7 2 8 1 9 20 10 21 13 22 14
REMARK SMILES IDX 28 15 23 16 26 17 24 18 27 19 25 20 6 21 7 22 8 23 9 24
REMARK SMILES IDX 10 25 14 26 11 27 13 28 12 29 16 30
REMARK H PARENT 20 11 20 12 16 31 16 32
ROOT
ATOM      1  C   UNL     1      42.892 131.862  19.626  1.00  0.00     0.035 A 
ATOM      2  C   UNL     1      43.330 131.598  18.319  1.00  0.00     0.023 A 
ATOM      3  C   UNL     1      44.626 131.136  18.062  1.00  0.00     0.007 A 
ATOM      4  C   UNL     1      45.533 130.981  19.131  1.00  0.00     0.035 A 
ATOM      5  C   UNL     1      45.108 131.243  20.446  1.00  0.00    -0.020 A 
ATOM      6  O   UNL     1      46.004 131.067  21.497  1.00  0.00    -0.867 OA
ATOM      7  C   UNL     1      43.789 131.680  20.712  1.00  0.00     0.136 A 
ENDROOT
BRANCH   1   8
ATOM      8  C   UNL     1      41.510 132.360  19.839  1.00  0.00     0.006 C 
ATOM      9  C   UNL     1      41.244 133.444  20.567  1.00  0.00     0.009 C 
ENDBRANCH   1   8
BRANCH   7  10
ATOM     10  N   UNL     1      43.356 131.877  22.083  1.00  0.00    -0.281 N 
ATOM     11  H   UNL     1      44.080 132.379  22.646  1.00  0.00     0.358 HD
ATOM     12  H   UNL     1      42.516 132.498  22.109  1.00  0.00     0.358 HD
BRANCH  10  13
ATOM     13  C   UNL     1      43.092 130.605  22.717  1.00  0.00     0.137 A 
ATOM     14  C   UNL     1      41.819 130.322  23.244  1.00  0.00     0.068 A 
ATOM     15  C   UNL     1      44.095 129.623  22.798  1.00  0.00     0.107 A 
ATOM     16  C   UNL     1      41.563 129.095  23.862  1.00  0.00     0.012 A 
ATOM     17  C   UNL     1      43.841 128.395  23.417  1.00  0.00     0.132 A 
ATOM     18  C   UNL     1      42.576 128.129  23.965  1.00  0.00    -0.015 A 
ATOM     19  F   UNL     1      44.828 127.466  23.480  1.00  0.00    -0.206 F 
ATOM     20  C   UNL     1      42.296 126.802  24.609  1.00  0.00     0.047 C 
ENDBRANCH  10  13
ENDBRANCH   7  10
BRANCH   3  21
ATOM     21  C   UNL     1      45.032 130.876  16.634  1.00  0.00     0.185 C 
ATOM     22  O   UNL     1      45.148 129.493  16.384  1.00  0.00    -0.359 OA
ATOM     23  C   UNL     1      46.352 130.222  16.432  1.00  0.00     0.183 C 
BRANCH  23  24
ATOM     24  C   UNL     1      46.959 130.321  15.063  1.00  0.00    -0.016 A 
ATOM     25  C   UNL     1      46.843 131.501  14.309  1.00  0.00     0.006 A 
ATOM     26  C   UNL     1      47.695 129.243  14.547  1.00  0.00     0.006 A 
ATOM     27  C   UNL     1      47.437 131.589  13.046  1.00  0.00     0.000 A 
ATOM     28  C   UNL     1      48.288 129.336  13.284  1.00  0.00     0.000 A 
ATOM     29  C   UNL     1      48.158 130.507  12.533  1.00  0.00     0.000 A 
ENDBRANCH  23  24
ENDBRANCH   3  21
BRANCH   4  30
ATOM     30  N   UNL     1      46.889 130.567  18.896  1.00  0.00    -0.399 N 
ATOM     31  H   UNL     1      47.208 130.268  17.948  1.00  0.00     0.156 HD
ATOM     32  H   UNL     1      47.592 130.522  19.664  1.00  0.00     0.156 HD
ENDBRANCH   4  30
TORSDOF 6
ENDMDL
MODEL 4
REMARK VINA RESULT:      -4.3      1.325      1.930
REMARK SMILES C=Cc1cc([C@@H]2O[C@H]2c2ccccc2)c(N)c([O-])c1[NH2+]c1ccc(C)c(F)c1
REMARK SMILES IDX 3 1 4 2 5 3 15 4 17 5 18 6 19 7 2 8 1 9 20 10 21 13 22 14
REMARK SMILES IDX 28 15 23 16 26 17 24 18 27 19 25 20 6 21 7 22 8 23 9 24
REMARK SMILES IDX 10 25 14 26 11 27 13 28 12 29 16 30
REMARK H PARENT 20 11 20 12 16 31 16 32
ROOT
ATOM      1  C   UNL     1      44.608 129.981  21.918  1.00  0.00     0.035 A 
ATOM      2  C   UNL     1      45.255 130.197  20.691  1.00  0.00     0.023 A 
ATOM      3  C   UNL     1      44.828 131.194  19.805  1.00  0.00     0.007 A 
ATOM      4  C   UNL     1      43.691 131.965  20.124  1.00  0.00     0.035 A 
ATOM      5  C   UNL     1      43.033 131.759  21.350  1.00  0.00    -0.020 A 
ATOM      6  O   UNL     1      41.924 132.540  21.664  1.00  0.00    -0.867 OA
ATOM      7  C   UNL     1      43.481 130.773  22.260  1.00  0.00     0.136 A 
ENDROOT
BRANCH   1   8
ATOM      8  C   UNL     1      45.097 128.904  22.813  1.00  0.00     0.006 C 
ATOM      9  C   UNL     1      45.604 127.762  22.350  1.00  0.00     0.009 C 
ENDBRANCH   1   8
BRANCH   7  10
ATOM     10  N   UNL     1      42.825 130.628  23.547  1.00  0.00    -0.281 N 
ATOM     11  H   UNL     1      43.419 130.995  24.324  1.00  0.00     0.358 HD
ATOM     12  H   UNL     1      41.957 131.209  23.574  1.00  0.00     0.358 HD
BRANCH  10  13
ATOM     13  C   UNL     1      42.538 129.237  23.814  1.00  0.00     0.137 A 
ATOM     14  C   UNL     1      43.522 128.401  24.371  1.00  0.00     0.068 A 
ATOM     15  C   UNL     1      41.267 128.702  23.541  1.00  0.00     0.107 A 
ATOM     16  C   UNL     1      43.250 127.055  24.625  1.00  0.00     0.012 A 
ATOM     17  C   UNL     1      40.992 127.354  23.793  1.00  0.00     0.132 A 
ATOM     18  C   UNL     1      41.988 126.519  24.325  1.00  0.00    -0.015 A 
ATOM     19  F   UNL     1      39.756 126.865  23.520  1.00  0.00    -0.206 F 
ATOM     20  C   UNL     1      41.686 125.077  24.617  1.00  0.00     0.047 C 
ENDBRANCH  10  13
ENDBRANCH   7  10
BRANCH   3  21
ATOM     21  C   UNL     1      45.566 131.369  18.503  1.00  0.00     0.185 C 
ATOM     22  O   UNL     1      45.027 132.436  17.755  1.00  0.00    -0.359 OA
ATOM     23  C   UNL     1      44.779 131.140  17.263  1.00  0.00     0.183 C 
BRANCH  23  24
ATOM     24  C   UNL     1      45.553 130.903  15.999  1.00  0.00    -0.016 A 
ATOM     25  C   UNL     1      46.638 130.011  15.977  1.00  0.00     0.006 A 
ATOM     26  C   UNL     1      45.161 131.540  14.811  1.00  0.00     0.006 A 
ATOM     27  C   UNL     1      47.333 129.779  14.786  1.00  0.00     0.000 A 
ATOM     28  C   UNL     1      45.859 131.305  13.622  1.00  0.00     0.000 A 
ATOM     29  C   UNL     1      46.945 130.426  13.609  1.00  0.00     0.000 A 
ENDBRANCH  23  24
ENDBRANCH   3  21
BRANCH   4  30
ATOM     30  N   UNL     1      43.191 132.955  19.210  1.00  0.00    -0.399 N 
ATOM     31  H   UNL     1      43.520 133.945  19.249  1.00  0.00     0.156 HD
ATOM     32  H   UNL     1      42.464 132.730  18.498  1.00  0.00     0.156 HD
ENDBRANCH   4  30
TORSDOF 6
ENDMDL


