REMARK SMILES NNc1ccccc1-c1nc2ccccc2[nH]1
REMARK SMILES IDX 3 1 4 2 5 3 6 4 7 5 8 6 2 7 1 9 9 12 10 13 17 14 11 15 16 16
REMARK SMILES IDX 12 17 15 18 13 19 14 20
REMARK H PARENT 2 8 1 10 1 11 17 21
ROOT
ATOM      1  C   UNL     1      -2.238   0.319   0.158  1.00  0.00     0.059 A 
ATOM      2  C   UNL     1      -3.558  -0.004   0.529  1.00  0.00     0.028 A 
ATOM      3  C   UNL     1      -3.862  -1.255   1.069  1.00  0.00     0.002 A 
ATOM      4  C   UNL     1      -2.857  -2.202   1.247  1.00  0.00     0.001 A 
ATOM      5  C   UNL     1      -1.540  -1.897   0.902  1.00  0.00     0.014 A 
ATOM      6  C   UNL     1      -1.210  -0.638   0.371  1.00  0.00     0.042 A 
ENDROOT
BRANCH   1   7
ATOM      7  N   UNL     1      -1.963   1.580  -0.483  1.00  0.00    -0.323 N 
ATOM      8  H   UNL     1      -1.074   1.715  -1.015  1.00  0.00     0.181 HD
BRANCH   7   9
ATOM      9  N   UNL     1      -2.885   2.639  -0.443  1.00  0.00    -0.250 NA
ATOM     10  H   UNL     1      -3.631   2.424  -1.143  1.00  0.00     0.143 HD
ATOM     11  H   UNL     1      -2.399   3.497  -0.791  1.00  0.00     0.143 HD
ENDBRANCH   7   9
ENDBRANCH   1   7
BRANCH   6  12
ATOM     12  C   UNL     1       0.215  -0.339   0.105  1.00  0.00     0.140 A 
ATOM     13  N   UNL     1       0.794   0.857   0.402  1.00  0.00    -0.228 NA
ATOM     14  N   UNL     1       1.087  -1.252  -0.396  1.00  0.00    -0.338 N 
ATOM     15  C   UNL     1       2.077   0.665   0.048  1.00  0.00     0.089 A 
ATOM     16  C   UNL     1       2.254  -0.598  -0.429  1.00  0.00     0.066 A 
ATOM     17  C   UNL     1       3.130   1.573   0.133  1.00  0.00     0.030 A 
ATOM     18  C   UNL     1       3.495  -1.061  -0.863  1.00  0.00     0.028 A 
ATOM     19  C   UNL     1       4.400   1.143  -0.296  1.00  0.00     0.002 A 
ATOM     20  C   UNL     1       4.582  -0.169  -0.793  1.00  0.00     0.002 A 
ATOM     21  H   UNL     1       0.897  -2.234  -0.695  1.00  0.00     0.168 HD
ENDBRANCH   6  12
TORSDOF 3


