MODEL 1
REMARK VINA RESULT:      -8.9      0.000      0.000
REMARK SMILES O/C(=N\c1cc2cc(-c3nc[nH+]cc3F)[nH]c2cc1F)c1cc(F)c[nH]1
REMARK SMILES IDX 3 1 2 2 1 3 21 5 22 6 26 7 23 8 25 9 24 11 4 12 19 13 5 14
REMARK SMILES IDX 18 15 6 16 17 17 7 18 16 19 8 20 20 21 9 23 10 24 14 25
REMARK SMILES IDX 11 26 13 27 12 28 15 29
REMARK H PARENT 1 4 26 10 16 22 12 30
ROOT
ATOM      1  N   UNL     1      44.038 131.389  22.962  1.00  0.00    -0.209 NA
ENDROOT
BRANCH   1   2
ATOM      2  C   UNL     1      43.060 131.025  23.739  1.00  0.00     0.235 C 
BRANCH   2   3
ATOM      3  O   UNL     1      42.442 131.954  24.579  1.00  0.00    -0.492 OA
ATOM      4  H   UNL     1      42.467 132.950  24.405  1.00  0.00     0.295 HD
ENDBRANCH   2   3
BRANCH   2   5
ATOM      5  C   UNL     1      42.642 129.607  23.742  1.00  0.00     0.104 A 
ATOM      6  C   UNL     1      43.481 128.504  23.739  1.00  0.00     0.072 A 
ATOM      7  N   UNL     1      41.352 129.209  23.751  1.00  0.00    -0.355 N 
ATOM      8  C   UNL     1      42.649 127.406  23.746  1.00  0.00     0.141 A 
ATOM      9  C   UNL     1      41.351 127.864  23.753  1.00  0.00     0.122 A 
ATOM     10  H   UNL     1      40.505 129.820  23.757  1.00  0.00     0.166 HD
ATOM     11  F   UNL     1      43.040 126.107  23.746  1.00  0.00    -0.205 F 
ENDBRANCH   2   5
ENDBRANCH   1   2
BRANCH   1  12
ATOM     12  C   UNL     1      44.026 131.413  21.525  1.00  0.00     0.104 A 
ATOM     13  C   UNL     1      42.926 132.017  20.867  1.00  0.00     0.151 A 
ATOM     14  C   UNL     1      45.114 130.921  20.762  1.00  0.00     0.042 A 
ATOM     15  C   UNL     1      42.883 132.093  19.462  1.00  0.00     0.068 A 
ATOM     16  C   UNL     1      45.036 131.016  19.376  1.00  0.00     0.003 A 
ATOM     17  C   UNL     1      43.961 131.580  18.747  1.00  0.00     0.049 A 
ATOM     18  C   UNL     1      45.922 130.615  18.400  1.00  0.00     0.041 A 
ATOM     19  N   UNL     1      44.117 131.558  17.413  1.00  0.00    -0.351 N 
ATOM     20  C   UNL     1      45.322 130.973  17.193  1.00  0.00     0.095 A 
ATOM     21  F   UNL     1      41.895 132.519  21.591  1.00  0.00    -0.205 F 
ATOM     22  H   UNL     1      43.423 131.889  16.708  1.00  0.00     0.167 HD
BRANCH  20  23
ATOM     23  C   UNL     1      45.904 130.701  15.861  1.00  0.00     0.237 A 
ATOM     24  N   UNL     1      46.934 129.816  15.765  1.00  0.00    -0.044 NA
ATOM     25  C   UNL     1      45.445 131.336  14.693  1.00  0.00     0.215 A 
ATOM     26  C   UNL     1      47.512 129.522  14.572  1.00  0.00     0.449 A 
ATOM     27  C   UNL     1      46.052 131.019  13.478  1.00  0.00     0.241 A 
ATOM     28  N   UNL     1      47.068 130.119  13.435  1.00  0.00    -0.247 N 
ATOM     29  F   UNL     1      44.471 132.279  14.722  1.00  0.00    -0.198 F 
ATOM     30  H   UNL     1      47.518 129.888  12.521  1.00  0.00     0.311 HD
ENDBRANCH  20  23
ENDBRANCH   1  12
TORSDOF 5
ENDMDL
MODEL 2
REMARK VINA RESULT:      -8.2      1.266      1.396
REMARK SMILES O/C(=N\c1cc2cc(-c3nc[nH+]cc3F)[nH]c2cc1F)c1cc(F)c[nH]1
REMARK SMILES IDX 3 1 2 2 1 3 21 5 22 6 26 7 23 8 25 9 24 11 4 12 19 13 5 14
REMARK SMILES IDX 18 15 6 16 17 17 7 18 16 19 8 20 20 21 9 23 10 24 14 25
REMARK SMILES IDX 11 26 13 27 12 28 15 29
REMARK H PARENT 1 4 26 10 16 22 12 30
ROOT
ATOM      1  N   UNL     1      42.934 132.190  22.197  1.00  0.00    -0.209 NA
ENDROOT
BRANCH   1   2
ATOM      2  C   UNL     1      42.412 131.318  23.010  1.00  0.00     0.235 C 
BRANCH   2   3
ATOM      3  O   UNL     1      41.256 131.629  23.731  1.00  0.00    -0.492 OA
ATOM      4  H   UNL     1      40.327 131.437  23.382  1.00  0.00     0.295 HD
ENDBRANCH   2   3
BRANCH   2   5
ATOM      5  C   UNL     1      43.083 130.013  23.183  1.00  0.00     0.104 A 
ATOM      6  C   UNL     1      44.446 129.774  23.106  1.00  0.00     0.072 A 
ATOM      7  N   UNL     1      42.424 128.863  23.447  1.00  0.00    -0.355 N 
ATOM      8  C   UNL     1      44.599 128.423  23.335  1.00  0.00     0.141 A 
ATOM      9  C   UNL     1      43.347 127.889  23.540  1.00  0.00     0.122 A 
ATOM     10  H   UNL     1      41.394 128.741  23.561  1.00  0.00     0.166 HD
ATOM     11  F   UNL     1      45.772 127.744  23.354  1.00  0.00    -0.205 F 
ENDBRANCH   2   5
ENDBRANCH   1   2
BRANCH   1  12
ATOM     12  C   UNL     1      43.187 132.006  20.795  1.00  0.00     0.104 A 
ATOM     13  C   UNL     1      42.199 132.420  19.868  1.00  0.00     0.151 A 
ATOM     14  C   UNL     1      44.422 131.499  20.320  1.00  0.00     0.042 A 
ATOM     15  C   UNL     1      42.413 132.291  18.483  1.00  0.00     0.068 A 
ATOM     16  C   UNL     1      44.598 131.389  18.944  1.00  0.00     0.003 A 
ATOM     17  C   UNL     1      43.630 131.768  18.056  1.00  0.00     0.049 A 
ATOM     18  C   UNL     1      45.670 130.924  18.213  1.00  0.00     0.041 A 
ATOM     19  N   UNL     1      44.033 131.569  16.790  1.00  0.00    -0.351 N 
ATOM     20  C   UNL     1      45.286 131.057  16.879  1.00  0.00     0.095 A 
ATOM     21  F   UNL     1      41.026 132.937  20.312  1.00  0.00    -0.205 F 
ATOM     22  H   UNL     1      43.465 131.739  15.932  1.00  0.00     0.167 HD
BRANCH  20  23
ATOM     23  C   UNL     1      46.120 130.644  15.728  1.00  0.00     0.237 A 
ATOM     24  N   UNL     1      46.335 129.317  15.519  1.00  0.00    -0.044 NA
ATOM     25  C   UNL     1      46.712 131.574  14.855  1.00  0.00     0.215 A 
ATOM     26  C   UNL     1      47.090 128.873  14.481  1.00  0.00     0.449 A 
ATOM     27  C   UNL     1      47.483 131.097  13.795  1.00  0.00     0.241 A 
ATOM     28  N   UNL     1      47.655 129.761  13.622  1.00  0.00    -0.247 N 
ATOM     29  F   UNL     1      46.599 132.912  15.043  1.00  0.00    -0.198 F 
ATOM     30  H   UNL     1      48.235 129.412  12.826  1.00  0.00     0.311 HD
ENDBRANCH  20  23
ENDBRANCH   1  12
TORSDOF 5
ENDMDL
MODEL 3
REMARK VINA RESULT:      -7.4      1.521      1.787
REMARK SMILES O/C(=N\c1cc2cc(-c3nc[nH+]cc3F)[nH]c2cc1F)c1cc(F)c[nH]1
REMARK SMILES IDX 3 1 2 2 1 3 21 5 22 6 26 7 23 8 25 9 24 11 4 12 19 13 5 14
REMARK SMILES IDX 18 15 6 16 17 17 7 18 16 19 8 20 20 21 9 23 10 24 14 25
REMARK SMILES IDX 11 26 13 27 12 28 15 29
REMARK H PARENT 1 4 26 10 16 22 12 30
ROOT
ATOM      1  N   UNL     1      42.278 131.939  22.313  1.00  0.00    -0.209 NA
ENDROOT
BRANCH   1   2
ATOM      2  C   UNL     1      43.032 131.595  23.316  1.00  0.00     0.235 C 
BRANCH   2   3
ATOM      3  O   UNL     1      43.892 132.525  23.905  1.00  0.00    -0.492 OA
ATOM      4  H   UNL     1      44.687 132.254  24.468  1.00  0.00     0.295 HD
ENDBRANCH   2   3
BRANCH   2   5
ATOM      5  C   UNL     1      42.988 130.197  23.795  1.00  0.00     0.104 A 
ATOM      6  C   UNL     1      41.879 129.365  23.802  1.00  0.00     0.072 A 
ATOM      7  N   UNL     1      44.060 129.545  24.296  1.00  0.00    -0.355 N 
ATOM      8  C   UNL     1      42.316 128.170  24.330  1.00  0.00     0.141 A 
ATOM      9  C   UNL     1      43.653 128.306  24.625  1.00  0.00     0.122 A 
ATOM     10  H   UNL     1      45.028 129.921  24.410  1.00  0.00     0.166 HD
ATOM     11  F   UNL     1      41.562 127.060  24.525  1.00  0.00    -0.205 F 
ENDBRANCH   2   5
ENDBRANCH   1   2
BRANCH   1  12
ATOM     12  C   UNL     1      42.657 131.963  20.928  1.00  0.00     0.104 A 
ATOM     13  C   UNL     1      41.856 132.698  20.019  1.00  0.00     0.151 A 
ATOM     14  C   UNL     1      43.843 131.340  20.468  1.00  0.00     0.042 A 
ATOM     15  C   UNL     1      42.203 132.779  18.657  1.00  0.00     0.068 A 
ATOM     16  C   UNL     1      44.154 131.443  19.115  1.00  0.00     0.003 A 
ATOM     17  C   UNL     1      43.364 132.135  18.240  1.00  0.00     0.049 A 
ATOM     18  C   UNL     1      45.216 130.934  18.400  1.00  0.00     0.041 A 
ATOM     19  N   UNL     1      43.871 132.093  16.996  1.00  0.00    -0.351 N 
ATOM     20  C   UNL     1      45.011 131.363  17.088  1.00  0.00     0.095 A 
ATOM     21  F   UNL     1      40.736 133.325  20.456  1.00  0.00    -0.205 F 
ATOM     22  H   UNL     1      43.437 132.507  16.143  1.00  0.00     0.167 HD
BRANCH  20  23
ATOM     23  C   UNL     1      45.895 131.020  15.953  1.00  0.00     0.237 A 
ATOM     24  N   UNL     1      46.347 132.021  15.150  1.00  0.00    -0.044 NA
ATOM     25  C   UNL     1      46.268 129.695  15.662  1.00  0.00     0.215 A 
ATOM     26  C   UNL     1      47.162 131.772  14.092  1.00  0.00     0.449 A 
ATOM     27  C   UNL     1      47.105 129.461  14.572  1.00  0.00     0.241 A 
ATOM     28  N   UNL     1      47.541 130.498  13.810  1.00  0.00    -0.247 N 
ATOM     29  F   UNL     1      45.799 128.642  16.376  1.00  0.00    -0.198 F 
ATOM     30  H   UNL     1      48.166 130.314  12.994  1.00  0.00     0.311 HD
ENDBRANCH  20  23
ENDBRANCH   1  12
TORSDOF 5
ENDMDL
MODEL 4
REMARK VINA RESULT:      -6.7      1.313      1.417
REMARK SMILES O/C(=N\c1cc2cc(-c3nc[nH+]cc3F)[nH]c2cc1F)c1cc(F)c[nH]1
REMARK SMILES IDX 3 1 2 2 1 3 21 5 22 6 26 7 23 8 25 9 24 11 4 12 19 13 5 14
REMARK SMILES IDX 18 15 6 16 17 17 7 18 16 19 8 20 20 21 9 23 10 24 14 25
REMARK SMILES IDX 11 26 13 27 12 28 15 29
REMARK H PARENT 1 4 26 10 16 22 12 30
ROOT
ATOM      1  N   UNL     1      43.235 131.074  22.660  1.00  0.00    -0.209 NA
ENDROOT
BRANCH   1   2
ATOM      2  C   UNL     1      44.036 130.492  23.504  1.00  0.00     0.235 C 
BRANCH   2   3
ATOM      3  O   UNL     1      44.853 131.253  24.343  1.00  0.00    -0.492 OA
ATOM      4  H   UNL     1      45.629 130.857  24.856  1.00  0.00     0.295 HD
ENDBRANCH   2   3
BRANCH   2   5
ATOM      5  C   UNL     1      44.091 129.015  23.532  1.00  0.00     0.104 A 
ATOM      6  C   UNL     1      43.742 128.160  22.498  1.00  0.00     0.072 A 
ATOM      7  N   UNL     1      44.503 128.303  24.604  1.00  0.00    -0.355 N 
ATOM      8  C   UNL     1      43.958 126.887  22.981  1.00  0.00     0.141 A 
ATOM      9  C   UNL     1      44.423 127.002  24.271  1.00  0.00     0.122 A 
ATOM     10  H   UNL     1      44.827 128.679  25.522  1.00  0.00     0.166 HD
ATOM     11  F   UNL     1      43.749 125.730  22.305  1.00  0.00    -0.205 F 
ENDBRANCH   2   5
ENDBRANCH   1   2
BRANCH   1  12
ATOM     12  C   UNL     1      43.437 131.208  21.243  1.00  0.00     0.104 A 
ATOM     13  C   UNL     1      42.533 132.010  20.503  1.00  0.00     0.151 A 
ATOM     14  C   UNL     1      44.552 130.626  20.590  1.00  0.00     0.042 A 
ATOM     15  C   UNL     1      42.706 132.198  19.119  1.00  0.00     0.068 A 
ATOM     16  C   UNL     1      44.691 130.837  19.221  1.00  0.00     0.003 A 
ATOM     17  C   UNL     1      43.802 131.593  18.510  1.00  0.00     0.049 A 
ATOM     18  C   UNL     1      45.651 130.389  18.340  1.00  0.00     0.041 A 
ATOM     19  N   UNL     1      44.148 131.651  17.213  1.00  0.00    -0.351 N 
ATOM     20  C   UNL     1      45.286 130.919  17.103  1.00  0.00     0.095 A 
ATOM     21  F   UNL     1      41.481 132.597  21.126  1.00  0.00    -0.205 F 
ATOM     22  H   UNL     1      43.613 132.129  16.456  1.00  0.00     0.167 HD
BRANCH  20  23
ATOM     23  C   UNL     1      46.017 130.669  15.842  1.00  0.00     0.237 A 
ATOM     24  N   UNL     1      46.184 129.384  15.426  1.00  0.00    -0.044 NA
ATOM     25  C   UNL     1      46.562 131.709  15.068  1.00  0.00     0.215 A 
ATOM     26  C   UNL     1      46.845 129.088  14.277  1.00  0.00     0.449 A 
ATOM     27  C   UNL     1      47.236 131.383  13.891  1.00  0.00     0.241 A 
ATOM     28  N   UNL     1      47.363 130.084  13.514  1.00  0.00    -0.247 N 
ATOM     29  F   UNL     1      46.496 133.006  15.456  1.00  0.00    -0.198 F 
ATOM     30  H   UNL     1      47.871 129.848  12.632  1.00  0.00     0.311 HD
ENDBRANCH  20  23
ENDBRANCH   1  12
TORSDOF 5
ENDMDL


