MODEL 1
REMARK VINA RESULT:      -9.3      0.000      0.000
REMARK SMILES CC(=O)[N-]c1cc(F)c(-c2ccc(C)cc2)cc1C=O
REMARK SMILES IDX 5 1 6 2 7 3 8 4 9 5 17 6 18 7 4 8 2 9 1 10 3 11 19 12 20 13
REMARK SMILES IDX 10 14 11 15 16 16 12 17 15 18 13 19 14 20
REMARK H PARENT
ROOT
ATOM      1  C   UNL     1      43.540 131.588  20.890  1.00  0.00    -0.121 A 
ATOM      2  C   UNL     1      44.822 131.019  20.824  1.00  0.00     0.024 A 
ATOM      3  C   UNL     1      45.468 130.851  19.598  1.00  0.00     0.129 A 
ATOM      4  F   UNL     1      46.720 130.326  19.584  1.00  0.00    -0.206 F 
ATOM      5  C   UNL     1      44.849 131.267  18.408  1.00  0.00     0.018 A 
ATOM      6  C   UNL     1      43.582 131.869  18.473  1.00  0.00     0.022 A 
ATOM      7  C   UNL     1      42.921 132.043  19.701  1.00  0.00     0.000 A 
ENDROOT
BRANCH   1   8
ATOM      8  N   UNL     1      42.901 131.783  22.162  1.00  0.00    -0.626 NA
BRANCH   8   9
ATOM      9  C   UNL     1      43.086 130.990  23.342  1.00  0.00     0.051 C 
ATOM     10  C   UNL     1      43.637 131.568  24.609  1.00  0.00     0.065 C 
ATOM     11  O   UNL     1      42.808 129.763  23.301  1.00  0.00    -0.321 OA
ENDBRANCH   8   9
ENDBRANCH   1   8
BRANCH   7  12
ATOM     12  C   UNL     1      41.584 132.683  19.686  1.00  0.00     0.258 C 
ATOM     13  O   UNL     1      41.194 133.433  20.619  1.00  0.00    -0.298 OA
ENDBRANCH   7  12
BRANCH   5  14
ATOM     14  C   UNL     1      45.520 131.091  17.097  1.00  0.00    -0.015 A 
ATOM     15  C   UNL     1      46.012 129.833  16.708  1.00  0.00     0.009 A 
ATOM     16  C   UNL     1      45.664 132.181  16.222  1.00  0.00     0.009 A 
ATOM     17  C   UNL     1      46.637 129.670  15.469  1.00  0.00     0.004 A 
ATOM     18  C   UNL     1      46.291 132.016  14.982  1.00  0.00     0.004 A 
ATOM     19  C   UNL     1      46.769 130.757  14.592  1.00  0.00    -0.051 A 
ATOM     20  C   UNL     1      47.476 130.590  13.280  1.00  0.00     0.044 C 
ENDBRANCH   5  14
TORSDOF 4
ENDMDL
MODEL 2
REMARK VINA RESULT:      -9.2      0.738      1.326
REMARK SMILES CC(=O)[N-]c1cc(F)c(-c2ccc(C)cc2)cc1C=O
REMARK SMILES IDX 5 1 6 2 7 3 8 4 9 5 17 6 18 7 4 8 2 9 1 10 3 11 19 12 20 13
REMARK SMILES IDX 10 14 11 15 16 16 12 17 15 18 13 19 14 20
REMARK H PARENT
ROOT
ATOM      1  C   UNL     1      43.584 131.551  20.993  1.00  0.00    -0.121 A 
ATOM      2  C   UNL     1      44.869 130.993  20.895  1.00  0.00     0.024 A 
ATOM      3  C   UNL     1      45.493 130.847  19.655  1.00  0.00     0.129 A 
ATOM      4  F   UNL     1      46.748 130.332  19.609  1.00  0.00    -0.206 F 
ATOM      5  C   UNL     1      44.848 131.274  18.483  1.00  0.00     0.018 A 
ATOM      6  C   UNL     1      43.578 131.865  18.580  1.00  0.00     0.022 A 
ATOM      7  C   UNL     1      42.939 132.016  19.822  1.00  0.00     0.000 A 
ENDROOT
BRANCH   1   8
ATOM      8  N   UNL     1      42.967 131.723  22.279  1.00  0.00    -0.626 NA
BRANCH   8   9
ATOM      9  C   UNL     1      43.529 131.370  23.551  1.00  0.00     0.051 C 
ATOM     10  C   UNL     1      43.103 130.142  24.294  1.00  0.00     0.065 C 
ATOM     11  O   UNL     1      44.383 132.134  24.072  1.00  0.00    -0.321 OA
ENDBRANCH   8   9
ENDBRANCH   1   8
BRANCH   7  12
ATOM     12  C   UNL     1      41.597 132.646  19.842  1.00  0.00     0.258 C 
ATOM     13  O   UNL     1      41.239 133.424  20.764  1.00  0.00    -0.298 OA
ENDBRANCH   7  12
BRANCH   5  14
ATOM     14  C   UNL     1      45.495 131.121  17.157  1.00  0.00    -0.015 A 
ATOM     15  C   UNL     1      45.598 132.215  16.281  1.00  0.00     0.009 A 
ATOM     16  C   UNL     1      46.022 129.879  16.764  1.00  0.00     0.009 A 
ATOM     17  C   UNL     1      46.214 132.068  15.035  1.00  0.00     0.004 A 
ATOM     18  C   UNL     1      46.638 129.734  15.517  1.00  0.00     0.004 A 
ATOM     19  C   UNL     1      46.750 130.831  14.650  1.00  0.00    -0.051 A 
ATOM     20  C   UNL     1      47.375 130.664  13.297  1.00  0.00     0.044 C 
ENDBRANCH   5  14
TORSDOF 4
ENDMDL
MODEL 3
REMARK VINA RESULT:      -8.7      1.776      2.591
REMARK SMILES CC(=O)[N-]c1cc(F)c(-c2ccc(C)cc2)cc1C=O
REMARK SMILES IDX 5 1 6 2 7 3 8 4 9 5 17 6 18 7 4 8 2 9 1 10 3 11 19 12 20 13
REMARK SMILES IDX 10 14 11 15 16 16 12 17 15 18 13 19 14 20
REMARK H PARENT
ROOT
ATOM      1  C   UNL     1      43.495 131.898  19.988  1.00  0.00    -0.121 A 
ATOM      2  C   UNL     1      42.839 131.860  18.746  1.00  0.00     0.024 A 
ATOM      3  C   UNL     1      43.546 131.602  17.571  1.00  0.00     0.129 A 
ATOM      4  F   UNL     1      42.868 131.544  16.397  1.00  0.00    -0.206 F 
ATOM      5  C   UNL     1      44.929 131.358  17.615  1.00  0.00     0.018 A 
ATOM      6  C   UNL     1      45.582 131.360  18.859  1.00  0.00     0.022 A 
ATOM      7  C   UNL     1      44.881 131.619  20.049  1.00  0.00     0.000 A 
ENDROOT
BRANCH   1   8
ATOM      8  N   UNL     1      42.748 132.133  21.192  1.00  0.00    -0.626 NA
BRANCH   8   9
ATOM      9  C   UNL     1      42.791 131.349  22.392  1.00  0.00     0.051 C 
ATOM     10  C   UNL     1      43.014 131.967  23.738  1.00  0.00     0.065 C 
ATOM     11  O   UNL     1      42.672 130.099  22.307  1.00  0.00    -0.321 OA
ENDBRANCH   8   9
ENDBRANCH   1   8
BRANCH   7  12
ATOM     12  C   UNL     1      45.642 131.607  21.320  1.00  0.00     0.258 C 
ATOM     13  O   UNL     1      46.345 132.585  21.686  1.00  0.00    -0.298 OA
ENDBRANCH   7  12
BRANCH   5  14
ATOM     14  C   UNL     1      45.696 131.088  16.375  1.00  0.00    -0.015 A 
ATOM     15  C   UNL     1      46.063 132.139  15.517  1.00  0.00     0.009 A 
ATOM     16  C   UNL     1      46.074 129.775  16.047  1.00  0.00     0.009 A 
ATOM     17  C   UNL     1      46.792 131.881  14.353  1.00  0.00     0.004 A 
ATOM     18  C   UNL     1      46.803 129.518  14.881  1.00  0.00     0.004 A 
ATOM     19  C   UNL     1      47.179 130.571  14.034  1.00  0.00    -0.051 A 
ATOM     20  C   UNL     1      47.925 130.291  12.765  1.00  0.00     0.044 C 
ENDBRANCH   5  14
TORSDOF 4
ENDMDL
MODEL 4
REMARK VINA RESULT:      -8.5      1.692      2.409
REMARK SMILES CC(=O)[N-]c1cc(F)c(-c2ccc(C)cc2)cc1C=O
REMARK SMILES IDX 5 1 6 2 7 3 8 4 9 5 17 6 18 7 4 8 2 9 1 10 3 11 19 12 20 13
REMARK SMILES IDX 10 14 11 15 16 16 12 17 15 18 13 19 14 20
REMARK H PARENT
ROOT
ATOM      1  C   UNL     1      43.362 131.733  20.044  1.00  0.00    -0.121 A 
ATOM      2  C   UNL     1      42.798 132.002  18.786  1.00  0.00     0.024 A 
ATOM      3  C   UNL     1      43.521 131.776  17.615  1.00  0.00     0.129 A 
ATOM      4  F   UNL     1      42.925 132.019  16.419  1.00  0.00    -0.206 F 
ATOM      5  C   UNL     1      44.824 131.256  17.675  1.00  0.00     0.018 A 
ATOM      6  C   UNL     1      45.379 130.952  18.929  1.00  0.00     0.022 A 
ATOM      7  C   UNL     1      44.662 131.177  20.116  1.00  0.00     0.000 A 
ENDROOT
BRANCH   1   8
ATOM      8  N   UNL     1      42.594 131.942  21.240  1.00  0.00    -0.626 NA
BRANCH   8   9
ATOM      9  C   UNL     1      42.662 131.168  22.446  1.00  0.00     0.051 C 
ATOM     10  C   UNL     1      43.066 131.771  23.756  1.00  0.00     0.065 C 
ATOM     11  O   UNL     1      42.405 129.937  22.394  1.00  0.00    -0.321 OA
ENDBRANCH   8   9
ENDBRANCH   1   8
BRANCH   7  12
ATOM     12  C   UNL     1      45.318 130.835  21.400  1.00  0.00     0.258 C 
ATOM     13  O   UNL     1      45.474 129.643  21.773  1.00  0.00    -0.298 OA
ENDBRANCH   7  12
BRANCH   5  14
ATOM     14  C   UNL     1      45.608 131.015  16.440  1.00  0.00    -0.015 A 
ATOM     15  C   UNL     1      45.967 129.709  16.063  1.00  0.00     0.009 A 
ATOM     16  C   UNL     1      45.995 132.092  15.623  1.00  0.00     0.009 A 
ATOM     17  C   UNL     1      46.700 129.485  14.894  1.00  0.00     0.004 A 
ATOM     18  C   UNL     1      46.729 131.866  14.454  1.00  0.00     0.004 A 
ATOM     19  C   UNL     1      47.074 130.561  14.075  1.00  0.00    -0.051 A 
ATOM     20  C   UNL     1      47.895 130.323  12.843  1.00  0.00     0.044 C 
ENDBRANCH   5  14
TORSDOF 4
ENDMDL
MODEL 5
REMARK VINA RESULT:      -8.4      3.687      7.069
REMARK SMILES CC(=O)[N-]c1cc(F)c(-c2ccc(C)cc2)cc1C=O
REMARK SMILES IDX 5 1 6 2 7 3 8 4 9 5 17 6 18 7 4 8 2 9 1 10 3 11 19 12 20 13
REMARK SMILES IDX 10 14 11 15 16 16 12 17 15 18 13 19 14 20
REMARK H PARENT
ROOT
ATOM      1  C   UNL     1      45.598 130.838  15.218  1.00  0.00    -0.121 A 
ATOM      2  C   UNL     1      46.331 130.370  16.321  1.00  0.00     0.024 A 
ATOM      3  C   UNL     1      45.864 130.559  17.622  1.00  0.00     0.129 A 
ATOM      4  F   UNL     1      46.589 130.061  18.657  1.00  0.00    -0.206 F 
ATOM      5  C   UNL     1      44.640 131.209  17.849  1.00  0.00     0.018 A 
ATOM      6  C   UNL     1      43.887 131.647  16.747  1.00  0.00     0.022 A 
ATOM      7  C   UNL     1      44.347 131.464  15.432  1.00  0.00     0.000 A 
ENDROOT
BRANCH   1   8
ATOM      8  N   UNL     1      46.076 130.609  13.883  1.00  0.00    -0.626 NA
BRANCH   8   9
ATOM      9  C   UNL     1      47.446 130.583  13.458  1.00  0.00     0.051 C 
ATOM     10  C   UNL     1      48.309 129.372  13.629  1.00  0.00     0.065 C 
ATOM     11  O   UNL     1      47.946 131.623  12.955  1.00  0.00    -0.321 OA
ENDBRANCH   8   9
ENDBRANCH   1   8
BRANCH   7  12
ATOM     12  C   UNL     1      43.497 131.959  14.323  1.00  0.00     0.258 C 
ATOM     13  O   UNL     1      42.853 131.177  13.577  1.00  0.00    -0.298 OA
ENDBRANCH   7  12
BRANCH   5  14
ATOM     14  C   UNL     1      44.133 131.422  19.226  1.00  0.00    -0.015 A 
ATOM     15  C   UNL     1      42.870 131.999  19.442  1.00  0.00     0.009 A 
ATOM     16  C   UNL     1      44.908 131.041  20.335  1.00  0.00     0.009 A 
ATOM     17  C   UNL     1      42.392 132.193  20.741  1.00  0.00     0.004 A 
ATOM     18  C   UNL     1      44.429 131.236  21.634  1.00  0.00     0.004 A 
ATOM     19  C   UNL     1      43.163 131.800  21.845  1.00  0.00    -0.051 A 
ATOM     20  C   UNL     1      42.667 132.045  23.239  1.00  0.00     0.044 C 
ENDBRANCH   5  14
TORSDOF 4
ENDMDL
MODEL 6
REMARK VINA RESULT:      -8.4      3.640      6.998
REMARK SMILES CC(=O)[N-]c1cc(F)c(-c2ccc(C)cc2)cc1C=O
REMARK SMILES IDX 5 1 6 2 7 3 8 4 9 5 17 6 18 7 4 8 2 9 1 10 3 11 19 12 20 13
REMARK SMILES IDX 10 14 11 15 16 16 12 17 15 18 13 19 14 20
REMARK H PARENT
ROOT
ATOM      1  C   UNL     1      45.523 130.758  15.345  1.00  0.00    -0.121 A 
ATOM      2  C   UNL     1      46.234 130.258  16.449  1.00  0.00     0.024 A 
ATOM      3  C   UNL     1      45.775 130.468  17.749  1.00  0.00     0.129 A 
ATOM      4  F   UNL     1      46.477 129.941  18.785  1.00  0.00    -0.206 F 
ATOM      5  C   UNL     1      44.580 131.170  17.975  1.00  0.00     0.018 A 
ATOM      6  C   UNL     1      43.847 131.640  16.872  1.00  0.00     0.022 A 
ATOM      7  C   UNL     1      44.300 131.437  15.558  1.00  0.00     0.000 A 
ENDROOT
BRANCH   1   8
ATOM      8  N   UNL     1      45.992 130.507  14.010  1.00  0.00    -0.626 NA
BRANCH   8   9
ATOM      9  C   UNL     1      47.354 130.543  13.561  1.00  0.00     0.051 C 
ATOM     10  C   UNL     1      48.245 129.341  13.629  1.00  0.00     0.065 C 
ATOM     11  O   UNL     1      47.824 131.627  13.128  1.00  0.00    -0.321 OA
ENDBRANCH   8   9
ENDBRANCH   1   8
BRANCH   7  12
ATOM     12  C   UNL     1      43.473 131.967  14.448  1.00  0.00     0.258 C 
ATOM     13  O   UNL     1      42.895 131.209  13.626  1.00  0.00    -0.298 OA
ENDBRANCH   7  12
BRANCH   5  14
ATOM     14  C   UNL     1      44.081 131.406  19.351  1.00  0.00    -0.015 A 
ATOM     15  C   UNL     1      44.852 131.034  20.465  1.00  0.00     0.009 A 
ATOM     16  C   UNL     1      42.831 132.016  19.558  1.00  0.00     0.009 A 
ATOM     17  C   UNL     1      44.381 131.264  21.761  1.00  0.00     0.004 A 
ATOM     18  C   UNL     1      42.361 132.245  20.855  1.00  0.00     0.004 A 
ATOM     19  C   UNL     1      43.139 131.884  21.965  1.00  0.00    -0.051 A 
ATOM     20  C   UNL     1      42.617 132.093  23.355  1.00  0.00     0.044 C 
ENDBRANCH   5  14
TORSDOF 4
ENDMDL
MODEL 7
REMARK VINA RESULT:      -8.2      1.700      2.354
REMARK SMILES CC(=O)[N-]c1cc(F)c(-c2ccc(C)cc2)cc1C=O
REMARK SMILES IDX 5 1 6 2 7 3 8 4 9 5 17 6 18 7 4 8 2 9 1 10 3 11 19 12 20 13
REMARK SMILES IDX 10 14 11 15 16 16 12 17 15 18 13 19 14 20
REMARK H PARENT
ROOT
ATOM      1  C   UNL     1      43.414 131.922  20.370  1.00  0.00    -0.121 A 
ATOM      2  C   UNL     1      42.740 131.876  19.138  1.00  0.00     0.024 A 
ATOM      3  C   UNL     1      43.432 131.623  17.954  1.00  0.00     0.129 A 
ATOM      4  F   UNL     1      42.737 131.556  16.789  1.00  0.00    -0.206 F 
ATOM      5  C   UNL     1      44.817 131.392  17.977  1.00  0.00     0.018 A 
ATOM      6  C   UNL     1      45.489 131.401  19.211  1.00  0.00     0.022 A 
ATOM      7  C   UNL     1      44.804 131.656  20.411  1.00  0.00     0.000 A 
ENDROOT
BRANCH   1   8
ATOM      8  N   UNL     1      42.683 132.152  21.585  1.00  0.00    -0.626 NA
BRANCH   8   9
ATOM      9  C   UNL     1      42.700 131.332  22.762  1.00  0.00     0.051 C 
ATOM     10  C   UNL     1      42.776 129.838  22.689  1.00  0.00     0.065 C 
ATOM     11  O   UNL     1      42.616 131.885  23.890  1.00  0.00    -0.321 OA
ENDBRANCH   8   9
ENDBRANCH   1   8
BRANCH   7  12
ATOM     12  C   UNL     1      45.583 131.653  21.671  1.00  0.00     0.258 C 
ATOM     13  O   UNL     1      45.951 132.719  22.230  1.00  0.00    -0.298 OA
ENDBRANCH   7  12
BRANCH   5  14
ATOM     14  C   UNL     1      45.569 131.127  16.727  1.00  0.00    -0.015 A 
ATOM     15  C   UNL     1      46.007 129.829  16.416  1.00  0.00     0.009 A 
ATOM     16  C   UNL     1      45.845 132.174  15.830  1.00  0.00     0.009 A 
ATOM     17  C   UNL     1      46.709 129.582  15.232  1.00  0.00     0.004 A 
ATOM     18  C   UNL     1      46.548 131.926  14.646  1.00  0.00     0.004 A 
ATOM     19  C   UNL     1      46.972 130.626  14.333  1.00  0.00    -0.051 A 
ATOM     20  C   UNL     1      47.760 130.369  13.084  1.00  0.00     0.044 C 
ENDBRANCH   5  14
TORSDOF 4
ENDMDL
MODEL 8
REMARK VINA RESULT:      -7.8      1.645      2.730
REMARK SMILES CC(=O)[N-]c1cc(F)c(-c2ccc(C)cc2)cc1C=O
REMARK SMILES IDX 5 1 6 2 7 3 8 4 9 5 17 6 18 7 4 8 2 9 1 10 3 11 19 12 20 13
REMARK SMILES IDX 10 14 11 15 16 16 12 17 15 18 13 19 14 20
REMARK H PARENT
ROOT
ATOM      1  C   UNL     1      43.421 131.234  20.746  1.00  0.00    -0.121 A 
ATOM      2  C   UNL     1      42.867 131.810  19.590  1.00  0.00     0.024 A 
ATOM      3  C   UNL     1      43.540 131.754  18.370  1.00  0.00     0.129 A 
ATOM      4  F   UNL     1      42.953 132.295  17.272  1.00  0.00    -0.206 F 
ATOM      5  C   UNL     1      44.781 131.102  18.274  1.00  0.00     0.018 A 
ATOM      6  C   UNL     1      45.322 130.495  19.419  1.00  0.00     0.022 A 
ATOM      7  C   UNL     1      44.654 130.546  20.654  1.00  0.00     0.000 A 
ENDROOT
BRANCH   1   8
ATOM      8  N   UNL     1      42.701 131.273  21.988  1.00  0.00    -0.626 NA
BRANCH   8   9
ATOM      9  C   UNL     1      43.250 131.540  23.286  1.00  0.00     0.051 C 
ATOM     10  C   UNL     1      42.875 130.731  24.490  1.00  0.00     0.065 C 
ATOM     11  O   UNL     1      44.046 132.505  23.424  1.00  0.00    -0.321 OA
ENDBRANCH   8   9
ENDBRANCH   1   8
BRANCH   7  12
ATOM     12  C   UNL     1      45.292 129.884  21.817  1.00  0.00     0.258 C 
ATOM     13  O   UNL     1      45.172 128.650  22.030  1.00  0.00    -0.298 OA
ENDBRANCH   7  12
BRANCH   5  14
ATOM     14  C   UNL     1      45.512 131.039  16.985  1.00  0.00    -0.015 A 
ATOM     15  C   UNL     1      45.669 132.189  16.194  1.00  0.00     0.009 A 
ATOM     16  C   UNL     1      46.066 129.824  16.543  1.00  0.00     0.009 A 
ATOM     17  C   UNL     1      46.365 132.126  14.983  1.00  0.00     0.004 A 
ATOM     18  C   UNL     1      46.761 129.763  15.331  1.00  0.00     0.004 A 
ATOM     19  C   UNL     1      46.927 130.916  14.550  1.00  0.00    -0.051 A 
ATOM     20  C   UNL     1      47.638 130.841  13.232  1.00  0.00     0.044 C 
ENDBRANCH   5  14
TORSDOF 4
ENDMDL
MODEL 9
REMARK VINA RESULT:      -7.5      1.502      2.535
REMARK SMILES CC(=O)[N-]c1cc(F)c(-c2ccc(C)cc2)cc1C=O
REMARK SMILES IDX 5 1 6 2 7 3 8 4 9 5 17 6 18 7 4 8 2 9 1 10 3 11 19 12 20 13
REMARK SMILES IDX 10 14 11 15 16 16 12 17 15 18 13 19 14 20
REMARK H PARENT
ROOT
ATOM      1  C   UNL     1      43.616 130.910  20.922  1.00  0.00    -0.121 A 
ATOM      2  C   UNL     1      43.012 131.579  19.844  1.00  0.00     0.024 A 
ATOM      3  C   UNL     1      43.622 131.613  18.590  1.00  0.00     0.129 A 
ATOM      4  F   UNL     1      42.988 132.244  17.569  1.00  0.00    -0.206 F 
ATOM      5  C   UNL     1      44.848 130.960  18.381  1.00  0.00     0.018 A 
ATOM      6  C   UNL     1      45.438 130.260  19.446  1.00  0.00     0.022 A 
ATOM      7  C   UNL     1      44.834 130.219  20.714  1.00  0.00     0.000 A 
ENDROOT
BRANCH   1   8
ATOM      8  N   UNL     1      42.960 130.857  22.199  1.00  0.00    -0.626 NA
BRANCH   8   9
ATOM      9  C   UNL     1      42.973 131.876  23.209  1.00  0.00     0.051 C 
ATOM     10  C   UNL     1      44.172 132.125  24.071  1.00  0.00     0.065 C 
ATOM     11  O   UNL     1      41.932 132.557  23.399  1.00  0.00    -0.321 OA
ENDBRANCH   8   9
ENDBRANCH   1   8
BRANCH   7  12
ATOM     12  C   UNL     1      45.520 129.463  21.787  1.00  0.00     0.258 C 
ATOM     13  O   UNL     1      44.892 128.722  22.587  1.00  0.00    -0.298 OA
ENDBRANCH   7  12
BRANCH   5  14
ATOM     14  C   UNL     1      45.512 130.991  17.055  1.00  0.00    -0.015 A 
ATOM     15  C   UNL     1      46.152 129.847  16.549  1.00  0.00     0.009 A 
ATOM     16  C   UNL     1      45.503 132.166  16.284  1.00  0.00     0.009 A 
ATOM     17  C   UNL     1      46.772 129.878  15.296  1.00  0.00     0.004 A 
ATOM     18  C   UNL     1      46.124 132.196  15.031  1.00  0.00     0.004 A 
ATOM     19  C   UNL     1      46.750 131.048  14.523  1.00  0.00    -0.051 A 
ATOM     20  C   UNL     1      47.449 131.093  13.197  1.00  0.00     0.044 C 
ENDBRANCH   5  14
TORSDOF 4
ENDMDL


