REMARK SMILES Cc1ccc([NH2+]c2ccc3cc[nH]c3c2OC(=O)Nc2ccc(C#N)c(C#N)c2)cc1
REMARK SMILES IDX 16 1 15 2 7 3 8 4 9 5 14 6 10 7 13 8 11 9 12 10 6 12 5 15
REMARK SMILES IDX 2 16 3 17 31 18 4 19 30 20 1 21 17 22 19 23 18 24 20 26
REMARK SMILES IDX 21 27 29 28 22 29 26 30 23 31 27 32 28 33 24 34 25 35
REMARK H PARENT 13 11 6 13 6 14 19 25
ROOT
ATOM      1  O   UNL     1       0.204   1.060  -0.338  1.00  0.00    -0.401 OA
ENDROOT
BRANCH   1   2
ATOM      2  C   UNL     1      -0.312   2.097   0.445  1.00  0.00     0.217 A 
ATOM      3  C   UNL     1      -0.438   1.992   1.860  1.00  0.00     0.180 A 
ATOM      4  C   UNL     1      -0.987   3.083   2.589  1.00  0.00     0.073 A 
ATOM      5  C   UNL     1      -1.404   4.255   1.936  1.00  0.00     0.017 A 
ATOM      6  C   UNL     1      -0.752   3.271  -0.167  1.00  0.00     0.095 A 
ATOM      7  C   UNL     1      -1.272   4.311   0.553  1.00  0.00     0.004 A 
ATOM      8  N   UNL     1      -0.731   3.567  -1.478  1.00  0.00    -0.358 N 
ATOM      9  C   UNL     1      -1.599   5.311  -0.337  1.00  0.00     0.028 A 
ATOM     10  C   UNL     1      -1.248   4.812  -1.587  1.00  0.00     0.083 A 
ATOM     11  H   UNL     1      -0.385   2.964  -2.258  1.00  0.00     0.166 HD
BRANCH   3  12
ATOM     12  N   UNL     1      -0.092   0.773   2.555  1.00  0.00    -0.278 N 
ATOM     13  H   UNL     1       0.033   0.957   3.578  1.00  0.00     0.358 HD
ATOM     14  H   UNL     1       0.826   0.410   2.212  1.00  0.00     0.358 HD
BRANCH  12  15
ATOM     15  C   UNL     1      -1.134  -0.209   2.380  1.00  0.00     0.134 A 
ATOM     16  C   UNL     1      -3.192  -2.099   2.012  1.00  0.00    -0.051 A 
ATOM     17  C   UNL     1      -1.974  -2.237   1.330  1.00  0.00     0.009 A 
ATOM     18  C   UNL     1      -3.367  -1.027   2.899  1.00  0.00     0.009 A 
ATOM     19  C   UNL     1      -0.955  -1.297   1.508  1.00  0.00     0.068 A 
ATOM     20  C   UNL     1      -2.349  -0.086   3.078  1.00  0.00     0.068 A 
ATOM     21  C   UNL     1      -4.269  -3.130   1.848  1.00  0.00     0.044 C 
ENDBRANCH  12  15
ENDBRANCH   3  12
ENDBRANCH   1   2
BRANCH   1  22
ATOM     22  C   UNL     1       1.556   0.708  -0.332  1.00  0.00     0.417 C 
ATOM     23  N   UNL     1       1.977  -0.447  -1.069  1.00  0.00    -0.291 N 
ATOM     24  O   UNL     1       2.398   1.421   0.280  1.00  0.00    -0.224 OA
ATOM     25  H   UNL     1       1.323  -0.817  -1.795  1.00  0.00     0.173 HD
BRANCH  23  26
ATOM     26  C   UNL     1       3.259  -1.079  -0.917  1.00  0.00     0.045 A 
ATOM     27  C   UNL     1       3.914  -1.117   0.326  1.00  0.00     0.028 A 
ATOM     28  C   UNL     1       3.841  -1.726  -2.017  1.00  0.00     0.047 A 
ATOM     29  C   UNL     1       5.148  -1.760   0.455  1.00  0.00     0.023 A 
ATOM     30  C   UNL     1       5.079  -2.372  -1.895  1.00  0.00     0.072 A 
ATOM     31  C   UNL     1       5.739  -2.385  -0.650  1.00  0.00     0.070 A 
BRANCH  30  32
ATOM     32  C   UNL     1       5.650  -3.015  -3.055  1.00  0.00     0.101 C 
ATOM     33  N   UNL     1       6.108  -3.530  -3.984  1.00  0.00    -0.192 NA
ENDBRANCH  30  32
BRANCH  31  34
ATOM     34  C   UNL     1       7.015  -3.041  -0.482  1.00  0.00     0.101 C 
ATOM     35  N   UNL     1       8.038  -3.567  -0.349  1.00  0.00    -0.192 NA
ENDBRANCH  31  34
ENDBRANCH  23  26
ENDBRANCH   1  22
TORSDOF 7


