MODEL 1
REMARK VINA RESULT:      -8.7      0.000      0.000
REMARK SMILES C=C[C@H]1CCC[C@@](F)(c2ccc3c(c2)[C@H](N)CC3)[C@H]1Cl
REMARK SMILES IDX 9 1 10 2 11 3 12 4 13 5 14 6 15 7 17 8 18 9 7 10 3 11 4 12
REMARK SMILES IDX 19 13 5 14 6 15 20 16 8 17 2 18 1 19 16 20
REMARK H PARENT 16 21 16 22
ROOT
ATOM      1  C   UNL     1      44.971 131.483  18.244  1.00  0.00    -0.009 A 
ATOM      2  C   UNL     1      46.062 131.235  19.121  1.00  0.00     0.007 A 
ATOM      3  C   UNL     1      45.861 131.145  20.506  1.00  0.00     0.004 A 
ATOM      4  C   UNL     1      44.574 131.314  21.015  1.00  0.00    -0.043 A 
ATOM      5  C   UNL     1      43.516 131.579  20.187  1.00  0.00    -0.028 A 
ATOM      6  C   UNL     1      43.686 131.670  18.804  1.00  0.00     0.012 A 
ATOM      7  C   UNL     1      42.247 131.755  20.946  1.00  0.00     0.081 C 
ATOM      8  C   UNL     1      42.639 131.405  22.400  1.00  0.00     0.028 C 
ATOM      9  C   UNL     1      44.173 131.266  22.440  1.00  0.00     0.038 C 
ENDROOT
BRANCH   1  10
ATOM     10  C   UNL     1      45.141 131.637  16.731  1.00  0.00     0.152 C 
ATOM     11  C   UNL     1      46.373 130.781  14.662  1.00  0.00     0.033 C 
ATOM     12  C   UNL     1      45.037 130.733  13.892  1.00  0.00     0.009 C 
ATOM     13  C   UNL     1      46.149 130.590  16.186  1.00  0.00     0.130 C 
ATOM     14  C   UNL     1      44.044 131.766  14.439  1.00  0.00     0.004 C 
ATOM     15  C   UNL     1      43.810 131.560  15.941  1.00  0.00     0.048 C 
ATOM     16  Cl  UNL     1      45.626 128.910  16.564  1.00  0.00    -0.118 Cl
ATOM     17  F   UNL     1      45.669 132.903  16.506  1.00  0.00    -0.237 F 
BRANCH  11  18
ATOM     18  C   UNL     1      47.342 129.760  14.107  1.00  0.00    -0.030 C 
ATOM     19  C   UNL     1      48.257 130.090  13.191  1.00  0.00     0.004 C 
ENDBRANCH  11  18
ENDBRANCH   1  10
BRANCH   7  20
ATOM     20  N   UNL     1      41.757 133.132  20.855  1.00  0.00    -0.324 NA
ATOM     21  H   UNL     1      40.960 133.247  21.522  1.00  0.00     0.119 HD
ATOM     22  H   UNL     1      41.386 133.308  19.892  1.00  0.00     0.119 HD
ENDBRANCH   7  20
TORSDOF 3
ENDMDL
MODEL 2
REMARK VINA RESULT:      -8.5      1.398      1.988
REMARK SMILES C=C[C@H]1CCC[C@@](F)(c2ccc3c(c2)[C@H](N)CC3)[C@H]1Cl
REMARK SMILES IDX 9 1 10 2 11 3 12 4 13 5 14 6 15 7 17 8 18 9 7 10 3 11 4 12
REMARK SMILES IDX 19 13 5 14 6 15 20 16 8 17 2 18 1 19 16 20
REMARK H PARENT 16 21 16 22
ROOT
ATOM      1  C   UNL     1      44.347 131.696  17.779  1.00  0.00    -0.009 A 
ATOM      2  C   UNL     1      42.964 131.943  17.997  1.00  0.00     0.007 A 
ATOM      3  C   UNL     1      42.415 131.855  19.284  1.00  0.00     0.004 A 
ATOM      4  C   UNL     1      43.243 131.511  20.351  1.00  0.00    -0.043 A 
ATOM      5  C   UNL     1      44.572 131.244  20.156  1.00  0.00    -0.028 A 
ATOM      6  C   UNL     1      45.147 131.328  18.887  1.00  0.00     0.012 A 
ATOM      7  C   UNL     1      45.254 130.866  21.424  1.00  0.00     0.081 C 
ATOM      8  C   UNL     1      44.168 131.082  22.503  1.00  0.00     0.028 C 
ATOM      9  C   UNL     1      42.842 131.358  21.768  1.00  0.00     0.038 C 
ENDROOT
BRANCH   1  10
ATOM     10  C   UNL     1      44.989 131.732  16.391  1.00  0.00     0.152 C 
ATOM     11  C   UNL     1      46.730 130.658  14.858  1.00  0.00     0.033 C 
ATOM     12  C   UNL     1      45.700 130.638  13.710  1.00  0.00     0.009 C 
ATOM     13  C   UNL     1      46.029 130.590  16.242  1.00  0.00     0.130 C 
ATOM     14  C   UNL     1      44.672 131.765  13.867  1.00  0.00     0.004 C 
ATOM     15  C   UNL     1      43.967 131.680  15.227  1.00  0.00     0.048 C 
ATOM     16  Cl  UNL     1      45.282 128.976  16.517  1.00  0.00    -0.118 Cl
ATOM     17  F   UNL     1      45.661 132.945  16.283  1.00  0.00    -0.237 F 
BRANCH  11  18
ATOM     18  C   UNL     1      47.738 129.543  14.687  1.00  0.00    -0.030 C 
ATOM     19  C   UNL     1      48.438 129.400  13.557  1.00  0.00     0.004 C 
ENDBRANCH  11  18
ENDBRANCH   1  10
BRANCH   7  20
ATOM     20  N   UNL     1      45.693 129.468  21.398  1.00  0.00    -0.324 NA
ATOM     21  H   UNL     1      44.980 128.886  21.894  1.00  0.00     0.119 HD
ATOM     22  H   UNL     1      46.594 129.374  21.922  1.00  0.00     0.119 HD
ENDBRANCH   7  20
TORSDOF 3
ENDMDL
MODEL 3
REMARK VINA RESULT:      -5.9      2.587      6.569
REMARK SMILES C=C[C@H]1CCC[C@@](F)(c2ccc3c(c2)[C@H](N)CC3)[C@H]1Cl
REMARK SMILES IDX 9 1 10 2 11 3 12 4 13 5 14 6 15 7 17 8 18 9 7 10 3 11 4 12
REMARK SMILES IDX 19 13 5 14 6 15 20 16 8 17 2 18 1 19 16 20
REMARK H PARENT 16 21 16 22
ROOT
ATOM      1  C   UNL     1      44.226 131.215  18.370  1.00  0.00    -0.009 A 
ATOM      2  C   UNL     1      45.420 130.474  18.584  1.00  0.00     0.007 A 
ATOM      3  C   UNL     1      46.302 130.214  17.525  1.00  0.00     0.004 A 
ATOM      4  C   UNL     1      45.986 130.684  16.251  1.00  0.00    -0.043 A 
ATOM      5  C   UNL     1      44.828 131.377  16.021  1.00  0.00    -0.028 A 
ATOM      6  C   UNL     1      43.933 131.654  17.057  1.00  0.00     0.012 A 
ATOM      7  C   UNL     1      44.679 131.750  14.587  1.00  0.00     0.081 C 
ATOM      8  C   UNL     1      46.020 131.311  13.954  1.00  0.00     0.028 C 
ATOM      9  C   UNL     1      46.783 130.497  15.018  1.00  0.00     0.038 C 
ENDROOT
BRANCH   1  10
ATOM     10  C   UNL     1      43.206 131.487  19.478  1.00  0.00     0.152 C 
ATOM     11  C   UNL     1      42.712 131.254  21.974  1.00  0.00     0.033 C 
ATOM     12  C   UNL     1      42.229 132.719  22.011  1.00  0.00     0.009 C 
ATOM     13  C   UNL     1      43.765 131.038  20.854  1.00  0.00     0.130 C 
ATOM     14  C   UNL     1      41.684 133.157  20.646  1.00  0.00     0.004 C 
ATOM     15  C   UNL     1      42.736 132.962  19.546  1.00  0.00     0.048 C 
ATOM     16  Cl  UNL     1      45.312 131.872  21.243  1.00  0.00    -0.118 Cl
ATOM     17  F   UNL     1      42.082 130.719  19.196  1.00  0.00    -0.237 F 
BRANCH  11  18
ATOM     18  C   UNL     1      43.243 130.836  23.328  1.00  0.00    -0.030 C 
ATOM     19  C   UNL     1      43.247 131.676  24.368  1.00  0.00     0.004 C 
ENDBRANCH  11  18
ENDBRANCH   1  10
BRANCH   7  20
ATOM     20  N   UNL     1      43.554 131.047  13.966  1.00  0.00    -0.324 NA
ATOM     21  H   UNL     1      43.813 130.041  13.849  1.00  0.00     0.119 HD
ATOM     22  H   UNL     1      43.381 131.440  13.011  1.00  0.00     0.119 HD
ENDBRANCH   7  20
TORSDOF 3
ENDMDL


