MODEL 1
REMARK VINA RESULT:      -6.3      0.000      0.000
REMARK SMILES CC(=O)c1c(-c2cnc3c(c2)C(O)=NC3)cc(/C(O)=N/[C@@H]2C=CCC2)c(F)c1O
REMARK SMILES IDX 5 1 16 2 17 3 26 4 27 5 28 6 4 7 6 8 12 9 14 10 10 11 15 12
REMARK SMILES IDX 11 13 9 14 8 15 7 16 13 17 2 19 3 20 1 21 18 22 20 23 21 24
REMARK SMILES IDX 22 25 25 26 23 27 24 28 19 29 29 31
REMARK H PARENT 13 18 19 30 29 32
ROOT
ATOM      1  C   UNL     1      45.112 128.851  21.641  1.00  0.00    -0.001 A 
ATOM      2  C   UNL     1      45.441 129.176  20.316  1.00  0.00     0.026 A 
ATOM      3  C   UNL     1      45.205 130.460  19.804  1.00  0.00     0.076 A 
ATOM      4  C   UNL     1      44.618 131.431  20.636  1.00  0.00     0.178 A 
ATOM      5  F   UNL     1      44.390 132.685  20.169  1.00  0.00    -0.202 F 
ATOM      6  C   UNL     1      44.300 131.127  21.969  1.00  0.00     0.163 A 
ATOM      7  C   UNL     1      44.555 129.841  22.487  1.00  0.00     0.070 A 
ENDROOT
BRANCH   1   8
ATOM      8  C   UNL     1      45.302 127.450  22.085  1.00  0.00     0.002 A 
ATOM      9  C   UNL     1      47.754 124.548  22.338  1.00  0.00     0.215 C 
ATOM     10  N   UNL     1      47.414 123.414  22.869  1.00  0.00    -0.245 NA
ATOM     11  C   UNL     1      46.660 125.493  22.356  1.00  0.00     0.060 A 
ATOM     12  C   UNL     1      46.017 123.468  23.318  1.00  0.00     0.203 C 
ATOM     13  C   UNL     1      46.546 126.807  21.915  1.00  0.00     0.026 A 
ATOM     14  C   UNL     1      45.613 124.851  22.944  1.00  0.00     0.075 A 
ATOM     15  N   UNL     1      44.414 125.457  23.129  1.00  0.00    -0.258 NA
ATOM     16  C   UNL     1      44.243 126.747  22.712  1.00  0.00     0.120 A 
BRANCH   9  17
ATOM     17  O   UNL     1      49.024 124.787  21.823  1.00  0.00    -0.493 OA
ATOM     18  H   UNL     1      49.797 124.168  22.034  1.00  0.00     0.295 HD
ENDBRANCH   9  17
ENDBRANCH   1   8
BRANCH   7  19
ATOM     19  C   UNL     1      44.269 129.575  23.919  1.00  0.00     0.164 C 
ATOM     20  O   UNL     1      45.079 128.888  24.597  1.00  0.00    -0.294 OA
ATOM     21  C   UNL     1      43.026 130.088  24.578  1.00  0.00     0.093 C 
ENDBRANCH   7  19
BRANCH   3  22
ATOM     22  C   UNL     1      45.549 130.768  18.394  1.00  0.00     0.217 C 
BRANCH  22  23
ATOM     23  N   UNL     1      44.766 131.534  17.692  1.00  0.00    -0.244 NA
BRANCH  23  24
ATOM     24  C   UNL     1      44.732 131.547  16.232  1.00  0.00     0.132 C 
ATOM     25  C   UNL     1      44.751 130.152  15.721  1.00  0.00    -0.005 C 
ATOM     26  C   UNL     1      46.002 132.184  15.640  1.00  0.00     0.036 C 
ATOM     27  C   UNL     1      45.776 129.920  14.920  1.00  0.00    -0.029 C 
ATOM     28  C   UNL     1      46.641 131.116  14.747  1.00  0.00     0.029 C 
ENDBRANCH  23  24
ENDBRANCH  22  23
BRANCH  22  29
ATOM     29  O   UNL     1      46.704 130.239  17.813  1.00  0.00    -0.493 OA
ATOM     30  H   UNL     1      47.264 129.532  18.272  1.00  0.00     0.295 HD
ENDBRANCH  22  29
ENDBRANCH   3  22
BRANCH   6  31
ATOM     31  O   UNL     1      43.749 132.110  22.795  1.00  0.00    -0.504 OA
ATOM     32  H   UNL     1      42.770 132.366  22.750  1.00  0.00     0.293 HD
ENDBRANCH   6  31
TORSDOF 8
ENDMDL
MODEL 2
REMARK VINA RESULT:      -5.8      1.031      1.203
REMARK SMILES CC(=O)c1c(-c2cnc3c(c2)C(O)=NC3)cc(/C(O)=N/[C@@H]2C=CCC2)c(F)c1O
REMARK SMILES IDX 5 1 16 2 17 3 26 4 27 5 28 6 4 7 6 8 12 9 14 10 10 11 15 12
REMARK SMILES IDX 11 13 9 14 8 15 7 16 13 17 2 19 3 20 1 21 18 22 20 23 21 24
REMARK SMILES IDX 22 25 25 26 23 27 24 28 19 29 29 31
REMARK H PARENT 13 18 19 30 29 32
ROOT
ATOM      1  C   UNL     1      45.102 128.855  21.490  1.00  0.00    -0.001 A 
ATOM      2  C   UNL     1      45.390 129.357  20.212  1.00  0.00     0.026 A 
ATOM      3  C   UNL     1      44.928 130.618  19.807  1.00  0.00     0.076 A 
ATOM      4  C   UNL     1      44.154 131.381  20.699  1.00  0.00     0.178 A 
ATOM      5  F   UNL     1      43.705 132.610  20.337  1.00  0.00    -0.202 F 
ATOM      6  C   UNL     1      43.873 130.901  21.988  1.00  0.00     0.163 A 
ATOM      7  C   UNL     1      44.353 129.642  22.399  1.00  0.00     0.070 A 
ENDROOT
BRANCH   1   8
ATOM      8  C   UNL     1      45.541 127.478  21.816  1.00  0.00     0.002 A 
ATOM      9  C   UNL     1      48.538 125.194  22.374  1.00  0.00     0.215 C 
ATOM     10  N   UNL     1      48.391 123.941  22.677  1.00  0.00    -0.245 NA
ATOM     11  C   UNL     1      47.262 125.855  22.213  1.00  0.00     0.060 A 
ATOM     12  C   UNL     1      46.963 123.607  22.759  1.00  0.00     0.203 C 
ATOM     13  C   UNL     1      46.915 127.165  21.901  1.00  0.00     0.026 A 
ATOM     14  C   UNL     1      46.311 124.907  22.443  1.00  0.00     0.075 A 
ATOM     15  N   UNL     1      44.986 125.192  22.382  1.00  0.00    -0.258 NA
ATOM     16  C   UNL     1      44.587 126.462  22.074  1.00  0.00     0.120 A 
BRANCH   9  17
ATOM     17  O   UNL     1      49.785 125.792  22.227  1.00  0.00    -0.493 OA
ATOM     18  H   UNL     1      49.895 126.643  21.691  1.00  0.00     0.295 HD
ENDBRANCH   9  17
ENDBRANCH   1   8
BRANCH   7  19
ATOM     19  C   UNL     1      44.096 129.196  23.791  1.00  0.00     0.164 C 
ATOM     20  O   UNL     1      45.045 129.163  24.620  1.00  0.00    -0.294 OA
ATOM     21  C   UNL     1      42.732 128.761  24.234  1.00  0.00     0.093 C 
ENDBRANCH   7  19
BRANCH   3  22
ATOM     22  C   UNL     1      45.235 131.114  18.442  1.00  0.00     0.217 C 
BRANCH  22  23
ATOM     23  N   UNL     1      45.773 130.312  17.572  1.00  0.00    -0.244 NA
BRANCH  23  24
ATOM     24  C   UNL     1      46.580 130.759  16.438  1.00  0.00     0.132 C 
ATOM     25  C   UNL     1      45.737 131.565  15.517  1.00  0.00    -0.005 C 
ATOM     26  C   UNL     1      47.057 129.576  15.578  1.00  0.00     0.036 C 
ATOM     27  C   UNL     1      45.702 131.063  14.295  1.00  0.00    -0.029 C 
ATOM     28  C   UNL     1      46.511 129.823  14.168  1.00  0.00     0.029 C 
ENDBRANCH  23  24
ENDBRANCH  22  23
BRANCH  22  29
ATOM     29  O   UNL     1      44.955 132.436  18.087  1.00  0.00    -0.493 OA
ATOM     30  H   UNL     1      45.642 133.174  18.173  1.00  0.00     0.295 HD
ENDBRANCH  22  29
ENDBRANCH   3  22
BRANCH   6  31
ATOM     31  O   UNL     1      43.132 131.685  22.877  1.00  0.00    -0.504 OA
ATOM     32  H   UNL     1      43.563 132.392  23.461  1.00  0.00     0.293 HD
ENDBRANCH   6  31
TORSDOF 8
ENDMDL
MODEL 3
REMARK VINA RESULT:      -5.7      1.818      2.249
REMARK SMILES CC(=O)c1c(-c2cnc3c(c2)C(O)=NC3)cc(/C(O)=N/[C@@H]2C=CCC2)c(F)c1O
REMARK SMILES IDX 5 1 16 2 17 3 26 4 27 5 28 6 4 7 6 8 12 9 14 10 10 11 15 12
REMARK SMILES IDX 11 13 9 14 8 15 7 16 13 17 2 19 3 20 1 21 18 22 20 23 21 24
REMARK SMILES IDX 22 25 25 26 23 27 24 28 19 29 29 31
REMARK H PARENT 13 18 19 30 29 32
ROOT
ATOM      1  C   UNL     1      43.865 130.344  21.759  1.00  0.00    -0.001 A 
ATOM      2  C   UNL     1      44.179 130.488  20.399  1.00  0.00     0.026 A 
ATOM      3  C   UNL     1      43.547 131.458  19.607  1.00  0.00     0.076 A 
ATOM      4  C   UNL     1      42.576 132.291  20.191  1.00  0.00     0.178 A 
ATOM      5  F   UNL     1      41.959 133.246  19.450  1.00  0.00    -0.202 F 
ATOM      6  C   UNL     1      42.264 132.173  21.555  1.00  0.00     0.163 A 
ATOM      7  C   UNL     1      42.913 131.209  22.353  1.00  0.00     0.070 A 
ENDROOT
BRANCH   1   8
ATOM      8  C   UNL     1      44.501 129.237  22.510  1.00  0.00     0.002 A 
ATOM      9  C   UNL     1      46.670 126.117  22.256  1.00  0.00     0.215 C 
ATOM     10  N   UNL     1      46.990 125.424  23.305  1.00  0.00    -0.245 NA
ATOM     11  C   UNL     1      45.845 127.253  22.601  1.00  0.00     0.060 A 
ATOM     12  C   UNL     1      46.403 126.030  24.508  1.00  0.00     0.203 C 
ATOM     13  C   UNL     1      45.272 128.264  21.838  1.00  0.00     0.026 A 
ATOM     14  C   UNL     1      45.681 127.207  23.953  1.00  0.00     0.075 A 
ATOM     15  N   UNL     1      44.957 128.141  24.619  1.00  0.00    -0.258 NA
ATOM     16  C   UNL     1      44.366 129.156  23.920  1.00  0.00     0.120 A 
BRANCH   9  17
ATOM     17  O   UNL     1      47.086 125.777  20.973  1.00  0.00    -0.493 OA
ATOM     18  H   UNL     1      48.003 126.041  20.635  1.00  0.00     0.295 HD
ENDBRANCH   9  17
ENDBRANCH   1   8
BRANCH   7  19
ATOM     19  C   UNL     1      42.608 131.157  23.804  1.00  0.00     0.164 C 
ATOM     20  O   UNL     1      43.095 132.029  24.573  1.00  0.00    -0.294 OA
ATOM     21  C   UNL     1      41.748 130.078  24.386  1.00  0.00     0.093 C 
ENDBRANCH   7  19
BRANCH   3  22
ATOM     22  C   UNL     1      43.889 131.573  18.168  1.00  0.00     0.217 C 
BRANCH  22  23
ATOM     23  N   UNL     1      44.982 131.029  17.720  1.00  0.00    -0.244 NA
BRANCH  23  24
ATOM     24  C   UNL     1      45.121 130.458  16.382  1.00  0.00     0.132 C 
ATOM     25  C   UNL     1      46.326 129.590  16.335  1.00  0.00    -0.005 C 
ATOM     26  C   UNL     1      45.395 131.543  15.326  1.00  0.00     0.036 C 
ATOM     27  C   UNL     1      47.191 129.976  15.414  1.00  0.00    -0.029 C 
ATOM     28  C   UNL     1      46.732 131.178  14.673  1.00  0.00     0.029 C 
ENDBRANCH  23  24
ENDBRANCH  22  23
BRANCH  22  29
ATOM     29  O   UNL     1      43.049 132.265  17.291  1.00  0.00    -0.493 OA
ATOM     30  H   UNL     1      43.405 132.917  16.604  1.00  0.00     0.295 HD
ENDBRANCH  22  29
ENDBRANCH   3  22
BRANCH   6  31
ATOM     31  O   UNL     1      41.322 133.029  22.131  1.00  0.00    -0.504 OA
ATOM     32  H   UNL     1      40.389 133.139  21.752  1.00  0.00     0.293 HD
ENDBRANCH   6  31
TORSDOF 8
ENDMDL
MODEL 4
REMARK VINA RESULT:      -5.1      1.083      1.253
REMARK SMILES CC(=O)c1c(-c2cnc3c(c2)C(O)=NC3)cc(/C(O)=N/[C@@H]2C=CCC2)c(F)c1O
REMARK SMILES IDX 5 1 16 2 17 3 26 4 27 5 28 6 4 7 6 8 12 9 14 10 10 11 15 12
REMARK SMILES IDX 11 13 9 14 8 15 7 16 13 17 2 19 3 20 1 21 18 22 20 23 21 24
REMARK SMILES IDX 22 25 25 26 23 27 24 28 19 29 29 31
REMARK H PARENT 13 18 19 30 29 32
ROOT
ATOM      1  C   UNL     1      45.178 128.976  21.398  1.00  0.00    -0.001 A 
ATOM      2  C   UNL     1      45.610 129.326  20.110  1.00  0.00     0.026 A 
ATOM      3  C   UNL     1      45.233 130.544  19.524  1.00  0.00     0.076 A 
ATOM      4  C   UNL     1      44.399 131.419  20.244  1.00  0.00     0.178 A 
ATOM      5  F   UNL     1      44.030 132.609  19.705  1.00  0.00    -0.202 F 
ATOM      6  C   UNL     1      43.975 131.092  21.541  1.00  0.00     0.163 A 
ATOM      7  C   UNL     1      44.369 129.876  22.134  1.00  0.00     0.070 A 
ENDROOT
BRANCH   1   8
ATOM      8  C   UNL     1      45.537 127.634  21.915  1.00  0.00     0.002 A 
ATOM      9  C   UNL     1      48.357 125.422  23.202  1.00  0.00     0.215 C 
ATOM     10  N   UNL     1      48.144 124.200  23.580  1.00  0.00    -0.245 NA
ATOM     11  C   UNL     1      47.139 126.061  22.756  1.00  0.00     0.060 A 
ATOM     12  C   UNL     1      46.722 123.866  23.429  1.00  0.00     0.203 C 
ATOM     13  C   UNL     1      46.869 127.337  22.274  1.00  0.00     0.026 A 
ATOM     14  C   UNL     1      46.152 125.132  22.890  1.00  0.00     0.075 A 
ATOM     15  N   UNL     1      44.863 125.403  22.565  1.00  0.00    -0.258 NA
ATOM     16  C   UNL     1      44.540 126.640  22.082  1.00  0.00     0.120 A 
BRANCH   9  17
ATOM     17  O   UNL     1      49.617 126.011  23.233  1.00  0.00    -0.493 OA
ATOM     18  H   UNL     1      50.219 125.910  24.041  1.00  0.00     0.295 HD
ENDBRANCH   9  17
ENDBRANCH   1   8
BRANCH   7  19
ATOM     19  C   UNL     1      43.958 129.593  23.532  1.00  0.00     0.164 C 
ATOM     20  O   UNL     1      43.517 128.451  23.831  1.00  0.00    -0.294 OA
ATOM     21  C   UNL     1      44.036 130.642  24.598  1.00  0.00     0.093 C 
ENDBRANCH   7  19
BRANCH   3  22
ATOM     22  C   UNL     1      45.692 130.877  18.153  1.00  0.00     0.217 C 
BRANCH  22  23
ATOM     23  N   UNL     1      46.178 129.942  17.392  1.00  0.00    -0.244 NA
BRANCH  23  24
ATOM     24  C   UNL     1      45.642 129.600  16.076  1.00  0.00     0.132 C 
ATOM     25  C   UNL     1      46.691 129.804  15.044  1.00  0.00    -0.005 C 
ATOM     26  C   UNL     1      44.510 130.555  15.658  1.00  0.00     0.036 C 
ATOM     27  C   UNL     1      46.322 130.663  14.110  1.00  0.00    -0.029 C 
ATOM     28  C   UNL     1      44.958 131.202  14.344  1.00  0.00     0.029 C 
ENDBRANCH  23  24
ENDBRANCH  22  23
BRANCH  22  29
ATOM     29  O   UNL     1      45.611 132.188  17.676  1.00  0.00    -0.493 OA
ATOM     30  H   UNL     1      46.265 132.907  17.959  1.00  0.00     0.295 HD
ENDBRANCH  22  29
ENDBRANCH   3  22
BRANCH   6  31
ATOM     31  O   UNL     1      43.175 131.986  22.258  1.00  0.00    -0.504 OA
ATOM     32  H   UNL     1      42.968 132.917  21.918  1.00  0.00     0.293 HD
ENDBRANCH   6  31
TORSDOF 8
ENDMDL
MODEL 5
REMARK VINA RESULT:      -4.9      4.286      6.614
REMARK SMILES CC(=O)c1c(-c2cnc3c(c2)C(O)=NC3)cc(/C(O)=N/[C@@H]2C=CCC2)c(F)c1O
REMARK SMILES IDX 5 1 16 2 17 3 26 4 27 5 28 6 4 7 6 8 12 9 14 10 10 11 15 12
REMARK SMILES IDX 11 13 9 14 8 15 7 16 13 17 2 19 3 20 1 21 18 22 20 23 21 24
REMARK SMILES IDX 22 25 25 26 23 27 24 28 19 29 29 31
REMARK H PARENT 13 18 19 30 29 32
ROOT
ATOM      1  C   UNL     1      45.656 132.339  20.867  1.00  0.00    -0.001 A 
ATOM      2  C   UNL     1      46.655 133.324  20.902  1.00  0.00     0.026 A 
ATOM      3  C   UNL     1      47.092 133.872  22.117  1.00  0.00     0.076 A 
ATOM      4  C   UNL     1      46.507 133.427  23.317  1.00  0.00     0.178 A 
ATOM      5  F   UNL     1      46.921 133.932  24.508  1.00  0.00    -0.202 F 
ATOM      6  C   UNL     1      45.520 132.429  23.300  1.00  0.00     0.163 A 
ATOM      7  C   UNL     1      45.095 131.868  22.080  1.00  0.00     0.070 A 
ENDROOT
BRANCH   1   8
ATOM      8  C   UNL     1      45.178 131.875  19.544  1.00  0.00     0.002 A 
ATOM      9  C   UNL     1      46.092 129.987  16.366  1.00  0.00     0.215 C 
ATOM     10  N   UNL     1      45.240 129.825  15.402  1.00  0.00    -0.245 NA
ATOM     11  C   UNL     1      45.518 130.731  17.464  1.00  0.00     0.060 A 
ATOM     12  C   UNL     1      43.960 130.457  15.749  1.00  0.00     0.203 C 
ATOM     13  C   UNL     1      46.029 131.140  18.691  1.00  0.00     0.026 A 
ATOM     14  C   UNL     1      44.237 131.017  17.101  1.00  0.00     0.075 A 
ATOM     15  N   UNL     1      43.399 131.709  17.913  1.00  0.00    -0.258 NA
ATOM     16  C   UNL     1      43.848 132.140  19.129  1.00  0.00     0.120 A 
BRANCH   9  17
ATOM     17  O   UNL     1      47.391 129.492  16.313  1.00  0.00    -0.493 OA
ATOM     18  H   UNL     1      47.572 128.527  16.068  1.00  0.00     0.295 HD
ENDBRANCH   9  17
ENDBRANCH   1   8
BRANCH   7  19
ATOM     19  C   UNL     1      44.100 130.767  22.104  1.00  0.00     0.164 C 
ATOM     20  O   UNL     1      44.496 129.573  22.186  1.00  0.00    -0.294 OA
ATOM     21  C   UNL     1      42.630 131.038  22.014  1.00  0.00     0.093 C 
ENDBRANCH   7  19
BRANCH   3  22
ATOM     22  C   UNL     1      48.138 134.924  22.119  1.00  0.00     0.217 C 
BRANCH  22  23
ATOM     23  N   UNL     1      48.012 135.959  21.342  1.00  0.00    -0.244 NA
BRANCH  23  24
ATOM     24  C   UNL     1      49.111 136.856  20.993  1.00  0.00     0.132 C 
ATOM     25  C   UNL     1      48.576 138.037  20.266  1.00  0.00    -0.005 C 
ATOM     26  C   UNL     1      50.081 136.203  19.992  1.00  0.00     0.036 C 
ATOM     27  C   UNL     1      49.110 138.176  19.065  1.00  0.00    -0.029 C 
ATOM     28  C   UNL     1      50.100 137.112  18.758  1.00  0.00     0.029 C 
ENDBRANCH  23  24
ENDBRANCH  22  23
BRANCH  22  29
ATOM     29  O   UNL     1      49.259 134.810  22.946  1.00  0.00    -0.493 OA
ATOM     30  H   UNL     1      50.100 135.351  22.792  1.00  0.00     0.295 HD
ENDBRANCH  22  29
ENDBRANCH   3  22
BRANCH   6  31
ATOM     31  O   UNL     1      44.972 131.972  24.502  1.00  0.00    -0.504 OA
ATOM     32  H   UNL     1      45.019 132.513  25.357  1.00  0.00     0.293 HD
ENDBRANCH   6  31
TORSDOF 8
ENDMDL
MODEL 6
REMARK VINA RESULT:      -4.4      1.910      2.303
REMARK SMILES CC(=O)c1c(-c2cnc3c(c2)C(O)=NC3)cc(/C(O)=N/[C@@H]2C=CCC2)c(F)c1O
REMARK SMILES IDX 5 1 16 2 17 3 26 4 27 5 28 6 4 7 6 8 12 9 14 10 10 11 15 12
REMARK SMILES IDX 11 13 9 14 8 15 7 16 13 17 2 19 3 20 1 21 18 22 20 23 21 24
REMARK SMILES IDX 22 25 25 26 23 27 24 28 19 29 29 31
REMARK H PARENT 13 18 19 30 29 32
ROOT
ATOM      1  C   UNL     1      44.417 129.929  21.335  1.00  0.00    -0.001 A 
ATOM      2  C   UNL     1      44.483 130.229  19.966  1.00  0.00     0.026 A 
ATOM      3  C   UNL     1      43.852 131.365  19.440  1.00  0.00     0.076 A 
ATOM      4  C   UNL     1      43.133 132.210  20.305  1.00  0.00     0.178 A 
ATOM      5  F   UNL     1      42.524 133.324  19.824  1.00  0.00    -0.202 F 
ATOM      6  C   UNL     1      43.074 131.936  21.681  1.00  0.00     0.163 A 
ATOM      7  C   UNL     1      43.723 130.803  22.209  1.00  0.00     0.070 A 
ENDROOT
BRANCH   1   8
ATOM      8  C   UNL     1      45.025 128.663  21.805  1.00  0.00     0.002 A 
ATOM      9  C   UNL     1      44.533 125.555  23.950  1.00  0.00     0.215 C 
ATOM     10  N   UNL     1      45.446 124.639  24.040  1.00  0.00    -0.245 NA
ATOM     11  C   UNL     1      44.945 126.634  23.079  1.00  0.00     0.060 A 
ATOM     12  C   UNL     1      46.608 125.004  23.218  1.00  0.00     0.203 C 
ATOM     13  C   UNL     1      44.319 127.809  22.679  1.00  0.00     0.026 A 
ATOM     14  C   UNL     1      46.191 126.309  22.636  1.00  0.00     0.075 A 
ATOM     15  N   UNL     1      46.880 127.109  21.784  1.00  0.00    -0.258 NA
ATOM     16  C   UNL     1      46.316 128.279  21.360  1.00  0.00     0.120 A 
BRANCH   9  17
ATOM     17  O   UNL     1      43.319 125.477  24.624  1.00  0.00    -0.493 OA
ATOM     18  H   UNL     1      43.205 125.888  25.543  1.00  0.00     0.295 HD
ENDBRANCH   9  17
ENDBRANCH   1   8
BRANCH   7  19
ATOM     19  C   UNL     1      43.696 130.580  23.676  1.00  0.00     0.164 C 
ATOM     20  O   UNL     1      43.083 129.583  24.143  1.00  0.00    -0.294 OA
ATOM     21  C   UNL     1      44.367 131.526  24.624  1.00  0.00     0.093 C 
ENDBRANCH   7  19
BRANCH   3  22
ATOM     22  C   UNL     1      43.926 131.644  17.984  1.00  0.00     0.217 C 
BRANCH  22  23
ATOM     23  N   UNL     1      45.038 131.433  17.344  1.00  0.00    -0.244 NA
BRANCH  23  24
ATOM     24  C   UNL     1      45.120 131.213  15.902  1.00  0.00     0.132 C 
ATOM     25  C   UNL     1      45.237 129.757  15.628  1.00  0.00    -0.005 C 
ATOM     26  C   UNL     1      46.407 131.813  15.308  1.00  0.00     0.036 C 
ATOM     27  C   UNL     1      46.331 129.455  14.952  1.00  0.00    -0.029 C 
ATOM     28  C   UNL     1      47.158 130.652  14.650  1.00  0.00     0.029 C 
ENDBRANCH  23  24
ENDBRANCH  22  23
BRANCH  22  29
ATOM     29  O   UNL     1      42.813 132.136  17.297  1.00  0.00    -0.493 OA
ATOM     30  H   UNL     1      42.894 132.606  16.404  1.00  0.00     0.295 HD
ENDBRANCH  22  29
ENDBRANCH   3  22
BRANCH   6  31
ATOM     31  O   UNL     1      42.386 132.802  22.534  1.00  0.00    -0.504 OA
ATOM     32  H   UNL     1      41.509 132.545  22.972  1.00  0.00     0.293 HD
ENDBRANCH   6  31
TORSDOF 8
ENDMDL
MODEL 7
REMARK VINA RESULT:      -4.4      4.715      6.480
REMARK SMILES CC(=O)c1c(-c2cnc3c(c2)C(O)=NC3)cc(/C(O)=N/[C@@H]2C=CCC2)c(F)c1O
REMARK SMILES IDX 5 1 16 2 17 3 26 4 27 5 28 6 4 7 6 8 12 9 14 10 10 11 15 12
REMARK SMILES IDX 11 13 9 14 8 15 7 16 13 17 2 19 3 20 1 21 18 22 20 23 21 24
REMARK SMILES IDX 22 25 25 26 23 27 24 28 19 29 29 31
REMARK H PARENT 13 18 19 30 29 32
ROOT
ATOM      1  C   UNL     1      45.694 132.879  21.479  1.00  0.00    -0.001 A 
ATOM      2  C   UNL     1      45.445 132.736  20.105  1.00  0.00     0.026 A 
ATOM      3  C   UNL     1      44.321 132.040  19.639  1.00  0.00     0.076 A 
ATOM      4  C   UNL     1      43.436 131.468  20.572  1.00  0.00     0.178 A 
ATOM      5  F   UNL     1      42.333 130.799  20.148  1.00  0.00    -0.202 F 
ATOM      6  C   UNL     1      43.660 131.618  21.950  1.00  0.00     0.163 A 
ATOM      7  C   UNL     1      44.781 132.333  22.415  1.00  0.00     0.070 A 
ENDROOT
BRANCH   1   8
ATOM      8  C   UNL     1      46.949 133.544  21.897  1.00  0.00     0.002 A 
ATOM      9  C   UNL     1      49.319 136.455  21.253  1.00  0.00     0.215 C 
ATOM     10  N   UNL     1      50.389 136.632  21.964  1.00  0.00    -0.245 NA
ATOM     11  C   UNL     1      48.580 135.289  21.683  1.00  0.00     0.060 A 
ATOM     12  C   UNL     1      50.496 135.579  22.983  1.00  0.00     0.203 C 
ATOM     13  C   UNL     1      47.396 134.711  21.241  1.00  0.00     0.026 A 
ATOM     14  C   UNL     1      49.281 134.758  22.723  1.00  0.00     0.075 A 
ATOM     15  N   UNL     1      48.861 133.646  23.377  1.00  0.00    -0.258 NA
ATOM     16  C   UNL     1      47.706 133.033  22.982  1.00  0.00     0.120 A 
BRANCH   9  17
ATOM     17  O   UNL     1      48.960 137.303  20.210  1.00  0.00    -0.493 OA
ATOM     18  H   UNL     1      49.205 137.083  19.252  1.00  0.00     0.295 HD
ENDBRANCH   9  17
ENDBRANCH   1   8
BRANCH   7  19
ATOM     19  C   UNL     1      44.950 132.530  23.877  1.00  0.00     0.164 C 
ATOM     20  O   UNL     1      45.159 131.533  24.618  1.00  0.00    -0.294 OA
ATOM     21  C   UNL     1      44.859 133.889  24.499  1.00  0.00     0.093 C 
ENDBRANCH   7  19
BRANCH   3  22
ATOM     22  C   UNL     1      44.095 131.892  18.180  1.00  0.00     0.217 C 
BRANCH  22  23
ATOM     23  N   UNL     1      45.104 131.663  17.393  1.00  0.00    -0.244 NA
BRANCH  23  24
ATOM     24  C   UNL     1      44.974 131.320  15.978  1.00  0.00     0.132 C 
ATOM     25  C   UNL     1      45.149 129.855  15.803  1.00  0.00    -0.005 C 
ATOM     26  C   UNL     1      46.105 131.939  15.138  1.00  0.00     0.036 C 
ATOM     27  C   UNL     1      46.142 129.558  14.984  1.00  0.00    -0.029 C 
ATOM     28  C   UNL     1      46.824 130.769  14.459  1.00  0.00     0.029 C 
ENDBRANCH  23  24
ENDBRANCH  22  23
BRANCH  22  29
ATOM     29  O   UNL     1      42.809 132.002  17.645  1.00  0.00    -0.493 OA
ATOM     30  H   UNL     1      42.423 132.888  17.345  1.00  0.00     0.295 HD
ENDBRANCH  22  29
ENDBRANCH   3  22
BRANCH   6  31
ATOM     31  O   UNL     1      42.755 131.074  22.865  1.00  0.00    -0.504 OA
ATOM     32  H   UNL     1      42.110 131.650  23.393  1.00  0.00     0.293 HD
ENDBRANCH   6  31
TORSDOF 8
ENDMDL
MODEL 8
REMARK VINA RESULT:      -4.3      1.655      1.961
REMARK SMILES CC(=O)c1c(-c2cnc3c(c2)C(O)=NC3)cc(/C(O)=N/[C@@H]2C=CCC2)c(F)c1O
REMARK SMILES IDX 5 1 16 2 17 3 26 4 27 5 28 6 4 7 6 8 12 9 14 10 10 11 15 12
REMARK SMILES IDX 11 13 9 14 8 15 7 16 13 17 2 19 3 20 1 21 18 22 20 23 21 24
REMARK SMILES IDX 22 25 25 26 23 27 24 28 19 29 29 31
REMARK H PARENT 13 18 19 30 29 32
ROOT
ATOM      1  C   UNL     1      44.679 129.308  21.532  1.00  0.00    -0.001 A 
ATOM      2  C   UNL     1      45.069 129.751  20.259  1.00  0.00     0.026 A 
ATOM      3  C   UNL     1      44.591 130.959  19.733  1.00  0.00     0.076 A 
ATOM      4  C   UNL     1      43.697 131.731  20.496  1.00  0.00     0.178 A 
ATOM      5  F   UNL     1      43.230 132.912  20.016  1.00  0.00    -0.202 F 
ATOM      6  C   UNL     1      43.311 131.312  21.779  1.00  0.00     0.163 A 
ATOM      7  C   UNL     1      43.807 130.105  22.313  1.00  0.00     0.070 A 
ENDROOT
BRANCH   1   8
ATOM      8  C   UNL     1      45.147 127.977  21.983  1.00  0.00     0.002 A 
ATOM      9  C   UNL     1      44.144 124.699  23.643  1.00  0.00     0.215 C 
ATOM     10  N   UNL     1      44.998 123.740  23.825  1.00  0.00    -0.245 NA
ATOM     11  C   UNL     1      44.755 125.838  22.995  1.00  0.00     0.060 A 
ATOM     12  C   UNL     1      46.315 124.133  23.307  1.00  0.00     0.203 C 
ATOM     13  C   UNL     1      44.253 127.072  22.597  1.00  0.00     0.026 A 
ATOM     14  C   UNL     1      46.059 125.505  22.790  1.00  0.00     0.075 A 
ATOM     15  N   UNL     1      46.930 126.354  22.189  1.00  0.00    -0.258 NA
ATOM     16  C   UNL     1      46.494 127.583  21.780  1.00  0.00     0.120 A 
BRANCH   9  17
ATOM     17  O   UNL     1      42.814 124.607  24.037  1.00  0.00    -0.493 OA
ATOM     18  H   UNL     1      42.564 124.524  25.015  1.00  0.00     0.295 HD
ENDBRANCH   9  17
ENDBRANCH   1   8
BRANCH   7  19
ATOM     19  C   UNL     1      43.432 129.727  23.698  1.00  0.00     0.164 C 
ATOM     20  O   UNL     1      44.278 129.843  24.625  1.00  0.00    -0.294 OA
ATOM     21  C   UNL     1      42.072 129.188  24.022  1.00  0.00     0.093 C 
ENDBRANCH   7  19
BRANCH   3  22
ATOM     22  C   UNL     1      45.010 131.392  18.376  1.00  0.00     0.217 C 
BRANCH  22  23
ATOM     23  N   UNL     1      44.198 131.241  17.373  1.00  0.00    -0.244 NA
BRANCH  23  24
ATOM     24  C   UNL     1      44.397 131.854  16.062  1.00  0.00     0.132 C 
ATOM     25  C   UNL     1      43.958 130.912  15.000  1.00  0.00    -0.005 C 
ATOM     26  C   UNL     1      45.888 132.091  15.765  1.00  0.00     0.036 C 
ATOM     27  C   UNL     1      44.926 130.623  14.149  1.00  0.00    -0.029 C 
ATOM     28  C   UNL     1      46.198 131.314  14.482  1.00  0.00     0.029 C 
ENDBRANCH  23  24
ENDBRANCH  22  23
BRANCH  22  29
ATOM     29  O   UNL     1      46.272 131.956  18.168  1.00  0.00    -0.493 OA
ATOM     30  H   UNL     1      46.798 132.392  18.915  1.00  0.00     0.295 HD
ENDBRANCH  22  29
ENDBRANCH   3  22
BRANCH   6  31
ATOM     31  O   UNL     1      42.450 132.105  22.541  1.00  0.00    -0.504 OA
ATOM     32  H   UNL     1      41.494 132.289  22.259  1.00  0.00     0.293 HD
ENDBRANCH   6  31
TORSDOF 8
ENDMDL
MODEL 9
REMARK VINA RESULT:      -4.2      4.233      6.983
REMARK SMILES CC(=O)c1c(-c2cnc3c(c2)C(O)=NC3)cc(/C(O)=N/[C@@H]2C=CCC2)c(F)c1O
REMARK SMILES IDX 5 1 16 2 17 3 26 4 27 5 28 6 4 7 6 8 12 9 14 10 10 11 15 12
REMARK SMILES IDX 11 13 9 14 8 15 7 16 13 17 2 19 3 20 1 21 18 22 20 23 21 24
REMARK SMILES IDX 22 25 25 26 23 27 24 28 19 29 29 31
REMARK H PARENT 13 18 19 30 29 32
ROOT
ATOM      1  C   UNL     1      45.753 131.885  20.926  1.00  0.00    -0.001 A 
ATOM      2  C   UNL     1      46.882 132.685  21.157  1.00  0.00     0.026 A 
ATOM      3  C   UNL     1      47.046 133.379  22.364  1.00  0.00     0.076 A 
ATOM      4  C   UNL     1      46.052 133.274  23.353  1.00  0.00     0.178 A 
ATOM      5  F   UNL     1      46.192 133.925  24.537  1.00  0.00    -0.202 F 
ATOM      6  C   UNL     1      44.925 132.462  23.147  1.00  0.00     0.163 A 
ATOM      7  C   UNL     1      44.771 131.752  21.940  1.00  0.00     0.070 A 
ENDROOT
BRANCH   1   8
ATOM      8  C   UNL     1      45.600 131.258  19.593  1.00  0.00     0.002 A 
ATOM      9  C   UNL     1      43.847 131.459  16.218  1.00  0.00     0.215 C 
ATOM     10  N   UNL     1      44.077 130.595  15.279  1.00  0.00    -0.245 NA
ATOM     11  C   UNL     1      44.628 131.179  17.403  1.00  0.00     0.060 A 
ATOM     12  C   UNL     1      45.066 129.608  15.735  1.00  0.00     0.203 C 
ATOM     13  C   UNL     1      44.723 131.813  18.636  1.00  0.00     0.026 A 
ATOM     14  C   UNL     1      45.362 130.068  17.119  1.00  0.00     0.075 A 
ATOM     15  N   UNL     1      46.221 129.528  18.020  1.00  0.00    -0.258 NA
ATOM     16  C   UNL     1      46.353 130.107  19.251  1.00  0.00     0.120 A 
BRANCH   9  17
ATOM     17  O   UNL     1      42.951 132.512  16.068  1.00  0.00    -0.493 OA
ATOM     18  H   UNL     1      42.918 133.051  15.211  1.00  0.00     0.295 HD
ENDBRANCH   9  17
ENDBRANCH   1   8
BRANCH   7  19
ATOM     19  C   UNL     1      43.603 130.850  21.782  1.00  0.00     0.164 C 
ATOM     20  O   UNL     1      42.638 131.205  21.053  1.00  0.00    -0.294 OA
ATOM     21  C   UNL     1      43.531 129.530  22.486  1.00  0.00     0.093 C 
ENDBRANCH   7  19
BRANCH   3  22
ATOM     22  C   UNL     1      48.244 134.231  22.570  1.00  0.00     0.217 C 
BRANCH  22  23
ATOM     23  N   UNL     1      48.239 135.461  22.148  1.00  0.00    -0.244 NA
BRANCH  23  24
ATOM     24  C   UNL     1      49.195 135.995  21.180  1.00  0.00     0.132 C 
ATOM     25  C   UNL     1      50.329 136.629  21.900  1.00  0.00    -0.005 C 
ATOM     26  C   UNL     1      48.586 137.139  20.352  1.00  0.00     0.036 C 
ATOM     27  C   UNL     1      50.481 137.903  21.583  1.00  0.00    -0.029 C 
ATOM     28  C   UNL     1      49.473 138.364  20.594  1.00  0.00     0.029 C 
ENDBRANCH  23  24
ENDBRANCH  22  23
BRANCH  22  29
ATOM     29  O   UNL     1      49.377 133.721  23.210  1.00  0.00    -0.493 OA
ATOM     30  H   UNL     1      50.293 134.136  23.096  1.00  0.00     0.295 HD
ENDBRANCH  22  29
ENDBRANCH   3  22
BRANCH   6  31
ATOM     31  O   UNL     1      43.962 132.339  24.151  1.00  0.00    -0.504 OA
ATOM     32  H   UNL     1      42.971 132.285  23.946  1.00  0.00     0.293 HD
ENDBRANCH   6  31
TORSDOF 8
ENDMDL


