REMARK SMILES Cc1cc(-c2cccc3[nH+]coc23)cc(O/C(S)=N\C(O)=C/Oc2ccc(Cl)cc2)c1F
REMARK SMILES IDX 19 1 20 2 21 3 22 5 23 6 24 7 25 8 30 9 26 10 29 11 27 12
REMARK SMILES IDX 28 13 17 14 16 15 15 16 14 17 31 18 4 19 2 20 3 21 32 22
REMARK SMILES IDX 1 23 5 24 6 25 13 26 7 27 9 28 12 29 8 30 10 31 11 32 18 34
REMARK H PARENT 21 4 10 33 18 35
ROOT
ATOM      1  N   UNL     1       1.615  -2.702   2.766  1.00  0.00    -0.169 NA
ENDROOT
BRANCH   1   2
ATOM      2  C   UNL     1       1.794  -2.835   1.350  1.00  0.00     0.251 C 
BRANCH   2   3
ATOM      3  O   UNL     1       3.072  -2.947   0.806  1.00  0.00    -0.491 OA
ATOM      4  H   UNL     1       3.894  -2.968   1.398  1.00  0.00     0.295 HD
ENDBRANCH   2   3
BRANCH   2   5
ATOM      5  C   UNL     1       0.736  -2.842   0.544  1.00  0.00     0.263 C 
BRANCH   5   6
ATOM      6  O   UNL     1      -0.544  -2.657   1.077  1.00  0.00    -0.459 OA
BRANCH   6   7
ATOM      7  C   UNL     1      -1.692  -2.323   0.343  1.00  0.00     0.126 A 
ATOM      8  C   UNL     1      -2.921  -2.317   1.014  1.00  0.00     0.048 A 
ATOM      9  C   UNL     1      -1.654  -1.964  -1.020  1.00  0.00     0.048 A 
ATOM     10  C   UNL     1      -4.097  -1.970   0.342  1.00  0.00     0.024 A 
ATOM     11  C   UNL     1      -2.833  -1.626  -1.692  1.00  0.00     0.024 A 
ATOM     12  C   UNL     1      -4.054  -1.627  -1.012  1.00  0.00     0.041 A 
ATOM     13  Cl  UNL     1      -5.526  -1.175  -1.851  1.00  0.00    -0.084 Cl
ENDBRANCH   6   7
ENDBRANCH   5   6
ENDBRANCH   2   5
ENDBRANCH   1   2
BRANCH   1  14
ATOM     14  C   UNL     1       2.264  -1.866   3.522  1.00  0.00     0.256 C 
BRANCH  14  15
ATOM     15  O   UNL     1       3.122  -0.888   2.997  1.00  0.00    -0.431 OA
BRANCH  15  16
ATOM     16  C   UNL     1       2.768   0.041   2.003  1.00  0.00     0.166 A 
ATOM     17  C   UNL     1       1.429   0.271   1.637  1.00  0.00     0.059 A 
ATOM     18  C   UNL     1       3.785   0.770   1.378  1.00  0.00     0.168 A 
ATOM     19  C   UNL     1       1.105   1.182   0.617  1.00  0.00    -0.010 A 
ATOM     20  C   UNL     1       3.480   1.697   0.370  1.00  0.00    -0.011 A 
ATOM     21  C   UNL     1       2.143   1.901  -0.003  1.00  0.00     0.015 A 
ATOM     22  F   UNL     1       5.075   0.567   1.750  1.00  0.00    -0.203 F 
ATOM     23  C   UNL     1       4.578   2.490  -0.280  1.00  0.00     0.048 C 
BRANCH  19  24
ATOM     24  C   UNL     1      -0.305   1.359   0.174  1.00  0.00     0.032 A 
ATOM     25  C   UNL     1      -0.626   1.562  -1.192  1.00  0.00     0.013 A 
ATOM     26  C   UNL     1      -1.385   1.311   1.069  1.00  0.00     0.212 A 
ATOM     27  C   UNL     1      -1.968   1.716  -1.608  1.00  0.00     0.008 A 
ATOM     28  C   UNL     1      -2.678   1.452   0.658  1.00  0.00     0.249 A 
ATOM     29  O   UNL     1      -1.379   1.143   2.370  1.00  0.00    -0.403 OA
ATOM     30  C   UNL     1      -3.016   1.663  -0.674  1.00  0.00     0.083 A 
ATOM     31  N   UNL     1      -3.493   1.360   1.718  1.00  0.00    -0.176 N 
ATOM     32  C   UNL     1      -2.644   1.169   2.756  1.00  0.00     0.521 A 
ATOM     33  H   UNL     1      -4.535   1.422   1.741  1.00  0.00     0.457 HD
ENDBRANCH  19  24
ENDBRANCH  15  16
ENDBRANCH  14  15
BRANCH  14  34
ATOM     34  S   UNL     1       2.053  -1.959   5.292  1.00  0.00    -0.084 SA
ATOM     35  H   UNL     1       3.124  -2.861   5.425  1.00  0.00     0.113 HD
ENDBRANCH  14  34
ENDBRANCH   1  14
TORSDOF 10


