REMARK SMILES CO[C@H]1CCC[C@@H](c2cc3cc(F)ccc3[nH]2)[N@@H+]1[C@H]1C(=O)c2ccccc21
REMARK SMILES IDX 3 1 4 2 5 3 6 4 7 5 18 6 2 8 1 9 19 10 20 11 27 12 22 13
REMARK SMILES IDX 26 14 23 15 25 16 24 17 21 18 8 19 9 20 17 21 10 22 16 23
REMARK SMILES IDX 11 24 15 25 12 26 14 27 13 29
REMARK H PARENT 18 7 17 28
ROOT
ATOM      1  C   UNL     1      -1.613   2.645  -0.087  1.00  0.00     0.323 C 
ATOM      2  C   UNL     1      -0.726   3.847   0.286  1.00  0.00     0.098 C 
ATOM      3  C   UNL     1       0.584   3.815  -0.486  1.00  0.00     0.015 C 
ATOM      4  C   UNL     1       1.299   2.502  -0.210  1.00  0.00     0.072 C 
ATOM      5  C   UNL     1       0.401   1.300  -0.570  1.00  0.00     0.234 C 
ATOM      6  N   UNL     1      -0.916   1.345   0.159  1.00  0.00    -0.290 N 
ATOM      7  H   UNL     1      -0.723   1.292   1.188  1.00  0.00     0.351 HD
ENDROOT
BRANCH   1   8
ATOM      8  O   UNL     1      -2.782   2.724   0.721  1.00  0.00    -0.332 OA
ATOM      9  C   UNL     1      -3.865   3.257  -0.010  1.00  0.00     0.202 C 
ENDBRANCH   1   8
BRANCH   6  10
ATOM     10  C   UNL     1      -1.869   0.228  -0.172  1.00  0.00     0.291 C 
ATOM     11  C   UNL     1      -1.886  -0.198  -1.562  1.00  0.00     0.225 C 
ATOM     12  C   UNL     1      -1.459  -1.090   0.299  1.00  0.00     0.029 A 
ATOM     13  C   UNL     1      -1.494  -1.542  -1.028  1.00  0.00     0.034 A 
ATOM     14  C   UNL     1      -1.143  -1.902   1.371  1.00  0.00     0.011 A 
ATOM     15  C   UNL     1      -1.192  -2.844  -1.383  1.00  0.00     0.012 A 
ATOM     16  C   UNL     1      -0.821  -3.241   1.042  1.00  0.00     0.001 A 
ATOM     17  C   UNL     1      -0.843  -3.704  -0.312  1.00  0.00     0.001 A 
ATOM     18  O   UNL     1      -2.136   0.311  -2.686  1.00  0.00    -0.287 OA
ENDBRANCH   6  10
BRANCH   5  19
ATOM     19  C   UNL     1       1.198   0.050  -0.271  1.00  0.00     0.074 A 
ATOM     20  C   UNL     1       1.664  -0.846  -1.231  1.00  0.00     0.038 A 
ATOM     21  N   UNL     1       1.567  -0.337   0.975  1.00  0.00    -0.354 N 
ATOM     22  C   UNL     1       2.312  -1.827  -0.515  1.00  0.00     0.003 A 
ATOM     23  C   UNL     1       2.237  -1.489   0.811  1.00  0.00     0.046 A 
ATOM     24  C   UNL     1       2.928  -3.002  -0.941  1.00  0.00     0.049 A 
ATOM     25  C   UNL     1       2.775  -2.303   1.806  1.00  0.00     0.030 A 
ATOM     26  C   UNL     1       3.483  -3.844   0.040  1.00  0.00     0.123 A 
ATOM     27  C   UNL     1       3.407  -3.496   1.408  1.00  0.00     0.041 A 
ATOM     28  H   UNL     1       1.352   0.141   1.878  1.00  0.00     0.166 HD
ATOM     29  F   UNL     1       4.090  -4.999  -0.329  1.00  0.00    -0.207 F 
ENDBRANCH   5  19
TORSDOF 3


