REMARK SMILES [NH-]C(=O)c1ccc(C2CC2)c(F)c1CCC(=O)c1ccccc1
REMARK SMILES IDX 4 1 5 2 6 3 7 4 11 5 12 6 13 7 2 8 3 9 1 10 14 12 15 13
REMARK SMILES IDX 16 14 17 15 18 16 19 17 23 18 20 19 22 20 21 21 8 22 9 23
REMARK SMILES IDX 10 24
REMARK H PARENT 1 11
ROOT
ATOM      1  C   UNL     1      -0.340   1.698   1.580  1.00  0.00     0.005 A 
ATOM      2  C   UNL     1       0.223   0.859   2.554  1.00  0.00     0.011 A 
ATOM      3  C   UNL     1       1.477   0.283   2.362  1.00  0.00     0.008 A 
ATOM      4  C   UNL     1       2.189   0.514   1.181  1.00  0.00    -0.009 A 
ATOM      5  C   UNL     1       1.645   1.359   0.200  1.00  0.00     0.130 A 
ATOM      6  F   UNL     1       2.348   1.597  -0.939  1.00  0.00    -0.206 F 
ATOM      7  C   UNL     1       0.368   1.935   0.370  1.00  0.00    -0.002 A 
ENDROOT
BRANCH   1   8
ATOM      8  C   UNL     1      -1.653   2.304   1.877  1.00  0.00     0.080 C 
ATOM      9  O   UNL     1      -2.599   1.581   2.292  1.00  0.00    -0.315 OA
BRANCH   8  10
ATOM     10  N   UNL     1      -1.837   3.715   1.786  1.00  0.00    -0.664 NA
ATOM     11  H   UNL     1      -2.755   4.153   2.021  1.00  0.00    -0.121 HD
ENDBRANCH   8  10
ENDBRANCH   1   8
BRANCH   7  12
ATOM     12  C   UNL     1      -0.250   2.672  -0.805  1.00  0.00     0.047 C 
BRANCH  12  13
ATOM     13  C   UNL     1      -0.761   1.710  -1.890  1.00  0.00     0.086 C 
BRANCH  13  14
ATOM     14  C   UNL     1      -1.889   0.841  -1.388  1.00  0.00     0.163 C 
ATOM     15  O   UNL     1      -3.069   1.258  -1.548  1.00  0.00    -0.294 OA
BRANCH  14  16
ATOM     16  C   UNL     1      -1.665  -0.431  -0.644  1.00  0.00     0.017 A 
ATOM     17  C   UNL     1      -2.678  -0.927   0.200  1.00  0.00     0.012 A 
ATOM     18  C   UNL     1      -0.456  -1.151  -0.741  1.00  0.00     0.012 A 
ATOM     19  C   UNL     1      -2.476  -2.091   0.947  1.00  0.00     0.001 A 
ATOM     20  C   UNL     1      -0.261  -2.315   0.008  1.00  0.00     0.001 A 
ATOM     21  C   UNL     1      -1.267  -2.782   0.855  1.00  0.00     0.000 A 
ENDBRANCH  14  16
ENDBRANCH  13  14
ENDBRANCH  12  13
ENDBRANCH   7  12
BRANCH   4  22
ATOM     22  C   UNL     1       3.562  -0.081   1.001  1.00  0.00     0.022 C 
ATOM     23  C   UNL     1       3.651  -1.590   1.194  1.00  0.00     0.009 C 
ATOM     24  C   UNL     1       3.712  -1.002  -0.203  1.00  0.00     0.009 C 
ENDBRANCH   4  22
TORSDOF 7


